REMARK SMILES CC1(C)COCCN1C(=O)N1CCO[C@@H](CC(=O)OCCOCCOCCOCCOC(=O)c2ccc(-c3c4nc(c(-c5c(F)cccc5F)c5ccc([nH]5)c(-c5c(F)cccc5F)c5nc(c(-c6c(F)cccc6F)c6ccc3[nH]6)C=C5)C=C4)cc2)C1
REMARK SMILES IDX 24 1 23 2 22 3 21 4 20 5 19 6 17 7 18 8 16 9 15 10 11 11
REMARK SMILES IDX 12 12 88 13 13 14 14 15 9 16 10 17 8 18 1 19 2 20 3 21 4 22
REMARK SMILES IDX 5 23 7 24 6 25 25 26 26 27 27 28 28 29 29 30 30 31 31 32
REMARK SMILES IDX 32 33 33 34 34 35 35 36 87 37 36 38 86 39 37 40 38 41 39 42
REMARK SMILES IDX 80 43 40 44 85 45 79 46 81 47 41 48 84 49 78 50 77 51 42 53
REMARK SMILES IDX 68 54 51 55 67 56 52 57 55 58 66 59 82 60 53 61 54 62 65 64
REMARK SMILES IDX 83 65 56 66 43 67 44 68 49 69 45 70 46 71 48 72 50 73 47 74
REMARK SMILES IDX 69 75 70 76 75 77 71 78 72 79 74 80 76 81 73 82 57 83 58 84
REMARK SMILES IDX 63 85 59 86 60 87 62 88 64 89 61 90
REMARK H PARENT 81 52 55 63
REMARK Flexibility Score: inf
ROOT
ATOM      1  C   UNL     1      -4.012  -0.321  -3.339  1.00  0.00     0.188 C 
ENDROOT
BRANCH   1   2
ATOM      2  C   UNL     1      -4.540  -0.236  -1.896  1.00  0.00     0.188 C 
BRANCH   2   3
ATOM      3  O   UNL     1      -4.681   1.101  -1.446  1.00  0.00    -0.376 OA
BRANCH   3   4
ATOM      4  C   UNL     1      -3.735   1.575  -0.509  1.00  0.00     0.202 C 
BRANCH   4   5
ATOM      5  C   UNL     1      -2.246   1.563  -0.866  1.00  0.00     0.261 C 
BRANCH   5   6
ATOM      6  O   UNL     1      -1.773   0.536  -1.756  1.00  0.00    -0.463 OA
BRANCH   6   7
ATOM      7  C   UNL     1      -1.381  -0.666  -1.303  1.00  0.00     0.308 C 
ATOM      8  O   UNL     1      -1.426  -0.996  -0.125  1.00  0.00    -0.252 OA
BRANCH   7   9
ATOM      9  C   UNL     1      -0.936  -1.606  -2.421  1.00  0.00     0.156 C 
BRANCH   9  10
ATOM     10  C   UNL     1      -0.449  -1.015  -3.767  1.00  0.00     0.149 C 
ATOM     11  N   UNL     1       1.788   0.075  -3.411  1.00  0.00    -0.320 N 
ATOM     12  C   UNL     1       2.405  -0.944  -4.251  1.00  0.00     0.150 C 
ATOM     13  C   UNL     1       0.388   0.291  -3.784  1.00  0.00     0.154 C 
ATOM     14  C   UNL     1       1.604  -2.243  -4.165  1.00  0.00     0.182 C 
ATOM     15  O   UNL     1       0.226  -2.053  -4.534  1.00  0.00    -0.374 OA
BRANCH  11  16
ATOM     16  C   UNL     1       2.560   1.174  -3.101  1.00  0.00     0.320 C 
ATOM     17  O   UNL     1       2.995   1.894  -4.000  1.00  0.00    -0.248 OA
BRANCH  16  18
ATOM     18  N   UNL     1       2.814   1.416  -1.747  1.00  0.00    -0.315 N 
ATOM     19  C   UNL     1       3.155   0.734   0.682  1.00  0.00     0.037 C 
ATOM     20  C   UNL     1       2.207   0.752  -0.542  1.00  0.00     0.062 C 
ATOM     21  C   UNL     1       1.845  -0.717  -0.724  1.00  0.00     0.037 C 
ATOM     22  C   UNL     1       0.987   1.630  -0.191  1.00  0.00     0.188 C 
ATOM     23  O   UNL     1       1.381   2.976   0.150  1.00  0.00    -0.377 OA
ATOM     24  C   UNL     1       3.275   2.776  -1.441  1.00  0.00     0.150 C 
ATOM     25  C   UNL     1       2.085   3.614  -0.935  1.00  0.00     0.182 C 
ENDBRANCH  16  18
ENDBRANCH  11  16
ENDBRANCH   9  10
ENDBRANCH   7   9
ENDBRANCH   6   7
ENDBRANCH   5   6
ENDBRANCH   4   5
ENDBRANCH   3   4
ENDBRANCH   2   3
ENDBRANCH   1   2
BRANCH   1  26
ATOM     26  O   UNL     1      -3.223   0.781  -3.762  1.00  0.00    -0.377 OA
BRANCH  26  27
ATOM     27  C   UNL     1      -3.864   1.982  -4.183  1.00  0.00     0.188 C 
BRANCH  27  28
ATOM     28  C   UNL     1      -5.356   2.243  -3.890  1.00  0.00     0.188 C 
BRANCH  28  29
ATOM     29  O   UNL     1      -6.184   1.095  -3.947  1.00  0.00    -0.376 OA
BRANCH  29  30
ATOM     30  C   UNL     1      -6.824   0.748  -5.165  1.00  0.00     0.202 C 
BRANCH  30  31
ATOM     31  C   UNL     1      -5.963   0.539  -6.423  1.00  0.00     0.261 C 
BRANCH  31  32
ATOM     32  O   UNL     1      -5.174   1.653  -6.867  1.00  0.00    -0.460 OA
BRANCH  32  33
ATOM     33  C   UNL     1      -5.770   2.852  -7.013  1.00  0.00     0.338 C 
ATOM     34  O   UNL     1      -6.955   3.115  -6.898  1.00  0.00    -0.246 OA
BRANCH  33  35
ATOM     35  C   UNL     1      -4.703   3.863  -7.147  1.00  0.00     0.060 A 
ATOM     36  C   UNL     1      -4.653   4.936  -6.245  1.00  0.00     0.016 A 
ATOM     37  C   UNL     1      -3.774   3.759  -8.184  1.00  0.00     0.016 A 
ATOM     38  C   UNL     1      -3.715   5.951  -6.421  1.00  0.00     0.010 A 
ATOM     39  C   UNL     1      -2.857   4.790  -8.378  1.00  0.00     0.010 A 
ATOM     40  C   UNL     1      -2.866   5.915  -7.533  1.00  0.00    -0.014 A 
BRANCH  40  41
ATOM     41  C   UNL     1      -2.228   7.162  -8.008  1.00  0.00     0.031 A 
ATOM     42  C   UNL     1      -2.953   7.939  -9.074  1.00  0.00     0.074 A 
ATOM     43  C   UNL     1      -1.050   7.591  -7.530  1.00  0.00     0.049 A 
ATOM     44  N   UNL     1      -2.551   8.960  -9.782  1.00  0.00    -0.248 NA
ATOM     45  C   UNL     1      -4.319   7.486  -9.393  1.00  0.00     0.031 C 
ATOM     46  C   UNL     1      -0.291   6.964  -6.451  1.00  0.00     0.029 A 
ATOM     47  N   UNL     1      -0.275   8.655  -7.919  1.00  0.00    -0.354 N 
ATOM     48  C   UNL     1      -3.601   9.253 -10.644  1.00  0.00     0.074 A 
ATOM     49  C   UNL     1      -4.650   8.293 -10.387  1.00  0.00     0.031 C 
ATOM     50  C   UNL     1       0.859   7.641  -6.282  1.00  0.00     0.029 A 
ATOM     51  C   UNL     1       0.934   8.715  -7.272  1.00  0.00     0.049 A 
ATOM     52  H   UNL     1      -0.559   9.311  -8.596  1.00  0.00     0.167 HD
ATOM     53  C   UNL     1      -3.683  10.237 -11.568  1.00  0.00     0.037 A 
ATOM     54  C   UNL     1       1.991   9.522  -7.490  1.00  0.00     0.037 A 
ATOM     55  C   UNL     1      -2.634  11.188 -11.815  1.00  0.00     0.049 A 
ATOM     56  C   UNL     1       1.914  10.559  -8.584  1.00  0.00     0.074 A 
ATOM     57  C   UNL     1      -2.611  12.227 -12.726  1.00  0.00     0.029 A 
ATOM     58  N   UNL     1      -1.420  11.208 -11.146  1.00  0.00    -0.354 N 
ATOM     59  N   UNL     1       0.923  10.831  -9.399  1.00  0.00    -0.248 NA
ATOM     60  C   UNL     1       3.103  11.398  -8.790  1.00  0.00     0.031 C 
ATOM     61  C   UNL     1      -1.360  12.844 -12.646  1.00  0.00     0.029 A 
ATOM     62  C   UNL     1      -0.631  12.231 -11.638  1.00  0.00     0.049 A 
ATOM     63  H   UNL     1      -1.159  10.586 -10.428  1.00  0.00     0.167 HD
ATOM     64  C   UNL     1       1.351  11.898 -10.181  1.00  0.00     0.074 A 
ATOM     65  C   UNL     1       2.693  12.221  -9.746  1.00  0.00     0.031 C 
ATOM     66  C   UNL     1       0.691  12.557 -11.165  1.00  0.00     0.037 A 
BRANCH  53  67
ATOM     67  C   UNL     1      -4.928  10.303 -12.402  1.00  0.00     0.057 A 
ATOM     68  C   UNL     1      -6.163  10.691 -11.868  1.00  0.00     0.134 A 
ATOM     69  C   UNL     1      -4.884   9.988 -13.766  1.00  0.00     0.134 A 
ATOM     70  F   UNL     1      -6.278  10.986 -10.564  1.00  0.00    -0.206 F 
ATOM     71  C   UNL     1      -7.315  10.741 -12.655  1.00  0.00     0.040 A 
ATOM     72  C   UNL     1      -6.022  10.063 -14.570  1.00  0.00     0.040 A 
ATOM     73  F   UNL     1      -3.734   9.607 -14.342  1.00  0.00    -0.206 F 
ATOM     74  C   UNL     1      -7.244  10.434 -14.013  1.00  0.00     0.006 A 
ENDBRANCH  53  67
BRANCH  54  75
ATOM     75  C   UNL     1       3.226   9.371  -6.678  1.00  0.00     0.057 A 
ATOM     76  C   UNL     1       3.633  10.367  -5.783  1.00  0.00     0.134 A 
ATOM     77  C   UNL     1       4.043   8.239  -6.795  1.00  0.00     0.134 A 
ATOM     78  F   UNL     1       2.907  11.486  -5.644  1.00  0.00    -0.206 F 
ATOM     79  C   UNL     1       4.815  10.254  -5.049  1.00  0.00     0.040 A 
ATOM     80  C   UNL     1       5.213   8.100  -6.046  1.00  0.00     0.040 A 
ATOM     81  F   UNL     1       3.712   7.249  -7.637  1.00  0.00    -0.206 F 
ATOM     82  C   UNL     1       5.606   9.114  -5.176  1.00  0.00     0.006 A 
ENDBRANCH  54  75
BRANCH  66  83
ATOM     83  C   UNL     1       1.364  13.744 -11.789  1.00  0.00     0.057 A 
ATOM     84  C   UNL     1       2.431  13.612 -12.685  1.00  0.00     0.134 A 
ATOM     85  C   UNL     1       0.870  15.035 -11.555  1.00  0.00     0.134 A 
ATOM     86  F   UNL     1       2.955  12.405 -12.946  1.00  0.00    -0.206 F 
ATOM     87  C   UNL     1       2.990  14.724 -13.319  1.00  0.00     0.040 A 
ATOM     88  C   UNL     1       1.401  16.149 -12.203  1.00  0.00     0.040 A 
ATOM     89  F   UNL     1      -0.160  15.228 -10.717  1.00  0.00    -0.206 F 
ATOM     90  C   UNL     1       2.466  15.995 -13.087  1.00  0.00     0.006 A 
ENDBRANCH  66  83
ENDBRANCH  40  41
ENDBRANCH  33  35
ENDBRANCH  32  33
ENDBRANCH  31  32
ENDBRANCH  30  31
ENDBRANCH  29  30
ENDBRANCH  28  29
ENDBRANCH  27  28
ENDBRANCH  26  27
ENDBRANCH   1  26
TORSDOF 23
