REMARK SMILES Cc1cc(N2CCOC[C@H]2C(=O)OCCOCCOCCOCCOC(=O)c2ccc(-c3c4nc(c(-c5c(F)cccc5F)c5ccc([nH]5)c(-c5c(F)cccc5F)c5nc(c(-c6c(F)cccc6F)c6ccc3[nH]6)C=C5)C=C4)cc2)ncc1[N+](=O)[O-]
REMARK SMILES IDX 19 1 18 2 17 3 16 4 15 5 14 6 13 7 11 8 12 9 10 10 5 11 6 12
REMARK SMILES IDX 7 13 9 14 8 15 4 16 1 17 2 18 3 19 84 20 83 21 82 22 85 23
REMARK SMILES IDX 86 24 87 25 20 26 21 27 22 28 23 29 24 30 25 31 26 32 27 33
REMARK SMILES IDX 28 34 29 35 81 36 30 37 80 38 31 39 32 40 33 41 74 42 34 43
REMARK SMILES IDX 79 44 73 45 75 46 35 47 78 48 72 49 71 50 36 52 62 53 45 54
REMARK SMILES IDX 61 55 46 56 49 57 60 58 76 59 47 60 48 61 59 63 77 64 50 65
REMARK SMILES IDX 37 66 38 67 43 68 39 69 40 70 42 71 44 72 41 73 63 74 64 75
REMARK SMILES IDX 69 76 65 77 66 78 68 79 70 80 67 81 51 82 52 83 57 84 53 85
REMARK SMILES IDX 54 86 56 87 58 88 55 89
REMARK H PARENT 75 51 49 62
REMARK Flexibility Score: inf
ROOT
ATOM      1  O   UNL     1       0.219   4.570  -2.432  1.00  0.00    -0.377 OA
ENDROOT
BRANCH   1   2
ATOM      2  C   UNL     1      -0.375   3.649  -1.540  1.00  0.00     0.188 C 
BRANCH   2   3
ATOM      3  C   UNL     1      -1.389   4.288  -0.582  1.00  0.00     0.188 C 
BRANCH   3   4
ATOM      4  O   UNL     1      -1.698   5.628  -0.908  1.00  0.00    -0.376 OA
BRANCH   4   5
ATOM      5  C   UNL     1      -0.793   6.664  -0.555  1.00  0.00     0.202 C 
BRANCH   5   6
ATOM      6  C   UNL     1       0.705   6.485  -0.211  1.00  0.00     0.261 C 
BRANCH   6   7
ATOM      7  O   UNL     1       1.197   5.197   0.185  1.00  0.00    -0.462 OA
BRANCH   7   8
ATOM      8  C   UNL     1       1.090   4.823   1.480  1.00  0.00     0.331 C 
ATOM      9  O   UNL     1       0.515   5.494   2.333  1.00  0.00    -0.250 OA
BRANCH   8  10
ATOM     10  C   UNL     1       1.795   3.491   1.802  1.00  0.00     0.220 C 
ATOM     11  N   UNL     1       1.953   2.510   0.696  1.00  0.00    -0.339 N 
ATOM     12  C   UNL     1       3.012   2.773  -0.295  1.00  0.00     0.147 C 
ATOM     13  C   UNL     1       4.311   3.215   0.381  1.00  0.00     0.181 C 
ATOM     14  C   UNL     1       3.183   3.853   2.358  1.00  0.00     0.197 C 
ATOM     15  O   UNL     1       4.094   4.273   1.327  1.00  0.00    -0.377 OA
BRANCH  11  16
ATOM     16  C   UNL     1       1.304   1.294   0.648  1.00  0.00     0.130 A 
ATOM     17  C   UNL     1      -2.287   0.055   0.576  1.00  0.00     0.052 C 
ATOM     18  C   UNL     1      -0.783   0.003   0.571  1.00  0.00     0.032 A 
ATOM     19  C   UNL     1      -0.077   1.194   0.850  1.00  0.00     0.057 A 
ATOM     20  C   UNL     1      -0.027  -1.115   0.198  1.00  0.00     0.290 A 
ATOM     21  C   UNL     1       1.348  -0.969   0.085  1.00  0.00     0.199 A 
ATOM     22  N   UNL     1       2.005   0.206   0.272  1.00  0.00    -0.232 NA
BRANCH  20  23
ATOM     23  N   UNL     1      -0.594  -2.428  -0.104  1.00  0.00     0.064 N 
ATOM     24  O   UNL     1       0.160  -3.407  -0.014  1.00  0.00    -0.258 OA
ATOM     25  O   UNL     1      -1.780  -2.494  -0.451  1.00  0.00    -0.258 OA
ENDBRANCH  20  23
ENDBRANCH  11  16
ENDBRANCH   8  10
ENDBRANCH   7   8
ENDBRANCH   6   7
ENDBRANCH   5   6
ENDBRANCH   4   5
ENDBRANCH   3   4
ENDBRANCH   2   3
ENDBRANCH   1   2
BRANCH   1  26
ATOM     26  C   UNL     1      -0.489   4.872  -3.622  1.00  0.00     0.188 C 
BRANCH  26  27
ATOM     27  C   UNL     1      -2.010   4.624  -3.757  1.00  0.00     0.188 C 
BRANCH  27  28
ATOM     28  O   UNL     1      -2.513   3.482  -3.073  1.00  0.00    -0.376 OA
BRANCH  28  29
ATOM     29  C   UNL     1      -2.866   2.336  -3.829  1.00  0.00     0.202 C 
BRANCH  29  30
ATOM     30  C   UNL     1      -1.696   1.472  -4.319  1.00  0.00     0.261 C 
BRANCH  30  31
ATOM     31  O   UNL     1      -0.723   2.158  -5.117  1.00  0.00    -0.460 OA
BRANCH  31  32
ATOM     32  C   UNL     1      -1.145   2.639  -6.306  1.00  0.00     0.338 C 
ATOM     33  O   UNL     1      -2.262   2.554  -6.786  1.00  0.00    -0.246 OA
BRANCH  32  34
ATOM     34  C   UNL     1      -0.052   3.454  -6.864  1.00  0.00     0.060 A 
ATOM     35  C   UNL     1      -0.267   4.823  -7.073  1.00  0.00     0.016 A 
ATOM     36  C   UNL     1       1.190   2.876  -7.136  1.00  0.00     0.016 A 
ATOM     37  C   UNL     1       0.762   5.619  -7.573  1.00  0.00     0.010 A 
ATOM     38  C   UNL     1       2.207   3.665  -7.671  1.00  0.00     0.010 A 
ATOM     39  C   UNL     1       1.987   5.032  -7.917  1.00  0.00    -0.014 A 
BRANCH  39  40
ATOM     40  C   UNL     1       2.947   5.778  -8.761  1.00  0.00     0.031 A 
ATOM     41  C   UNL     1       2.856   5.585 -10.249  1.00  0.00     0.074 A 
ATOM     42  C   UNL     1       3.878   6.588  -8.229  1.00  0.00     0.049 A 
ATOM     43  N   UNL     1       3.642   6.027 -11.194  1.00  0.00    -0.248 NA
ATOM     44  C   UNL     1       1.725   4.774 -10.733  1.00  0.00     0.031 C 
ATOM     45  C   UNL     1       4.032   6.889  -6.807  1.00  0.00     0.029 A 
ATOM     46  N   UNL     1       4.889   7.292  -8.835  1.00  0.00    -0.354 N 
ATOM     47  C   UNL     1       3.110   5.537 -12.380  1.00  0.00     0.074 A 
ATOM     48  C   UNL     1       1.946   4.751 -12.038  1.00  0.00     0.031 C 
ATOM     49  C   UNL     1       5.098   7.695  -6.647  1.00  0.00     0.029 A 
ATOM     50  C   UNL     1       5.720   7.933  -7.948  1.00  0.00     0.049 A 
ATOM     51  H   UNL     1       5.008   7.333  -9.812  1.00  0.00     0.167 HD
ATOM     52  C   UNL     1       3.554   5.726 -13.643  1.00  0.00     0.037 A 
ATOM     53  C   UNL     1       6.870   8.601  -8.168  1.00  0.00     0.037 A 
ATOM     54  C   UNL     1       4.713   6.507 -13.976  1.00  0.00     0.049 A 
ATOM     55  C   UNL     1       7.386   8.735  -9.581  1.00  0.00     0.074 A 
ATOM     56  C   UNL     1       5.236   6.778 -15.227  1.00  0.00     0.029 A 
ATOM     57  N   UNL     1       5.533   7.133 -13.050  1.00  0.00    -0.354 N 
ATOM     58  N   UNL     1       6.862   8.295 -10.700  1.00  0.00    -0.248 NA
ATOM     59  C   UNL     1       8.655   9.457  -9.762  1.00  0.00     0.031 C 
ATOM     60  C   UNL     1       6.406   7.521 -15.056  1.00  0.00     0.029 A 
ATOM     61  C   UNL     1       6.575   7.768 -13.702  1.00  0.00     0.049 A 
ATOM     62  H   UNL     1       5.394   7.128 -12.076  1.00  0.00     0.167 HD
ATOM     63  C   UNL     1       7.712   8.721 -11.715  1.00  0.00     0.074 A 
ATOM     64  C   UNL     1       8.783   9.459 -11.081  1.00  0.00     0.031 C 
ATOM     65  C   UNL     1       7.616   8.522 -13.053  1.00  0.00     0.037 A 
BRANCH  52  66
ATOM     66  C   UNL     1       2.808   5.050 -14.753  1.00  0.00     0.057 A 
ATOM     67  C   UNL     1       1.541   5.479 -15.165  1.00  0.00     0.134 A 
ATOM     68  C   UNL     1       3.392   3.986 -15.452  1.00  0.00     0.134 A 
ATOM     69  F   UNL     1       0.919   6.480 -14.523  1.00  0.00    -0.206 F 
ATOM     70  C   UNL     1       0.875   4.866 -16.228  1.00  0.00     0.040 A 
ATOM     71  C   UNL     1       2.748   3.383 -16.533  1.00  0.00     0.040 A 
ATOM     72  F   UNL     1       4.603   3.525 -15.105  1.00  0.00    -0.206 F 
ATOM     73  C   UNL     1       1.484   3.822 -16.922  1.00  0.00     0.006 A 
ENDBRANCH  52  66
BRANCH  53  74
ATOM     74  C   UNL     1       7.647   9.165  -7.032  1.00  0.00     0.057 A 
ATOM     75  C   UNL     1       7.825  10.546  -6.883  1.00  0.00     0.134 A 
ATOM     76  C   UNL     1       8.282   8.333  -6.101  1.00  0.00     0.134 A 
ATOM     77  F   UNL     1       7.264  11.396  -7.757  1.00  0.00    -0.206 F 
ATOM     78  C   UNL     1       8.630  11.077  -5.874  1.00  0.00     0.040 A 
ATOM     79  C   UNL     1       9.066   8.852  -5.068  1.00  0.00     0.040 A 
ATOM     80  F   UNL     1       8.155   7.000  -6.185  1.00  0.00    -0.206 F 
ATOM     81  C   UNL     1       9.252  10.228  -4.960  1.00  0.00     0.006 A 
ENDBRANCH  53  74
BRANCH  65  82
ATOM     82  C   UNL     1       8.655   9.158 -13.931  1.00  0.00     0.057 A 
ATOM     83  C   UNL     1       9.970   8.684 -13.992  1.00  0.00     0.134 A 
ATOM     84  C   UNL     1       8.307  10.216 -14.781  1.00  0.00     0.134 A 
ATOM     85  F   UNL     1      10.369   7.679 -13.198  1.00  0.00    -0.206 F 
ATOM     86  C   UNL     1      10.908   9.251 -14.857  1.00  0.00     0.040 A 
ATOM     87  C   UNL     1       9.228  10.771 -15.671  1.00  0.00     0.040 A 
ATOM     88  F   UNL     1       7.059  10.709 -14.782  1.00  0.00    -0.206 F 
ATOM     89  C   UNL     1      10.535  10.291 -15.706  1.00  0.00     0.006 A 
ENDBRANCH  65  82
ENDBRANCH  39  40
ENDBRANCH  32  34
ENDBRANCH  31  32
ENDBRANCH  30  31
ENDBRANCH  29  30
ENDBRANCH  28  29
ENDBRANCH  27  28
ENDBRANCH  26  27
ENDBRANCH   1  26
TORSDOF 22
