REMARK SMILES COc1ccc(N2C(=O)N=C(OCCOCCOCCOCCOC(=O)c3ccc(-c4c5nc(c(-c6c(F)cccc6F)c6ccc([nH]6)c(-c6c(F)cccc6F)c6nc(c(-c7c(F)cccc7F)c7ccc4[nH]7)C=C6)C=C5)cc3)/C(=C\c3cc(Cl)c(OCC(=O)[O-])c(Cl)c3)C2=O)cc1
REMARK SMILES IDX 17 1 16 2 15 3 14 4 13 5 12 6 11 7 7 8 8 9 96 10 9 11 10 12
REMARK SMILES IDX 81 13 97 14 82 15 6 16 3 17 4 18 99 19 5 20 98 21 2 22 1 23
REMARK SMILES IDX 83 24 84 25 95 26 85 27 93 28 86 29 87 30 94 31 88 32 89 33
REMARK SMILES IDX 90 34 91 35 92 36 18 37 19 38 20 39 21 40 22 41 23 42 24 43
REMARK SMILES IDX 25 44 26 45 27 46 28 47 80 48 29 49 79 50 30 51 31 52 32 53
REMARK SMILES IDX 73 54 33 55 78 56 72 57 74 58 34 59 77 60 71 61 70 62 35 64
REMARK SMILES IDX 61 65 44 66 60 67 45 68 48 69 59 70 75 71 46 72 47 73 58 75
REMARK SMILES IDX 76 76 49 77 36 78 37 79 42 80 38 81 39 82 41 83 43 84 40 85
REMARK SMILES IDX 62 86 63 87 68 88 64 89 65 90 67 91 69 92 66 93 50 94 51 95
REMARK SMILES IDX 56 96 52 97 53 98 55 99 57 100 54 101
REMARK H PARENT 74 63 48 74
REMARK Flexibility Score: inf
ROOT
ATOM      1  C   UNL     1       4.659   6.127  -5.423  1.00  0.00     0.188 C 
ENDROOT
BRANCH   1   2
ATOM      2  C   UNL     1       3.748   4.887  -5.447  1.00  0.00     0.188 C 
BRANCH   2   3
ATOM      3  O   UNL     1       4.178   3.739  -6.169  1.00  0.00    -0.376 OA
BRANCH   3   4
ATOM      4  C   UNL     1       4.744   3.974  -7.451  1.00  0.00     0.201 C 
BRANCH   4   5
ATOM      5  C   UNL     1       3.953   4.839  -8.475  1.00  0.00     0.260 C 
BRANCH   5   6
ATOM      6  O   UNL     1       3.055   4.097  -9.321  1.00  0.00    -0.475 OA
BRANCH   6   7
ATOM      7  C   UNL     1       2.404   3.176  -8.597  1.00  0.00     0.231 C 
ATOM      8  N   UNL     1       1.774   1.629  -6.508  1.00  0.00    -0.226 N 
ATOM      9  C   UNL     1       1.053   2.805  -6.806  1.00  0.00     0.358 C 
ATOM     10  C   UNL     1       2.720   1.050  -7.378  1.00  0.00     0.272 C 
ATOM     11  O   UNL     1       0.134   3.228  -6.108  1.00  0.00    -0.245 OA
ATOM     12  N   UNL     1       1.460   3.585  -7.846  1.00  0.00    -0.156 NA
ATOM     13  C   UNL     1       3.045   1.855  -8.619  1.00  0.00     0.103 C 
ATOM     14  O   UNL     1       3.284  -0.029  -7.190  1.00  0.00    -0.268 OA
ATOM     15  C   UNL     1       4.036   1.476  -9.486  1.00  0.00     0.027 C 
BRANCH   8  16
ATOM     16  C   UNL     1       1.520   1.038  -5.210  1.00  0.00     0.054 A 
ATOM     17  C   UNL     1       0.965   0.117  -2.580  1.00  0.00     0.119 A 
ATOM     18  C   UNL     1      -0.067   0.345  -3.485  1.00  0.00     0.048 A 
ATOM     19  C   UNL     1       2.281   0.343  -2.984  1.00  0.00     0.048 A 
ATOM     20  C   UNL     1       0.205   0.817  -4.774  1.00  0.00     0.031 A 
ATOM     21  C   UNL     1       2.559   0.787  -4.297  1.00  0.00     0.031 A 
BRANCH  17  22
ATOM     22  O   UNL     1       0.581  -0.421  -1.384  1.00  0.00    -0.497 OA
ATOM     23  C   UNL     1       1.220   0.097  -0.225  1.00  0.00     0.278 C 
ENDBRANCH  17  22
ENDBRANCH   8  16
BRANCH  15  24
ATOM     24  C   UNL     1       4.774   2.328 -10.491  1.00  0.00    -0.021 A 
ATOM     25  C   UNL     1       4.229   2.730 -11.712  1.00  0.00     0.032 A 
ATOM     26  C   UNL     1       6.048   2.846 -10.169  1.00  0.00     0.032 A 
ATOM     27  C   UNL     1       4.873   3.713 -12.502  1.00  0.00     0.085 A 
ATOM     28  C   UNL     1       6.667   3.863 -10.932  1.00  0.00     0.085 A 
ATOM     29  Cl  UNL     1       4.160   4.109 -14.030  1.00  0.00    -0.080 Cl
ATOM     30  C   UNL     1       6.049   4.359 -12.080  1.00  0.00     0.157 A 
ATOM     31  Cl  UNL     1       8.213   4.425 -10.400  1.00  0.00    -0.080 Cl
BRANCH  30  32
ATOM     32  O   UNL     1       6.571   5.334 -12.892  1.00  0.00    -0.485 OA
BRANCH  32  33
ATOM     33  C   UNL     1       6.817   6.620 -12.337  1.00  0.00     0.282 C 
BRANCH  33  34
ATOM     34  C   UNL     1       5.880   7.260 -11.316  1.00  0.00     0.079 C 
ATOM     35  O   UNL     1       6.000   7.208 -10.102  1.00  0.00    -0.546 OA
ATOM     36  O   UNL     1       4.868   7.958 -11.869  1.00  0.00    -0.546 OA
ENDBRANCH  33  34
ENDBRANCH  32  33
ENDBRANCH  30  32
ENDBRANCH  15  24
ENDBRANCH   6   7
ENDBRANCH   5   6
ENDBRANCH   4   5
ENDBRANCH   3   4
ENDBRANCH   2   3
ENDBRANCH   1   2
BRANCH   1  37
ATOM     37  O   UNL     1       5.288   6.379  -6.671  1.00  0.00    -0.377 OA
BRANCH  37  38
ATOM     38  C   UNL     1       6.697   6.588  -6.632  1.00  0.00     0.188 C 
BRANCH  38  39
ATOM     39  C   UNL     1       7.655   5.356  -6.603  1.00  0.00     0.188 C 
BRANCH  39  40
ATOM     40  O   UNL     1       7.582   4.373  -5.585  1.00  0.00    -0.376 OA
BRANCH  40  41
ATOM     41  C   UNL     1       7.557   4.701  -4.210  1.00  0.00     0.202 C 
BRANCH  41  42
ATOM     42  C   UNL     1       8.366   5.865  -3.602  1.00  0.00     0.261 C 
BRANCH  42  43
ATOM     43  O   UNL     1       8.504   7.041  -4.410  1.00  0.00    -0.460 OA
BRANCH  43  44
ATOM     44  C   UNL     1       9.682   7.172  -5.085  1.00  0.00     0.338 C 
ATOM     45  O   UNL     1      10.652   6.458  -4.987  1.00  0.00    -0.246 OA
BRANCH  44  46
ATOM     46  C   UNL     1       9.506   8.180  -6.173  1.00  0.00     0.060 A 
ATOM     47  C   UNL     1       9.921   7.836  -7.472  1.00  0.00     0.016 A 
ATOM     48  C   UNL     1       8.892   9.413  -5.945  1.00  0.00     0.016 A 
ATOM     49  C   UNL     1       9.761   8.733  -8.533  1.00  0.00     0.010 A 
ATOM     50  C   UNL     1       8.769  10.327  -6.998  1.00  0.00     0.010 A 
ATOM     51  C   UNL     1       9.239  10.007  -8.286  1.00  0.00    -0.014 A 
BRANCH  51  52
ATOM     52  C   UNL     1       9.454  11.106  -9.261  1.00  0.00     0.031 A 
ATOM     53  C   UNL     1      10.715  11.914  -9.114  1.00  0.00     0.074 A 
ATOM     54  C   UNL     1       8.562  11.420 -10.216  1.00  0.00     0.049 A 
ATOM     55  N   UNL     1      11.068  13.027  -9.701  1.00  0.00    -0.248 NA
ATOM     56  C   UNL     1      11.707  11.397  -8.155  1.00  0.00     0.031 C 
ATOM     57  C   UNL     1       7.334  10.686 -10.504  1.00  0.00     0.029 A 
ATOM     58  N   UNL     1       8.548  12.465 -11.109  1.00  0.00    -0.354 N 
ATOM     59  C   UNL     1      12.307  13.354  -9.166  1.00  0.00     0.074 A 
ATOM     60  C   UNL     1      12.641  12.331  -8.201  1.00  0.00     0.031 C 
ATOM     61  C   UNL     1       6.673  11.314 -11.494  1.00  0.00     0.029 A 
ATOM     62  C   UNL     1       7.404  12.526 -11.869  1.00  0.00     0.049 A 
ATOM     63  H   UNL     1       9.288  13.109 -11.196  1.00  0.00     0.167 HD
ATOM     64  C   UNL     1      13.094  14.419  -9.443  1.00  0.00     0.037 A 
ATOM     65  C   UNL     1       6.981  13.476 -12.729  1.00  0.00     0.037 A 
ATOM     66  C   UNL     1      12.749  15.449 -10.383  1.00  0.00     0.049 A 
ATOM     67  C   UNL     1       7.831  14.705 -12.957  1.00  0.00     0.074 A 
ATOM     68  C   UNL     1      13.471  16.577 -10.728  1.00  0.00     0.029 A 
ATOM     69  N   UNL     1      11.574  15.482 -11.119  1.00  0.00    -0.354 N 
ATOM     70  N   UNL     1       8.999  15.012 -12.445  1.00  0.00    -0.248 NA
ATOM     71  C   UNL     1       7.298  15.727 -13.873  1.00  0.00     0.031 C 
ATOM     72  C   UNL     1      12.707  17.322 -11.630  1.00  0.00     0.029 A 
ATOM     73  C   UNL     1      11.542  16.622 -11.901  1.00  0.00     0.049 A 
ATOM     74  H   UNL     1      10.869  14.796 -11.089  1.00  0.00     0.167 HD
ATOM     75  C   UNL     1       9.356  16.235 -13.006  1.00  0.00     0.074 A 
ATOM     76  C   UNL     1       8.281  16.616 -13.896  1.00  0.00     0.031 C 
ATOM     77  C   UNL     1      10.477  16.972 -12.806  1.00  0.00     0.037 A 
BRANCH  64  78
ATOM     78  C   UNL     1      14.375  14.544  -8.674  1.00  0.00     0.057 A 
ATOM     79  C   UNL     1      15.455  13.676  -8.880  1.00  0.00     0.134 A 
ATOM     80  C   UNL     1      14.531  15.552  -7.713  1.00  0.00     0.134 A 
ATOM     81  F   UNL     1      15.363  12.675  -9.769  1.00  0.00    -0.206 F 
ATOM     82  C   UNL     1      16.633  13.788  -8.139  1.00  0.00     0.040 A 
ATOM     83  C   UNL     1      15.714  15.694  -6.989  1.00  0.00     0.040 A 
ATOM     84  F   UNL     1      13.535  16.416  -7.465  1.00  0.00    -0.206 F 
ATOM     85  C   UNL     1      16.767  14.805  -7.195  1.00  0.00     0.006 A 
ENDBRANCH  64  78
BRANCH  65  86
ATOM     86  C   UNL     1       5.670  13.336 -13.421  1.00  0.00     0.057 A 
ATOM     87  C   UNL     1       5.596  13.179 -14.810  1.00  0.00     0.134 A 
ATOM     88  C   UNL     1       4.460  13.399 -12.718  1.00  0.00     0.134 A 
ATOM     89  F   UNL     1       6.717  13.143 -15.546  1.00  0.00    -0.206 F 
ATOM     90  C   UNL     1       4.371  13.107 -15.477  1.00  0.00     0.040 A 
ATOM     91  C   UNL     1       3.228  13.299 -13.368  1.00  0.00     0.040 A 
ATOM     92  F   UNL     1       4.457  13.552 -11.386  1.00  0.00    -0.206 F 
ATOM     93  C   UNL     1       3.181  13.162 -14.753  1.00  0.00     0.006 A 
ENDBRANCH  65  86
BRANCH  77  94
ATOM     94  C   UNL     1      10.648  18.228 -13.614  1.00  0.00     0.057 A 
ATOM     95  C   UNL     1       9.911  19.390 -13.359  1.00  0.00     0.134 A 
ATOM     96  C   UNL     1      11.636  18.294 -14.607  1.00  0.00     0.134 A 
ATOM     97  F   UNL     1       8.945  19.392 -12.428  1.00  0.00    -0.206 F 
ATOM     98  C   UNL     1      10.141  20.569 -14.071  1.00  0.00     0.040 A 
ATOM     99  C   UNL     1      11.895  19.474 -15.304  1.00  0.00     0.040 A 
ATOM    100  F   UNL     1      12.388  17.220 -14.892  1.00  0.00    -0.206 F 
ATOM    101  C   UNL     1      11.144  20.616 -15.038  1.00  0.00     0.006 A 
ENDBRANCH  77  94
ENDBRANCH  51  52
ENDBRANCH  44  46
ENDBRANCH  43  44
ENDBRANCH  42  43
ENDBRANCH  41  42
ENDBRANCH  40  41
ENDBRANCH  39  40
ENDBRANCH  38  39
ENDBRANCH  37  38
ENDBRANCH   1  37
TORSDOF 25
