REMARK SMILES O=C(OCCOCCOCCOCCOC(=O)C1(C/C=C/c2ccccc2)CCCCC1)c1ccc(-c2c3nc(c(-c4c(F)cccc4F)c4ccc([nH]4)c(-c4c(F)cccc4F)c4nc(c(-c5c(F)cccc5F)c5ccc2[nH]5)C=C4)C=C3)cc1
REMARK SMILES IDX 10 1 9 2 8 3 7 4 6 5 5 6 4 7 3 8 2 9 1 10 33 11 34 12 86 13
REMARK SMILES IDX 35 14 85 15 36 16 37 17 38 18 79 19 39 20 84 21 78 22 80 23
REMARK SMILES IDX 40 24 83 25 77 26 76 27 41 29 67 30 50 31 66 32 51 33 54 34
REMARK SMILES IDX 65 35 81 36 52 37 53 38 64 40 82 41 55 42 42 43 43 44 48 45
REMARK SMILES IDX 44 46 45 47 47 48 49 49 46 50 68 51 69 52 74 53 70 54 71 55
REMARK SMILES IDX 73 56 75 57 72 58 56 59 57 60 62 61 58 62 59 63 61 64 63 65
REMARK SMILES IDX 60 66 11 67 12 68 13 69 14 70 15 71 16 72 17 73 18 74 28 75
REMARK SMILES IDX 32 76 29 77 31 78 30 79 19 80 20 81 21 82 22 83 23 84 27 85
REMARK SMILES IDX 24 86 26 87 25 88
REMARK H PARENT 80 28 54 39
REMARK Flexibility Score: inf
ROOT
ATOM      1  C   UNL     1       4.686   0.702  -3.192  1.00  0.00     0.188 C 
ENDROOT
BRANCH   1   2
ATOM      2  O   UNL     1       3.361   0.321  -3.557  1.00  0.00    -0.377 OA
BRANCH   2   3
ATOM      3  C   UNL     1       2.304   0.397  -2.621  1.00  0.00     0.188 C 
BRANCH   3   4
ATOM      4  C   UNL     1       2.538  -0.373  -1.338  1.00  0.00     0.188 C 
BRANCH   4   5
ATOM      5  O   UNL     1       3.800  -0.012  -0.818  1.00  0.00    -0.376 OA
BRANCH   5   6
ATOM      6  C   UNL     1       4.549  -0.915  -0.036  1.00  0.00     0.202 C 
BRANCH   6   7
ATOM      7  C   UNL     1       3.779  -1.831   0.889  1.00  0.00     0.261 C 
BRANCH   7   8
ATOM      8  O   UNL     1       2.453  -1.435   1.323  1.00  0.00    -0.460 OA
BRANCH   8   9
ATOM      9  C   UNL     1       1.855  -0.328   1.803  1.00  0.00     0.338 C 
ATOM     10  O   UNL     1       0.628  -0.318   1.922  1.00  0.00    -0.246 OA
BRANCH   9  11
ATOM     11  C   UNL     1       2.588   0.853   2.301  1.00  0.00     0.060 A 
ATOM     12  C   UNL     1       3.536   1.554   1.571  1.00  0.00     0.016 A 
ATOM     13  C   UNL     1       2.194   1.385   3.533  1.00  0.00     0.016 A 
ATOM     14  C   UNL     1       4.302   2.547   2.141  1.00  0.00     0.010 A 
ATOM     15  C   UNL     1       2.858   2.493   4.067  1.00  0.00     0.010 A 
ATOM     16  C   UNL     1       3.982   3.009   3.408  1.00  0.00    -0.014 A 
BRANCH  16  17
ATOM     17  C   UNL     1       4.975   3.855   4.091  1.00  0.00     0.031 A 
ATOM     18  C   UNL     1       5.683   3.255   5.270  1.00  0.00     0.074 A 
ATOM     19  C   UNL     1       5.363   5.027   3.557  1.00  0.00     0.049 A 
ATOM     20  N   UNL     1       6.503   3.808   6.118  1.00  0.00    -0.248 NA
ATOM     21  C   UNL     1       5.427   1.825   5.531  1.00  0.00     0.031 C 
ATOM     22  C   UNL     1       4.859   5.599   2.303  1.00  0.00     0.029 A 
ATOM     23  N   UNL     1       6.312   5.921   3.968  1.00  0.00    -0.354 N 
ATOM     24  C   UNL     1       6.791   2.821   7.052  1.00  0.00     0.074 A 
ATOM     25  C   UNL     1       6.071   1.632   6.669  1.00  0.00     0.031 C 
ATOM     26  C   UNL     1       5.546   6.716   2.021  1.00  0.00     0.029 A 
ATOM     27  C   UNL     1       6.453   6.997   3.126  1.00  0.00     0.049 A 
ATOM     28  H   UNL     1       6.843   5.805   4.788  1.00  0.00     0.167 HD
ATOM     29  C   UNL     1       7.582   2.918   8.143  1.00  0.00     0.037 A 
ATOM     30  C   UNL     1       7.202   8.104   3.270  1.00  0.00     0.037 A 
ATOM     31  C   UNL     1       8.323   4.108   8.454  1.00  0.00     0.049 A 
ATOM     32  C   UNL     1       8.017   8.224   4.528  1.00  0.00     0.074 A 
ATOM     33  C   UNL     1       9.104   4.385   9.557  1.00  0.00     0.029 A 
ATOM     34  N   UNL     1       8.380   5.221   7.623  1.00  0.00    -0.354 N 
ATOM     35  N   UNL     1       8.180   7.348   5.494  1.00  0.00    -0.248 NA
ATOM     36  C   UNL     1       8.727   9.490   4.736  1.00  0.00     0.031 C 
ATOM     37  C   UNL     1       9.604   5.684   9.411  1.00  0.00     0.029 A 
ATOM     38  C   UNL     1       9.178   6.194   8.192  1.00  0.00     0.049 A 
ATOM     39  H   UNL     1       7.919   5.304   6.757  1.00  0.00     0.167 HD
ATOM     40  C   UNL     1       9.025   7.947   6.415  1.00  0.00     0.074 A 
ATOM     41  C   UNL     1       9.355   9.255   5.879  1.00  0.00     0.031 C 
ATOM     42  C   UNL     1       9.487   7.472   7.599  1.00  0.00     0.037 A 
BRANCH  29  43
ATOM     43  C   UNL     1       7.582   1.753   9.088  1.00  0.00     0.057 A 
ATOM     44  C   UNL     1       8.176   0.523   8.777  1.00  0.00     0.134 A 
ATOM     45  C   UNL     1       6.896   1.847  10.306  1.00  0.00     0.134 A 
ATOM     46  F   UNL     1       8.812   0.350   7.609  1.00  0.00    -0.206 F 
ATOM     47  C   UNL     1       8.058  -0.581   9.627  1.00  0.00     0.040 A 
ATOM     48  C   UNL     1       6.795   0.760  11.176  1.00  0.00     0.040 A 
ATOM     49  F   UNL     1       6.291   2.990  10.661  1.00  0.00    -0.206 F 
ATOM     50  C   UNL     1       7.367  -0.463  10.832  1.00  0.00     0.006 A 
ENDBRANCH  29  43
BRANCH  30  51
ATOM     51  C   UNL     1       7.163   9.189   2.253  1.00  0.00     0.057 A 
ATOM     52  C   UNL     1       8.300   9.547   1.522  1.00  0.00     0.134 A 
ATOM     53  C   UNL     1       5.986   9.906   1.994  1.00  0.00     0.134 A 
ATOM     54  F   UNL     1       9.465   8.916   1.731  1.00  0.00    -0.206 F 
ATOM     55  C   UNL     1       8.275  10.585   0.585  1.00  0.00     0.040 A 
ATOM     56  C   UNL     1       5.937  10.923   1.039  1.00  0.00     0.040 A 
ATOM     57  F   UNL     1       4.856   9.618   2.657  1.00  0.00    -0.206 F 
ATOM     58  C   UNL     1       7.088  11.272   0.337  1.00  0.00     0.006 A 
ENDBRANCH  30  51
BRANCH  42  59
ATOM     59  C   UNL     1      10.437   8.354   8.346  1.00  0.00     0.057 A 
ATOM     60  C   UNL     1      10.008   9.503   9.018  1.00  0.00     0.134 A 
ATOM     61  C   UNL     1      11.794   8.016   8.423  1.00  0.00     0.134 A 
ATOM     62  F   UNL     1       8.722   9.882   8.967  1.00  0.00    -0.206 F 
ATOM     63  C   UNL     1      10.905  10.305   9.723  1.00  0.00     0.040 A 
ATOM     64  C   UNL     1      12.694   8.793   9.149  1.00  0.00     0.040 A 
ATOM     65  F   UNL     1      12.260   6.918   7.808  1.00  0.00    -0.206 F 
ATOM     66  C   UNL     1      12.250   9.945   9.795  1.00  0.00     0.006 A 
ENDBRANCH  42  59
ENDBRANCH  16  17
ENDBRANCH   9  11
ENDBRANCH   8   9
ENDBRANCH   7   8
ENDBRANCH   6   7
ENDBRANCH   5   6
ENDBRANCH   4   5
ENDBRANCH   3   4
ENDBRANCH   2   3
ENDBRANCH   1   2
BRANCH   1  67
ATOM     67  C   UNL     1       4.996   2.164  -2.854  1.00  0.00     0.188 C 
BRANCH  67  68
ATOM     68  O   UNL     1       3.908   2.914  -2.368  1.00  0.00    -0.376 OA
BRANCH  68  69
ATOM     69  C   UNL     1       3.097   3.620  -3.302  1.00  0.00     0.202 C 
BRANCH  69  70
ATOM     70  C   UNL     1       3.208   3.476  -4.838  1.00  0.00     0.261 C 
BRANCH  70  71
ATOM     71  O   UNL     1       3.439   2.159  -5.387  1.00  0.00    -0.463 OA
BRANCH  71  72
ATOM     72  C   UNL     1       4.552   2.035  -6.161  1.00  0.00     0.312 C 
ATOM     73  O   UNL     1       5.336   2.966  -6.346  1.00  0.00    -0.252 OA
BRANCH  72  74
ATOM     74  C   UNL     1       4.779   0.658  -6.851  1.00  0.00     0.071 C 
ATOM     75  C   UNL     1       6.318   0.419  -6.697  1.00  0.00     0.019 C 
ATOM     76  C   UNL     1       4.013  -0.579  -6.309  1.00  0.00     0.019 C 
ATOM     77  C   UNL     1       6.832  -0.969  -7.059  1.00  0.00     0.001 C 
ATOM     78  C   UNL     1       4.537  -1.924  -6.816  1.00  0.00     0.001 C 
ATOM     79  C   UNL     1       6.004  -2.081  -6.436  1.00  0.00     0.000 C 
BRANCH  74  80
ATOM     80  C   UNL     1       4.399   0.893  -8.340  1.00  0.00     0.046 C 
BRANCH  80  81
ATOM     81  C   UNL     1       2.914   1.113  -8.504  1.00  0.00    -0.025 C 
ATOM     82  C   UNL     1       2.343   2.326  -8.471  1.00  0.00     0.004 C 
BRANCH  82  83
ATOM     83  C   UNL     1       0.893   2.503  -8.382  1.00  0.00    -0.026 A 
ATOM     84  C   UNL     1       0.224   3.221  -9.373  1.00  0.00     0.008 A 
ATOM     85  C   UNL     1       0.176   2.013  -7.280  1.00  0.00     0.008 A 
ATOM     86  C   UNL     1      -1.153   3.433  -9.277  1.00  0.00     0.001 A 
ATOM     87  C   UNL     1      -1.200   2.231  -7.182  1.00  0.00     0.001 A 
ATOM     88  C   UNL     1      -1.863   2.940  -8.183  1.00  0.00     0.000 A 
ENDBRANCH  82  83
ENDBRANCH  80  81
ENDBRANCH  74  80
ENDBRANCH  72  74
ENDBRANCH  71  72
ENDBRANCH  70  71
ENDBRANCH  69  70
ENDBRANCH  68  69
ENDBRANCH  67  68
ENDBRANCH   1  67
TORSDOF 23
