REMARK SMILES COc1cc([C@@H]2CC(=O)Nc3c(C(=O)OCCOCCOCCOCCOC(=O)c4ccc(-c5c6nc(c(-c7c(F)cccc7F)c7ccc([nH]7)c(-c7c(F)cccc7F)c7nc(c(-c8c(F)cccc8F)c8ccc5[nH]8)C=C7)C=C6)cc4)cn(-c4ccc(F)cc4)c32)c(OC)c2c1OCO2
REMARK SMILES IDX 21 1 20 2 19 3 18 4 17 5 16 6 15 7 13 8 14 9 12 10 6 11 7 12
REMARK SMILES IDX 93 13 8 14 11 15 85 16 9 17 10 18 84 19 5 21 3 22 4 23 98 24
REMARK SMILES IDX 97 25 99 26 94 27 101 28 100 29 2 30 1 31 95 32 96 33 86 34
REMARK SMILES IDX 87 35 92 36 88 37 91 38 89 39 90 40 22 41 23 42 24 43 25 44
REMARK SMILES IDX 26 45 27 46 28 47 29 48 30 49 31 50 83 51 32 52 82 53 33 54
REMARK SMILES IDX 34 55 35 56 76 57 36 58 81 59 75 60 77 61 37 62 80 63 74 64
REMARK SMILES IDX 73 65 38 67 64 68 47 69 63 70 48 71 51 72 62 73 78 74 49 75
REMARK SMILES IDX 50 76 61 78 79 79 52 80 39 81 40 82 45 83 41 84 42 85 44 86
REMARK SMILES IDX 46 87 43 88 65 89 66 90 71 91 67 92 68 93 70 94 72 95 69 96
REMARK SMILES IDX 53 97 54 98 59 99 55 100 56 101 58 102 60 103 57 104
REMARK H PARENT 10 20 77 66 51 77
REMARK Flexibility Score: inf
ROOT
ATOM      1  O   UNL     1       0.751  11.472   3.313  1.00  0.00    -0.377 OA
ENDROOT
BRANCH   1   2
ATOM      2  C   UNL     1      -0.513  10.957   3.688  1.00  0.00     0.188 C 
BRANCH   2   3
ATOM      3  C   UNL     1      -0.717  10.835   5.212  1.00  0.00     0.188 C 
BRANCH   3   4
ATOM      4  O   UNL     1       0.128  11.588   6.058  1.00  0.00    -0.376 OA
BRANCH   4   5
ATOM      5  C   UNL     1       1.504  11.335   6.266  1.00  0.00     0.202 C 
BRANCH   5   6
ATOM      6  C   UNL     1       2.352  10.199   5.667  1.00  0.00     0.261 C 
BRANCH   6   7
ATOM      7  O   UNL     1       1.732   9.299   4.762  1.00  0.00    -0.460 OA
BRANCH   7   8
ATOM      8  C   UNL     1       0.994   8.315   5.327  1.00  0.00     0.341 C 
ATOM      9  O   UNL     1       0.906   8.113   6.540  1.00  0.00    -0.246 OA
BRANCH   8  10
ATOM     10  C   UNL     1       0.207   7.609   4.338  1.00  0.00     0.102 A 
ATOM     11  C   UNL     1      -0.226   5.768   1.200  1.00  0.00     0.082 C 
ATOM     12  C   UNL     1       0.366   6.788   0.206  1.00  0.00     0.115 C 
ATOM     13  C   UNL     1      -0.392   6.447   2.514  1.00  0.00     0.055 A 
ATOM     14  C   UNL     1       1.480   7.653   0.791  1.00  0.00     0.225 C 
ATOM     15  C   UNL     1       0.436   7.451   2.954  1.00  0.00     0.078 A 
ATOM     16  N   UNL     1      -1.388   6.299   3.448  1.00  0.00    -0.317 N 
ATOM     17  O   UNL     1       2.388   8.094   0.085  1.00  0.00    -0.275 OA
ATOM     18  N   UNL     1       1.374   8.010   2.115  1.00  0.00    -0.324 N 
ATOM     19  C   UNL     1      -1.016   6.999   4.574  1.00  0.00     0.109 A 
ATOM     20  H   UNL     1       1.990   8.688   2.475  1.00  0.00     0.170 HD
BRANCH  11  21
ATOM     21  C   UNL     1       0.648   4.499   1.224  1.00  0.00     0.012 A 
ATOM     22  C   UNL     1       0.974   2.261   0.242  1.00  0.00     0.165 A 
ATOM     23  C   UNL     1       0.185   3.396   0.460  1.00  0.00     0.059 A 
ATOM     24  C   UNL     1       2.261   2.272   0.742  1.00  0.00     0.211 A 
ATOM     25  C   UNL     1       2.721   3.314   1.521  1.00  0.00     0.211 A 
ATOM     26  O   UNL     1       3.227   1.330   0.539  1.00  0.00    -0.449 OA
ATOM     27  C   UNL     1       1.934   4.418   1.814  1.00  0.00     0.168 A 
ATOM     28  O   UNL     1       4.010   3.108   1.923  1.00  0.00    -0.449 OA
ATOM     29  C   UNL     1       4.367   1.967   1.136  1.00  0.00     0.468 C 
BRANCH  22  30
ATOM     30  O   UNL     1       0.399   1.281  -0.514  1.00  0.00    -0.493 OA
ATOM     31  C   UNL     1       0.813  -0.043  -0.193  1.00  0.00     0.278 C 
ENDBRANCH  22  30
BRANCH  27  32
ATOM     32  O   UNL     1       2.312   5.405   2.671  1.00  0.00    -0.492 OA
ATOM     33  C   UNL     1       3.695   5.706   2.801  1.00  0.00     0.278 C 
ENDBRANCH  27  32
ENDBRANCH  11  21
BRANCH  16  34
ATOM     34  C   UNL     1      -2.600   5.603   3.303  1.00  0.00     0.046 A 
ATOM     35  C   UNL     1      -2.574   4.222   3.099  1.00  0.00     0.029 A 
ATOM     36  C   UNL     1      -3.810   6.309   3.371  1.00  0.00     0.029 A 
ATOM     37  C   UNL     1      -3.779   3.536   2.965  1.00  0.00     0.041 A 
ATOM     38  C   UNL     1      -5.009   5.616   3.199  1.00  0.00     0.041 A 
ATOM     39  C   UNL     1      -4.982   4.237   3.005  1.00  0.00     0.123 A 
ATOM     40  F   UNL     1      -6.135   3.572   2.857  1.00  0.00    -0.207 F 
ENDBRANCH  16  34
ENDBRANCH   8  10
ENDBRANCH   7   8
ENDBRANCH   6   7
ENDBRANCH   5   6
ENDBRANCH   4   5
ENDBRANCH   3   4
ENDBRANCH   2   3
ENDBRANCH   1   2
BRANCH   1  41
ATOM     41  C   UNL     1       0.907  12.890   3.295  1.00  0.00     0.188 C 
BRANCH  41  42
ATOM     42  C   UNL     1       0.035  13.835   4.173  1.00  0.00     0.188 C 
BRANCH  42  43
ATOM     43  O   UNL     1      -1.255  13.347   4.508  1.00  0.00    -0.376 OA
BRANCH  43  44
ATOM     44  C   UNL     1      -2.455  13.887   3.992  1.00  0.00     0.202 C 
BRANCH  44  45
ATOM     45  C   UNL     1      -2.723  13.674   2.508  1.00  0.00     0.261 C 
BRANCH  45  46
ATOM     46  O   UNL     1      -1.568  13.852   1.715  1.00  0.00    -0.460 OA
BRANCH  46  47
ATOM     47  C   UNL     1      -1.123  15.116   1.657  1.00  0.00     0.338 C 
ATOM     48  O   UNL     1      -1.521  16.078   2.305  1.00  0.00    -0.246 OA
BRANCH  47  49
ATOM     49  C   UNL     1      -0.153  15.200   0.570  1.00  0.00     0.060 A 
ATOM     50  C   UNL     1       0.426  16.453   0.378  1.00  0.00     0.016 A 
ATOM     51  C   UNL     1      -0.232  14.227  -0.440  1.00  0.00     0.016 A 
ATOM     52  C   UNL     1       0.613  16.860  -0.915  1.00  0.00     0.010 A 
ATOM     53  C   UNL     1      -0.085  14.647  -1.728  1.00  0.00     0.010 A 
ATOM     54  C   UNL     1       0.226  15.987  -1.936  1.00  0.00    -0.014 A 
BRANCH  54  55
ATOM     55  C   UNL     1       0.177  16.501  -3.276  1.00  0.00     0.031 A 
ATOM     56  C   UNL     1       1.509  16.569  -3.894  1.00  0.00     0.074 A 
ATOM     57  C   UNL     1      -0.993  16.775  -3.878  1.00  0.00     0.049 A 
ATOM     58  N   UNL     1       2.169  17.634  -4.195  1.00  0.00    -0.248 NA
ATOM     59  C   UNL     1       2.282  15.320  -3.993  1.00  0.00     0.031 C 
ATOM     60  C   UNL     1      -2.352  16.495  -3.409  1.00  0.00     0.029 A 
ATOM     61  N   UNL     1      -1.195  17.282  -5.119  1.00  0.00    -0.354 N 
ATOM     62  C   UNL     1       3.363  17.176  -4.730  1.00  0.00     0.074 A 
ATOM     63  C   UNL     1       3.469  15.784  -4.381  1.00  0.00     0.031 C 
ATOM     64  C   UNL     1      -3.211  16.625  -4.447  1.00  0.00     0.029 A 
ATOM     65  C   UNL     1      -2.479  17.096  -5.609  1.00  0.00     0.049 A 
ATOM     66  H   UNL     1      -0.490  17.743  -5.629  1.00  0.00     0.167 HD
ATOM     67  C   UNL     1       4.027  17.904  -5.663  1.00  0.00     0.037 A 
ATOM     68  C   UNL     1      -2.843  17.228  -6.909  1.00  0.00     0.037 A 
ATOM     69  C   UNL     1       3.587  19.276  -5.671  1.00  0.00     0.049 A 
ATOM     70  C   UNL     1      -1.793  18.048  -7.579  1.00  0.00     0.074 A 
ATOM     71  C   UNL     1       3.564  20.285  -4.726  1.00  0.00     0.029 A 
ATOM     72  N   UNL     1       2.708  19.660  -6.656  1.00  0.00    -0.354 N 
ATOM     73  N   UNL     1      -1.608  19.317  -7.337  1.00  0.00    -0.248 NA
ATOM     74  C   UNL     1      -0.643  17.354  -8.147  1.00  0.00     0.031 C 
ATOM     75  C   UNL     1       2.345  20.986  -4.959  1.00  0.00     0.029 A 
ATOM     76  C   UNL     1       1.720  20.407  -6.064  1.00  0.00     0.049 A 
ATOM     77  H   UNL     1       2.775  19.439  -7.613  1.00  0.00     0.167 HD
ATOM     78  C   UNL     1      -0.228  19.477  -7.303  1.00  0.00     0.074 A 
ATOM     79  C   UNL     1       0.312  18.256  -7.898  1.00  0.00     0.031 C 
ATOM     80  C   UNL     1       0.351  20.439  -6.524  1.00  0.00     0.037 A 
BRANCH  67  81
ATOM     81  C   UNL     1       4.772  17.278  -6.807  1.00  0.00     0.057 A 
ATOM     82  C   UNL     1       5.605  18.083  -7.597  1.00  0.00     0.134 A 
ATOM     83  C   UNL     1       4.494  15.997  -7.330  1.00  0.00     0.134 A 
ATOM     84  F   UNL     1       5.918  19.331  -7.215  1.00  0.00    -0.206 F 
ATOM     85  C   UNL     1       6.077  17.665  -8.846  1.00  0.00     0.040 A 
ATOM     86  C   UNL     1       5.008  15.548  -8.546  1.00  0.00     0.040 A 
ATOM     87  F   UNL     1       3.632  15.152  -6.753  1.00  0.00    -0.206 F 
ATOM     88  C   UNL     1       5.776  16.395  -9.325  1.00  0.00     0.006 A 
ENDBRANCH  67  81
BRANCH  68  89
ATOM     89  C   UNL     1      -3.842  16.432  -7.662  1.00  0.00     0.057 A 
ATOM     90  C   UNL     1      -4.255  16.820  -8.945  1.00  0.00     0.134 A 
ATOM     91  C   UNL     1      -4.227  15.139  -7.262  1.00  0.00     0.134 A 
ATOM     92  F   UNL     1      -3.907  18.017  -9.440  1.00  0.00    -0.206 F 
ATOM     93  C   UNL     1      -4.982  15.966  -9.786  1.00  0.00     0.040 A 
ATOM     94  C   UNL     1      -4.963  14.282  -8.086  1.00  0.00     0.040 A 
ATOM     95  F   UNL     1      -3.830  14.623  -6.090  1.00  0.00    -0.206 F 
ATOM     96  C   UNL     1      -5.330  14.688  -9.361  1.00  0.00     0.006 A 
ENDBRANCH  68  89
BRANCH  80  97
ATOM     97  C   UNL     1      -0.555  21.463  -5.895  1.00  0.00     0.057 A 
ATOM     98  C   UNL     1      -1.556  21.155  -4.960  1.00  0.00     0.134 A 
ATOM     99  C   UNL     1      -0.316  22.819  -6.135  1.00  0.00     0.134 A 
ATOM    100  F   UNL     1      -1.781  19.892  -4.578  1.00  0.00    -0.206 F 
ATOM    101  C   UNL     1      -2.322  22.146  -4.340  1.00  0.00     0.040 A 
ATOM    102  C   UNL     1      -1.049  23.822  -5.495  1.00  0.00     0.040 A 
ATOM    103  F   UNL     1       0.669  23.196  -6.966  1.00  0.00    -0.206 F 
ATOM    104  C   UNL     1      -2.066  23.487  -4.605  1.00  0.00     0.006 A 
ENDBRANCH  80  97
ENDBRANCH  54  55
ENDBRANCH  47  49
ENDBRANCH  46  47
ENDBRANCH  45  46
ENDBRANCH  44  45
ENDBRANCH  43  44
ENDBRANCH  42  43
ENDBRANCH  41  42
ENDBRANCH   1  41
TORSDOF 24
