REMARK SMILES COc1cc(Cl)ccc1NC(=O)COc1ccccc1C(=O)OCCOCCOCCOCCOC(=O)c1ccc(-c2c3nc(c(-c4c(F)cccc4F)c4ccc([nH]4)c(-c4c(F)cccc4F)c4nc(c(-c5c(F)cccc5F)c5ccc2[nH]5)C=C4)C=C3)cc1
REMARK SMILES IDX 27 1 26 2 25 3 24 4 23 5 21 6 22 7 20 8 15 9 16 10 17 11
REMARK SMILES IDX 19 12 18 13 14 14 13 15 11 16 10 17 12 19 9 20 3 21 4 22
REMARK SMILES IDX 5 23 8 24 6 25 7 26 2 27 1 28 28 29 29 30 30 31 31 32 32 33
REMARK SMILES IDX 33 34 34 35 35 36 36 37 37 38 38 39 39 40 91 41 40 42 90 43
REMARK SMILES IDX 41 44 42 45 43 46 84 47 44 48 89 49 83 50 85 51 45 52 88 53
REMARK SMILES IDX 82 54 81 55 46 57 72 58 55 59 71 60 56 61 59 62 70 63 86 64
REMARK SMILES IDX 57 65 58 66 69 68 87 69 60 70 47 71 48 72 53 73 49 74 50 75
REMARK SMILES IDX 52 76 54 77 51 78 73 79 74 80 79 81 75 82 76 83 78 84 80 85
REMARK SMILES IDX 77 86 61 87 62 88 67 89 63 90 64 91 66 92 68 93 65 94
REMARK H PARENT 10 18 85 56 59 67
REMARK Flexibility Score: inf
ROOT
ATOM      1  C   UNL     1      -3.743  -0.015  -1.622  1.00  0.00     0.188 C 
ENDROOT
BRANCH   1   2
ATOM      2  O   UNL     1      -4.919  -0.827  -1.635  1.00  0.00    -0.376 OA
BRANCH   2   3
ATOM      3  C   UNL     1      -4.903  -2.019  -0.858  1.00  0.00     0.202 C 
BRANCH   3   4
ATOM      4  C   UNL     1      -4.673  -3.266  -1.718  1.00  0.00     0.261 C 
BRANCH   4   5
ATOM      5  O   UNL     1      -3.937  -2.957  -2.915  1.00  0.00    -0.460 OA
BRANCH   5   6
ATOM      6  C   UNL     1      -4.689  -2.634  -3.987  1.00  0.00     0.342 C 
ATOM      7  O   UNL     1      -5.905  -2.743  -4.074  1.00  0.00    -0.246 OA
BRANCH   6   8
ATOM      8  C   UNL     1      -3.882  -1.943  -5.021  1.00  0.00     0.102 A 
ATOM      9  C   UNL     1      -2.628  -2.302  -5.535  1.00  0.00     0.134 A 
ATOM     10  C   UNL     1      -2.080  -1.497  -6.558  1.00  0.00     0.047 A 
ATOM     11  C   UNL     1      -2.734  -0.372  -7.061  1.00  0.00     0.004 A 
ATOM     12  C   UNL     1      -4.519  -0.776  -5.514  1.00  0.00     0.019 A 
ATOM     13  C   UNL     1      -3.954   0.002  -6.524  1.00  0.00     0.001 A 
BRANCH   9  14
ATOM     14  O   UNL     1      -1.759  -3.308  -5.244  1.00  0.00    -0.483 OA
BRANCH  14  15
ATOM     15  C   UNL     1      -2.088  -4.488  -4.545  1.00  0.00     0.329 C 
BRANCH  15  16
ATOM     16  C   UNL     1      -1.628  -4.545  -3.087  1.00  0.00     0.262 C 
ATOM     17  N   UNL     1      -0.627  -3.723  -2.665  1.00  0.00    -0.320 N 
ATOM     18  H   UNL     1      -0.747  -3.378  -1.751  1.00  0.00     0.170 HD
ATOM     19  O   UNL     1      -2.198  -5.273  -2.268  1.00  0.00    -0.271 OA
BRANCH  17  20
ATOM     20  C   UNL     1       0.545  -3.280  -3.301  1.00  0.00     0.084 A 
ATOM     21  C   UNL     1       1.192  -2.169  -2.750  1.00  0.00     0.143 A 
ATOM     22  C   UNL     1       2.379  -1.664  -3.276  1.00  0.00     0.069 A 
ATOM     23  C   UNL     1       2.992  -2.340  -4.316  1.00  0.00     0.044 A 
ATOM     24  C   UNL     1       1.160  -3.937  -4.363  1.00  0.00     0.031 A 
ATOM     25  Cl  UNL     1       4.514  -1.794  -4.901  1.00  0.00    -0.084 Cl
ATOM     26  C   UNL     1       2.391  -3.476  -4.859  1.00  0.00     0.023 A 
BRANCH  21  27
ATOM     27  O   UNL     1       0.639  -1.538  -1.673  1.00  0.00    -0.495 OA
ATOM     28  C   UNL     1       1.094  -2.159  -0.475  1.00  0.00     0.278 C 
ENDBRANCH  21  27
ENDBRANCH  17  20
ENDBRANCH  15  16
ENDBRANCH  14  15
ENDBRANCH   9  14
ENDBRANCH   6   8
ENDBRANCH   5   6
ENDBRANCH   4   5
ENDBRANCH   3   4
ENDBRANCH   2   3
ENDBRANCH   1   2
BRANCH   1  29
ATOM     29  C   UNL     1      -2.367  -0.684  -1.727  1.00  0.00     0.188 C 
BRANCH  29  30
ATOM     30  O   UNL     1      -1.987  -1.478  -0.605  1.00  0.00    -0.377 OA
BRANCH  30  31
ATOM     31  C   UNL     1      -1.824  -0.821   0.653  1.00  0.00     0.188 C 
BRANCH  31  32
ATOM     32  C   UNL     1      -1.188   0.581   0.680  1.00  0.00     0.188 C 
BRANCH  32  33
ATOM     33  O   UNL     1      -0.055   0.637  -0.173  1.00  0.00    -0.376 OA
BRANCH  33  34
ATOM     34  C   UNL     1       0.767   1.787  -0.010  1.00  0.00     0.202 C 
BRANCH  34  35
ATOM     35  C   UNL     1       1.998   1.664  -0.921  1.00  0.00     0.261 C 
BRANCH  35  36
ATOM     36  O   UNL     1       2.728   0.434  -0.708  1.00  0.00    -0.460 OA
BRANCH  36  37
ATOM     37  C   UNL     1       3.704   0.383   0.224  1.00  0.00     0.338 C 
ATOM     38  O   UNL     1       4.085   1.282   0.947  1.00  0.00    -0.246 OA
BRANCH  37  39
ATOM     39  C   UNL     1       4.144  -1.036   0.296  1.00  0.00     0.060 A 
ATOM     40  C   UNL     1       3.681  -1.828   1.355  1.00  0.00     0.016 A 
ATOM     41  C   UNL     1       4.868  -1.628  -0.749  1.00  0.00     0.016 A 
ATOM     42  C   UNL     1       3.886  -3.219   1.341  1.00  0.00     0.010 A 
ATOM     43  C   UNL     1       5.104  -3.016  -0.743  1.00  0.00     0.010 A 
ATOM     44  C   UNL     1       4.616  -3.827   0.303  1.00  0.00    -0.014 A 
BRANCH  44  45
ATOM     45  C   UNL     1       5.170  -5.202   0.504  1.00  0.00     0.031 A 
ATOM     46  C   UNL     1       6.485  -5.274   1.239  1.00  0.00     0.074 A 
ATOM     47  C   UNL     1       4.579  -6.349   0.109  1.00  0.00     0.049 A 
ATOM     48  N   UNL     1       7.261  -6.297   1.487  1.00  0.00    -0.248 NA
ATOM     49  C   UNL     1       6.990  -3.994   1.766  1.00  0.00     0.031 C 
ATOM     50  C   UNL     1       3.277  -6.470  -0.544  1.00  0.00     0.029 A 
ATOM     51  N   UNL     1       5.020  -7.654   0.208  1.00  0.00    -0.354 N 
ATOM     52  C   UNL     1       8.352  -5.776   2.172  1.00  0.00     0.074 A 
ATOM     53  C   UNL     1       8.143  -4.353   2.298  1.00  0.00     0.031 C 
ATOM     54  C   UNL     1       3.031  -7.773  -0.794  1.00  0.00     0.029 A 
ATOM     55  C   UNL     1       4.173  -8.581  -0.358  1.00  0.00     0.049 A 
ATOM     56  H   UNL     1       5.867  -7.900   0.646  1.00  0.00     0.167 HD
ATOM     57  C   UNL     1       9.443  -6.414   2.653  1.00  0.00     0.037 A 
ATOM     58  C   UNL     1       4.317  -9.916  -0.528  1.00  0.00     0.037 A 
ATOM     59  C   UNL     1       9.675  -7.824   2.534  1.00  0.00     0.049 A 
ATOM     60  C   UNL     1       5.576 -10.606  -0.044  1.00  0.00     0.074 A 
ATOM     61  C   UNL     1      10.759  -8.559   2.977  1.00  0.00     0.029 A 
ATOM     62  N   UNL     1       8.806  -8.712   1.920  1.00  0.00    -0.354 N 
ATOM     63  N   UNL     1       6.610 -10.101   0.585  1.00  0.00    -0.248 NA
ATOM     64  C   UNL     1       5.693 -12.052  -0.306  1.00  0.00     0.031 C 
ATOM     65  C   UNL     1      10.567  -9.889   2.592  1.00  0.00     0.029 A 
ATOM     66  C   UNL     1       9.339  -9.988   1.957  1.00  0.00     0.049 A 
ATOM     67  H   UNL     1       7.941  -8.470   1.517  1.00  0.00     0.167 HD
ATOM     68  C   UNL     1       7.482 -11.162   0.813  1.00  0.00     0.074 A 
ATOM     69  C   UNL     1       6.854 -12.345   0.266  1.00  0.00     0.031 C 
ATOM     70  C   UNL     1       8.695 -11.159   1.419  1.00  0.00     0.037 A 
BRANCH  57  71
ATOM     71  C   UNL     1      10.494  -5.555   3.289  1.00  0.00     0.057 A 
ATOM     72  C   UNL     1      10.300  -4.933   4.530  1.00  0.00     0.134 A 
ATOM     73  C   UNL     1      11.699  -5.306   2.620  1.00  0.00     0.134 A 
ATOM     74  F   UNL     1       9.151  -5.103   5.203  1.00  0.00    -0.206 F 
ATOM     75  C   UNL     1      11.251  -4.064   5.065  1.00  0.00     0.040 A 
ATOM     76  C   UNL     1      12.671  -4.464   3.160  1.00  0.00     0.040 A 
ATOM     77  F   UNL     1      11.943  -5.864   1.425  1.00  0.00    -0.206 F 
ATOM     78  C   UNL     1      12.443  -3.831   4.380  1.00  0.00     0.006 A 
ENDBRANCH  57  71
BRANCH  58  79
ATOM     79  C   UNL     1       3.270 -10.712  -1.234  1.00  0.00     0.057 A 
ATOM     80  C   UNL     1       2.518 -11.693  -0.572  1.00  0.00     0.134 A 
ATOM     81  C   UNL     1       3.042 -10.557  -2.607  1.00  0.00     0.134 A 
ATOM     82  F   UNL     1       2.718 -11.931   0.732  1.00  0.00    -0.206 F 
ATOM     83  C   UNL     1       1.588 -12.490  -1.248  1.00  0.00     0.040 A 
ATOM     84  C   UNL     1       2.098 -11.329  -3.291  1.00  0.00     0.040 A 
ATOM     85  F   UNL     1       3.742  -9.655  -3.312  1.00  0.00    -0.206 F 
ATOM     86  C   UNL     1       1.371 -12.304  -2.611  1.00  0.00     0.006 A 
ENDBRANCH  58  79
BRANCH  70  87
ATOM     87  C   UNL     1       9.415 -12.469   1.565  1.00  0.00     0.057 A 
ATOM     88  C   UNL     1      10.031 -13.103   0.479  1.00  0.00     0.134 A 
ATOM     89  C   UNL     1       9.561 -13.062   2.827  1.00  0.00     0.134 A 
ATOM     90  F   UNL     1       9.928 -12.590  -0.756  1.00  0.00    -0.206 F 
ATOM     91  C   UNL     1      10.753 -14.288   0.641  1.00  0.00     0.040 A 
ATOM     92  C   UNL     1      10.300 -14.232   3.005  1.00  0.00     0.040 A 
ATOM     93  F   UNL     1       9.009 -12.498   3.912  1.00  0.00    -0.206 F 
ATOM     94  C   UNL     1      10.896 -14.851   1.908  1.00  0.00     0.006 A 
ENDBRANCH  70  87
ENDBRANCH  44  45
ENDBRANCH  37  39
ENDBRANCH  36  37
ENDBRANCH  35  36
ENDBRANCH  34  35
ENDBRANCH  33  34
ENDBRANCH  32  33
ENDBRANCH  31  32
ENDBRANCH  30  31
ENDBRANCH  29  30
ENDBRANCH   1  29
TORSDOF 25
