REMARK SMILES CCN(Cc1cn(CC)nc1C)C(=O)c1ccn([C@@H](C)C(=O)OCCOCCOCCOCCOC(=O)c2ccc(-c3c4nc(c(-c5c(F)cccc5F)c5ccc([nH]5)c(-c5c(F)cccc5F)c5nc(c(-c6c(F)cccc6F)c6ccc3[nH]6)C=C5)C=C4)cc2)n1
REMARK SMILES IDX 27 1 26 2 25 3 24 4 23 5 21 6 22 7 19 8 20 9 18 10 15 11
REMARK SMILES IDX 16 12 92 13 17 14 13 15 14 16 3 17 2 18 1 19 4 20 5 21 6 22
REMARK SMILES IDX 11 23 7 24 10 25 12 26 8 27 9 28 28 29 29 30 30 31 31 32
REMARK SMILES IDX 32 33 33 34 34 35 35 36 36 37 37 38 38 39 39 40 91 41 40 42
REMARK SMILES IDX 90 43 41 44 42 45 43 46 84 47 44 48 89 49 83 50 85 51 45 52
REMARK SMILES IDX 88 53 82 54 81 55 46 57 72 58 55 59 71 60 56 61 59 62 70 63
REMARK SMILES IDX 86 64 57 65 58 66 69 68 87 69 60 70 47 71 48 72 53 73 49 74
REMARK SMILES IDX 50 75 52 76 54 77 51 78 73 79 74 80 79 81 75 82 76 83 78 84
REMARK SMILES IDX 80 85 77 86 61 87 62 88 67 89 63 90 64 91 66 92 68 93 65 94
REMARK H PARENT 85 56 59 67
REMARK Flexibility Score: inf
ROOT
ATOM      1  C   UNL     1       7.778  -3.474   4.961  1.00  0.00     0.188 C 
ENDROOT
BRANCH   1   2
ATOM      2  O   UNL     1       8.484  -4.309   5.872  1.00  0.00    -0.376 OA
BRANCH   2   3
ATOM      3  C   UNL     1       7.780  -5.064   6.846  1.00  0.00     0.202 C 
BRANCH   3   4
ATOM      4  C   UNL     1       6.879  -4.322   7.841  1.00  0.00     0.261 C 
BRANCH   4   5
ATOM      5  O   UNL     1       5.816  -3.541   7.254  1.00  0.00    -0.462 OA
BRANCH   5   6
ATOM      6  C   UNL     1       5.877  -2.196   7.423  1.00  0.00     0.330 C 
ATOM      7  O   UNL     1       6.790  -1.637   8.030  1.00  0.00    -0.250 OA
BRANCH   6   8
ATOM      8  C   UNL     1       4.700  -1.395   6.884  1.00  0.00     0.213 C 
ATOM      9  C   UNL     1       3.865  -0.880   8.047  1.00  0.00     0.046 C 
BRANCH   8  10
ATOM     10  N   UNL     1       3.856  -1.998   5.846  1.00  0.00    -0.258 N 
ATOM     11  C   UNL     1       2.941  -2.110   3.909  1.00  0.00     0.150 A 
ATOM     12  C   UNL     1       2.904  -3.405   4.480  1.00  0.00     0.056 A 
ATOM     13  N   UNL     1       3.498  -1.239   4.776  1.00  0.00    -0.167 NA
ATOM     14  C   UNL     1       3.344  -3.261   5.775  1.00  0.00     0.110 A 
BRANCH  11  15
ATOM     15  C   UNL     1       2.580  -1.745   2.524  1.00  0.00     0.274 C 
ATOM     16  O   UNL     1       3.468  -1.516   1.700  1.00  0.00    -0.267 OA
BRANCH  15  17
ATOM     17  N   UNL     1       1.220  -1.715   2.153  1.00  0.00    -0.333 N 
BRANCH  17  18
ATOM     18  C   UNL     1       0.910  -1.409   0.756  1.00  0.00     0.117 C 
ATOM     19  C   UNL     1       1.048   0.069   0.421  1.00  0.00     0.027 C 
ENDBRANCH  17  18
BRANCH  17  20
ATOM     20  C   UNL     1       0.096  -1.822   3.088  1.00  0.00     0.159 C 
BRANCH  20  21
ATOM     21  C   UNL     1      -0.156  -3.244   3.472  1.00  0.00     0.012 A 
ATOM     22  C   UNL     1      -0.126  -3.751   4.759  1.00  0.00     0.114 A 
ATOM     23  C   UNL     1      -0.443  -4.388   2.670  1.00  0.00     0.064 A 
ATOM     24  N   UNL     1      -0.110  -5.109   4.634  1.00  0.00    -0.272 N 
ATOM     25  N   UNL     1      -0.380  -5.522   3.384  1.00  0.00    -0.178 NA
ATOM     26  C   UNL     1      -0.722  -4.467   1.215  1.00  0.00     0.069 C 
BRANCH  24  27
ATOM     27  C   UNL     1       0.403  -6.044   5.618  1.00  0.00     0.141 C 
ATOM     28  C   UNL     1      -0.658  -6.959   6.192  1.00  0.00     0.029 C 
ENDBRANCH  24  27
ENDBRANCH  20  21
ENDBRANCH  17  20
ENDBRANCH  15  17
ENDBRANCH  11  15
ENDBRANCH   8  10
ENDBRANCH   6   8
ENDBRANCH   5   6
ENDBRANCH   4   5
ENDBRANCH   3   4
ENDBRANCH   2   3
ENDBRANCH   1   2
BRANCH   1  29
ATOM     29  C   UNL     1       6.424  -3.912   4.379  1.00  0.00     0.188 C 
BRANCH  29  30
ATOM     30  O   UNL     1       5.952  -5.176   4.814  1.00  0.00    -0.377 OA
BRANCH  30  31
ATOM     31  C   UNL     1       6.103  -6.231   3.871  1.00  0.00     0.188 C 
BRANCH  31  32
ATOM     32  C   UNL     1       7.501  -6.405   3.248  1.00  0.00     0.188 C 
BRANCH  32  33
ATOM     33  O   UNL     1       8.018  -5.224   2.631  1.00  0.00    -0.376 OA
BRANCH  33  34
ATOM     34  C   UNL     1       7.990  -5.140   1.211  1.00  0.00     0.202 C 
BRANCH  34  35
ATOM     35  C   UNL     1       6.648  -4.689   0.629  1.00  0.00     0.261 C 
BRANCH  35  36
ATOM     36  O   UNL     1       5.552  -5.543   0.945  1.00  0.00    -0.460 OA
BRANCH  36  37
ATOM     37  C   UNL     1       5.680  -6.840   0.602  1.00  0.00     0.338 C 
ATOM     38  O   UNL     1       6.644  -7.378   0.092  1.00  0.00    -0.246 OA
BRANCH  37  39
ATOM     39  C   UNL     1       4.407  -7.528   0.854  1.00  0.00     0.060 A 
ATOM     40  C   UNL     1       4.369  -8.874   0.489  1.00  0.00     0.016 A 
ATOM     41  C   UNL     1       3.242  -6.804   1.151  1.00  0.00     0.016 A 
ATOM     42  C   UNL     1       3.157  -9.409   0.129  1.00  0.00     0.010 A 
ATOM     43  C   UNL     1       2.027  -7.347   0.804  1.00  0.00     0.010 A 
ATOM     44  C   UNL     1       2.027  -8.588   0.177  1.00  0.00    -0.014 A 
BRANCH  44  45
ATOM     45  C   UNL     1       0.889  -9.018  -0.604  1.00  0.00     0.031 A 
ATOM     46  C   UNL     1       0.049 -10.060   0.001  1.00  0.00     0.074 A 
ATOM     47  C   UNL     1       0.618  -8.481  -1.808  1.00  0.00     0.049 A 
ATOM     48  N   UNL     1      -0.149 -11.263  -0.424  1.00  0.00    -0.248 NA
ATOM     49  C   UNL     1      -0.597  -9.739   1.279  1.00  0.00     0.031 C 
ATOM     50  C   UNL     1       1.168  -7.259  -2.402  1.00  0.00     0.029 A 
ATOM     51  N   UNL     1      -0.301  -8.891  -2.723  1.00  0.00    -0.354 N 
ATOM     52  C   UNL     1      -1.091 -11.805   0.438  1.00  0.00     0.074 A 
ATOM     53  C   UNL     1      -1.242 -10.876   1.531  1.00  0.00     0.031 C 
ATOM     54  C   UNL     1       0.420  -6.919  -3.476  1.00  0.00     0.029 A 
ATOM     55  C   UNL     1      -0.569  -7.959  -3.709  1.00  0.00     0.049 A 
ATOM     56  H   UNL     1      -0.736  -9.773  -2.687  1.00  0.00     0.167 HD
ATOM     57  C   UNL     1      -1.843 -12.881   0.090  1.00  0.00     0.037 A 
ATOM     58  C   UNL     1      -1.593  -8.008  -4.593  1.00  0.00     0.037 A 
ATOM     59  C   UNL     1      -1.266 -13.637  -0.986  1.00  0.00     0.049 A 
ATOM     60  C   UNL     1      -2.078  -9.409  -4.659  1.00  0.00     0.074 A 
ATOM     61  C   UNL     1      -0.061 -14.288  -1.176  1.00  0.00     0.029 A 
ATOM     62  N   UNL     1      -1.836 -13.551  -2.232  1.00  0.00    -0.354 N 
ATOM     63  N   UNL     1      -1.424 -10.398  -5.204  1.00  0.00    -0.248 NA
ATOM     64  C   UNL     1      -3.157  -9.800  -3.762  1.00  0.00     0.031 C 
ATOM     65  C   UNL     1       0.235 -14.138  -2.562  1.00  0.00     0.029 A 
ATOM     66  C   UNL     1      -0.810 -13.409  -3.131  1.00  0.00     0.049 A 
ATOM     67  H   UNL     1      -2.798 -13.586  -2.440  1.00  0.00     0.167 HD
ATOM     68  C   UNL     1      -1.732 -11.503  -4.423  1.00  0.00     0.074 A 
ATOM     69  C   UNL     1      -2.885 -11.099  -3.628  1.00  0.00     0.031 C 
ATOM     70  C   UNL     1      -0.859 -12.545  -4.288  1.00  0.00     0.037 A 
BRANCH  57  71
ATOM     71  C   UNL     1      -3.263 -13.046   0.541  1.00  0.00     0.057 A 
ATOM     72  C   UNL     1      -3.889 -14.297   0.447  1.00  0.00     0.134 A 
ATOM     73  C   UNL     1      -4.113 -11.957   0.827  1.00  0.00     0.134 A 
ATOM     74  F   UNL     1      -3.187 -15.394   0.129  1.00  0.00    -0.206 F 
ATOM     75  C   UNL     1      -5.271 -14.449   0.608  1.00  0.00     0.040 A 
ATOM     76  C   UNL     1      -5.483 -12.105   1.044  1.00  0.00     0.040 A 
ATOM     77  F   UNL     1      -3.674 -10.691   0.815  1.00  0.00    -0.206 F 
ATOM     78  C   UNL     1      -6.071 -13.353   0.912  1.00  0.00     0.006 A 
ENDBRANCH  57  71
BRANCH  58  79
ATOM     79  C   UNL     1      -2.348  -6.873  -5.166  1.00  0.00     0.057 A 
ATOM     80  C   UNL     1      -3.161  -7.040  -6.294  1.00  0.00     0.134 A 
ATOM     81  C   UNL     1      -2.487  -5.652  -4.480  1.00  0.00     0.134 A 
ATOM     82  F   UNL     1      -3.140  -8.188  -6.986  1.00  0.00    -0.206 F 
ATOM     83  C   UNL     1      -4.066  -6.054  -6.711  1.00  0.00     0.040 A 
ATOM     84  C   UNL     1      -3.374  -4.655  -4.894  1.00  0.00     0.040 A 
ATOM     85  F   UNL     1      -1.831  -5.417  -3.335  1.00  0.00    -0.206 F 
ATOM     86  C   UNL     1      -4.177  -4.859  -6.008  1.00  0.00     0.006 A 
ENDBRANCH  58  79
BRANCH  70  87
ATOM     87  C   UNL     1       0.307 -12.610  -5.231  1.00  0.00     0.057 A 
ATOM     88  C   UNL     1       1.327 -11.648  -5.268  1.00  0.00     0.134 A 
ATOM     89  C   UNL     1       0.485 -13.754  -6.019  1.00  0.00     0.134 A 
ATOM     90  F   UNL     1       1.294 -10.574  -4.467  1.00  0.00    -0.206 F 
ATOM     91  C   UNL     1       2.449 -11.796  -6.090  1.00  0.00     0.040 A 
ATOM     92  C   UNL     1       1.616 -13.928  -6.820  1.00  0.00     0.040 A 
ATOM     93  F   UNL     1      -0.420 -14.746  -5.986  1.00  0.00    -0.206 F 
ATOM     94  C   UNL     1       2.598 -12.941  -6.866  1.00  0.00     0.006 A 
ENDBRANCH  70  87
ENDBRANCH  44  45
ENDBRANCH  37  39
ENDBRANCH  36  37
ENDBRANCH  35  36
ENDBRANCH  34  35
ENDBRANCH  33  34
ENDBRANCH  32  33
ENDBRANCH  31  32
ENDBRANCH  30  31
ENDBRANCH  29  30
ENDBRANCH   1  29
TORSDOF 27
