REMARK SMILES CN1C(=O)C[C@@H](C(=O)OCCOCCOCCOCCOC(=O)c2ccc(-c3c4nc(c(-c5c(F)cccc5F)c5ccc([nH]5)c(-c5c(F)cccc5F)c5nc(c(-c6c(F)cccc6F)c6ccc3[nH]6)C=C5)C=C4)cc2)C12CCN(S(=O)(=O)c1ccccc1F)CC2
REMARK SMILES IDX 15 1 14 2 13 3 12 4 11 5 10 6 9 7 7 8 8 9 6 10 1 11 2 12
REMARK SMILES IDX 3 13 78 14 4 15 5 16 79 17 93 18 80 19 92 20 81 21 82 22
REMARK SMILES IDX 83 23 84 24 85 25 86 26 90 27 87 28 89 29 91 30 88 31 16 32
REMARK SMILES IDX 17 33 18 34 19 35 20 36 21 37 22 38 23 39 24 40 25 41 77 42
REMARK SMILES IDX 26 43 76 44 27 45 28 46 29 47 70 48 30 49 75 50 69 51 71 52
REMARK SMILES IDX 31 53 74 54 68 55 67 56 32 58 58 59 41 60 57 61 42 62 45 63
REMARK SMILES IDX 56 64 72 65 43 66 44 67 55 69 73 70 46 71 33 72 34 73 39 74
REMARK SMILES IDX 35 75 36 76 38 77 40 78 37 79 59 80 60 81 65 82 61 83 62 84
REMARK SMILES IDX 64 85 66 86 63 87 47 88 48 89 53 90 49 91 50 92 52 93 54 94
REMARK SMILES IDX 51 95
REMARK H PARENT 71 57 45 68
REMARK Flexibility Score: inf
ROOT
ATOM      1  O   UNL     1      -0.197  -0.275   5.409  1.00  0.00    -0.377 OA
ENDROOT
BRANCH   1   2
ATOM      2  C   UNL     1       0.036   0.777   6.326  1.00  0.00     0.188 C 
BRANCH   2   3
ATOM      3  C   UNL     1      -1.196   1.538   6.806  1.00  0.00     0.188 C 
BRANCH   3   4
ATOM      4  O   UNL     1      -2.422   0.844   6.872  1.00  0.00    -0.376 OA
BRANCH   4   5
ATOM      5  C   UNL     1      -2.975   0.284   5.683  1.00  0.00     0.202 C 
BRANCH   5   6
ATOM      6  C   UNL     1      -2.904   1.008   4.319  1.00  0.00     0.261 C 
BRANCH   6   7
ATOM      7  O   UNL     1      -1.623   1.008   3.618  1.00  0.00    -0.463 OA
BRANCH   7   8
ATOM      8  C   UNL     1      -1.020   2.210   3.518  1.00  0.00     0.311 C 
ATOM      9  O   UNL     1      -1.454   3.223   4.073  1.00  0.00    -0.252 OA
BRANCH   8  10
ATOM     10  C   UNL     1       0.182   2.368   2.593  1.00  0.00     0.134 C 
ATOM     11  C   UNL     1       0.821  -0.046  -0.222  1.00  0.00     0.147 C 
ATOM     12  N   UNL     1       0.464   1.046   0.670  1.00  0.00    -0.339 N 
ATOM     13  C   UNL     1      -0.433   2.031   0.304  1.00  0.00     0.223 C 
ATOM     14  C   UNL     1       1.138   1.311   1.956  1.00  0.00     0.059 C 
ATOM     15  O   UNL     1      -1.097   2.077  -0.718  1.00  0.00    -0.275 OA
ATOM     16  C   UNL     1      -0.410   3.095   1.362  1.00  0.00     0.118 C 
ATOM     17  C   UNL     1       1.421  -0.001   2.704  1.00  0.00     0.046 C 
ATOM     18  C   UNL     1       2.514   2.009   1.653  1.00  0.00     0.046 C 
ATOM     19  C   UNL     1       2.449   0.084   3.816  1.00  0.00     0.105 C 
ATOM     20  C   UNL     1       3.479   2.063   2.840  1.00  0.00     0.105 C 
ATOM     21  N   UNL     1       3.717   0.714   3.412  1.00  0.00    -0.198 NA
BRANCH  21  22
ATOM     22  S   UNL     1       4.927  -0.203   2.634  1.00  0.00     0.245 S 
ATOM     23  O   UNL     1       4.427  -0.614   1.348  1.00  0.00    -0.207 OA
ATOM     24  O   UNL     1       6.150   0.584   2.715  1.00  0.00    -0.207 OA
BRANCH  22  25
ATOM     25  C   UNL     1       5.186  -1.641   3.633  1.00  0.00     0.118 A 
ATOM     26  C   UNL     1       6.236  -1.691   4.560  1.00  0.00     0.025 A 
ATOM     27  C   UNL     1       4.442  -2.787   3.377  1.00  0.00     0.143 A 
ATOM     28  C   UNL     1       6.512  -2.885   5.239  1.00  0.00     0.002 A 
ATOM     29  C   UNL     1       4.731  -3.978   4.040  1.00  0.00     0.041 A 
ATOM     30  F   UNL     1       3.408  -2.776   2.527  1.00  0.00    -0.206 F 
ATOM     31  C   UNL     1       5.761  -4.030   4.976  1.00  0.00     0.003 A 
ENDBRANCH  22  25
ENDBRANCH  21  22
ENDBRANCH   8  10
ENDBRANCH   7   8
ENDBRANCH   6   7
ENDBRANCH   5   6
ENDBRANCH   4   5
ENDBRANCH   3   4
ENDBRANCH   2   3
ENDBRANCH   1   2
BRANCH   1  32
ATOM     32  C   UNL     1      -0.208  -1.635   5.834  1.00  0.00     0.188 C 
BRANCH  32  33
ATOM     33  C   UNL     1      -0.107  -1.964   7.325  1.00  0.00     0.188 C 
BRANCH  33  34
ATOM     34  O   UNL     1       1.086  -1.566   8.001  1.00  0.00    -0.376 OA
BRANCH  34  35
ATOM     35  C   UNL     1       2.318  -1.643   7.289  1.00  0.00     0.202 C 
BRANCH  35  36
ATOM     36  C   UNL     1       2.851  -3.055   7.086  1.00  0.00     0.261 C 
BRANCH  36  37
ATOM     37  O   UNL     1       2.123  -3.733   6.043  1.00  0.00    -0.460 OA
BRANCH  37  38
ATOM     38  C   UNL     1       1.508  -4.872   6.423  1.00  0.00     0.338 C 
ATOM     39  O   UNL     1       1.577  -5.421   7.511  1.00  0.00    -0.246 OA
BRANCH  38  40
ATOM     40  C   UNL     1       0.588  -5.341   5.372  1.00  0.00     0.060 A 
ATOM     41  C   UNL     1      -0.741  -5.578   5.741  1.00  0.00     0.016 A 
ATOM     42  C   UNL     1       1.050  -5.707   4.106  1.00  0.00     0.016 A 
ATOM     43  C   UNL     1      -1.586  -6.277   4.883  1.00  0.00     0.010 A 
ATOM     44  C   UNL     1       0.204  -6.411   3.247  1.00  0.00     0.010 A 
ATOM     45  C   UNL     1      -1.092  -6.756   3.664  1.00  0.00    -0.014 A 
BRANCH  45  46
ATOM     46  C   UNL     1      -1.831  -7.818   2.944  1.00  0.00     0.031 A 
ATOM     47  C   UNL     1      -1.410  -9.248   3.155  1.00  0.00     0.074 A 
ATOM     48  C   UNL     1      -2.862  -7.518   2.138  1.00  0.00     0.049 A 
ATOM     49  N   UNL     1      -1.864 -10.341   2.600  1.00  0.00    -0.248 NA
ATOM     50  C   UNL     1      -0.321  -9.472   4.122  1.00  0.00     0.031 C 
ATOM     51  C   UNL     1      -3.383  -6.175   1.900  1.00  0.00     0.029 A 
ATOM     52  N   UNL     1      -3.648  -8.332   1.365  1.00  0.00    -0.354 N 
ATOM     53  C   UNL     1      -1.115 -11.378   3.146  1.00  0.00     0.074 A 
ATOM     54  C   UNL     1      -0.151 -10.782   4.043  1.00  0.00     0.031 C 
ATOM     55  C   UNL     1      -4.402  -6.255   1.027  1.00  0.00     0.029 A 
ATOM     56  C   UNL     1      -4.579  -7.649   0.624  1.00  0.00     0.049 A 
ATOM     57  H   UNL     1      -3.554  -9.312   1.343  1.00  0.00     0.167 HD
ATOM     58  C   UNL     1      -1.230 -12.710   2.926  1.00  0.00     0.037 A 
ATOM     59  C   UNL     1      -5.457  -8.103  -0.290  1.00  0.00     0.037 A 
ATOM     60  C   UNL     1      -2.185 -13.290   2.020  1.00  0.00     0.049 A 
ATOM     61  C   UNL     1      -5.507  -9.579  -0.589  1.00  0.00     0.074 A 
ATOM     62  C   UNL     1      -2.389 -14.623   1.716  1.00  0.00     0.029 A 
ATOM     63  N   UNL     1      -3.091 -12.561   1.263  1.00  0.00    -0.354 N 
ATOM     64  N   UNL     1      -4.809 -10.554  -0.058  1.00  0.00    -0.248 NA
ATOM     65  C   UNL     1      -6.467 -10.017  -1.611  1.00  0.00     0.031 C 
ATOM     66  C   UNL     1      -3.384 -14.697   0.736  1.00  0.00     0.029 A 
ATOM     67  C   UNL     1      -3.843 -13.415   0.476  1.00  0.00     0.049 A 
ATOM     68  H   UNL     1      -3.185 -11.581   1.283  1.00  0.00     0.167 HD
ATOM     69  C   UNL     1      -5.276 -11.723  -0.646  1.00  0.00     0.074 A 
ATOM     70  C   UNL     1      -6.312 -11.333  -1.580  1.00  0.00     0.031 C 
ATOM     71  C   UNL     1      -4.889 -13.004  -0.427  1.00  0.00     0.037 A 
BRANCH  58  72
ATOM     72  C   UNL     1      -0.278 -13.615   3.657  1.00  0.00     0.057 A 
ATOM     73  C   UNL     1      -0.346 -13.800   5.045  1.00  0.00     0.134 A 
ATOM     74  C   UNL     1       0.720 -14.312   2.964  1.00  0.00     0.134 A 
ATOM     75  F   UNL     1      -1.268 -13.151   5.773  1.00  0.00    -0.206 F 
ATOM     76  C   UNL     1       0.564 -14.615   5.720  1.00  0.00     0.040 A 
ATOM     77  C   UNL     1       1.617 -15.154   3.624  1.00  0.00     0.040 A 
ATOM     78  F   UNL     1       0.841 -14.187   1.634  1.00  0.00    -0.206 F 
ATOM     79  C   UNL     1       1.547 -15.300   5.008  1.00  0.00     0.006 A 
ENDBRANCH  58  72
BRANCH  59  80
ATOM     80  C   UNL     1      -6.367  -7.153  -0.977  1.00  0.00     0.057 A 
ATOM     81  C   UNL     1      -7.744  -7.161  -0.724  1.00  0.00     0.134 A 
ATOM     82  C   UNL     1      -5.887  -6.212  -1.896  1.00  0.00     0.134 A 
ATOM     83  F   UNL     1      -8.267  -8.050   0.133  1.00  0.00    -0.206 F 
ATOM     84  C   UNL     1      -8.611  -6.277  -1.368  1.00  0.00     0.040 A 
ATOM     85  C   UNL     1      -6.739  -5.306  -2.529  1.00  0.00     0.040 A 
ATOM     86  F   UNL     1      -4.577  -6.150  -2.179  1.00  0.00    -0.206 F 
ATOM     87  C   UNL     1      -8.107  -5.341  -2.269  1.00  0.00     0.006 A 
ENDBRANCH  59  80
BRANCH  71  88
ATOM     88  C   UNL     1      -5.632 -14.088  -1.152  1.00  0.00     0.057 A 
ATOM     89  C   UNL     1      -5.451 -14.331  -2.519  1.00  0.00     0.134 A 
ATOM     90  C   UNL     1      -6.482 -14.951  -0.447  1.00  0.00     0.134 A 
ATOM     91  F   UNL     1      -4.659 -13.535  -3.252  1.00  0.00    -0.206 F 
ATOM     92  C   UNL     1      -6.100 -15.387  -3.161  1.00  0.00     0.040 A 
ATOM     93  C   UNL     1      -7.114 -16.026  -1.072  1.00  0.00     0.040 A 
ATOM     94  F   UNL     1      -6.689 -14.779   0.868  1.00  0.00    -0.206 F 
ATOM     95  C   UNL     1      -6.925 -16.245  -2.435  1.00  0.00     0.006 A 
ENDBRANCH  71  88
ENDBRANCH  45  46
ENDBRANCH  38  40
ENDBRANCH  37  38
ENDBRANCH  36  37
ENDBRANCH  35  36
ENDBRANCH  34  35
ENDBRANCH  33  34
ENDBRANCH  32  33
ENDBRANCH   1  32
TORSDOF 22
