REMARK SMILES Cc1cc(N2N=C(C(=O)OCCOCCOCCOCCOC(=O)c3ccc(-c4c5nc(c(-c6c(F)cccc6F)c6ccc([nH]6)c(-c6c(F)cccc6F)c6nc(c(-c7c(F)cccc7F)c7ccc4[nH]7)C=C6)C=C5)cc3)C[C@H]2c2ccccc2)c([N+](=O)[O-])cc1C
REMARK SMILES IDX 16 1 15 2 14 3 13 4 12 5 11 6 10 7 8 8 9 9 7 10 5 11 6 12
REMARK SMILES IDX 80 13 79 14 4 15 1 16 2 17 3 18 92 19 91 20 93 21 87 22
REMARK SMILES IDX 88 23 89 24 90 25 81 26 82 27 86 28 83 29 85 30 84 31 17 32
REMARK SMILES IDX 18 33 19 34 20 35 21 36 22 37 23 38 24 39 25 40 26 41 78 42
REMARK SMILES IDX 27 43 77 44 28 45 29 46 30 47 71 48 31 49 76 50 70 51 72 52
REMARK SMILES IDX 32 53 75 54 69 55 68 56 33 58 59 59 42 60 58 61 43 62 46 63
REMARK SMILES IDX 57 64 73 65 44 66 45 67 56 69 74 70 47 71 34 72 35 73 40 74
REMARK SMILES IDX 36 75 37 76 39 77 41 78 38 79 60 80 61 81 66 82 62 83 63 84
REMARK SMILES IDX 65 85 67 86 64 87 48 88 49 89 54 90 50 91 51 92 53 93 55 94
REMARK SMILES IDX 52 95
REMARK H PARENT 72 57 46 68
REMARK Flexibility Score: inf
ROOT
ATOM      1  O   UNL     1      -8.142   1.175   0.492  1.00  0.00    -0.377 OA
ENDROOT
BRANCH   1   2
ATOM      2  C   UNL     1      -7.107   0.326   0.969  1.00  0.00     0.188 C 
BRANCH   2   3
ATOM      3  C   UNL     1      -6.883   0.407   2.489  1.00  0.00     0.188 C 
BRANCH   3   4
ATOM      4  O   UNL     1      -8.031   0.841   3.196  1.00  0.00    -0.376 OA
BRANCH   4   5
ATOM      5  C   UNL     1      -8.217   2.204   3.535  1.00  0.00     0.202 C 
BRANCH   5   6
ATOM      6  C   UNL     1      -7.819   3.388   2.632  1.00  0.00     0.261 C 
BRANCH   6   7
ATOM      7  O   UNL     1      -6.785   3.145   1.682  1.00  0.00    -0.459 OA
BRANCH   7   8
ATOM      8  C   UNL     1      -5.523   3.382   2.060  1.00  0.00     0.354 C 
ATOM      9  O   UNL     1      -5.132   3.892   3.090  1.00  0.00    -0.245 OA
BRANCH   8  10
ATOM     10  C   UNL     1      -4.612   2.777   1.020  1.00  0.00     0.148 C 
ATOM     11  N   UNL     1      -3.005   1.732   0.144  1.00  0.00    -0.250 N 
ATOM     12  N   UNL     1      -3.589   2.039   1.333  1.00  0.00    -0.169 NA
ATOM     13  C   UNL     1      -3.506   2.559  -0.975  1.00  0.00     0.144 C 
ATOM     14  C   UNL     1      -4.904   2.911  -0.449  1.00  0.00     0.098 C 
BRANCH  11  15
ATOM     15  C   UNL     1      -1.895   0.905   0.122  1.00  0.00     0.138 A 
ATOM     16  C   UNL     1       1.872   1.499   0.239  1.00  0.00     0.045 C 
ATOM     17  C   UNL     1       0.571   0.746   0.189  1.00  0.00    -0.046 A 
ATOM     18  C   UNL     1      -0.625   1.481   0.282  1.00  0.00     0.039 A 
ATOM     19  C   UNL     1       0.510  -0.647   0.036  1.00  0.00    -0.041 A 
ATOM     20  C   UNL     1      -0.751  -1.259  -0.049  1.00  0.00     0.091 A 
ATOM     21  C   UNL     1       1.732  -1.522  -0.011  1.00  0.00     0.045 C 
ATOM     22  C   UNL     1      -1.934  -0.489  -0.021  1.00  0.00     0.294 A 
BRANCH  22  23
ATOM     23  N   UNL     1      -3.202  -1.208  -0.149  1.00  0.00     0.065 N 
ATOM     24  O   UNL     1      -3.253  -2.358   0.318  1.00  0.00    -0.258 OA
ATOM     25  O   UNL     1      -4.130  -0.674  -0.776  1.00  0.00    -0.258 OA
ENDBRANCH  22  23
ENDBRANCH  11  15
BRANCH  13  26
ATOM     26  C   UNL     1      -2.629   3.783  -1.255  1.00  0.00    -0.023 A 
ATOM     27  C   UNL     1      -2.966   5.088  -0.851  1.00  0.00     0.006 A 
ATOM     28  C   UNL     1      -1.417   3.613  -1.946  1.00  0.00     0.006 A 
ATOM     29  C   UNL     1      -2.123   6.170  -1.110  1.00  0.00     0.000 A 
ATOM     30  C   UNL     1      -0.549   4.688  -2.161  1.00  0.00     0.000 A 
ATOM     31  C   UNL     1      -0.906   5.967  -1.748  1.00  0.00     0.000 A 
ENDBRANCH  13  26
ENDBRANCH   8  10
ENDBRANCH   7   8
ENDBRANCH   6   7
ENDBRANCH   5   6
ENDBRANCH   4   5
ENDBRANCH   3   4
ENDBRANCH   2   3
ENDBRANCH   1   2
BRANCH   1  32
ATOM     32  C   UNL     1      -9.494   0.729   0.619  1.00  0.00     0.188 C 
BRANCH  32  33
ATOM     33  C   UNL     1      -9.896  -0.450   1.538  1.00  0.00     0.188 C 
BRANCH  33  34
ATOM     34  O   UNL     1      -8.950  -1.503   1.606  1.00  0.00    -0.376 OA
BRANCH  34  35
ATOM     35  C   UNL     1      -9.186  -2.683   0.857  1.00  0.00     0.202 C 
BRANCH  35  36
ATOM     36  C   UNL     1      -9.217  -2.551  -0.672  1.00  0.00     0.261 C 
BRANCH  36  37
ATOM     37  O   UNL     1     -10.173  -1.619  -1.205  1.00  0.00    -0.460 OA
BRANCH  37  38
ATOM     38  C   UNL     1     -11.481  -1.865  -0.987  1.00  0.00     0.338 C 
ATOM     39  O   UNL     1     -11.969  -2.820  -0.405  1.00  0.00    -0.246 OA
BRANCH  38  40
ATOM     40  C   UNL     1     -12.234  -0.668  -1.417  1.00  0.00     0.060 A 
ATOM     41  C   UNL     1     -12.977   0.049  -0.470  1.00  0.00     0.016 A 
ATOM     42  C   UNL     1     -12.189  -0.246  -2.747  1.00  0.00     0.016 A 
ATOM     43  C   UNL     1     -13.696   1.182  -0.858  1.00  0.00     0.010 A 
ATOM     44  C   UNL     1     -12.925   0.876  -3.138  1.00  0.00     0.010 A 
ATOM     45  C   UNL     1     -13.701   1.583  -2.201  1.00  0.00    -0.014 A 
BRANCH  45  46
ATOM     46  C   UNL     1     -14.626   2.648  -2.660  1.00  0.00     0.031 A 
ATOM     47  C   UNL     1     -15.913   2.249  -3.328  1.00  0.00     0.074 A 
ATOM     48  C   UNL     1     -14.329   3.949  -2.492  1.00  0.00     0.049 A 
ATOM     49  N   UNL     1     -16.832   3.000  -3.877  1.00  0.00    -0.248 NA
ATOM     50  C   UNL     1     -16.197   0.806  -3.388  1.00  0.00     0.031 C 
ATOM     51  C   UNL     1     -13.133   4.465  -1.830  1.00  0.00     0.029 A 
ATOM     52  N   UNL     1     -15.011   5.075  -2.885  1.00  0.00    -0.354 N 
ATOM     53  C   UNL     1     -17.797   2.123  -4.358  1.00  0.00     0.074 A 
ATOM     54  C   UNL     1     -17.340   0.783  -4.058  1.00  0.00     0.031 C 
ATOM     55  C   UNL     1     -13.154   5.808  -1.881  1.00  0.00     0.029 A 
ATOM     56  C   UNL     1     -14.343   6.244  -2.611  1.00  0.00     0.049 A 
ATOM     57  H   UNL     1     -15.893   5.047  -3.321  1.00  0.00     0.167 HD
ATOM     58  C   UNL     1     -18.960   2.409  -4.989  1.00  0.00     0.037 A 
ATOM     59  C   UNL     1     -14.642   7.516  -2.944  1.00  0.00     0.037 A 
ATOM     60  C   UNL     1     -19.412   3.743  -5.287  1.00  0.00     0.049 A 
ATOM     61  C   UNL     1     -15.905   7.804  -3.715  1.00  0.00     0.074 A 
ATOM     62  C   UNL     1     -20.594   4.136  -5.890  1.00  0.00     0.029 A 
ATOM     63  N   UNL     1     -18.696   4.899  -5.019  1.00  0.00    -0.354 N 
ATOM     64  N   UNL     1     -16.832   6.972  -4.128  1.00  0.00    -0.248 NA
ATOM     65  C   UNL     1     -16.162   9.208  -4.070  1.00  0.00     0.031 C 
ATOM     66  C   UNL     1     -20.563   5.525  -6.047  1.00  0.00     0.029 A 
ATOM     67  C   UNL     1     -19.392   6.004  -5.482  1.00  0.00     0.049 A 
ATOM     68  H   UNL     1     -17.822   4.931  -4.567  1.00  0.00     0.167 HD
ATOM     69  C   UNL     1     -17.789   7.753  -4.766  1.00  0.00     0.074 A 
ATOM     70  C   UNL     1     -17.342   9.126  -4.669  1.00  0.00     0.031 C 
ATOM     71  C   UNL     1     -18.935   7.367  -5.380  1.00  0.00     0.037 A 
BRANCH  58  72
ATOM     72  C   UNL     1     -19.813   1.257  -5.434  1.00  0.00     0.057 A 
ATOM     73  C   UNL     1     -20.511   0.452  -4.524  1.00  0.00     0.134 A 
ATOM     74  C   UNL     1     -19.972   0.977  -6.798  1.00  0.00     0.134 A 
ATOM     75  F   UNL     1     -20.392   0.656  -3.204  1.00  0.00    -0.206 F 
ATOM     76  C   UNL     1     -21.319  -0.603  -4.954  1.00  0.00     0.040 A 
ATOM     77  C   UNL     1     -20.799  -0.055  -7.241  1.00  0.00     0.040 A 
ATOM     78  F   UNL     1     -19.335   1.712  -7.722  1.00  0.00    -0.206 F 
ATOM     79  C   UNL     1     -21.472  -0.852  -6.317  1.00  0.00     0.006 A 
ENDBRANCH  58  72
BRANCH  59  80
ATOM     80  C   UNL     1     -13.714   8.620  -2.583  1.00  0.00     0.057 A 
ATOM     81  C   UNL     1     -14.080   9.611  -1.665  1.00  0.00     0.134 A 
ATOM     82  C   UNL     1     -12.450   8.731  -3.178  1.00  0.00     0.134 A 
ATOM     83  F   UNL     1     -15.287   9.577  -1.081  1.00  0.00    -0.206 F 
ATOM     84  C   UNL     1     -13.234  10.682  -1.367  1.00  0.00     0.040 A 
ATOM     85  C   UNL     1     -11.583   9.780  -2.867  1.00  0.00     0.040 A 
ATOM     86  F   UNL     1     -12.037   7.817  -4.069  1.00  0.00    -0.206 F 
ATOM     87  C   UNL     1     -11.979  10.765  -1.966  1.00  0.00     0.006 A 
ENDBRANCH  59  80
BRANCH  71  88
ATOM     88  C   UNL     1     -19.801   8.443  -5.973  1.00  0.00     0.057 A 
ATOM     89  C   UNL     1     -19.423   9.148  -7.124  1.00  0.00     0.134 A 
ATOM     90  C   UNL     1     -21.049   8.746  -5.413  1.00  0.00     0.134 A 
ATOM     91  F   UNL     1     -18.236   8.916  -7.704  1.00  0.00    -0.206 F 
ATOM     92  C   UNL     1     -20.245  10.130  -7.681  1.00  0.00     0.040 A 
ATOM     93  C   UNL     1     -21.893   9.703  -5.979  1.00  0.00     0.040 A 
ATOM     94  F   UNL     1     -21.479   8.102  -4.318  1.00  0.00    -0.206 F 
ATOM     95  C   UNL     1     -21.487  10.403  -7.113  1.00  0.00     0.006 A 
ENDBRANCH  71  88
ENDBRANCH  45  46
ENDBRANCH  38  40
ENDBRANCH  37  38
ENDBRANCH  36  37
ENDBRANCH  35  36
ENDBRANCH  34  35
ENDBRANCH  33  34
ENDBRANCH  32  33
ENDBRANCH   1  32
TORSDOF 23
