REMARK SMILES O=C(OCCOCCOCCOCCOC(=O)[C@@H]1[C@@H](C(=O)Nc2cccc([N+](=O)[O-])c2)[C@@H]2C=C[C@H]1O2)c1ccc(-c2c3nc(c(-c4c(F)cccc4F)c4ccc([nH]4)c(-c4c(F)cccc4F)c4nc(c(-c5c(F)cccc5F)c5ccc2[nH]5)C=C4)C=C3)cc1
REMARK SMILES IDX 10 1 9 2 8 3 7 4 6 5 5 6 4 7 3 8 2 9 1 10 37 11 38 12 90 13
REMARK SMILES IDX 39 14 89 15 40 16 41 17 42 18 83 19 43 20 88 21 82 22 84 23
REMARK SMILES IDX 44 24 87 25 81 26 80 27 45 29 71 30 54 31 70 32 55 33 58 34
REMARK SMILES IDX 69 35 85 36 56 37 57 38 68 40 86 41 59 42 46 43 47 44 52 45
REMARK SMILES IDX 48 46 49 47 51 48 53 49 50 50 72 51 73 52 78 53 74 54 75 55
REMARK SMILES IDX 77 56 79 57 76 58 60 59 61 60 66 61 62 62 63 63 65 64 67 65
REMARK SMILES IDX 64 66 11 67 12 68 13 69 14 70 15 71 16 72 17 73 18 74 19 75
REMARK SMILES IDX 35 76 32 77 34 78 36 79 33 80 20 81 21 82 22 83 23 85 24 86
REMARK SMILES IDX 31 87 25 88 27 89 26 90 28 91 29 92 30 93
REMARK H PARENT 84 28 58 39 22 84
REMARK Flexibility Score: inf
ROOT
ATOM      1  C   UNL     1       4.085  -3.588   0.785  1.00  0.00     0.188 C 
ENDROOT
BRANCH   1   2
ATOM      2  O   UNL     1       2.682  -3.818   0.808  1.00  0.00    -0.377 OA
BRANCH   2   3
ATOM      3  C   UNL     1       1.874  -2.758   0.295  1.00  0.00     0.188 C 
BRANCH   3   4
ATOM      4  C   UNL     1       2.287  -1.343   0.717  1.00  0.00     0.188 C 
BRANCH   4   5
ATOM      5  O   UNL     1       3.571  -1.003   0.201  1.00  0.00    -0.376 OA
BRANCH   5   6
ATOM      6  C   UNL     1       4.516  -0.369   1.060  1.00  0.00     0.202 C 
BRANCH   6   7
ATOM      7  C   UNL     1       4.176   1.054   1.466  1.00  0.00     0.261 C 
BRANCH   7   8
ATOM      8  O   UNL     1       2.818   1.437   1.215  1.00  0.00    -0.460 OA
BRANCH   8   9
ATOM      9  C   UNL     1       2.201   1.747   0.054  1.00  0.00     0.338 C 
ATOM     10  O   UNL     1       0.995   1.994   0.090  1.00  0.00    -0.246 OA
BRANCH   9  11
ATOM     11  C   UNL     1       2.873   1.841  -1.274  1.00  0.00     0.060 A 
ATOM     12  C   UNL     1       3.949   1.069  -1.709  1.00  0.00     0.016 A 
ATOM     13  C   UNL     1       2.287   2.718  -2.201  1.00  0.00     0.016 A 
ATOM     14  C   UNL     1       4.470   1.177  -2.982  1.00  0.00     0.010 A 
ATOM     15  C   UNL     1       2.794   2.836  -3.495  1.00  0.00     0.010 A 
ATOM     16  C   UNL     1       3.907   2.078  -3.868  1.00  0.00    -0.014 A 
BRANCH  16  17
ATOM     17  C   UNL     1       4.674   2.362  -5.081  1.00  0.00     0.031 A 
ATOM     18  C   UNL     1       5.482   3.616  -5.083  1.00  0.00     0.074 A 
ATOM     19  C   UNL     1       4.765   1.438  -6.048  1.00  0.00     0.049 A 
ATOM     20  N   UNL     1       6.139   4.178  -6.055  1.00  0.00    -0.248 NA
ATOM     21  C   UNL     1       5.566   4.336  -3.797  1.00  0.00     0.031 C 
ATOM     22  C   UNL     1       4.157   0.104  -6.004  1.00  0.00     0.029 A 
ATOM     23  N   UNL     1       5.418   1.472  -7.246  1.00  0.00    -0.354 N 
ATOM     24  C   UNL     1       6.660   5.346  -5.517  1.00  0.00     0.074 A 
ATOM     25  C   UNL     1       6.259   5.410  -4.133  1.00  0.00     0.031 C 
ATOM     26  C   UNL     1       4.454  -0.546  -7.140  1.00  0.00     0.029 A 
ATOM     27  C   UNL     1       5.189   0.358  -8.014  1.00  0.00     0.049 A 
ATOM     28  H   UNL     1       5.994   2.218  -7.530  1.00  0.00     0.167 HD
ATOM     29  C   UNL     1       7.389   6.287  -6.155  1.00  0.00     0.037 A 
ATOM     30  C   UNL     1       5.484   0.147  -9.309  1.00  0.00     0.037 A 
ATOM     31  C   UNL     1       7.754   6.160  -7.538  1.00  0.00     0.049 A 
ATOM     32  C   UNL     1       6.195   1.252 -10.039  1.00  0.00     0.074 A 
ATOM     33  C   UNL     1       8.431   7.050  -8.345  1.00  0.00     0.029 A 
ATOM     34  N   UNL     1       7.453   5.047  -8.319  1.00  0.00    -0.354 N 
ATOM     35  N   UNL     1       6.609   2.411  -9.575  1.00  0.00    -0.248 NA
ATOM     36  C   UNL     1       6.464   1.042 -11.464  1.00  0.00     0.031 C 
ATOM     37  C   UNL     1       8.487   6.499  -9.630  1.00  0.00     0.029 A 
ATOM     38  C   UNL     1       7.905   5.237  -9.609  1.00  0.00     0.049 A 
ATOM     39  H   UNL     1       6.986   4.242  -7.997  1.00  0.00     0.167 HD
ATOM     40  C   UNL     1       7.204   3.063 -10.644  1.00  0.00     0.074 A 
ATOM     41  C   UNL     1       7.103   2.161 -11.778  1.00  0.00     0.031 C 
ATOM     42  C   UNL     1       7.781   4.290 -10.693  1.00  0.00     0.037 A 
BRANCH  29  43
ATOM     43  C   UNL     1       7.696   7.538  -5.387  1.00  0.00     0.057 A 
ATOM     44  C   UNL     1       8.565   7.559  -4.287  1.00  0.00     0.134 A 
ATOM     45  C   UNL     1       7.022   8.727  -5.696  1.00  0.00     0.134 A 
ATOM     46  F   UNL     1       9.212   6.446  -3.909  1.00  0.00    -0.206 F 
ATOM     47  C   UNL     1       8.716   8.702  -3.497  1.00  0.00     0.040 A 
ATOM     48  C   UNL     1       7.188   9.884  -4.932  1.00  0.00     0.040 A 
ATOM     49  F   UNL     1       6.165   8.776  -6.726  1.00  0.00    -0.206 F 
ATOM     50  C   UNL     1       8.026   9.869  -3.820  1.00  0.00     0.006 A 
ENDBRANCH  29  43
BRANCH  30  51
ATOM     51  C   UNL     1       5.025  -1.096  -9.979  1.00  0.00     0.057 A 
ATOM     52  C   UNL     1       5.927  -2.058 -10.442  1.00  0.00     0.134 A 
ATOM     53  C   UNL     1       3.658  -1.369 -10.140  1.00  0.00     0.134 A 
ATOM     54  F   UNL     1       7.248  -1.854 -10.331  1.00  0.00    -0.206 F 
ATOM     55  C   UNL     1       5.490  -3.242 -11.042  1.00  0.00     0.040 A 
ATOM     56  C   UNL     1       3.207  -2.559 -10.712  1.00  0.00     0.040 A 
ATOM     57  F   UNL     1       2.737  -0.493  -9.713  1.00  0.00    -0.206 F 
ATOM     58  C   UNL     1       4.125  -3.499 -11.170  1.00  0.00     0.006 A 
ENDBRANCH  30  51
BRANCH  42  59
ATOM     59  C   UNL     1       8.380   4.700 -12.002  1.00  0.00     0.057 A 
ATOM     60  C   UNL     1       7.588   5.096 -13.085  1.00  0.00     0.134 A 
ATOM     61  C   UNL     1       9.771   4.788 -12.139  1.00  0.00     0.134 A 
ATOM     62  F   UNL     1       6.250   5.021 -13.014  1.00  0.00    -0.206 F 
ATOM     63  C   UNL     1       8.162   5.559 -14.268  1.00  0.00     0.040 A 
ATOM     64  C   UNL     1      10.355   5.278 -13.304  1.00  0.00     0.040 A 
ATOM     65  F   UNL     1      10.579   4.433 -11.128  1.00  0.00    -0.206 F 
ATOM     66  C   UNL     1       9.549   5.664 -14.373  1.00  0.00     0.006 A 
ENDBRANCH  42  59
ENDBRANCH  16  17
ENDBRANCH   9  11
ENDBRANCH   8   9
ENDBRANCH   7   8
ENDBRANCH   6   7
ENDBRANCH   5   6
ENDBRANCH   4   5
ENDBRANCH   3   4
ENDBRANCH   2   3
ENDBRANCH   1   2
BRANCH   1  67
ATOM     67  C   UNL     1       4.804  -3.527  -0.591  1.00  0.00     0.188 C 
BRANCH  67  68
ATOM     68  O   UNL     1       3.998  -3.003  -1.633  1.00  0.00    -0.376 OA
BRANCH  68  69
ATOM     69  C   UNL     1       3.459  -3.858  -2.632  1.00  0.00     0.202 C 
BRANCH  69  70
ATOM     70  C   UNL     1       2.879  -5.260  -2.339  1.00  0.00     0.261 C 
BRANCH  70  71
ATOM     71  O   UNL     1       3.122  -5.779  -1.033  1.00  0.00    -0.463 OA
BRANCH  71  72
ATOM     72  C   UNL     1       4.176  -6.611  -0.887  1.00  0.00     0.312 C 
ATOM     73  O   UNL     1       4.862  -7.045  -1.817  1.00  0.00    -0.252 OA
BRANCH  72  74
ATOM     74  C   UNL     1       4.569  -6.725   0.558  1.00  0.00     0.147 C 
ATOM     75  C   UNL     1       5.467  -7.931   0.845  1.00  0.00     0.129 C 
ATOM     76  C   UNL     1       3.429  -6.909   1.561  1.00  0.00     0.157 C 
ATOM     77  C   UNL     1       4.689  -8.630   1.963  1.00  0.00     0.155 C 
ATOM     78  C   UNL     1       2.607  -8.105   1.194  1.00  0.00     0.004 C 
ATOM     79  O   UNL     1       4.169  -7.481   2.679  1.00  0.00    -0.365 OA
ATOM     80  C   UNL     1       3.392  -9.168   1.416  1.00  0.00     0.004 C 
BRANCH  75  81
ATOM     81  C   UNL     1       6.864  -7.494   1.324  1.00  0.00     0.231 C 
ATOM     82  O   UNL     1       7.112  -6.364   1.749  1.00  0.00    -0.274 OA
ATOM     83  N   UNL     1       7.868  -8.431   1.367  1.00  0.00    -0.325 N 
ATOM     84  H   UNL     1       8.710  -8.172   1.806  1.00  0.00     0.169 HD
BRANCH  83  85
ATOM     85  C   UNL     1       7.789  -9.717   0.838  1.00  0.00     0.048 A 
ATOM     86  C   UNL     1       8.037 -10.793   1.684  1.00  0.00     0.026 A 
ATOM     87  C   UNL     1       7.315  -9.920  -0.458  1.00  0.00     0.111 A 
ATOM     88  C   UNL     1       7.640 -12.070   1.290  1.00  0.00     0.009 A 
ATOM     89  C   UNL     1       6.866 -11.186  -0.824  1.00  0.00     0.271 A 
ATOM     90  C   UNL     1       7.017 -12.266   0.053  1.00  0.00     0.086 A 
BRANCH  89  91
ATOM     91  N   UNL     1       6.122 -11.347  -2.078  1.00  0.00     0.062 N 
ATOM     92  O   UNL     1       5.779 -12.493  -2.398  1.00  0.00    -0.258 OA
ATOM     93  O   UNL     1       5.853 -10.326  -2.725  1.00  0.00    -0.258 OA
ENDBRANCH  89  91
ENDBRANCH  83  85
ENDBRANCH  75  81
ENDBRANCH  72  74
ENDBRANCH  71  72
ENDBRANCH  70  71
ENDBRANCH  69  70
ENDBRANCH  68  69
ENDBRANCH  67  68
ENDBRANCH   1  67
TORSDOF 23
