REMARK SMILES Cc1cc(C(=O)OCCOCCOCCOCCOC(=O)c2ccc(-c3c4nc(c(-c5c(F)cccc5F)c5ccc([nH]5)c(-c5c(F)cccc5F)c5nc(c(-c6c(F)cccc6F)c6ccc3[nH]6)C=C5)C=C4)cc2)nc(N2CCN(c3ccccc3Cl)CC2)n1
REMARK SMILES IDX 13 1 12 2 11 3 10 4 9 5 8 6 7 7 5 8 6 9 4 10 1 11 2 12 3 13
REMARK SMILES IDX 91 14 77 15 76 16 78 17 79 18 90 19 80 20 89 21 81 22 82 23
REMARK SMILES IDX 83 24 87 25 84 26 86 27 88 28 85 29 14 30 15 31 16 32 17 33
REMARK SMILES IDX 18 34 19 35 20 36 21 37 22 38 23 39 75 40 24 41 74 42 25 43
REMARK SMILES IDX 26 44 27 45 68 46 28 47 73 48 67 49 69 50 29 51 72 52 66 53
REMARK SMILES IDX 65 54 30 56 56 57 39 58 55 59 40 60 43 61 54 62 70 63 41 64
REMARK SMILES IDX 42 65 53 67 71 68 44 69 31 70 32 71 37 72 33 73 34 74 36 75
REMARK SMILES IDX 38 76 35 77 57 78 58 79 63 80 59 81 60 82 62 83 64 84 61 85
REMARK SMILES IDX 45 86 46 87 51 88 47 89 48 90 50 91 52 92 49 93
REMARK H PARENT 69 55 43 66
REMARK Flexibility Score: inf
ROOT
ATOM      1  O   UNL     1       1.352  -3.564  -2.058  1.00  0.00    -0.377 OA
ENDROOT
BRANCH   1   2
ATOM      2  C   UNL     1       2.075  -2.344  -1.985  1.00  0.00     0.188 C 
BRANCH   2   3
ATOM      3  C   UNL     1       3.377  -2.392  -1.161  1.00  0.00     0.188 C 
BRANCH   3   4
ATOM      4  O   UNL     1       3.843  -3.716  -0.950  1.00  0.00    -0.376 OA
BRANCH   4   5
ATOM      5  C   UNL     1       3.633  -4.342   0.302  1.00  0.00     0.202 C 
BRANCH   5   6
ATOM      6  C   UNL     1       2.231  -4.415   0.934  1.00  0.00     0.261 C 
BRANCH   6   7
ATOM      7  O   UNL     1       1.402  -3.256   0.807  1.00  0.00    -0.459 OA
BRANCH   7   8
ATOM      8  C   UNL     1       1.690  -2.204   1.608  1.00  0.00     0.357 C 
ATOM      9  O   UNL     1       2.535  -2.177   2.485  1.00  0.00    -0.244 OA
BRANCH   8  10
ATOM     10  C   UNL     1       0.923  -1.034   1.092  1.00  0.00     0.154 A 
ATOM     11  C   UNL     1      -2.448   0.053  -0.053  1.00  0.00     0.067 C 
ATOM     12  C   UNL     1      -0.986   0.011   0.278  1.00  0.00     0.044 A 
ATOM     13  C   UNL     1      -0.417  -1.131   0.794  1.00  0.00     0.059 A 
ATOM     14  N   UNL     1      -0.279   1.148   0.087  1.00  0.00    -0.218 NA
ATOM     15  C   UNL     1       1.034   1.127   0.364  1.00  0.00     0.226 A 
ATOM     16  N   UNL     1       1.665   0.065   0.862  1.00  0.00    -0.206 NA
BRANCH  15  17
ATOM     17  N   UNL     1       1.807   2.233   0.157  1.00  0.00    -0.337 N 
ATOM     18  C   UNL     1       1.374   3.511   0.709  1.00  0.00     0.141 C 
ATOM     19  C   UNL     1       2.549   2.299  -1.105  1.00  0.00     0.141 C 
ATOM     20  C   UNL     1       2.621   4.404   0.928  1.00  0.00     0.138 C 
ATOM     21  C   UNL     1       3.778   3.227  -0.944  1.00  0.00     0.138 C 
ATOM     22  N   UNL     1       3.381   4.504  -0.327  1.00  0.00    -0.367 N 
BRANCH  22  23
ATOM     23  C   UNL     1       3.947   5.697  -0.727  1.00  0.00     0.056 A 
ATOM     24  C   UNL     1       4.760   6.427   0.156  1.00  0.00     0.027 A 
ATOM     25  C   UNL     1       3.712   6.258  -2.001  1.00  0.00     0.064 A 
ATOM     26  C   UNL     1       5.312   7.660  -0.206  1.00  0.00     0.002 A 
ATOM     27  C   UNL     1       4.257   7.495  -2.363  1.00  0.00     0.023 A 
ATOM     28  Cl  UNL     1       2.665   5.494  -3.155  1.00  0.00    -0.082 Cl
ATOM     29  C   UNL     1       5.056   8.197  -1.464  1.00  0.00     0.002 A 
ENDBRANCH  22  23
ENDBRANCH  15  17
ENDBRANCH   8  10
ENDBRANCH   7   8
ENDBRANCH   6   7
ENDBRANCH   5   6
ENDBRANCH   4   5
ENDBRANCH   3   4
ENDBRANCH   2   3
ENDBRANCH   1   2
BRANCH   1  30
ATOM     30  C   UNL     1       1.909  -4.667  -2.778  1.00  0.00     0.188 C 
BRANCH  30  31
ATOM     31  C   UNL     1       3.291  -4.616  -3.481  1.00  0.00     0.188 C 
BRANCH  31  32
ATOM     32  O   UNL     1       3.725  -3.318  -3.848  1.00  0.00    -0.376 OA
BRANCH  32  33
ATOM     33  C   UNL     1       3.708  -2.965  -5.218  1.00  0.00     0.202 C 
BRANCH  33  34
ATOM     34  C   UNL     1       2.329  -2.877  -5.883  1.00  0.00     0.261 C 
BRANCH  34  35
ATOM     35  O   UNL     1       1.502  -4.044  -5.768  1.00  0.00    -0.460 OA
BRANCH  35  36
ATOM     36  C   UNL     1       1.925  -5.163  -6.400  1.00  0.00     0.338 C 
ATOM     37  O   UNL     1       2.926  -5.299  -7.069  1.00  0.00    -0.246 OA
BRANCH  36  38
ATOM     38  C   UNL     1       1.033  -6.268  -5.984  1.00  0.00     0.060 A 
ATOM     39  C   UNL     1       1.577  -7.368  -5.308  1.00  0.00     0.016 A 
ATOM     40  C   UNL     1      -0.336  -6.209  -6.256  1.00  0.00     0.016 A 
ATOM     41  C   UNL     1       0.755  -8.432  -4.934  1.00  0.00     0.010 A 
ATOM     42  C   UNL     1      -1.153  -7.283  -5.897  1.00  0.00     0.010 A 
ATOM     43  C   UNL     1      -0.607  -8.414  -5.264  1.00  0.00    -0.014 A 
BRANCH  43  44
ATOM     44  C   UNL     1      -1.419  -9.647  -5.126  1.00  0.00     0.031 A 
ATOM     45  C   UNL     1      -1.653 -10.488  -6.352  1.00  0.00     0.074 A 
ATOM     46  C   UNL     1      -1.930 -10.024  -3.940  1.00  0.00     0.049 A 
ATOM     47  N   UNL     1      -2.382 -11.565  -6.496  1.00  0.00    -0.248 NA
ATOM     48  C   UNL     1      -0.973 -10.051  -7.582  1.00  0.00     0.031 C 
ATOM     49  C   UNL     1      -1.740  -9.321  -2.674  1.00  0.00     0.029 A 
ATOM     50  N   UNL     1      -2.728 -11.094  -3.616  1.00  0.00    -0.354 N 
ATOM     51  C   UNL     1      -2.254 -11.929  -7.831  1.00  0.00     0.074 A 
ATOM     52  C   UNL     1      -1.406 -10.941  -8.462  1.00  0.00     0.031 C 
ATOM     53  C   UNL     1      -2.416  -9.971  -1.710  1.00  0.00     0.029 A 
ATOM     54  C   UNL     1      -3.115 -11.112  -2.298  1.00  0.00     0.049 A 
ATOM     55  H   UNL     1      -2.996 -11.782  -4.267  1.00  0.00     0.167 HD
ATOM     56  C   UNL     1      -2.786 -12.996  -8.472  1.00  0.00     0.037 A 
ATOM     57  C   UNL     1      -3.960 -11.940  -1.652  1.00  0.00     0.037 A 
ATOM     58  C   UNL     1      -3.633 -13.975  -7.843  1.00  0.00     0.049 A 
ATOM     59  C   UNL     1      -4.610 -13.072  -2.409  1.00  0.00     0.074 A 
ATOM     60  C   UNL     1      -4.213 -15.099  -8.405  1.00  0.00     0.029 A 
ATOM     61  N   UNL     1      -4.026 -13.942  -6.515  1.00  0.00    -0.354 N 
ATOM     62  N   UNL     1      -4.464 -13.422  -3.665  1.00  0.00    -0.248 NA
ATOM     63  C   UNL     1      -5.543 -13.925  -1.657  1.00  0.00     0.031 C 
ATOM     64  C   UNL     1      -5.005 -15.713  -7.431  1.00  0.00     0.029 A 
ATOM     65  C   UNL     1      -4.865 -15.011  -6.245  1.00  0.00     0.049 A 
ATOM     66  H   UNL     1      -3.751 -13.261  -5.860  1.00  0.00     0.167 HD
ATOM     67  C   UNL     1      -5.255 -14.553  -3.841  1.00  0.00     0.074 A 
ATOM     68  C   UNL     1      -5.867 -14.838  -2.561  1.00  0.00     0.031 C 
ATOM     69  C   UNL     1      -5.457 -15.290  -4.961  1.00  0.00     0.037 A 
BRANCH  56  70
ATOM     70  C   UNL     1      -2.490 -13.146  -9.936  1.00  0.00     0.057 A 
ATOM     71  C   UNL     1      -1.217 -13.498 -10.403  1.00  0.00     0.134 A 
ATOM     72  C   UNL     1      -3.503 -12.977 -10.888  1.00  0.00     0.134 A 
ATOM     73  F   UNL     1      -0.198 -13.659  -9.545  1.00  0.00    -0.206 F 
ATOM     74  C   UNL     1      -0.958 -13.658 -11.765  1.00  0.00     0.040 A 
ATOM     75  C   UNL     1      -3.264 -13.163 -12.250  1.00  0.00     0.040 A 
ATOM     76  F   UNL     1      -4.746 -12.643 -10.509  1.00  0.00    -0.206 F 
ATOM     77  C   UNL     1      -1.986 -13.500 -12.693  1.00  0.00     0.006 A 
ENDBRANCH  56  70
BRANCH  57  78
ATOM     78  C   UNL     1      -4.269 -11.727  -0.213  1.00  0.00     0.057 A 
ATOM     79  C   UNL     1      -3.891 -12.661   0.759  1.00  0.00     0.134 A 
ATOM     80  C   UNL     1      -4.996 -10.610   0.218  1.00  0.00     0.134 A 
ATOM     81  F   UNL     1      -3.216 -13.765   0.408  1.00  0.00    -0.206 F 
ATOM     82  C   UNL     1      -4.247 -12.507   2.100  1.00  0.00     0.040 A 
ATOM     83  C   UNL     1      -5.332 -10.428   1.560  1.00  0.00     0.040 A 
ATOM     84  F   UNL     1      -5.391  -9.677  -0.661  1.00  0.00    -0.206 F 
ATOM     85  C   UNL     1      -4.967 -11.385   2.505  1.00  0.00     0.006 A 
ENDBRANCH  57  78
BRANCH  69  86
ATOM     86  C   UNL     1      -6.334 -16.505  -4.845  1.00  0.00     0.057 A 
ATOM     87  C   UNL     1      -7.719 -16.409  -4.659  1.00  0.00     0.134 A 
ATOM     88  C   UNL     1      -5.788 -17.790  -4.967  1.00  0.00     0.134 A 
ATOM     89  F   UNL     1      -8.306 -15.210  -4.524  1.00  0.00    -0.206 F 
ATOM     90  C   UNL     1      -8.524 -17.547  -4.569  1.00  0.00     0.040 A 
ATOM     91  C   UNL     1      -6.587 -18.933  -4.912  1.00  0.00     0.040 A 
ATOM     92  F   UNL     1      -4.471 -17.955  -5.160  1.00  0.00    -0.206 F 
ATOM     93  C   UNL     1      -7.958 -18.813  -4.704  1.00  0.00     0.006 A 
ENDBRANCH  69  86
ENDBRANCH  43  44
ENDBRANCH  36  38
ENDBRANCH  35  36
ENDBRANCH  34  35
ENDBRANCH  33  34
ENDBRANCH  32  33
ENDBRANCH  31  32
ENDBRANCH  30  31
ENDBRANCH   1  30
TORSDOF 22
