REMARK SMILES O=C(OCCOCCOCCOCCOC(=O)[C@H]1CC[C@@H](CNC(=O)N2CCO[C@@H]3CCC[C@H]32)O1)c1ccc(-c2c3nc(c(-c4c(F)cccc4F)c4ccc([nH]4)c(-c4c(F)cccc4F)c4nc(c(-c5c(F)cccc5F)c5ccc2[nH]5)C=C4)C=C3)cc1
REMARK SMILES IDX 10 1 9 2 8 3 7 4 6 5 5 6 4 7 3 8 2 9 1 10 36 11 37 12 89 13
REMARK SMILES IDX 38 14 88 15 39 16 40 17 41 18 82 19 42 20 87 21 81 22 83 23
REMARK SMILES IDX 43 24 86 25 80 26 79 27 44 29 70 30 53 31 69 32 54 33 57 34
REMARK SMILES IDX 68 35 84 36 55 37 56 38 67 40 85 41 58 42 45 43 46 44 51 45
REMARK SMILES IDX 47 46 48 47 50 48 52 49 49 50 71 51 72 52 77 53 73 54 74 55
REMARK SMILES IDX 76 56 78 57 75 58 59 59 60 60 65 61 61 62 62 63 64 64 66 65
REMARK SMILES IDX 63 66 11 67 12 68 13 69 14 70 15 71 16 72 17 73 18 74 19 75
REMARK SMILES IDX 35 76 20 77 21 78 22 79 23 80 24 81 25 83 26 84 27 85 34 86
REMARK SMILES IDX 28 87 30 88 33 89 29 90 31 91 32 92
REMARK H PARENT 83 28 57 39 23 82
REMARK Flexibility Score: inf
ROOT
ATOM      1  C   UNL     1       3.300  -0.939   6.832  1.00  0.00     0.188 C 
ENDROOT
BRANCH   1   2
ATOM      2  O   UNL     1       4.056  -0.408   7.907  1.00  0.00    -0.377 OA
BRANCH   2   3
ATOM      3  C   UNL     1       3.720   0.931   8.241  1.00  0.00     0.188 C 
BRANCH   3   4
ATOM      4  C   UNL     1       2.405   0.954   8.976  1.00  0.00     0.188 C 
BRANCH   4   5
ATOM      5  O   UNL     1       1.358   0.423   8.183  1.00  0.00    -0.376 OA
BRANCH   5   6
ATOM      6  C   UNL     1       0.593   1.252   7.330  1.00  0.00     0.202 C 
BRANCH   6   7
ATOM      7  C   UNL     1      -0.093   2.483   7.936  1.00  0.00     0.261 C 
BRANCH   7   8
ATOM      8  O   UNL     1       0.263   2.885   9.276  1.00  0.00    -0.460 OA
BRANCH   8   9
ATOM      9  C   UNL     1      -0.164   2.533  10.510  1.00  0.00     0.338 C 
ATOM     10  O   UNL     1       0.080   3.293  11.447  1.00  0.00    -0.246 OA
BRANCH   9  11
ATOM     11  C   UNL     1      -0.837   1.245  10.839  1.00  0.00     0.060 A 
ATOM     12  C   UNL     1      -0.825   0.131  10.015  1.00  0.00     0.016 A 
ATOM     13  C   UNL     1      -1.432   1.099  12.103  1.00  0.00     0.016 A 
ATOM     14  C   UNL     1      -1.343  -1.089  10.386  1.00  0.00     0.010 A 
ATOM     15  C   UNL     1      -2.000  -0.122  12.491  1.00  0.00     0.010 A 
ATOM     16  C   UNL     1      -1.956  -1.214  11.618  1.00  0.00    -0.014 A 
BRANCH  16  17
ATOM     17  C   UNL     1      -2.734  -2.439  11.819  1.00  0.00     0.031 A 
ATOM     18  C   UNL     1      -4.210  -2.341  11.608  1.00  0.00     0.074 A 
ATOM     19  C   UNL     1      -2.107  -3.617  11.976  1.00  0.00     0.049 A 
ATOM     20  N   UNL     1      -5.140  -3.215  11.860  1.00  0.00    -0.248 NA
ATOM     21  C   UNL     1      -4.706  -1.084  11.012  1.00  0.00     0.031 C 
ATOM     22  C   UNL     1      -0.653  -3.814  11.950  1.00  0.00     0.029 A 
ATOM     23  N   UNL     1      -2.610  -4.873  12.166  1.00  0.00    -0.354 N 
ATOM     24  C   UNL     1      -6.332  -2.588  11.527  1.00  0.00     0.074 A 
ATOM     25  C   UNL     1      -6.015  -1.280  11.011  1.00  0.00     0.031 C 
ATOM     26  C   UNL     1      -0.385  -5.116  12.141  1.00  0.00     0.029 A 
ATOM     27  C   UNL     1      -1.637  -5.815  12.396  1.00  0.00     0.049 A 
ATOM     28  H   UNL     1      -3.572  -5.082  12.140  1.00  0.00     0.167 HD
ATOM     29  C   UNL     1      -7.581  -3.076  11.686  1.00  0.00     0.037 A 
ATOM     30  C   UNL     1      -1.766  -7.075  12.850  1.00  0.00     0.037 A 
ATOM     31  C   UNL     1      -7.828  -4.397  12.187  1.00  0.00     0.049 A 
ATOM     32  C   UNL     1      -3.164  -7.553  13.141  1.00  0.00     0.074 A 
ATOM     33  C   UNL     1      -9.033  -5.014  12.453  1.00  0.00     0.029 A 
ATOM     34  N   UNL     1      -6.824  -5.308  12.496  1.00  0.00    -0.354 N 
ATOM     35  N   UNL     1      -4.308  -6.941  12.928  1.00  0.00    -0.248 NA
ATOM     36  C   UNL     1      -3.297  -8.871  13.770  1.00  0.00     0.031 C 
ATOM     37  C   UNL     1      -8.754  -6.280  12.978  1.00  0.00     0.029 A 
ATOM     38  C   UNL     1      -7.378  -6.470  12.990  1.00  0.00     0.049 A 
ATOM     39  H   UNL     1      -5.860  -5.146  12.380  1.00  0.00     0.167 HD
ATOM     40  C   UNL     1      -5.294  -7.797  13.391  1.00  0.00     0.074 A 
ATOM     41  C   UNL     1      -4.614  -8.986  13.869  1.00  0.00     0.031 C 
ATOM     42  C   UNL     1      -6.639  -7.624  13.437  1.00  0.00     0.037 A 
BRANCH  29  43
ATOM     43  C   UNL     1      -8.723  -2.142  11.437  1.00  0.00     0.057 A 
ATOM     44  C   UNL     1      -9.121  -1.754  10.153  1.00  0.00     0.134 A 
ATOM     45  C   UNL     1      -9.420  -1.596  12.523  1.00  0.00     0.134 A 
ATOM     46  F   UNL     1      -8.469  -2.207   9.072  1.00  0.00    -0.206 F 
ATOM     47  C   UNL     1     -10.168  -0.850   9.958  1.00  0.00     0.040 A 
ATOM     48  C   UNL     1     -10.480  -0.708  12.341  1.00  0.00     0.040 A 
ATOM     49  F   UNL     1      -9.073  -1.909  13.781  1.00  0.00    -0.206 F 
ATOM     50  C   UNL     1     -10.855  -0.329  11.055  1.00  0.00     0.006 A 
ENDBRANCH  29  43
BRANCH  30  51
ATOM     51  C   UNL     1      -0.572  -7.897  13.184  1.00  0.00     0.057 A 
ATOM     52  C   UNL     1      -0.322  -9.120  12.553  1.00  0.00     0.134 A 
ATOM     53  C   UNL     1       0.327  -7.503  14.187  1.00  0.00     0.134 A 
ATOM     54  F   UNL     1      -1.151  -9.571  11.600  1.00  0.00    -0.206 F 
ATOM     55  C   UNL     1       0.756  -9.930  12.923  1.00  0.00     0.040 A 
ATOM     56  C   UNL     1       1.426  -8.285  14.544  1.00  0.00     0.040 A 
ATOM     57  F   UNL     1       0.150  -6.345  14.841  1.00  0.00    -0.206 F 
ATOM     58  C   UNL     1       1.636  -9.511  13.920  1.00  0.00     0.006 A 
ENDBRANCH  30  51
BRANCH  42  59
ATOM     59  C   UNL     1      -7.440  -8.751  14.007  1.00  0.00     0.057 A 
ATOM     60  C   UNL     1      -7.479  -8.995  15.383  1.00  0.00     0.134 A 
ATOM     61  C   UNL     1      -8.240  -9.541  13.174  1.00  0.00     0.134 A 
ATOM     62  F   UNL     1      -6.721  -8.276  16.225  1.00  0.00    -0.206 F 
ATOM     63  C   UNL     1      -8.285  -9.999  15.915  1.00  0.00     0.040 A 
ATOM     64  C   UNL     1      -9.072 -10.528  13.697  1.00  0.00     0.040 A 
ATOM     65  F   UNL     1      -8.250  -9.341  11.847  1.00  0.00    -0.206 F 
ATOM     66  C   UNL     1      -9.094 -10.760  15.071  1.00  0.00     0.006 A 
ENDBRANCH  42  59
ENDBRANCH  16  17
ENDBRANCH   9  11
ENDBRANCH   8   9
ENDBRANCH   7   8
ENDBRANCH   6   7
ENDBRANCH   5   6
ENDBRANCH   4   5
ENDBRANCH   3   4
ENDBRANCH   2   3
ENDBRANCH   1   2
BRANCH   1  67
ATOM     67  C   UNL     1       2.479  -2.207   7.076  1.00  0.00     0.188 C 
BRANCH  67  68
ATOM     68  O   UNL     1       2.616  -2.942   8.278  1.00  0.00    -0.376 OA
BRANCH  68  69
ATOM     69  C   UNL     1       3.882  -3.017   8.915  1.00  0.00     0.202 C 
BRANCH  69  70
ATOM     70  C   UNL     1       5.071  -3.596   8.125  1.00  0.00     0.261 C 
BRANCH  70  71
ATOM     71  O   UNL     1       5.649  -2.747   7.099  1.00  0.00    -0.461 OA
BRANCH  71  72
ATOM     72  C   UNL     1       5.531  -3.171   5.805  1.00  0.00     0.335 C 
ATOM     73  O   UNL     1       4.859  -4.139   5.462  1.00  0.00    -0.249 OA
BRANCH  72  74
ATOM     74  C   UNL     1       6.303  -2.299   4.772  1.00  0.00     0.228 C 
ATOM     75  C   UNL     1       5.617  -1.030   4.288  1.00  0.00     0.047 C 
ATOM     76  O   UNL     1       7.614  -1.888   5.157  1.00  0.00    -0.361 OA
ATOM     77  C   UNL     1       6.217   0.041   5.179  1.00  0.00     0.037 C 
ATOM     78  C   UNL     1       7.643  -0.448   5.343  1.00  0.00     0.138 C 
BRANCH  78  79
ATOM     79  C   UNL     1       8.360  -0.202   6.676  1.00  0.00     0.149 C 
BRANCH  79  80
ATOM     80  N   UNL     1       7.828   0.804   7.573  1.00  0.00    -0.335 N 
ATOM     81  C   UNL     1       7.459   0.724   8.877  1.00  0.00     0.317 C 
ATOM     82  H   UNL     1       7.715   1.695   7.170  1.00  0.00     0.165 HD
ATOM     83  O   UNL     1       6.828   1.688   9.322  1.00  0.00    -0.249 OA
BRANCH  81  84
ATOM     84  N   UNL     1       7.775  -0.371   9.632  1.00  0.00    -0.317 N 
ATOM     85  C   UNL     1       8.974  -1.208   9.453  1.00  0.00     0.150 C 
ATOM     86  C   UNL     1       6.916  -0.868  10.708  1.00  0.00     0.116 C 
ATOM     87  C   UNL     1       9.667  -1.573  10.777  1.00  0.00     0.182 C 
ATOM     88  C   UNL     1       7.730  -1.120  11.982  1.00  0.00     0.141 C 
ATOM     89  C   UNL     1       5.716  -0.098  11.254  1.00  0.00     0.028 C 
ATOM     90  O   UNL     1       8.747  -2.092  11.751  1.00  0.00    -0.374 OA
ATOM     91  C   UNL     1       6.664  -1.601  12.950  1.00  0.00     0.034 C 
ATOM     92  C   UNL     1       5.470  -0.694  12.651  1.00  0.00     0.005 C 
ENDBRANCH  81  84
ENDBRANCH  79  80
ENDBRANCH  78  79
ENDBRANCH  72  74
ENDBRANCH  71  72
ENDBRANCH  70  71
ENDBRANCH  69  70
ENDBRANCH  68  69
ENDBRANCH  67  68
ENDBRANCH   1  67
TORSDOF 23
