REMARK SMILES COCc1ccccc1C(=O)N1CCC[C@@H](C(=O)OCCOCCOCCOCCOC(=O)c2ccc(-c3c4nc(c(-c5c(F)cccc5F)c5ccc([nH]5)c(-c5c(F)cccc5F)c5nc(c(-c6c(F)cccc6F)c6ccc3[nH]6)C=C5)C=C4)cc2)C1
REMARK SMILES IDX 24 1 23 2 22 3 21 4 20 5 19 6 17 7 18 8 16 9 12 10 13 11
REMARK SMILES IDX 88 12 14 13 15 14 10 15 11 16 9 17 4 18 5 19 6 20 8 21 7 22
REMARK SMILES IDX 3 23 2 24 1 25 25 26 26 27 27 28 28 29 29 30 30 31 31 32
REMARK SMILES IDX 32 33 33 34 34 35 35 36 87 37 36 38 86 39 37 40 38 41 39 42
REMARK SMILES IDX 80 43 40 44 85 45 79 46 81 47 41 48 84 49 78 50 77 51 42 53
REMARK SMILES IDX 68 54 51 55 67 56 52 57 55 58 66 59 82 60 53 61 54 62 65 64
REMARK SMILES IDX 83 65 56 66 43 67 44 68 49 69 45 70 46 71 48 72 50 73 47 74
REMARK SMILES IDX 69 75 70 76 75 77 71 78 72 79 74 80 76 81 73 82 57 83 58 84
REMARK SMILES IDX 63 85 59 86 60 87 62 88 64 89 61 90
REMARK H PARENT 81 52 55 63
REMARK Flexibility Score: inf
ROOT
ATOM      1  C   UNL     1      -0.422  -6.383   2.735  1.00  0.00     0.188 C 
ENDROOT
BRANCH   1   2
ATOM      2  C   UNL     1       0.072  -4.921   2.680  1.00  0.00     0.188 C 
BRANCH   2   3
ATOM      3  O   UNL     1      -0.498  -3.917   3.511  1.00  0.00    -0.376 OA
BRANCH   3   4
ATOM      4  C   UNL     1      -1.865  -3.986   3.881  1.00  0.00     0.202 C 
BRANCH   4   5
ATOM      5  C   UNL     1      -2.953  -4.234   2.817  1.00  0.00     0.261 C 
BRANCH   5   6
ATOM      6  O   UNL     1      -2.496  -4.783   1.569  1.00  0.00    -0.463 OA
BRANCH   6   7
ATOM      7  C   UNL     1      -2.424  -3.925   0.523  1.00  0.00     0.310 C 
ATOM      8  O   UNL     1      -2.806  -2.760   0.563  1.00  0.00    -0.252 OA
BRANCH   7   9
ATOM      9  C   UNL     1      -1.814  -4.546  -0.731  1.00  0.00     0.119 C 
ATOM     10  N   UNL     1      -0.024  -4.072  -2.381  1.00  0.00    -0.338 N 
ATOM     11  C   UNL     1       0.514  -5.426  -2.318  1.00  0.00     0.120 C 
ATOM     12  C   UNL     1      -0.720  -3.580  -1.192  1.00  0.00     0.135 C 
ATOM     13  C   UNL     1      -0.549  -6.425  -1.889  1.00  0.00     0.022 C 
ATOM     14  C   UNL     1      -1.201  -5.947  -0.597  1.00  0.00     0.019 C 
BRANCH  10  15
ATOM     15  C   UNL     1       0.169  -3.343  -3.540  1.00  0.00     0.254 C 
ATOM     16  O   UNL     1       0.403  -3.887  -4.621  1.00  0.00    -0.269 OA
BRANCH  15  17
ATOM     17  C   UNL     1       0.145  -1.856  -3.525  1.00  0.00     0.045 A 
ATOM     18  C   UNL     1       0.963  -1.055  -2.698  1.00  0.00    -0.010 A 
ATOM     19  C   UNL     1       1.048   0.322  -2.989  1.00  0.00     0.007 A 
ATOM     20  C   UNL     1       0.334   0.892  -4.042  1.00  0.00     0.000 A 
ATOM     21  C   UNL     1      -0.583  -1.266  -4.575  1.00  0.00     0.014 A 
ATOM     22  C   UNL     1      -0.493   0.101  -4.828  1.00  0.00     0.001 A 
BRANCH  18  23
ATOM     23  C   UNL     1       1.796  -1.566  -1.546  1.00  0.00     0.196 C 
BRANCH  23  24
ATOM     24  O   UNL     1       1.132  -1.437  -0.286  1.00  0.00    -0.380 OA
ATOM     25  C   UNL     1       1.152  -0.132   0.274  1.00  0.00     0.195 C 
ENDBRANCH  23  24
ENDBRANCH  18  23
ENDBRANCH  15  17
ENDBRANCH  10  15
ENDBRANCH   7   9
ENDBRANCH   6   7
ENDBRANCH   5   6
ENDBRANCH   4   5
ENDBRANCH   3   4
ENDBRANCH   2   3
ENDBRANCH   1   2
BRANCH   1  26
ATOM     26  O   UNL     1      -1.444  -6.617   3.685  1.00  0.00    -0.377 OA
BRANCH  26  27
ATOM     27  C   UNL     1      -1.024  -7.382   4.797  1.00  0.00     0.188 C 
BRANCH  27  28
ATOM     28  C   UNL     1       0.147  -6.779   5.590  1.00  0.00     0.188 C 
BRANCH  28  29
ATOM     29  O   UNL     1       1.318  -6.585   4.798  1.00  0.00    -0.376 OA
BRANCH  29  30
ATOM     30  C   UNL     1       2.381  -7.517   4.948  1.00  0.00     0.202 C 
BRANCH  30  31
ATOM     31  C   UNL     1       2.205  -8.866   4.229  1.00  0.00     0.261 C 
BRANCH  31  32
ATOM     32  O   UNL     1       1.044  -9.633   4.589  1.00  0.00    -0.460 OA
BRANCH  32  33
ATOM     33  C   UNL     1       0.897  -9.992   5.883  1.00  0.00     0.338 C 
ATOM     34  O   UNL     1       1.685  -9.801   6.792  1.00  0.00    -0.246 OA
BRANCH  33  35
ATOM     35  C   UNL     1      -0.499 -10.455   6.063  1.00  0.00     0.060 A 
ATOM     36  C   UNL     1      -1.300  -9.810   7.017  1.00  0.00     0.016 A 
ATOM     37  C   UNL     1      -1.038 -11.461   5.257  1.00  0.00     0.016 A 
ATOM     38  C   UNL     1      -2.639 -10.174   7.171  1.00  0.00     0.010 A 
ATOM     39  C   UNL     1      -2.368 -11.852   5.439  1.00  0.00     0.010 A 
ATOM     40  C   UNL     1      -3.167 -11.226   6.413  1.00  0.00    -0.014 A 
BRANCH  40  41
ATOM     41  C   UNL     1      -4.468 -11.825   6.799  1.00  0.00     0.031 A 
ATOM     42  C   UNL     1      -4.446 -13.006   7.730  1.00  0.00     0.074 A 
ATOM     43  C   UNL     1      -5.639 -11.334   6.358  1.00  0.00     0.049 A 
ATOM     44  N   UNL     1      -5.433 -13.744   8.165  1.00  0.00    -0.248 NA
ATOM     45  C   UNL     1      -3.123 -13.406   8.238  1.00  0.00     0.031 C 
ATOM     46  C   UNL     1      -5.801 -10.164   5.498  1.00  0.00     0.029 A 
ATOM     47  N   UNL     1      -6.923 -11.775   6.572  1.00  0.00    -0.354 N 
ATOM     48  C   UNL     1      -4.851 -14.697   8.992  1.00  0.00     0.074 A 
ATOM     49  C   UNL     1      -3.425 -14.462   8.976  1.00  0.00     0.031 C 
ATOM     50  C   UNL     1      -7.110  -9.989   5.244  1.00  0.00     0.029 A 
ATOM     51  C   UNL     1      -7.875 -11.054   5.893  1.00  0.00     0.049 A 
ATOM     52  H   UNL     1      -7.140 -12.536   7.157  1.00  0.00     0.167 HD
ATOM     53  C   UNL     1      -5.452 -15.676   9.706  1.00  0.00     0.037 A 
ATOM     54  C   UNL     1      -9.204 -11.252   5.788  1.00  0.00     0.037 A 
ATOM     55  C   UNL     1      -6.870 -15.916   9.712  1.00  0.00     0.049 A 
ATOM     56  C   UNL     1      -9.840 -12.412   6.514  1.00  0.00     0.074 A 
ATOM     57  C   UNL     1      -7.577 -16.880  10.408  1.00  0.00     0.029 A 
ATOM     58  N   UNL     1      -7.795 -15.191   8.977  1.00  0.00    -0.354 N 
ATOM     59  N   UNL     1      -9.287 -13.297   7.309  1.00  0.00    -0.248 NA
ATOM     60  C   UNL     1     -11.286 -12.603   6.325  1.00  0.00     0.031 C 
ATOM     61  C   UNL     1      -8.924 -16.774  10.050  1.00  0.00     0.029 A 
ATOM     62  C   UNL     1      -9.064 -15.706   9.178  1.00  0.00     0.049 A 
ATOM     63  H   UNL     1      -7.581 -14.424   8.398  1.00  0.00     0.167 HD
ATOM     64  C   UNL     1     -10.318 -14.125   7.738  1.00  0.00     0.074 A 
ATOM     65  C   UNL     1     -11.533 -13.632   7.123  1.00  0.00     0.031 C 
ATOM     66  C   UNL     1     -10.265 -15.197   8.568  1.00  0.00     0.037 A 
BRANCH  53  67
ATOM     67  C   UNL     1      -4.568 -16.583  10.510  1.00  0.00     0.057 A 
ATOM     68  C   UNL     1      -3.910 -16.143  11.666  1.00  0.00     0.134 A 
ATOM     69  C   UNL     1      -4.388 -17.919  10.132  1.00  0.00     0.134 A 
ATOM     70  F   UNL     1      -4.025 -14.869  12.071  1.00  0.00    -0.206 F 
ATOM     71  C   UNL     1      -3.087 -16.994  12.405  1.00  0.00     0.040 A 
ATOM     72  C   UNL     1      -3.590 -18.787  10.877  1.00  0.00     0.040 A 
ATOM     73  F   UNL     1      -4.988 -18.403   9.034  1.00  0.00    -0.206 F 
ATOM     74  C   UNL     1      -2.931 -18.323  12.015  1.00  0.00     0.006 A 
ENDBRANCH  53  67
BRANCH  54  75
ATOM     75  C   UNL     1     -10.033 -10.352   4.943  1.00  0.00     0.057 A 
ATOM     76  C   UNL     1     -10.995  -9.507   5.507  1.00  0.00     0.134 A 
ATOM     77  C   UNL     1      -9.910 -10.346   3.548  1.00  0.00     0.134 A 
ATOM     78  F   UNL     1     -11.183  -9.488   6.835  1.00  0.00    -0.206 F 
ATOM     79  C   UNL     1     -11.818  -8.702   4.716  1.00  0.00     0.040 A 
ATOM     80  C   UNL     1     -10.706  -9.526   2.746  1.00  0.00     0.040 A 
ATOM     81  F   UNL     1      -9.012 -11.136   2.943  1.00  0.00    -0.206 F 
ATOM     82  C   UNL     1     -11.670  -8.706   3.330  1.00  0.00     0.006 A 
ENDBRANCH  54  75
BRANCH  66  83
ATOM     83  C   UNL     1     -11.558 -15.887   8.897  1.00  0.00     0.057 A 
ATOM     84  C   UNL     1     -12.235 -16.680   7.962  1.00  0.00     0.134 A 
ATOM     85  C   UNL     1     -12.099 -15.806  10.187  1.00  0.00     0.134 A 
ATOM     86  F   UNL     1     -11.777 -16.792   6.706  1.00  0.00    -0.206 F 
ATOM     87  C   UNL     1     -13.414 -17.352   8.293  1.00  0.00     0.040 A 
ATOM     88  C   UNL     1     -13.259 -16.497  10.539  1.00  0.00     0.040 A 
ATOM     89  F   UNL     1     -11.493 -15.074  11.135  1.00  0.00    -0.206 F 
ATOM     90  C   UNL     1     -13.924 -17.268   9.588  1.00  0.00     0.006 A 
ENDBRANCH  66  83
ENDBRANCH  40  41
ENDBRANCH  33  35
ENDBRANCH  32  33
ENDBRANCH  31  32
ENDBRANCH  30  31
ENDBRANCH  29  30
ENDBRANCH  28  29
ENDBRANCH  27  28
ENDBRANCH  26  27
ENDBRANCH   1  26
TORSDOF 24
