REMARK SMILES CCc1n[nH]c(C(=O)N[C@@]2(C(=O)OCCOCCOCCOCCOC(=O)c3ccc(-c4c5nc(c(-c6c(F)cccc6F)c6ccc([nH]6)c(-c6c(F)cccc6F)c6nc(c(-c7c(F)cccc7F)c7ccc4[nH]7)C=C6)C=C5)cc3)CCCC[C@H]2C)n1
REMARK SMILES IDX 18 1 17 2 16 3 15 4 14 5 13 6 11 7 12 8 10 9 82 10 86 11
REMARK SMILES IDX 83 12 85 13 87 14 84 15 9 16 7 17 8 18 6 20 3 21 4 22 88 23
REMARK SMILES IDX 5 24 2 26 1 27 19 28 20 29 21 30 22 31 23 32 24 33 25 34
REMARK SMILES IDX 26 35 27 36 28 37 29 38 81 39 30 40 80 41 31 42 32 43 33 44
REMARK SMILES IDX 74 45 34 46 79 47 73 48 75 49 35 50 78 51 72 52 71 53 36 55
REMARK SMILES IDX 62 56 45 57 61 58 46 59 49 60 60 61 76 62 47 63 48 64 59 66
REMARK SMILES IDX 77 67 50 68 37 69 38 70 43 71 39 72 40 73 42 74 44 75 41 76
REMARK SMILES IDX 63 77 64 78 69 79 65 80 66 81 68 82 70 83 67 84 51 85 52 86
REMARK SMILES IDX 57 87 53 88 54 89 56 90 58 91 55 92
REMARK H PARENT 9 19 5 25 75 54 49 65
REMARK Flexibility Score: inf
ROOT
ATOM      1  C   UNL     1      -0.299   1.793  -6.390  1.00  0.00     0.188 C 
ENDROOT
BRANCH   1   2
ATOM      2  C   UNL     1      -0.769   0.517  -5.688  1.00  0.00     0.188 C 
BRANCH   2   3
ATOM      3  O   UNL     1      -1.273   0.787  -4.387  1.00  0.00    -0.376 OA
BRANCH   3   4
ATOM      4  C   UNL     1      -0.373   1.012  -3.311  1.00  0.00     0.202 C 
BRANCH   4   5
ATOM      5  C   UNL     1       0.841   1.962  -3.434  1.00  0.00     0.261 C 
BRANCH   5   6
ATOM      6  O   UNL     1       2.004   1.620  -4.234  1.00  0.00    -0.461 OA
BRANCH   6   7
ATOM      7  C   UNL     1       2.236   0.343  -4.615  1.00  0.00     0.332 C 
ATOM      8  O   UNL     1       1.454  -0.577  -4.421  1.00  0.00    -0.249 OA
BRANCH   7   9
ATOM      9  C   UNL     1       3.559   0.151  -5.408  1.00  0.00     0.141 C 
ATOM     10  C   UNL     1       4.750   0.720  -4.611  1.00  0.00     0.041 C 
ATOM     11  C   UNL     1       3.393   0.916  -6.786  1.00  0.00     0.023 C 
ATOM     12  C   UNL     1       6.021   0.841  -5.448  1.00  0.00     0.003 C 
ATOM     13  C   UNL     1       4.709   1.176  -7.540  1.00  0.00     0.006 C 
ATOM     14  C   UNL     1       2.428   0.241  -7.779  1.00  0.00     0.011 C 
ATOM     15  C   UNL     1       5.795   1.747  -6.647  1.00  0.00     0.000 C 
BRANCH   9  16
ATOM     16  N   UNL     1       3.765  -1.304  -5.670  1.00  0.00    -0.333 N 
ATOM     17  C   UNL     1       3.634  -2.420  -4.859  1.00  0.00     0.289 C 
ATOM     18  O   UNL     1       3.842  -3.507  -5.407  1.00  0.00    -0.266 OA
ATOM     19  H   UNL     1       4.047  -1.509  -6.591  1.00  0.00     0.165 HD
BRANCH  17  20
ATOM     20  C   UNL     1       3.138  -2.349  -3.496  1.00  0.00     0.214 A 
ATOM     21  C   UNL     1       2.289  -1.670  -1.675  1.00  0.00     0.151 A 
ATOM     22  N   UNL     1       1.695  -2.857  -1.846  1.00  0.00    -0.158 NA
ATOM     23  N   UNL     1       3.255  -1.368  -2.615  1.00  0.00    -0.207 NA
ATOM     24  N   UNL     1       2.247  -3.266  -3.003  1.00  0.00    -0.255 N 
ATOM     25  H   UNL     1       2.037  -4.122  -3.442  1.00  0.00     0.192 HD
BRANCH  21  26
ATOM     26  C   UNL     1       1.749  -0.641  -0.742  1.00  0.00     0.076 C 
ATOM     27  C   UNL     1       1.813  -1.004   0.726  1.00  0.00     0.012 C 
ENDBRANCH  21  26
ENDBRANCH  17  20
ENDBRANCH   9  16
ENDBRANCH   7   9
ENDBRANCH   6   7
ENDBRANCH   5   6
ENDBRANCH   4   5
ENDBRANCH   3   4
ENDBRANCH   2   3
ENDBRANCH   1   2
BRANCH   1  28
ATOM     28  O   UNL     1      -0.762   2.952  -5.721  1.00  0.00    -0.377 OA
BRANCH  28  29
ATOM     29  C   UNL     1      -2.119   3.312  -5.913  1.00  0.00     0.188 C 
BRANCH  29  30
ATOM     30  C   UNL     1      -3.181   2.272  -6.330  1.00  0.00     0.188 C 
BRANCH  30  31
ATOM     31  O   UNL     1      -2.747   1.416  -7.380  1.00  0.00    -0.376 OA
BRANCH  31  32
ATOM     32  C   UNL     1      -3.245   1.569  -8.690  1.00  0.00     0.202 C 
BRANCH  32  33
ATOM     33  C   UNL     1      -2.635   2.716  -9.501  1.00  0.00     0.261 C 
BRANCH  33  34
ATOM     34  O   UNL     1      -2.655   4.005  -8.879  1.00  0.00    -0.460 OA
BRANCH  34  35
ATOM     35  C   UNL     1      -3.857   4.536  -8.567  1.00  0.00     0.338 C 
ATOM     36  O   UNL     1      -4.954   4.066  -8.815  1.00  0.00    -0.246 OA
BRANCH  35  37
ATOM     37  C   UNL     1      -3.610   5.681  -7.657  1.00  0.00     0.060 A 
ATOM     38  C   UNL     1      -4.330   5.746  -6.455  1.00  0.00     0.016 A 
ATOM     39  C   UNL     1      -2.591   6.605  -7.920  1.00  0.00     0.016 A 
ATOM     40  C   UNL     1      -4.062   6.761  -5.537  1.00  0.00     0.010 A 
ATOM     41  C   UNL     1      -2.345   7.640  -7.016  1.00  0.00     0.010 A 
ATOM     42  C   UNL     1      -3.112   7.745  -5.845  1.00  0.00    -0.014 A 
BRANCH  42  43
ATOM     43  C   UNL     1      -3.174   9.037  -5.124  1.00  0.00     0.031 A 
ATOM     44  C   UNL     1      -4.141  10.060  -5.659  1.00  0.00     0.074 A 
ATOM     45  C   UNL     1      -2.439   9.293  -4.030  1.00  0.00     0.049 A 
ATOM     46  N   UNL     1      -4.428  11.253  -5.210  1.00  0.00    -0.248 NA
ATOM     47  C   UNL     1      -4.891   9.676  -6.870  1.00  0.00     0.031 C 
ATOM     48  C   UNL     1      -1.489   8.374  -3.405  1.00  0.00     0.029 A 
ATOM     49  N   UNL     1      -2.384  10.419  -3.248  1.00  0.00    -0.354 N 
ATOM     50  C   UNL     1      -5.401  11.748  -6.069  1.00  0.00     0.074 A 
ATOM     51  C   UNL     1      -5.629  10.750  -7.088  1.00  0.00     0.031 C 
ATOM     52  C   UNL     1      -0.937   8.980  -2.337  1.00  0.00     0.029 A 
ATOM     53  C   UNL     1      -1.485  10.331  -2.214  1.00  0.00     0.049 A 
ATOM     54  H   UNL     1      -2.938  11.217  -3.413  1.00  0.00     0.167 HD
ATOM     55  C   UNL     1      -6.059  12.927  -6.011  1.00  0.00     0.037 A 
ATOM     56  C   UNL     1      -1.147  11.246  -1.284  1.00  0.00     0.037 A 
ATOM     57  C   UNL     1      -5.808  13.935  -5.021  1.00  0.00     0.049 A 
ATOM     58  C   UNL     1      -1.840  12.586  -1.284  1.00  0.00     0.074 A 
ATOM     59  C   UNL     1      -6.402  15.175  -4.880  1.00  0.00     0.029 A 
ATOM     60  N   UNL     1      -4.871  13.816  -4.006  1.00  0.00    -0.354 N 
ATOM     61  N   UNL     1      -2.785  13.032  -2.077  1.00  0.00    -0.248 NA
ATOM     62  C   UNL     1      -1.426  13.546  -0.250  1.00  0.00     0.031 C 
ATOM     63  C   UNL     1      -5.795  15.825  -3.801  1.00  0.00     0.029 A 
ATOM     64  C   UNL     1      -4.859  14.969  -3.242  1.00  0.00     0.049 A 
ATOM     65  H   UNL     1      -4.300  13.030  -3.852  1.00  0.00     0.167 HD
ATOM     66  C   UNL     1      -3.103  14.304  -1.617  1.00  0.00     0.074 A 
ATOM     67  C   UNL     1      -2.255  14.556  -0.470  1.00  0.00     0.031 C 
ATOM     68  C   UNL     1      -4.016  15.186  -2.095  1.00  0.00     0.037 A 
BRANCH  55  69
ATOM     69  C   UNL     1      -7.088  13.185  -7.070  1.00  0.00     0.057 A 
ATOM     70  C   UNL     1      -8.316  12.510  -7.082  1.00  0.00     0.134 A 
ATOM     71  C   UNL     1      -6.844  14.108  -8.093  1.00  0.00     0.134 A 
ATOM     72  F   UNL     1      -8.597  11.591  -6.146  1.00  0.00    -0.206 F 
ATOM     73  C   UNL     1      -9.259  12.732  -8.087  1.00  0.00     0.040 A 
ATOM     74  C   UNL     1      -7.789  14.356  -9.089  1.00  0.00     0.040 A 
ATOM     75  F   UNL     1      -5.684  14.779  -8.143  1.00  0.00    -0.206 F 
ATOM     76  C   UNL     1      -8.998  13.663  -9.091  1.00  0.00     0.006 A 
ENDBRANCH  55  69
BRANCH  56  77
ATOM     77  C   UNL     1      -0.105  10.939  -0.269  1.00  0.00     0.057 A 
ATOM     78  C   UNL     1      -0.429  10.794   1.086  1.00  0.00     0.134 A 
ATOM     79  C   UNL     1       1.245  10.830  -0.623  1.00  0.00     0.134 A 
ATOM     80  F   UNL     1      -1.701  10.914   1.492  1.00  0.00    -0.206 F 
ATOM     81  C   UNL     1       0.553  10.574   2.054  1.00  0.00     0.040 A 
ATOM     82  C   UNL     1       2.235  10.587   0.332  1.00  0.00     0.040 A 
ATOM     83  F   UNL     1       1.623  10.963  -1.902  1.00  0.00    -0.206 F 
ATOM     84  C   UNL     1       1.890  10.467   1.677  1.00  0.00     0.006 A 
ENDBRANCH  56  77
BRANCH  68  85
ATOM     85  C   UNL     1      -4.181  16.478  -1.350  1.00  0.00     0.057 A 
ATOM     86  C   UNL     1      -3.221  17.495  -1.405  1.00  0.00     0.134 A 
ATOM     87  C   UNL     1      -5.342  16.721  -0.604  1.00  0.00     0.134 A 
ATOM     88  F   UNL     1      -2.085  17.321  -2.096  1.00  0.00    -0.206 F 
ATOM     89  C   UNL     1      -3.398  18.700  -0.722  1.00  0.00     0.040 A 
ATOM     90  C   UNL     1      -5.542  17.930   0.061  1.00  0.00     0.040 A 
ATOM     91  F   UNL     1      -6.307  15.792  -0.522  1.00  0.00    -0.206 F 
ATOM     92  C   UNL     1      -4.564  18.922   0.009  1.00  0.00     0.006 A 
ENDBRANCH  68  85
ENDBRANCH  42  43
ENDBRANCH  35  37
ENDBRANCH  34  35
ENDBRANCH  33  34
ENDBRANCH  32  33
ENDBRANCH  31  32
ENDBRANCH  30  31
ENDBRANCH  29  30
ENDBRANCH  28  29
ENDBRANCH   1  28
TORSDOF 23
