REMARK SMILES C[C@H](Oc1ccc(/C=C2/SC(=S)N(c3ccc(F)c(Cl)c3)C2=O)cc1)C(=O)OCCOCCOCCOCCOC(=O)c1ccc(-c2c3nc(c(-c4c(F)cccc4F)c4ccc([nH]4)c(-c4c(F)cccc4F)c4nc(c(-c5c(F)cccc5F)c5ccc2[nH]5)C=C4)C=C3)cc1
REMARK SMILES IDX 33 1 32 2 31 3 30 4 29 5 28 6 26 7 27 8 2 9 1 10 3 11 4 12
REMARK SMILES IDX 5 13 25 14 6 15 24 16 7 17 8 18 9 19 10 20 22 21 11 22 13 23
REMARK SMILES IDX 23 24 12 25 14 26 15 27 21 28 16 29 19 30 17 31 20 32 18 33
REMARK SMILES IDX 34 34 35 35 36 36 37 37 38 38 39 39 40 40 41 41 42 42 43 43
REMARK SMILES IDX 44 44 96 45 45 46 95 47 46 48 47 49 48 50 89 51 49 52 94 53
REMARK SMILES IDX 88 54 90 55 50 56 93 57 87 58 86 59 51 61 77 62 60 63 76 64
REMARK SMILES IDX 61 65 64 66 75 67 91 68 62 69 63 70 74 72 92 73 65 74 52 75
REMARK SMILES IDX 53 76 58 77 54 78 55 79 57 80 59 81 56 82 78 83 79 84 84 85
REMARK SMILES IDX 80 86 81 87 83 88 85 89 82 90 66 91 67 92 72 93 68 94 69 95
REMARK SMILES IDX 71 96 73 97 70 98
REMARK H PARENT 90 60 64 71
REMARK Flexibility Score: inf
ROOT
ATOM      1  C   UNL     1      -1.266   0.699   0.811  1.00  0.00     0.188 C 
ENDROOT
BRANCH   1   2
ATOM      2  C   UNL     1      -1.825   1.943   0.098  1.00  0.00     0.188 C 
BRANCH   2   3
ATOM      3  O   UNL     1      -3.146   1.975  -0.424  1.00  0.00    -0.376 OA
BRANCH   3   4
ATOM      4  C   UNL     1      -3.717   0.903  -1.155  1.00  0.00     0.202 C 
BRANCH   4   5
ATOM      5  C   UNL     1      -2.966   0.075  -2.209  1.00  0.00     0.261 C 
BRANCH   5   6
ATOM      6  O   UNL     1      -1.567  -0.127  -2.018  1.00  0.00    -0.461 OA
BRANCH   6   7
ATOM      7  C   UNL     1      -0.756   0.782  -2.612  1.00  0.00     0.347 C 
ATOM      8  O   UNL     1      -1.151   1.747  -3.260  1.00  0.00    -0.248 OA
BRANCH   7   9
ATOM      9  C   UNL     1       0.730   0.428  -2.465  1.00  0.00     0.279 C 
ATOM     10  C   UNL     1       1.094  -0.216  -3.802  1.00  0.00     0.066 C 
BRANCH   9  11
ATOM     11  O   UNL     1       0.982  -0.377  -1.312  1.00  0.00    -0.479 OA
BRANCH  11  12
ATOM     12  C   UNL     1       2.224  -0.848  -1.000  1.00  0.00     0.120 A 
ATOM     13  C   UNL     1       3.349  -0.792  -1.813  1.00  0.00     0.047 A 
ATOM     14  C   UNL     1       2.313  -1.534   0.215  1.00  0.00     0.047 A 
ATOM     15  C   UNL     1       4.462  -1.592  -1.534  1.00  0.00     0.012 A 
ATOM     16  C   UNL     1       3.455  -2.279   0.535  1.00  0.00     0.012 A 
ATOM     17  C   UNL     1       4.488  -2.401  -0.397  1.00  0.00    -0.024 A 
BRANCH  17  18
ATOM     18  C   UNL     1       5.568  -3.388  -0.265  1.00  0.00     0.029 C 
ATOM     19  C   UNL     1       5.407  -4.715  -0.132  1.00  0.00     0.081 C 
ATOM     20  S   UNL     1       6.744  -5.799  -0.030  1.00  0.00    -0.054 SA
ATOM     21  C   UNL     1       4.130  -5.488  -0.021  1.00  0.00     0.270 C 
ATOM     22  C   UNL     1       5.722  -7.200   0.288  1.00  0.00     0.152 C 
ATOM     23  N   UNL     1       4.393  -6.809   0.335  1.00  0.00    -0.261 N 
ATOM     24  O   UNL     1       3.023  -4.995  -0.187  1.00  0.00    -0.268 OA
ATOM     25  S   UNL     1       6.382  -8.733   0.398  1.00  0.00    -0.051 S 
BRANCH  23  26
ATOM     26  C   UNL     1       3.312  -7.640   0.774  1.00  0.00     0.052 A 
ATOM     27  C   UNL     1       2.086  -7.656   0.087  1.00  0.00     0.030 A 
ATOM     28  C   UNL     1       3.415  -8.352   1.979  1.00  0.00     0.050 A 
ATOM     29  C   UNL     1       0.992  -8.369   0.587  1.00  0.00     0.043 A 
ATOM     30  C   UNL     1       2.314  -9.049   2.486  1.00  0.00     0.078 A 
ATOM     31  C   UNL     1       1.110  -9.055   1.789  1.00  0.00     0.141 A 
ATOM     32  Cl  UNL     1       2.454  -9.851   4.004  1.00  0.00    -0.081 Cl
ATOM     33  F   UNL     1       0.040  -9.701   2.273  1.00  0.00    -0.205 F 
ENDBRANCH  23  26
ENDBRANCH  17  18
ENDBRANCH  11  12
ENDBRANCH   9  11
ENDBRANCH   7   9
ENDBRANCH   6   7
ENDBRANCH   5   6
ENDBRANCH   4   5
ENDBRANCH   3   4
ENDBRANCH   2   3
ENDBRANCH   1   2
BRANCH   1  34
ATOM     34  O   UNL     1      -2.029  -0.473   0.604  1.00  0.00    -0.377 OA
BRANCH  34  35
ATOM     35  C   UNL     1      -2.963  -0.814   1.620  1.00  0.00     0.188 C 
BRANCH  35  36
ATOM     36  C   UNL     1      -3.753   0.322   2.306  1.00  0.00     0.188 C 
BRANCH  36  37
ATOM     37  O   UNL     1      -2.941   1.393   2.767  1.00  0.00    -0.376 OA
BRANCH  37  38
ATOM     38  C   UNL     1      -2.633   1.460   4.150  1.00  0.00     0.202 C 
BRANCH  38  39
ATOM     39  C   UNL     1      -1.715   0.364   4.714  1.00  0.00     0.261 C 
BRANCH  39  40
ATOM     40  O   UNL     1      -2.159  -0.990   4.535  1.00  0.00    -0.460 OA
BRANCH  40  41
ATOM     41  C   UNL     1      -3.331  -1.347   5.097  1.00  0.00     0.338 C 
ATOM     42  O   UNL     1      -4.050  -0.656   5.803  1.00  0.00    -0.246 OA
BRANCH  41  43
ATOM     43  C   UNL     1      -3.713  -2.667   4.554  1.00  0.00     0.060 A 
ATOM     44  C   UNL     1      -4.927  -2.793   3.866  1.00  0.00     0.016 A 
ATOM     45  C   UNL     1      -2.878  -3.775   4.721  1.00  0.00     0.016 A 
ATOM     46  C   UNL     1      -5.331  -4.037   3.380  1.00  0.00     0.010 A 
ATOM     47  C   UNL     1      -3.293  -5.025   4.253  1.00  0.00     0.010 A 
ATOM     48  C   UNL     1      -4.538  -5.168   3.615  1.00  0.00    -0.014 A 
BRANCH  48  49
ATOM     49  C   UNL     1      -5.102  -6.521   3.386  1.00  0.00     0.031 A 
ATOM     50  C   UNL     1      -5.664  -7.267   4.566  1.00  0.00     0.074 A 
ATOM     51  C   UNL     1      -5.137  -7.073   2.161  1.00  0.00     0.049 A 
ATOM     52  N   UNL     1      -6.156  -8.477   4.632  1.00  0.00    -0.248 NA
ATOM     53  C   UNL     1      -5.668  -6.545   5.850  1.00  0.00     0.031 C 
ATOM     54  C   UNL     1      -4.671  -6.438   0.931  1.00  0.00     0.029 A 
ATOM     55  N   UNL     1      -5.581  -8.308   1.756  1.00  0.00    -0.354 N 
ATOM     56  C   UNL     1      -6.516  -8.665   5.960  1.00  0.00     0.074 A 
ATOM     57  C   UNL     1      -6.159  -7.458   6.673  1.00  0.00     0.031 C 
ATOM     58  C   UNL     1      -4.840  -7.295  -0.092  1.00  0.00     0.029 A 
ATOM     59  C   UNL     1      -5.391  -8.550   0.418  1.00  0.00     0.049 A 
ATOM     60  H   UNL     1      -5.996  -8.959   2.368  1.00  0.00     0.167 HD
ATOM     61  C   UNL     1      -7.099  -9.744   6.535  1.00  0.00     0.037 A 
ATOM     62  C   UNL     1      -5.612  -9.666  -0.303  1.00  0.00     0.037 A 
ATOM     63  C   UNL     1      -7.447 -10.946   5.826  1.00  0.00     0.049 A 
ATOM     64  C   UNL     1      -6.183 -10.887   0.376  1.00  0.00     0.074 A 
ATOM     65  C   UNL     1      -8.056 -12.088   6.314  1.00  0.00     0.029 A 
ATOM     66  N   UNL     1      -7.206 -11.166   4.478  1.00  0.00    -0.354 N 
ATOM     67  N   UNL     1      -6.547 -11.047   1.625  1.00  0.00    -0.248 NA
ATOM     68  C   UNL     1      -6.375 -12.082  -0.459  1.00  0.00     0.031 C 
ATOM     69  C   UNL     1      -8.127 -13.023   5.277  1.00  0.00     0.029 A 
ATOM     70  C   UNL     1      -7.625 -12.438   4.125  1.00  0.00     0.049 A 
ATOM     71  H   UNL     1      -6.796 -10.514   3.864  1.00  0.00     0.167 HD
ATOM     72  C   UNL     1      -7.040 -12.344   1.718  1.00  0.00     0.074 A 
ATOM     73  C   UNL     1      -6.942 -12.922   0.394  1.00  0.00     0.031 C 
ATOM     74  C   UNL     1      -7.530 -12.998   2.800  1.00  0.00     0.037 A 
BRANCH  61  75
ATOM     75  C   UNL     1      -7.362  -9.682   8.012  1.00  0.00     0.057 A 
ATOM     76  C   UNL     1      -8.341  -8.841   8.560  1.00  0.00     0.134 A 
ATOM     77  C   UNL     1      -6.643 -10.496   8.897  1.00  0.00     0.134 A 
ATOM     78  F   UNL     1      -9.054  -8.024   7.771  1.00  0.00    -0.206 F 
ATOM     79  C   UNL     1      -8.575  -8.793   9.935  1.00  0.00     0.040 A 
ATOM     80  C   UNL     1      -6.890 -10.479  10.271  1.00  0.00     0.040 A 
ATOM     81  F   UNL     1      -5.695 -11.328   8.441  1.00  0.00    -0.206 F 
ATOM     82  C   UNL     1      -7.853  -9.620  10.794  1.00  0.00     0.006 A 
ENDBRANCH  61  75
BRANCH  62  83
ATOM     83  C   UNL     1      -5.278  -9.699  -1.752  1.00  0.00     0.057 A 
ATOM     84  C   UNL     1      -6.277  -9.819  -2.725  1.00  0.00     0.134 A 
ATOM     85  C   UNL     1      -3.951  -9.646  -2.197  1.00  0.00     0.134 A 
ATOM     86  F   UNL     1      -7.566  -9.900  -2.362  1.00  0.00    -0.206 F 
ATOM     87  C   UNL     1      -5.970  -9.908  -4.084  1.00  0.00     0.040 A 
ATOM     88  C   UNL     1      -3.631  -9.705  -3.554  1.00  0.00     0.040 A 
ATOM     89  F   UNL     1      -2.944  -9.530  -1.318  1.00  0.00    -0.206 F 
ATOM     90  C   UNL     1      -4.642  -9.846  -4.502  1.00  0.00     0.006 A 
ENDBRANCH  62  83
BRANCH  74  91
ATOM     91  C   UNL     1      -8.043 -14.397   2.594  1.00  0.00     0.057 A 
ATOM     92  C   UNL     1      -7.187 -15.473   2.329  1.00  0.00     0.134 A 
ATOM     93  C   UNL     1      -9.412 -14.675   2.708  1.00  0.00     0.134 A 
ATOM     94  F   UNL     1      -5.867 -15.276   2.197  1.00  0.00    -0.206 F 
ATOM     95  C   UNL     1      -7.676 -16.770   2.158  1.00  0.00     0.040 A 
ATOM     96  C   UNL     1      -9.909 -15.972   2.572  1.00  0.00     0.040 A 
ATOM     97  F   UNL     1     -10.288 -13.694   2.974  1.00  0.00    -0.206 F 
ATOM     98  C   UNL     1      -9.041 -17.023   2.288  1.00  0.00     0.006 A 
ENDBRANCH  74  91
ENDBRANCH  48  49
ENDBRANCH  41  43
ENDBRANCH  40  41
ENDBRANCH  39  40
ENDBRANCH  38  39
ENDBRANCH  37  38
ENDBRANCH  36  37
ENDBRANCH  35  36
ENDBRANCH  34  35
ENDBRANCH   1  34
TORSDOF 24
