REMARK SMILES C[C@H](NC(=O)CCn1ccccc1=O)C(=O)OCCOCCOCCOCCOC(=O)c1ccc(-c2c3nc(c(-c4c(F)cccc4F)c4ccc([nH]4)c(-c4c(F)cccc4F)c4nc(c(-c5c(F)cccc5F)c5ccc2[nH]5)C=C4)C=C3)cc1
REMARK SMILES IDX 22 1 21 2 20 3 19 4 18 5 17 6 15 7 16 8 2 9 1 10 3 11 4 12
REMARK SMILES IDX 5 14 6 15 7 16 8 17 9 18 13 19 10 20 12 21 14 22 11 23 23 24
REMARK SMILES IDX 24 25 25 26 26 27 27 28 28 29 29 30 30 31 31 32 32 33 33 34
REMARK SMILES IDX 85 35 34 36 84 37 35 38 36 39 37 40 78 41 38 42 83 43 77 44
REMARK SMILES IDX 79 45 39 46 82 47 76 48 75 49 40 51 66 52 49 53 65 54 50 55
REMARK SMILES IDX 53 56 64 57 80 58 51 59 52 60 63 62 81 63 54 64 41 65 42 66
REMARK SMILES IDX 47 67 43 68 44 69 46 70 48 71 45 72 67 73 68 74 73 75 69 76
REMARK SMILES IDX 70 77 72 78 74 79 71 80 55 81 56 82 61 83 57 84 58 85 60 86
REMARK SMILES IDX 62 87 59 88
REMARK H PARENT 3 13 79 50 53 61
REMARK Flexibility Score: inf
ROOT
ATOM      1  C   UNL     1      -1.612  -2.069  -0.526  1.00  0.00     0.188 C 
ENDROOT
BRANCH   1   2
ATOM      2  C   UNL     1      -2.648  -2.259   0.590  1.00  0.00     0.188 C 
BRANCH   2   3
ATOM      3  O   UNL     1      -3.741  -1.351   0.578  1.00  0.00    -0.376 OA
BRANCH   3   4
ATOM      4  C   UNL     1      -3.573  -0.150   1.317  1.00  0.00     0.202 C 
BRANCH   4   5
ATOM      5  C   UNL     1      -2.715   0.911   0.637  1.00  0.00     0.261 C 
BRANCH   5   6
ATOM      6  O   UNL     1      -1.287   0.769   0.632  1.00  0.00    -0.462 OA
BRANCH   6   7
ATOM      7  C   UNL     1      -0.538   0.207   1.616  1.00  0.00     0.328 C 
ATOM      8  O   UNL     1      -0.970  -0.340   2.619  1.00  0.00    -0.250 OA
BRANCH   7   9
ATOM      9  C   UNL     1       0.949   0.222   1.200  1.00  0.00     0.189 C 
ATOM     10  C   UNL     1       1.954   0.357   2.328  1.00  0.00     0.043 C 
BRANCH   9  11
ATOM     11  N   UNL     1       1.181   1.069   0.028  1.00  0.00    -0.343 N 
ATOM     12  C   UNL     1       1.019   2.408  -0.147  1.00  0.00     0.222 C 
ATOM     13  H   UNL     1       1.509   0.588  -0.766  1.00  0.00     0.164 HD
ATOM     14  O   UNL     1       0.902   2.810  -1.309  1.00  0.00    -0.275 OA
BRANCH  12  15
ATOM     15  C   UNL     1       1.030   3.398   1.001  1.00  0.00     0.122 C 
BRANCH  15  16
ATOM     16  C   UNL     1      -0.317   3.749   1.654  1.00  0.00     0.135 C 
BRANCH  16  17
ATOM     17  N   UNL     1      -0.680   3.072   2.919  1.00  0.00    -0.315 N 
ATOM     18  C   UNL     1      -2.026   2.850   3.193  1.00  0.00     0.089 A 
ATOM     19  C   UNL     1       0.266   2.845   3.922  1.00  0.00     0.250 A 
ATOM     20  C   UNL     1      -2.422   2.124   4.247  1.00  0.00     0.018 A 
ATOM     21  C   UNL     1      -0.152   1.909   5.005  1.00  0.00     0.072 A 
ATOM     22  O   UNL     1       1.402   3.306   3.941  1.00  0.00    -0.269 OA
ATOM     23  C   UNL     1      -1.437   1.553   5.125  1.00  0.00     0.007 A 
ENDBRANCH  16  17
ENDBRANCH  15  16
ENDBRANCH  12  15
ENDBRANCH   9  11
ENDBRANCH   7   9
ENDBRANCH   6   7
ENDBRANCH   5   6
ENDBRANCH   4   5
ENDBRANCH   3   4
ENDBRANCH   2   3
ENDBRANCH   1   2
BRANCH   1  24
ATOM     24  O   UNL     1      -1.885  -1.137  -1.559  1.00  0.00    -0.377 OA
BRANCH  24  25
ATOM     25  C   UNL     1      -3.187  -1.092  -2.130  1.00  0.00     0.188 C 
BRANCH  25  26
ATOM     26  C   UNL     1      -3.985  -2.389  -2.299  1.00  0.00     0.188 C 
BRANCH  26  27
ATOM     27  O   UNL     1      -3.184  -3.558  -2.248  1.00  0.00    -0.376 OA
BRANCH  27  28
ATOM     28  C   UNL     1      -2.808  -4.116  -3.498  1.00  0.00     0.202 C 
BRANCH  28  29
ATOM     29  C   UNL     1      -1.825  -3.300  -4.348  1.00  0.00     0.261 C 
BRANCH  29  30
ATOM     30  O   UNL     1      -2.243  -1.998  -4.797  1.00  0.00    -0.460 OA
BRANCH  30  31
ATOM     31  C   UNL     1      -3.403  -1.838  -5.470  1.00  0.00     0.338 C 
ATOM     32  O   UNL     1      -4.197  -2.702  -5.792  1.00  0.00    -0.246 OA
BRANCH  31  33
ATOM     33  C   UNL     1      -3.639  -0.374  -5.572  1.00  0.00     0.060 A 
ATOM     34  C   UNL     1      -2.647   0.463  -6.091  1.00  0.00     0.016 A 
ATOM     35  C   UNL     1      -4.823   0.177  -5.060  1.00  0.00     0.016 A 
ATOM     36  C   UNL     1      -2.851   1.845  -6.129  1.00  0.00     0.010 A 
ATOM     37  C   UNL     1      -5.018   1.565  -5.082  1.00  0.00     0.010 A 
ATOM     38  C   UNL     1      -4.045   2.408  -5.644  1.00  0.00    -0.014 A 
BRANCH  38  39
ATOM     39  C   UNL     1      -4.367   3.823  -5.963  1.00  0.00     0.031 A 
ATOM     40  C   UNL     1      -4.167   4.955  -5.003  1.00  0.00     0.074 A 
ATOM     41  C   UNL     1      -4.865   4.071  -7.189  1.00  0.00     0.049 A 
ATOM     42  N   UNL     1      -4.330   6.240  -5.205  1.00  0.00    -0.248 NA
ATOM     43  C   UNL     1      -3.746   4.607  -3.641  1.00  0.00     0.031 C 
ATOM     44  C   UNL     1      -5.136   3.049  -8.202  1.00  0.00     0.029 A 
ATOM     45  N   UNL     1      -5.228   5.247  -7.792  1.00  0.00    -0.354 N 
ATOM     46  C   UNL     1      -4.009   6.864  -4.007  1.00  0.00     0.074 A 
ATOM     47  C   UNL     1      -3.690   5.804  -3.067  1.00  0.00     0.031 C 
ATOM     48  C   UNL     1      -5.610   3.643  -9.306  1.00  0.00     0.029 A 
ATOM     49  C   UNL     1      -5.692   5.081  -9.072  1.00  0.00     0.049 A 
ATOM     50  H   UNL     1      -5.163   6.124  -7.350  1.00  0.00     0.167 HD
ATOM     51  C   UNL     1      -3.972   8.192  -3.725  1.00  0.00     0.037 A 
ATOM     52  C   UNL     1      -6.135   5.982  -9.967  1.00  0.00     0.037 A 
ATOM     53  C   UNL     1      -4.318   9.241  -4.658  1.00  0.00     0.049 A 
ATOM     54  C   UNL     1      -6.129   7.439  -9.615  1.00  0.00     0.074 A 
ATOM     55  C   UNL     1      -4.247  10.614  -4.483  1.00  0.00     0.029 A 
ATOM     56  N   UNL     1      -4.828   9.036  -5.933  1.00  0.00    -0.354 N 
ATOM     57  N   UNL     1      -5.726   8.021  -8.512  1.00  0.00    -0.248 NA
ATOM     58  C   UNL     1      -6.631   8.364 -10.639  1.00  0.00     0.031 C 
ATOM     59  C   UNL     1      -4.769  11.236  -5.624  1.00  0.00     0.029 A 
ATOM     60  C   UNL     1      -5.118  10.254  -6.535  1.00  0.00     0.049 A 
ATOM     61  H   UNL     1      -4.963   8.155  -6.350  1.00  0.00     0.167 HD
ATOM     62  C   UNL     1      -5.917   9.381  -8.711  1.00  0.00     0.074 A 
ATOM     63  C   UNL     1      -6.444   9.538 -10.052  1.00  0.00     0.031 C 
ATOM     64  C   UNL     1      -5.677  10.406  -7.857  1.00  0.00     0.037 A 
BRANCH  51  65
ATOM     65  C   UNL     1      -3.548   8.593  -2.338  1.00  0.00     0.057 A 
ATOM     66  C   UNL     1      -4.455   9.185  -1.450  1.00  0.00     0.134 A 
ATOM     67  C   UNL     1      -2.228   8.434  -1.895  1.00  0.00     0.134 A 
ATOM     68  F   UNL     1      -5.731   9.387  -1.812  1.00  0.00    -0.206 F 
ATOM     69  C   UNL     1      -4.069   9.592  -0.170  1.00  0.00     0.040 A 
ATOM     70  C   UNL     1      -1.835   8.812  -0.609  1.00  0.00     0.040 A 
ATOM     71  F   UNL     1      -1.305   7.879  -2.695  1.00  0.00    -0.206 F 
ATOM     72  C   UNL     1      -2.757   9.397   0.257  1.00  0.00     0.006 A 
ENDBRANCH  51  65
BRANCH  52  73
ATOM     73  C   UNL     1      -6.604   5.518 -11.294  1.00  0.00     0.057 A 
ATOM     74  C   UNL     1      -7.798   4.800 -11.432  1.00  0.00     0.134 A 
ATOM     75  C   UNL     1      -5.854   5.760 -12.449  1.00  0.00     0.134 A 
ATOM     76  F   UNL     1      -8.553   4.528 -10.357  1.00  0.00    -0.206 F 
ATOM     77  C   UNL     1      -8.225   4.328 -12.672  1.00  0.00     0.040 A 
ATOM     78  C   UNL     1      -6.282   5.316 -13.700  1.00  0.00     0.040 A 
ATOM     79  F   UNL     1      -4.709   6.454 -12.378  1.00  0.00    -0.206 F 
ATOM     80  C   UNL     1      -7.468   4.591 -13.812  1.00  0.00     0.006 A 
ENDBRANCH  52  73
BRANCH  64  81
ATOM     81  C   UNL     1      -5.998  11.787  -8.355  1.00  0.00     0.057 A 
ATOM     82  C   UNL     1      -4.980  12.697  -8.667  1.00  0.00     0.134 A 
ATOM     83  C   UNL     1      -7.321  12.213  -8.541  1.00  0.00     0.134 A 
ATOM     84  F   UNL     1      -3.692  12.359  -8.511  1.00  0.00    -0.206 F 
ATOM     85  C   UNL     1      -5.265  13.976  -9.150  1.00  0.00     0.040 A 
ATOM     86  C   UNL     1      -7.618  13.479  -9.050  1.00  0.00     0.040 A 
ATOM     87  F   UNL     1      -8.345  11.385  -8.281  1.00  0.00    -0.206 F 
ATOM     88  C   UNL     1      -6.588  14.367  -9.353  1.00  0.00     0.006 A 
ENDBRANCH  64  81
ENDBRANCH  38  39
ENDBRANCH  31  33
ENDBRANCH  30  31
ENDBRANCH  29  30
ENDBRANCH  28  29
ENDBRANCH  27  28
ENDBRANCH  26  27
ENDBRANCH  25  26
ENDBRANCH  24  25
ENDBRANCH   1  24
TORSDOF 24
