REMARK SMILES CCc1nn(-c2ccncn2)c(Cl)c1C(=O)OCCOCCOCCOCCOC(=O)c1ccc(-c2c3nc(c(-c4c(F)cccc4F)c4ccc([nH]4)c(-c4c(F)cccc4F)c4nc(c(-c5c(F)cccc5F)c5ccc2[nH]5)C=C4)C=C3)cc1
REMARK SMILES IDX 24 1 23 2 22 3 21 4 20 5 19 6 18 7 17 8 15 9 16 10 14 11
REMARK SMILES IDX 3 12 4 13 5 14 12 15 13 16 2 17 1 18 6 19 7 20 11 21 8 22
REMARK SMILES IDX 10 23 9 24 25 25 26 26 27 27 28 28 29 29 30 30 31 31 32 32
REMARK SMILES IDX 33 33 85 34 34 35 84 36 35 37 36 38 37 39 78 40 38 41 83 42
REMARK SMILES IDX 77 43 79 44 39 45 82 46 76 47 75 48 40 50 66 51 49 52 65 53
REMARK SMILES IDX 50 54 53 55 64 56 80 57 51 58 52 59 63 61 81 62 54 63 41 64
REMARK SMILES IDX 42 65 47 66 43 67 44 68 46 69 48 70 45 71 67 72 68 73 73 74
REMARK SMILES IDX 69 75 70 76 72 77 74 78 71 79 55 80 56 81 61 82 57 83 58 84
REMARK SMILES IDX 60 85 62 86 59 87
REMARK H PARENT 79 49 53 60
REMARK Flexibility Score: inf
ROOT
ATOM      1  C   UNL     1      -3.706  -1.973  -0.113  1.00  0.00     0.188 C 
ENDROOT
BRANCH   1   2
ATOM      2  O   UNL     1      -2.590  -1.661  -0.946  1.00  0.00    -0.377 OA
BRANCH   2   3
ATOM      3  C   UNL     1      -2.020  -2.682  -1.752  1.00  0.00     0.188 C 
BRANCH   3   4
ATOM      4  C   UNL     1      -1.599  -4.001  -1.067  1.00  0.00     0.188 C 
BRANCH   4   5
ATOM      5  O   UNL     1      -2.063  -4.114   0.269  1.00  0.00    -0.376 OA
BRANCH   5   6
ATOM      6  C   UNL     1      -1.127  -4.014   1.324  1.00  0.00     0.202 C 
BRANCH   6   7
ATOM      7  C   UNL     1      -0.341  -2.704   1.457  1.00  0.00     0.261 C 
BRANCH   7   8
ATOM      8  O   UNL     1       0.221  -2.211   0.235  1.00  0.00    -0.460 OA
BRANCH   8   9
ATOM      9  C   UNL     1       1.309  -2.853  -0.258  1.00  0.00     0.343 C 
ATOM     10  O   UNL     1       1.892  -3.762   0.323  1.00  0.00    -0.246 OA
BRANCH   9  11
ATOM     11  C   UNL     1       1.580  -2.449  -1.621  1.00  0.00     0.120 A 
ATOM     12  C   UNL     1       1.403  -1.190  -2.274  1.00  0.00     0.079 A 
ATOM     13  N   UNL     1       1.643  -1.271  -3.595  1.00  0.00    -0.169 NA
ATOM     14  N   UNL     1       2.014  -2.562  -3.799  1.00  0.00    -0.203 N 
ATOM     15  C   UNL     1       1.942  -3.295  -2.644  1.00  0.00     0.149 A 
ATOM     16  Cl  UNL     1       2.160  -4.990  -2.672  1.00  0.00    -0.061 Cl
BRANCH  12  17
ATOM     17  C   UNL     1       0.909   0.114  -1.712  1.00  0.00     0.056 C 
ATOM     18  C   UNL     1       1.593   0.564  -0.430  1.00  0.00     0.011 C 
ENDBRANCH  12  17
BRANCH  14  19
ATOM     19  C   UNL     1       2.356  -3.040  -5.087  1.00  0.00     0.158 A 
ATOM     20  C   UNL     1       1.366  -3.633  -5.851  1.00  0.00     0.069 A 
ATOM     21  N   UNL     1       3.667  -3.047  -5.417  1.00  0.00    -0.217 NA
ATOM     22  C   UNL     1       1.806  -4.254  -6.997  1.00  0.00     0.117 A 
ATOM     23  C   UNL     1       3.968  -3.669  -6.563  1.00  0.00     0.224 A 
ATOM     24  N   UNL     1       3.098  -4.287  -7.376  1.00  0.00    -0.245 NA
ENDBRANCH  14  19
ENDBRANCH   9  11
ENDBRANCH   8   9
ENDBRANCH   7   8
ENDBRANCH   6   7
ENDBRANCH   5   6
ENDBRANCH   4   5
ENDBRANCH   3   4
ENDBRANCH   2   3
ENDBRANCH   1   2
BRANCH   1  25
ATOM     25  C   UNL     1      -4.593  -3.237  -0.319  1.00  0.00     0.188 C 
BRANCH  25  26
ATOM     26  O   UNL     1      -4.266  -4.054  -1.438  1.00  0.00    -0.376 OA
BRANCH  26  27
ATOM     27  C   UNL     1      -5.195  -4.236  -2.492  1.00  0.00     0.202 C 
BRANCH  27  28
ATOM     28  C   UNL     1      -5.311  -3.049  -3.446  1.00  0.00     0.261 C 
BRANCH  28  29
ATOM     29  O   UNL     1      -5.449  -1.821  -2.755  1.00  0.00    -0.460 OA
BRANCH  29  30
ATOM     30  C   UNL     1      -6.567  -1.730  -2.009  1.00  0.00     0.338 C 
ATOM     31  O   UNL     1      -7.447  -2.566  -1.895  1.00  0.00    -0.246 OA
BRANCH  30  32
ATOM     32  C   UNL     1      -6.607  -0.396  -1.390  1.00  0.00     0.060 A 
ATOM     33  C   UNL     1      -7.803  -0.141  -0.727  1.00  0.00     0.016 A 
ATOM     34  C   UNL     1      -5.846   0.607  -2.010  1.00  0.00     0.016 A 
ATOM     35  C   UNL     1      -8.468   0.988  -1.111  1.00  0.00     0.010 A 
ATOM     36  C   UNL     1      -6.517   1.727  -2.411  1.00  0.00     0.010 A 
ATOM     37  C   UNL     1      -7.859   1.815  -2.064  1.00  0.00    -0.014 A 
BRANCH  37  38
ATOM     38  C   UNL     1      -8.714   2.756  -2.729  1.00  0.00     0.031 A 
ATOM     39  C   UNL     1      -9.024   3.928  -1.904  1.00  0.00     0.074 A 
ATOM     40  C   UNL     1      -9.166   2.558  -3.977  1.00  0.00     0.049 A 
ATOM     41  N   UNL     1     -10.153   4.224  -1.361  1.00  0.00    -0.248 NA
ATOM     42  C   UNL     1      -7.893   4.763  -1.483  1.00  0.00     0.031 C 
ATOM     43  C   UNL     1      -8.732   1.589  -4.985  1.00  0.00     0.029 A 
ATOM     44  N   UNL     1     -10.096   3.293  -4.631  1.00  0.00    -0.354 N 
ATOM     45  C   UNL     1      -9.920   5.389  -0.647  1.00  0.00     0.074 A 
ATOM     46  C   UNL     1      -8.492   5.577  -0.617  1.00  0.00     0.031 C 
ATOM     47  C   UNL     1      -9.237   1.958  -6.186  1.00  0.00     0.029 A 
ATOM     48  C   UNL     1     -10.115   3.102  -5.998  1.00  0.00     0.049 A 
ATOM     49  H   UNL     1     -10.707   3.912  -4.170  1.00  0.00     0.167 HD
ATOM     50  C   UNL     1     -10.934   6.224  -0.309  1.00  0.00     0.037 A 
ATOM     51  C   UNL     1     -10.726   3.927  -6.882  1.00  0.00     0.037 A 
ATOM     52  C   UNL     1     -12.215   5.574  -0.410  1.00  0.00     0.049 A 
ATOM     53  C   UNL     1     -11.743   4.715  -6.126  1.00  0.00     0.074 A 
ATOM     54  C   UNL     1     -12.797   4.491   0.222  1.00  0.00     0.029 A 
ATOM     55  N   UNL     1     -12.971   5.801  -1.535  1.00  0.00    -0.354 N 
ATOM     56  N   UNL     1     -12.829   4.199  -5.616  1.00  0.00    -0.248 NA
ATOM     57  C   UNL     1     -11.326   5.980  -5.532  1.00  0.00     0.031 C 
ATOM     58  C   UNL     1     -13.573   3.844  -0.782  1.00  0.00     0.029 A 
ATOM     59  C   UNL     1     -13.444   4.584  -1.958  1.00  0.00     0.049 A 
ATOM     60  H   UNL     1     -13.141   6.674  -1.959  1.00  0.00     0.167 HD
ATOM     61  C   UNL     1     -12.996   4.838  -4.393  1.00  0.00     0.074 A 
ATOM     62  C   UNL     1     -12.094   5.985  -4.437  1.00  0.00     0.031 C 
ATOM     63  C   UNL     1     -13.626   4.225  -3.347  1.00  0.00     0.037 A 
BRANCH  50  64
ATOM     64  C   UNL     1     -10.774   7.711  -0.198  1.00  0.00     0.057 A 
ATOM     65  C   UNL     1     -11.808   8.473   0.365  1.00  0.00     0.134 A 
ATOM     66  C   UNL     1      -9.764   8.448  -0.851  1.00  0.00     0.134 A 
ATOM     67  F   UNL     1     -12.837   7.882   0.991  1.00  0.00    -0.206 F 
ATOM     68  C   UNL     1     -11.860   9.865   0.240  1.00  0.00     0.040 A 
ATOM     69  C   UNL     1      -9.776   9.841  -0.930  1.00  0.00     0.040 A 
ATOM     70  F   UNL     1      -8.771   7.863  -1.532  1.00  0.00    -0.206 F 
ATOM     71  C   UNL     1     -10.843  10.553  -0.411  1.00  0.00     0.006 A 
ENDBRANCH  50  64
BRANCH  51  72
ATOM     72  C   UNL     1     -10.242   4.303  -8.230  1.00  0.00     0.057 A 
ATOM     73  C   UNL     1     -11.076   4.966  -9.139  1.00  0.00     0.134 A 
ATOM     74  C   UNL     1      -8.880   4.241  -8.580  1.00  0.00     0.134 A 
ATOM     75  F   UNL     1     -12.382   5.122  -8.876  1.00  0.00    -0.206 F 
ATOM     76  C   UNL     1     -10.584   5.540 -10.320  1.00  0.00     0.040 A 
ATOM     77  C   UNL     1      -8.378   4.797  -9.760  1.00  0.00     0.040 A 
ATOM     78  F   UNL     1      -7.968   3.714  -7.750  1.00  0.00    -0.206 F 
ATOM     79  C   UNL     1      -9.230   5.461 -10.630  1.00  0.00     0.006 A 
ENDBRANCH  51  72
BRANCH  63  80
ATOM     80  C   UNL     1     -14.326   2.921  -3.618  1.00  0.00     0.057 A 
ATOM     81  C   UNL     1     -13.657   1.755  -4.020  1.00  0.00     0.134 A 
ATOM     82  C   UNL     1     -15.683   2.792  -3.302  1.00  0.00     0.134 A 
ATOM     83  F   UNL     1     -12.336   1.755  -4.233  1.00  0.00    -0.206 F 
ATOM     84  C   UNL     1     -14.318   0.530  -4.151  1.00  0.00     0.040 A 
ATOM     85  C   UNL     1     -16.348   1.566  -3.395  1.00  0.00     0.040 A 
ATOM     86  F   UNL     1     -16.374   3.848  -2.844  1.00  0.00    -0.206 F 
ATOM     87  C   UNL     1     -15.668   0.432  -3.832  1.00  0.00     0.006 A 
ENDBRANCH  63  80
ENDBRANCH  37  38
ENDBRANCH  30  32
ENDBRANCH  29  30
ENDBRANCH  28  29
ENDBRANCH  27  28
ENDBRANCH  26  27
ENDBRANCH  25  26
ENDBRANCH   1  25
TORSDOF 22
