REMARK SMILES O=C(OCCOCCOCCOCCOC(=O)[C@H]1CCC[N@@H+]1Cc1ccccc1[N+](=O)[O-])c1ccc(-c2c3nc(c(-c4c(F)cccc4F)c4ccc([nH]4)c(-c4c(F)cccc4F)c4nc(c(-c5c(F)cccc5F)c5ccc2[nH]5)C=C4)C=C3)cc1
REMARK SMILES IDX 10 1 9 2 8 3 7 4 6 5 5 6 4 7 3 8 2 9 1 10 33 11 34 12 86 13
REMARK SMILES IDX 35 14 85 15 36 16 37 17 38 18 79 19 39 20 84 21 78 22 80 23
REMARK SMILES IDX 40 24 83 25 77 26 76 27 41 29 67 30 50 31 66 32 51 33 54 34
REMARK SMILES IDX 65 35 81 36 52 37 53 38 64 40 82 41 55 42 42 43 43 44 48 45
REMARK SMILES IDX 44 46 45 47 47 48 49 49 46 50 68 51 69 52 74 53 70 54 71 55
REMARK SMILES IDX 73 56 75 57 72 58 56 59 57 60 62 61 58 62 59 63 61 64 63 65
REMARK SMILES IDX 60 66 11 67 12 68 13 69 14 70 15 71 16 72 17 73 18 74 19 75
REMARK SMILES IDX 22 76 20 77 21 78 23 80 24 81 25 82 29 83 26 84 28 85 27 86
REMARK SMILES IDX 30 87 31 88 32 89
REMARK H PARENT 80 28 54 39 22 79
REMARK Flexibility Score: inf
ROOT
ATOM      1  C   UNL     1       5.549   3.531   0.095  1.00  0.00     0.188 C 
ENDROOT
BRANCH   1   2
ATOM      2  O   UNL     1       6.372   4.044  -0.934  1.00  0.00    -0.377 OA
BRANCH   2   3
ATOM      3  C   UNL     1       7.037   3.164  -1.821  1.00  0.00     0.188 C 
BRANCH   3   4
ATOM      4  C   UNL     1       7.664   1.935  -1.200  1.00  0.00     0.188 C 
BRANCH   4   5
ATOM      5  O   UNL     1       6.669   1.175  -0.526  1.00  0.00    -0.376 OA
BRANCH   5   6
ATOM      6  C   UNL     1       7.078   0.593   0.712  1.00  0.00     0.202 C 
BRANCH   6   7
ATOM      7  C   UNL     1       8.063  -0.568   0.566  1.00  0.00     0.261 C 
BRANCH   7   8
ATOM      8  O   UNL     1       8.776  -0.600  -0.687  1.00  0.00    -0.460 OA
BRANCH   8   9
ATOM      9  C   UNL     1       8.426  -1.153  -1.877  1.00  0.00     0.338 C 
ATOM     10  O   UNL     1       9.258  -1.166  -2.784  1.00  0.00    -0.246 OA
BRANCH   9  11
ATOM     11  C   UNL     1       7.079  -1.728  -2.169  1.00  0.00     0.060 A 
ATOM     12  C   UNL     1       5.928  -1.408  -1.465  1.00  0.00     0.016 A 
ATOM     13  C   UNL     1       6.940  -2.598  -3.263  1.00  0.00     0.016 A 
ATOM     14  C   UNL     1       4.703  -1.956  -1.748  1.00  0.00     0.010 A 
ATOM     15  C   UNL     1       5.694  -3.157  -3.583  1.00  0.00     0.010 A 
ATOM     16  C   UNL     1       4.580  -2.851  -2.794  1.00  0.00    -0.014 A 
BRANCH  16  17
ATOM     17  C   UNL     1       3.310  -3.586  -2.808  1.00  0.00     0.031 A 
ATOM     18  C   UNL     1       3.317  -4.958  -2.208  1.00  0.00     0.074 A 
ATOM     19  C   UNL     1       2.170  -2.912  -3.044  1.00  0.00     0.049 A 
ATOM     20  N   UNL     1       2.333  -5.797  -2.050  1.00  0.00    -0.248 NA
ATOM     21  C   UNL     1       4.607  -5.437  -1.674  1.00  0.00     0.031 C 
ATOM     22  C   UNL     1       2.087  -1.488  -3.397  1.00  0.00     0.029 A 
ATOM     23  N   UNL     1       0.865  -3.304  -2.951  1.00  0.00    -0.354 N 
ATOM     24  C   UNL     1       2.889  -6.907  -1.430  1.00  0.00     0.074 A 
ATOM     25  C   UNL     1       4.295  -6.645  -1.238  1.00  0.00     0.031 C 
ATOM     26  C   UNL     1       0.797  -1.128  -3.475  1.00  0.00     0.029 A 
ATOM     27  C   UNL     1      -0.028  -2.308  -3.263  1.00  0.00     0.049 A 
ATOM     28  H   UNL     1       0.591  -4.212  -2.685  1.00  0.00     0.167 HD
ATOM     29  C   UNL     1       2.266  -8.048  -1.064  1.00  0.00     0.037 A 
ATOM     30  C   UNL     1      -1.363  -2.377  -3.410  1.00  0.00     0.037 A 
ATOM     31  C   UNL     1       0.865  -8.264  -1.284  1.00  0.00     0.049 A 
ATOM     32  C   UNL     1      -2.009  -3.712  -3.155  1.00  0.00     0.074 A 
ATOM     33  C   UNL     1       0.121  -9.413  -1.103  1.00  0.00     0.029 A 
ATOM     34  N   UNL     1      -0.007  -7.281  -1.740  1.00  0.00    -0.354 N 
ATOM     35  N   UNL     1      -1.463  -4.820  -2.708  1.00  0.00    -0.248 NA
ATOM     36  C   UNL     1      -3.443  -3.817  -3.438  1.00  0.00     0.031 C 
ATOM     37  C   UNL     1      -1.194  -9.134  -1.492  1.00  0.00     0.029 A 
ATOM     38  C   UNL     1      -1.281  -7.798  -1.860  1.00  0.00     0.049 A 
ATOM     39  H   UNL     1       0.248  -6.353  -1.946  1.00  0.00     0.167 HD
ATOM     40  C   UNL     1      -2.487  -5.753  -2.646  1.00  0.00     0.074 A 
ATOM     41  C   UNL     1      -3.692  -5.065  -3.069  1.00  0.00     0.031 C 
ATOM     42  C   UNL     1      -2.445  -7.060  -2.285  1.00  0.00     0.037 A 
BRANCH  29  43
ATOM     43  C   UNL     1       3.126  -9.137  -0.501  1.00  0.00     0.057 A 
ATOM     44  C   UNL     1       3.679  -9.067   0.785  1.00  0.00     0.134 A 
ATOM     45  C   UNL     1       3.466 -10.243  -1.290  1.00  0.00     0.134 A 
ATOM     46  F   UNL     1       3.432  -8.011   1.575  1.00  0.00    -0.206 F 
ATOM     47  C   UNL     1       4.557 -10.047   1.256  1.00  0.00     0.040 A 
ATOM     48  C   UNL     1       4.324 -11.239  -0.823  1.00  0.00     0.040 A 
ATOM     49  F   UNL     1       2.990 -10.359  -2.539  1.00  0.00    -0.206 F 
ATOM     50  C   UNL     1       4.878 -11.139   0.452  1.00  0.00     0.006 A 
ENDBRANCH  29  43
BRANCH  30  51
ATOM     51  C   UNL     1      -2.139  -1.212  -3.914  1.00  0.00     0.057 A 
ATOM     52  C   UNL     1      -3.168  -0.627  -3.168  1.00  0.00     0.134 A 
ATOM     53  C   UNL     1      -1.900  -0.684  -5.192  1.00  0.00     0.134 A 
ATOM     54  F   UNL     1      -3.463  -1.092  -1.945  1.00  0.00    -0.206 F 
ATOM     55  C   UNL     1      -3.948   0.413  -3.682  1.00  0.00     0.040 A 
ATOM     56  C   UNL     1      -2.649   0.376  -5.705  1.00  0.00     0.040 A 
ATOM     57  F   UNL     1      -0.931  -1.193  -5.967  1.00  0.00    -0.206 F 
ATOM     58  C   UNL     1      -3.687   0.919  -4.954  1.00  0.00     0.006 A 
ENDBRANCH  30  51
BRANCH  42  59
ATOM     59  C   UNL     1      -3.747  -7.797  -2.310  1.00  0.00     0.057 A 
ATOM     60  C   UNL     1      -4.371  -8.150  -3.513  1.00  0.00     0.134 A 
ATOM     61  C   UNL     1      -4.362  -8.186  -1.114  1.00  0.00     0.134 A 
ATOM     62  F   UNL     1      -3.834  -7.791  -4.689  1.00  0.00    -0.206 F 
ATOM     63  C   UNL     1      -5.582  -8.839  -3.524  1.00  0.00     0.040 A 
ATOM     64  C   UNL     1      -5.555  -8.904  -1.114  1.00  0.00     0.040 A 
ATOM     65  F   UNL     1      -3.804  -7.886   0.069  1.00  0.00    -0.206 F 
ATOM     66  C   UNL     1      -6.172  -9.225  -2.321  1.00  0.00     0.006 A 
ENDBRANCH  42  59
ENDBRANCH  16  17
ENDBRANCH   9  11
ENDBRANCH   8   9
ENDBRANCH   7   8
ENDBRANCH   6   7
ENDBRANCH   5   6
ENDBRANCH   4   5
ENDBRANCH   3   4
ENDBRANCH   2   3
ENDBRANCH   1   2
BRANCH   1  67
ATOM     67  C   UNL     1       4.097   3.119  -0.194  1.00  0.00     0.188 C 
BRANCH  67  68
ATOM     68  O   UNL     1       3.719   2.680  -1.481  1.00  0.00    -0.376 OA
BRANCH  68  69
ATOM     69  C   UNL     1       3.718   3.577  -2.584  1.00  0.00     0.202 C 
BRANCH  69  70
ATOM     70  C   UNL     1       3.506   5.094  -2.438  1.00  0.00     0.261 C 
BRANCH  70  71
ATOM     71  O   UNL     1       4.364   5.722  -1.475  1.00  0.00    -0.459 OA
BRANCH  71  72
ATOM     72  C   UNL     1       3.774   6.368  -0.434  1.00  0.00     0.365 C 
ATOM     73  O   UNL     1       2.556   6.516  -0.325  1.00  0.00    -0.245 OA
BRANCH  72  74
ATOM     74  C   UNL     1       4.786   6.738   0.683  1.00  0.00     0.295 C 
ATOM     75  C   UNL     1       6.248   6.833   0.253  1.00  0.00     0.083 C 
ATOM     76  N   UNL     1       4.501   8.088   1.198  1.00  0.00    -0.319 N 
ATOM     77  C   UNL     1       6.429   8.263  -0.207  1.00  0.00     0.068 C 
ATOM     78  C   UNL     1       5.198   8.999   0.297  1.00  0.00     0.263 C 
ATOM     79  H   UNL     1       3.505   8.307   1.174  1.00  0.00     0.349 HD
BRANCH  76  80
ATOM     80  C   UNL     1       4.676   8.261   2.647  1.00  0.00     0.307 C 
BRANCH  80  81
ATOM     81  C   UNL     1       6.016   7.917   3.280  1.00  0.00     0.084 A 
ATOM     82  C   UNL     1       6.160   6.679   3.947  1.00  0.00     0.017 A 
ATOM     83  C   UNL     1       7.155   8.744   3.238  1.00  0.00     0.278 A 
ATOM     84  C   UNL     1       7.389   6.275   4.487  1.00  0.00     0.001 A 
ATOM     85  C   UNL     1       8.400   8.324   3.737  1.00  0.00     0.086 A 
ATOM     86  C   UNL     1       8.514   7.085   4.359  1.00  0.00     0.007 A 
BRANCH  83  87
ATOM     87  N   UNL     1       7.094  10.105   2.723  1.00  0.00     0.063 N 
ATOM     88  O   UNL     1       7.978  10.450   1.927  1.00  0.00    -0.258 OA
ATOM     89  O   UNL     1       6.190  10.837   3.146  1.00  0.00    -0.258 OA
ENDBRANCH  83  87
ENDBRANCH  80  81
ENDBRANCH  76  80
ENDBRANCH  72  74
ENDBRANCH  71  72
ENDBRANCH  70  71
ENDBRANCH  69  70
ENDBRANCH  68  69
ENDBRANCH  67  68
ENDBRANCH   1  67
TORSDOF 23
