REMARK SMILES Cc1ccc([N+](=O)[O-])c(N2CCC[C@H](CC(=O)OCCOCCOCCOCCOC(=O)c3ccc(-c4c5nc(c(-c6c(F)cccc6F)c6ccc([nH]6)c(-c6c(F)cccc6F)c6nc(c(-c7c(F)cccc7F)c7ccc4[nH]7)C=C6)C=C5)cc3)C2)c1
REMARK SMILES IDX 23 1 22 2 21 3 20 4 19 5 18 6 16 7 17 8 15 9 14 10 10 11
REMARK SMILES IDX 11 12 87 13 12 14 13 15 9 16 1 17 2 18 3 19 88 20 4 21 5 22
REMARK SMILES IDX 6 23 7 24 8 25 24 26 25 27 26 28 27 29 28 30 29 31 30 32
REMARK SMILES IDX 31 33 32 34 33 35 34 36 86 37 35 38 85 39 36 40 37 41 38 42
REMARK SMILES IDX 79 43 39 44 84 45 78 46 80 47 40 48 83 49 77 50 76 51 41 53
REMARK SMILES IDX 67 54 50 55 66 56 51 57 54 58 65 59 81 60 52 61 53 62 64 64
REMARK SMILES IDX 82 65 55 66 42 67 43 68 48 69 44 70 45 71 47 72 49 73 46 74
REMARK SMILES IDX 68 75 69 76 74 77 70 78 71 79 73 80 75 81 72 82 56 83 57 84
REMARK SMILES IDX 62 85 58 86 59 87 61 88 63 89 60 90
REMARK H PARENT 80 52 54 63
REMARK Flexibility Score: inf
ROOT
ATOM      1  C   UNL     1      -2.053   5.169  -4.208  1.00  0.00     0.188 C 
ENDROOT
BRANCH   1   2
ATOM      2  C   UNL     1      -2.377   4.016  -5.174  1.00  0.00     0.188 C 
BRANCH   2   3
ATOM      3  O   UNL     1      -3.674   3.925  -5.735  1.00  0.00    -0.376 OA
BRANCH   3   4
ATOM      4  C   UNL     1      -4.671   3.425  -4.858  1.00  0.00     0.202 C 
BRANCH   4   5
ATOM      5  C   UNL     1      -4.771   1.921  -4.673  1.00  0.00     0.261 C 
BRANCH   5   6
ATOM      6  O   UNL     1      -4.319   1.611  -3.354  1.00  0.00    -0.463 OA
BRANCH   6   7
ATOM      7  C   UNL     1      -3.039   1.198  -3.264  1.00  0.00     0.306 C 
ATOM      8  O   UNL     1      -2.338   0.822  -4.173  1.00  0.00    -0.252 OA
BRANCH   7   9
ATOM      9  C   UNL     1      -2.571   1.394  -1.854  1.00  0.00     0.128 C 
BRANCH   9  10
ATOM     10  C   UNL     1      -1.921   2.766  -1.620  1.00  0.00     0.019 C 
ATOM     11  N   UNL     1      -0.981   2.058   0.472  1.00  0.00    -0.366 N 
ATOM     12  C   UNL     1      -1.803   2.880   1.349  1.00  0.00     0.117 C 
ATOM     13  C   UNL     1      -0.632   2.625  -0.831  1.00  0.00     0.121 C 
ATOM     14  C   UNL     1      -3.046   3.394   0.610  1.00  0.00     0.022 C 
ATOM     15  C   UNL     1      -2.788   3.776  -0.853  1.00  0.00     0.008 C 
BRANCH  11  16
ATOM     16  C   UNL     1      -0.525   0.772   0.703  1.00  0.00     0.116 A 
ATOM     17  C   UNL     1       2.955  -0.646   0.063  1.00  0.00     0.044 C 
ATOM     18  C   UNL     1       1.482  -0.604   0.331  1.00  0.00    -0.049 A 
ATOM     19  C   UNL     1       0.693  -1.749   0.248  1.00  0.00     0.010 A 
ATOM     20  C   UNL     1       0.872   0.621   0.606  1.00  0.00     0.036 A 
ATOM     21  C   UNL     1      -0.683  -1.662   0.461  1.00  0.00     0.088 A 
ATOM     22  C   UNL     1      -1.287  -0.412   0.707  1.00  0.00     0.292 A 
BRANCH  22  23
ATOM     23  N   UNL     1      -2.744  -0.418   0.801  1.00  0.00     0.064 N 
ATOM     24  O   UNL     1      -3.361  -1.146   0.004  1.00  0.00    -0.258 OA
ATOM     25  O   UNL     1      -3.279   0.249   1.695  1.00  0.00    -0.258 OA
ENDBRANCH  22  23
ENDBRANCH  11  16
ENDBRANCH   9  10
ENDBRANCH   7   9
ENDBRANCH   6   7
ENDBRANCH   5   6
ENDBRANCH   4   5
ENDBRANCH   3   4
ENDBRANCH   2   3
ENDBRANCH   1   2
BRANCH   1  26
ATOM     26  O   UNL     1      -3.008   5.537  -3.228  1.00  0.00    -0.377 OA
BRANCH  26  27
ATOM     27  C   UNL     1      -3.989   6.477  -3.635  1.00  0.00     0.188 C 
BRANCH  27  28
ATOM     28  C   UNL     1      -3.478   7.654  -4.412  1.00  0.00     0.188 C 
BRANCH  28  29
ATOM     29  O   UNL     1      -3.357   7.262  -5.775  1.00  0.00    -0.376 OA
BRANCH  29  30
ATOM     30  C   UNL     1      -2.532   8.131  -6.539  1.00  0.00     0.202 C 
BRANCH  30  31
ATOM     31  C   UNL     1      -3.018   9.584  -6.478  1.00  0.00     0.261 C 
BRANCH  31  32
ATOM     32  O   UNL     1      -4.387   9.622  -6.946  1.00  0.00    -0.460 OA
BRANCH  32  33
ATOM     33  C   UNL     1      -5.330   9.963  -6.022  1.00  0.00     0.338 C 
ATOM     34  O   UNL     1      -5.217  10.862  -5.203  1.00  0.00    -0.246 OA
BRANCH  33  35
ATOM     35  C   UNL     1      -6.368   8.883  -5.906  1.00  0.00     0.060 A 
ATOM     36  C   UNL     1      -7.294   8.919  -4.847  1.00  0.00     0.016 A 
ATOM     37  C   UNL     1      -6.174   7.686  -6.586  1.00  0.00     0.016 A 
ATOM     38  C   UNL     1      -7.868   7.730  -4.355  1.00  0.00     0.010 A 
ATOM     39  C   UNL     1      -6.669   6.512  -6.037  1.00  0.00     0.010 A 
ATOM     40  C   UNL     1      -7.475   6.502  -4.883  1.00  0.00    -0.014 A 
BRANCH  40  41
ATOM     41  C   UNL     1      -7.688   5.174  -4.249  1.00  0.00     0.031 A 
ATOM     42  C   UNL     1      -8.172   4.033  -5.091  1.00  0.00     0.074 A 
ATOM     43  C   UNL     1      -7.112   4.896  -3.045  1.00  0.00     0.049 A 
ATOM     44  N   UNL     1      -8.252   2.815  -4.681  1.00  0.00    -0.248 NA
ATOM     45  C   UNL     1      -8.565   4.147  -6.494  1.00  0.00     0.031 C 
ATOM     46  C   UNL     1      -6.700   3.593  -2.511  1.00  0.00     0.029 A 
ATOM     47  N   UNL     1      -6.735   5.756  -2.017  1.00  0.00    -0.354 N 
ATOM     48  C   UNL     1      -8.348   1.975  -5.768  1.00  0.00     0.074 A 
ATOM     49  C   UNL     1      -8.640   2.861  -6.865  1.00  0.00     0.031 C 
ATOM     50  C   UNL     1      -6.265   3.699  -1.249  1.00  0.00     0.029 A 
ATOM     51  C   UNL     1      -6.628   5.019  -0.820  1.00  0.00     0.049 A 
ATOM     52  H   UNL     1      -6.570   6.722  -2.111  1.00  0.00     0.167 HD
ATOM     53  C   UNL     1      -8.042   0.649  -5.603  1.00  0.00     0.037 A 
ATOM     54  C   UNL     1      -7.506   5.283   0.187  1.00  0.00     0.037 A 
ATOM     55  C   UNL     1      -7.887   0.294  -4.163  1.00  0.00     0.049 A 
ATOM     56  C   UNL     1      -8.511   4.133   0.289  1.00  0.00     0.074 A 
ATOM     57  C   UNL     1      -6.972  -0.417  -3.402  1.00  0.00     0.029 A 
ATOM     58  N   UNL     1      -8.749   0.877  -3.224  1.00  0.00    -0.354 N 
ATOM     59  N   UNL     1      -8.606   3.193  -0.629  1.00  0.00    -0.248 NA
ATOM     60  C   UNL     1      -9.391   3.841   1.408  1.00  0.00     0.031 C 
ATOM     61  C   UNL     1      -7.254  -0.179  -2.014  1.00  0.00     0.029 A 
ATOM     62  C   UNL     1      -8.395   0.606  -1.919  1.00  0.00     0.049 A 
ATOM     63  H   UNL     1      -9.529   1.425  -3.472  1.00  0.00     0.167 HD
ATOM     64  C   UNL     1      -9.328   2.126  -0.192  1.00  0.00     0.074 A 
ATOM     65  C   UNL     1      -9.917   2.651   1.037  1.00  0.00     0.031 C 
ATOM     66  C   UNL     1      -9.341   0.907  -0.838  1.00  0.00     0.037 A 
BRANCH  53  67
ATOM     67  C   UNL     1      -7.720  -0.320  -6.749  1.00  0.00     0.057 A 
ATOM     68  C   UNL     1      -7.619  -1.710  -6.521  1.00  0.00     0.134 A 
ATOM     69  C   UNL     1      -7.400   0.051  -8.076  1.00  0.00     0.134 A 
ATOM     70  F   UNL     1      -7.878  -2.238  -5.318  1.00  0.00    -0.206 F 
ATOM     71  C   UNL     1      -7.241  -2.636  -7.514  1.00  0.00     0.040 A 
ATOM     72  C   UNL     1      -7.079  -0.871  -9.092  1.00  0.00     0.040 A 
ATOM     73  F   UNL     1      -7.319   1.331  -8.457  1.00  0.00    -0.206 F 
ATOM     74  C   UNL     1      -6.987  -2.223  -8.811  1.00  0.00     0.006 A 
ENDBRANCH  53  67
BRANCH  54  75
ATOM     75  C   UNL     1      -7.505   6.778   0.413  1.00  0.00     0.057 A 
ATOM     76  C   UNL     1      -6.232   7.287   0.800  1.00  0.00     0.134 A 
ATOM     77  C   UNL     1      -8.262   7.630  -0.406  1.00  0.00     0.134 A 
ATOM     78  F   UNL     1      -5.447   6.564   1.617  1.00  0.00    -0.206 F 
ATOM     79  C   UNL     1      -5.638   8.393   0.170  1.00  0.00     0.040 A 
ATOM     80  C   UNL     1      -7.687   8.775  -1.002  1.00  0.00     0.040 A 
ATOM     81  F   UNL     1      -9.484   7.264  -0.818  1.00  0.00    -0.206 F 
ATOM     82  C   UNL     1      -6.349   9.107  -0.784  1.00  0.00     0.006 A 
ENDBRANCH  54  75
BRANCH  66  83
ATOM     83  C   UNL     1     -10.369  -0.165  -0.577  1.00  0.00     0.057 A 
ATOM     84  C   UNL     1     -10.954  -0.412   0.659  1.00  0.00     0.134 A 
ATOM     85  C   UNL     1     -10.856  -0.970  -1.639  1.00  0.00     0.134 A 
ATOM     86  F   UNL     1     -10.406   0.047   1.792  1.00  0.00    -0.206 F 
ATOM     87  C   UNL     1     -12.112  -1.185   0.782  1.00  0.00     0.040 A 
ATOM     88  C   UNL     1     -11.973  -1.788  -1.522  1.00  0.00     0.040 A 
ATOM     89  F   UNL     1     -10.292  -1.001  -2.853  1.00  0.00    -0.206 F 
ATOM     90  C   UNL     1     -12.649  -1.842  -0.320  1.00  0.00     0.006 A 
ENDBRANCH  66  83
ENDBRANCH  40  41
ENDBRANCH  33  35
ENDBRANCH  32  33
ENDBRANCH  31  32
ENDBRANCH  30  31
ENDBRANCH  29  30
ENDBRANCH  28  29
ENDBRANCH  27  28
ENDBRANCH  26  27
ENDBRANCH   1  26
TORSDOF 23
