REMARK SMILES O=C(CCCN1C(=O)C(=O)/C(=C(/[O-])c2ccccc2)[C@@H]1/C=C/c1ccccc1)OCCOCCOCCOCCOC(=O)c1ccc(-c2c3nc(c(-c4c(F)cccc4F)c4ccc([nH]4)c(-c4c(F)cccc4F)c4nc(c(-c5c(F)cccc5F)c5ccc2[nH]5)C=C4)C=C3)cc1
REMARK SMILES IDX 33 1 32 2 31 3 30 4 29 5 2 6 1 7 3 8 4 9 5 10 6 11 7 12
REMARK SMILES IDX 20 13 8 14 9 15 11 16 10 17 12 18 13 19 21 20 22 21 23 22
REMARK SMILES IDX 24 23 28 24 25 25 27 26 26 27 14 28 15 29 19 30 16 31 18 32
REMARK SMILES IDX 17 33 34 34 35 35 36 36 37 37 38 38 39 39 40 40 41 41 42 42
REMARK SMILES IDX 43 43 44 44 45 45 97 46 46 47 96 48 47 49 48 50 49 51 90 52
REMARK SMILES IDX 50 53 95 54 89 55 91 56 51 57 94 58 88 59 87 60 52 62 78 63
REMARK SMILES IDX 61 64 77 65 62 66 65 67 76 68 92 69 63 70 64 71 75 73 93 74
REMARK SMILES IDX 66 75 53 76 54 77 59 78 55 79 56 80 58 81 60 82 57 83 79 84
REMARK SMILES IDX 80 85 85 86 81 87 82 88 84 89 86 90 83 91 67 92 68 93 73 94
REMARK SMILES IDX 69 95 70 96 72 97 74 98 71 99
REMARK H PARENT 91 61 65 72
REMARK Flexibility Score: inf
ROOT
ATOM      1  C   UNL     1       1.942  -0.181   1.597  1.00  0.00     0.188 C 
ENDROOT
BRANCH   1   2
ATOM      2  O   UNL     1       3.284  -0.213   1.116  1.00  0.00    -0.376 OA
BRANCH   2   3
ATOM      3  C   UNL     1       3.850   0.972   0.578  1.00  0.00     0.202 C 
BRANCH   3   4
ATOM      4  C   UNL     1       3.355   1.516  -0.749  1.00  0.00     0.261 C 
BRANCH   4   5
ATOM      5  O   UNL     1       2.240   0.877  -1.368  1.00  0.00    -0.463 OA
BRANCH   5   6
ATOM      6  C   UNL     1       2.100  -0.410  -1.713  1.00  0.00     0.305 C 
ATOM      7  O   UNL     1       0.995  -0.795  -2.099  1.00  0.00    -0.252 OA
BRANCH   6   8
ATOM      8  C   UNL     1       3.237  -1.398  -1.591  1.00  0.00     0.124 C 
BRANCH   8   9
ATOM      9  C   UNL     1       4.390  -1.302  -2.572  1.00  0.00     0.033 C 
BRANCH   9  10
ATOM     10  C   UNL     1       5.677  -0.550  -2.220  1.00  0.00     0.121 C 
BRANCH  10  11
ATOM     11  N   UNL     1       6.351  -0.632  -0.920  1.00  0.00    -0.325 N 
ATOM     12  C   UNL     1       7.207   0.394  -0.556  1.00  0.00     0.295 C 
ATOM     13  C   UNL     1       6.400  -1.750   0.024  1.00  0.00     0.143 C 
ATOM     14  O   UNL     1       7.359   1.470  -1.103  1.00  0.00    -0.265 OA
ATOM     15  C   UNL     1       7.946  -0.039   0.697  1.00  0.00     0.248 C 
ATOM     16  C   UNL     1       7.527  -1.434   0.998  1.00  0.00     0.024 C 
ATOM     17  O   UNL     1       8.681   0.696   1.323  1.00  0.00    -0.283 OA
ATOM     18  C   UNL     1       8.095  -2.203   1.952  1.00  0.00    -0.092 C 
ATOM     19  O   UNL     1       7.692  -3.495   2.229  1.00  0.00    -0.872 OA
BRANCH  13  20
ATOM     20  C   UNL     1       6.578  -3.026  -0.735  1.00  0.00     0.003 C 
ATOM     21  C   UNL     1       5.638  -3.985  -0.779  1.00  0.00     0.006 C 
BRANCH  21  22
ATOM     22  C   UNL     1       5.731  -5.095  -1.727  1.00  0.00    -0.026 A 
ATOM     23  C   UNL     1       4.717  -5.248  -2.681  1.00  0.00     0.008 A 
ATOM     24  C   UNL     1       6.819  -5.971  -1.732  1.00  0.00     0.008 A 
ATOM     25  C   UNL     1       4.810  -6.240  -3.657  1.00  0.00     0.001 A 
ATOM     26  C   UNL     1       6.904  -6.972  -2.700  1.00  0.00     0.001 A 
ATOM     27  C   UNL     1       5.905  -7.099  -3.667  1.00  0.00     0.000 A 
ENDBRANCH  21  22
ENDBRANCH  13  20
BRANCH  18  28
ATOM     28  C   UNL     1       9.247  -1.809   2.794  1.00  0.00    -0.033 A 
ATOM     29  C   UNL     1      10.487  -2.440   2.610  1.00  0.00     0.007 A 
ATOM     30  C   UNL     1       9.130  -0.848   3.808  1.00  0.00     0.007 A 
ATOM     31  C   UNL     1      11.591  -2.096   3.397  1.00  0.00     0.001 A 
ATOM     32  C   UNL     1      10.237  -0.498   4.591  1.00  0.00     0.001 A 
ATOM     33  C   UNL     1      11.467  -1.120   4.384  1.00  0.00     0.000 A 
ENDBRANCH  18  28
ENDBRANCH  10  11
ENDBRANCH   9  10
ENDBRANCH   8   9
ENDBRANCH   6   8
ENDBRANCH   5   6
ENDBRANCH   4   5
ENDBRANCH   3   4
ENDBRANCH   2   3
ENDBRANCH   1   2
BRANCH   1  34
ATOM     34  C   UNL     1       1.648   0.710   2.806  1.00  0.00     0.188 C 
BRANCH  34  35
ATOM     35  O   UNL     1       2.532   1.812   2.883  1.00  0.00    -0.377 OA
BRANCH  35  36
ATOM     36  C   UNL     1       3.651   1.655   3.761  1.00  0.00     0.188 C 
BRANCH  36  37
ATOM     37  C   UNL     1       4.429   0.314   3.819  1.00  0.00     0.188 C 
BRANCH  37  38
ATOM     38  O   UNL     1       3.593  -0.812   4.067  1.00  0.00    -0.376 OA
BRANCH  38  39
ATOM     39  C   UNL     1       3.622  -1.358   5.381  1.00  0.00     0.202 C 
BRANCH  39  40
ATOM     40  C   UNL     1       2.976  -0.512   6.493  1.00  0.00     0.261 C 
BRANCH  40  41
ATOM     41  O   UNL     1       3.432   0.848   6.612  1.00  0.00    -0.460 OA
BRANCH  41  42
ATOM     42  C   UNL     1       4.714   1.078   6.975  1.00  0.00     0.338 C 
ATOM     43  O   UNL     1       5.521   0.242   7.336  1.00  0.00    -0.246 OA
BRANCH  42  44
ATOM     44  C   UNL     1       5.054   2.487   6.612  1.00  0.00     0.060 A 
ATOM     45  C   UNL     1       6.259   2.729   5.936  1.00  0.00     0.016 A 
ATOM     46  C   UNL     1       4.167   3.549   6.837  1.00  0.00     0.016 A 
ATOM     47  C   UNL     1       6.600   4.026   5.531  1.00  0.00     0.010 A 
ATOM     48  C   UNL     1       4.513   4.849   6.439  1.00  0.00     0.010 A 
ATOM     49  C   UNL     1       5.751   5.103   5.822  1.00  0.00    -0.014 A 
BRANCH  49  50
ATOM     50  C   UNL     1       6.268   6.497   5.741  1.00  0.00     0.031 A 
ATOM     51  C   UNL     1       6.823   7.105   7.005  1.00  0.00     0.074 A 
ATOM     52  C   UNL     1       6.280   7.213   4.601  1.00  0.00     0.049 A 
ATOM     53  N   UNL     1       7.301   8.304   7.221  1.00  0.00    -0.248 NA
ATOM     54  C   UNL     1       6.831   6.232   8.191  1.00  0.00     0.031 C 
ATOM     55  C   UNL     1       5.819   6.747   3.297  1.00  0.00     0.029 A 
ATOM     56  N   UNL     1       6.698   8.504   4.368  1.00  0.00    -0.354 N 
ATOM     57  C   UNL     1       7.662   8.327   8.563  1.00  0.00     0.074 A 
ATOM     58  C   UNL     1       7.311   7.041   9.121  1.00  0.00     0.031 C 
ATOM     59  C   UNL     1       5.970   7.739   2.400  1.00  0.00     0.029 A 
ATOM     60  C   UNL     1       6.512   8.922   3.071  1.00  0.00     0.049 A 
ATOM     61  H   UNL     1       7.093   9.075   5.065  1.00  0.00     0.167 HD
ATOM     62  C   UNL     1       8.246   9.323   9.271  1.00  0.00     0.037 A 
ATOM     63  C   UNL     1       6.738  10.123   2.500  1.00  0.00     0.037 A 
ATOM     64  C   UNL     1       8.590  10.608   8.727  1.00  0.00     0.049 A 
ATOM     65  C   UNL     1       7.309  11.250   3.328  1.00  0.00     0.074 A 
ATOM     66  C   UNL     1       9.195  11.678   9.362  1.00  0.00     0.029 A 
ATOM     67  N   UNL     1       8.347  11.002   7.420  1.00  0.00    -0.354 N 
ATOM     68  N   UNL     1       7.674  11.253   4.588  1.00  0.00    -0.248 NA
ATOM     69  C   UNL     1       7.499  12.544   2.652  1.00  0.00     0.031 C 
ATOM     70  C   UNL     1       9.266  12.740   8.455  1.00  0.00     0.029 A 
ATOM     71  C   UNL     1       8.762  12.310   7.238  1.00  0.00     0.049 A 
ATOM     72  H   UNL     1       7.941  10.435   6.725  1.00  0.00     0.167 HD
ATOM     73  C   UNL     1       8.165  12.529   4.843  1.00  0.00     0.074 A 
ATOM     74  C   UNL     1       8.061  13.272   3.606  1.00  0.00     0.031 C 
ATOM     75  C   UNL     1       8.661  13.039   5.999  1.00  0.00     0.037 A 
BRANCH  62  76
ATOM     76  C   UNL     1       8.514   9.062  10.724  1.00  0.00     0.057 A 
ATOM     77  C   UNL     1       9.497   8.157  11.148  1.00  0.00     0.134 A 
ATOM     78  C   UNL     1       7.778   9.726  11.714  1.00  0.00     0.134 A 
ATOM     79  F   UNL     1      10.223   7.472  10.251  1.00  0.00    -0.206 F 
ATOM     80  C   UNL     1       9.716   7.899  12.502  1.00  0.00     0.040 A 
ATOM     81  C   UNL     1       8.010   9.498  13.071  1.00  0.00     0.040 A 
ATOM     82  F   UNL     1       6.823  10.605  11.378  1.00  0.00    -0.206 F 
ATOM     83  C   UNL     1       8.975   8.576  13.468  1.00  0.00     0.006 A 
ENDBRANCH  62  76
BRANCH  63  84
ATOM     84  C   UNL     1       6.415  10.345   1.064  1.00  0.00     0.057 A 
ATOM     85  C   UNL     1       7.421  10.573   0.117  1.00  0.00     0.134 A 
ATOM     86  C   UNL     1       5.090  10.376   0.612  1.00  0.00     0.134 A 
ATOM     87  F   UNL     1       8.709  10.592   0.491  1.00  0.00    -0.206 F 
ATOM     88  C   UNL     1       7.122  10.838  -1.222  1.00  0.00     0.040 A 
ATOM     89  C   UNL     1       4.778  10.614  -0.729  1.00  0.00     0.040 A 
ATOM     90  F   UNL     1       4.077  10.177   1.468  1.00  0.00    -0.206 F 
ATOM     91  C   UNL     1       5.796  10.853  -1.649  1.00  0.00     0.006 A 
ENDBRANCH  63  84
BRANCH  75  92
ATOM     92  C   UNL     1       9.168  14.453   5.978  1.00  0.00     0.057 A 
ATOM     93  C   UNL     1       8.304  15.552   5.885  1.00  0.00     0.134 A 
ATOM     94  C   UNL     1      10.537  14.720   6.108  1.00  0.00     0.134 A 
ATOM     95  F   UNL     1       6.982  15.368   5.750  1.00  0.00    -0.206 F 
ATOM     96  C   UNL     1       8.786  16.863   5.901  1.00  0.00     0.040 A 
ATOM     97  C   UNL     1      11.028  16.026   6.154  1.00  0.00     0.040 A 
ATOM     98  F   UNL     1      11.420  13.716   6.215  1.00  0.00    -0.206 F 
ATOM     99  C   UNL     1      10.151  17.102   6.044  1.00  0.00     0.006 A 
ENDBRANCH  75  92
ENDBRANCH  49  50
ENDBRANCH  42  44
ENDBRANCH  41  42
ENDBRANCH  40  41
ENDBRANCH  39  40
ENDBRANCH  38  39
ENDBRANCH  37  38
ENDBRANCH  36  37
ENDBRANCH  35  36
ENDBRANCH  34  35
ENDBRANCH   1  34
TORSDOF 26
