REMARK SMILES O=C(OCCOCCOCCOCCOC(=O)c1ccc(-c2c3nc(c(-c4c(F)cccc4F)c4ccc([nH]4)c(-c4c(F)cccc4F)c4nc(c(-c5c(F)cccc5F)c5ccc2[nH]5)C=C4)C=C3)cc1)C1=Cc2cc(C(F)(F)F)ccc2O[C@@H]1C(F)(F)F
REMARK SMILES IDX 10 1 9 2 8 3 7 4 6 5 5 6 4 7 3 8 2 9 1 10 72 11 73 12 85 13
REMARK SMILES IDX 74 14 84 15 75 16 83 17 76 18 82 19 81 20 86 21 87 22 88 23
REMARK SMILES IDX 89 24 77 25 78 26 79 27 80 28 11 29 12 30 13 31 14 32 15 33
REMARK SMILES IDX 16 34 17 35 18 36 19 37 71 38 20 39 70 40 21 41 22 42 23 43
REMARK SMILES IDX 64 44 24 45 69 46 63 47 65 48 25 49 68 50 62 51 61 52 26 54
REMARK SMILES IDX 52 55 35 56 51 57 36 58 39 59 50 60 66 61 37 62 38 63 49 65
REMARK SMILES IDX 67 66 40 67 27 68 28 69 33 70 29 71 30 72 32 73 34 74 31 75
REMARK SMILES IDX 53 76 54 77 59 78 55 79 56 80 58 81 60 82 57 83 41 84 42 85
REMARK SMILES IDX 47 86 43 87 44 88 46 89 48 90 45 91
REMARK H PARENT 65 53 39 64
REMARK Flexibility Score: inf
ROOT
ATOM      1  C   UNL     1       4.144   3.745   0.139  1.00  0.00     0.188 C 
ENDROOT
BRANCH   1   2
ATOM      2  O   UNL     1       2.819   4.132   0.410  1.00  0.00    -0.377 OA
BRANCH   2   3
ATOM      3  C   UNL     1       1.948   3.025   0.451  1.00  0.00     0.188 C 
BRANCH   3   4
ATOM      4  C   UNL     1       2.273   1.959   1.511  1.00  0.00     0.188 C 
BRANCH   4   5
ATOM      5  O   UNL     1       3.593   1.328   1.688  1.00  0.00    -0.376 OA
BRANCH   5   6
ATOM      6  C   UNL     1       4.312  -0.024   1.017  1.00  0.00     0.202 C 
BRANCH   6   7
ATOM      7  C   UNL     1       3.543  -1.214  -0.644  1.00  0.00     0.261 C 
BRANCH   7   8
ATOM      8  O   UNL     1       2.587  -2.379  -0.549  1.00  0.00    -0.460 OA
BRANCH   8   9
ATOM      9  C   UNL     1       2.774  -3.092   0.567  1.00  0.00     0.338 C 
ATOM     10  O   UNL     1       2.094  -3.989   0.999  1.00  0.00    -0.246 OA
BRANCH   9  11
ATOM     11  C   UNL     1       3.670  -2.162   1.241  1.00  0.00     0.087 C 
ATOM     12  C   UNL     1       5.046  -2.188   0.735  1.00  0.00     0.027 C 
ATOM     13  C   UNL     1       2.458  -0.688   1.025  1.00  0.00     0.316 C 
ATOM     14  C   UNL     1       5.750  -0.958  -0.368  1.00  0.00     0.018 A 
ATOM     15  O   UNL     1       3.134   0.599  -0.278  1.00  0.00    -0.475 OA
ATOM     16  C   UNL     1       7.021  -1.138  -0.837  1.00  0.00     0.025 A 
ATOM     17  C   UNL     1       4.828   0.376  -0.967  1.00  0.00     0.128 A 
ATOM     18  C   UNL     1       7.480  -0.185  -1.779  1.00  0.00     0.056 A 
ATOM     19  C   UNL     1       5.333   1.266  -1.878  1.00  0.00     0.048 A 
ATOM     20  C   UNL     1       6.675   0.956  -2.252  1.00  0.00     0.017 A 
BRANCH  13  21
ATOM     21  C   UNL     1       2.173  -0.574   2.671  1.00  0.00     0.430 C 
ATOM     22  F   UNL     1       1.303   0.357   3.102  1.00  0.00    -0.167 F 
ATOM     23  F   UNL     1       1.599  -1.760   3.046  1.00  0.00    -0.167 F 
ATOM     24  F   UNL     1       3.283  -0.486   3.446  1.00  0.00    -0.167 F 
ENDBRANCH  13  21
BRANCH  18  25
ATOM     25  C   UNL     1       8.889  -0.426  -2.321  1.00  0.00     0.416 C 
ATOM     26  F   UNL     1       9.832  -0.394  -1.339  1.00  0.00    -0.166 F 
ATOM     27  F   UNL     1       9.003  -1.656  -2.900  1.00  0.00    -0.166 F 
ATOM     28  F   UNL     1       9.286   0.471  -3.261  1.00  0.00    -0.166 F 
ENDBRANCH  18  25
ENDBRANCH   9  11
ENDBRANCH   8   9
ENDBRANCH   7   8
ENDBRANCH   6   7
ENDBRANCH   5   6
ENDBRANCH   4   5
ENDBRANCH   3   4
ENDBRANCH   2   3
ENDBRANCH   1   2
BRANCH   1  29
ATOM     29  C   UNL     1       5.150   3.890   1.287  1.00  0.00     0.188 C 
BRANCH  29  30
ATOM     30  O   UNL     1       4.769   4.095   2.637  1.00  0.00    -0.376 OA
BRANCH  30  31
ATOM     31  C   UNL     1       3.584   4.784   2.985  1.00  0.00     0.202 C 
BRANCH  31  32
ATOM     32  C   UNL     1       3.330   6.235   2.553  1.00  0.00     0.261 C 
BRANCH  32  33
ATOM     33  O   UNL     1       3.585   6.542   1.179  1.00  0.00    -0.460 OA
BRANCH  33  34
ATOM     34  C   UNL     1       4.836   6.964   0.898  1.00  0.00     0.338 C 
ATOM     35  O   UNL     1       5.737   7.184   1.688  1.00  0.00    -0.246 OA
BRANCH  34  36
ATOM     36  C   UNL     1       5.030   6.952  -0.569  1.00  0.00     0.060 A 
ATOM     37  C   UNL     1       6.168   6.313  -1.091  1.00  0.00     0.016 A 
ATOM     38  C   UNL     1       4.114   7.569  -1.422  1.00  0.00     0.016 A 
ATOM     39  C   UNL     1       6.411   6.311  -2.461  1.00  0.00     0.010 A 
ATOM     40  C   UNL     1       4.386   7.616  -2.789  1.00  0.00     0.010 A 
ATOM     41  C   UNL     1       5.556   7.024  -3.304  1.00  0.00    -0.014 A 
BRANCH  41  42
ATOM     42  C   UNL     1       6.008   7.389  -4.662  1.00  0.00     0.031 A 
ATOM     43  C   UNL     1       6.590   8.760  -4.854  1.00  0.00     0.074 A 
ATOM     44  C   UNL     1       5.887   6.545  -5.698  1.00  0.00     0.049 A 
ATOM     45  N   UNL     1       6.900   9.386  -5.957  1.00  0.00    -0.248 NA
ATOM     46  C   UNL     1       6.835   9.536  -3.626  1.00  0.00     0.031 C 
ATOM     47  C   UNL     1       5.394   5.173  -5.617  1.00  0.00     0.029 A 
ATOM     48  N   UNL     1       6.139   6.742  -7.032  1.00  0.00    -0.354 N 
ATOM     49  C   UNL     1       7.343  10.642  -5.559  1.00  0.00     0.074 A 
ATOM     50  C   UNL     1       7.240  10.695  -4.118  1.00  0.00     0.031 C 
ATOM     51  C   UNL     1       5.338   4.663  -6.860  1.00  0.00     0.029 A 
ATOM     52  C   UNL     1       5.742   5.691  -7.819  1.00  0.00     0.049 A 
ATOM     53  H   UNL     1       6.563   7.556  -7.388  1.00  0.00     0.167 HD
ATOM     54  C   UNL     1       7.789  11.659  -6.331  1.00  0.00     0.037 A 
ATOM     55  C   UNL     1       5.663   5.594  -9.161  1.00  0.00     0.037 A 
ATOM     56  C   UNL     1       7.872  11.591  -7.765  1.00  0.00     0.049 A 
ATOM     57  C   UNL     1       6.088   6.764 -10.011  1.00  0.00     0.074 A 
ATOM     58  C   UNL     1       8.338  12.549  -8.646  1.00  0.00     0.029 A 
ATOM     59  N   UNL     1       7.457  10.509  -8.529  1.00  0.00    -0.354 N 
ATOM     60  N   UNL     1       6.529   7.941  -9.636  1.00  0.00    -0.248 NA
ATOM     61  C   UNL     1       6.004   6.595 -11.468  1.00  0.00     0.031 C 
ATOM     62  C   UNL     1       8.123  12.082  -9.946  1.00  0.00     0.029 A 
ATOM     63  C   UNL     1       7.614  10.795  -9.874  1.00  0.00     0.049 A 
ATOM     64  H   UNL     1       7.104   9.664  -8.168  1.00  0.00     0.167 HD
ATOM     65  C   UNL     1       6.808   8.639 -10.806  1.00  0.00     0.074 A 
ATOM     66  C   UNL     1       6.486   7.751 -11.904  1.00  0.00     0.031 C 
ATOM     67  C   UNL     1       7.296   9.895 -10.957  1.00  0.00     0.037 A 
BRANCH  54  68
ATOM     68  C   UNL     1       8.151  12.944  -5.641  1.00  0.00     0.057 A 
ATOM     69  C   UNL     1       9.235  13.047  -4.760  1.00  0.00     0.134 A 
ATOM     70  C   UNL     1       7.391  14.101  -5.862  1.00  0.00     0.134 A 
ATOM     71  F   UNL     1      10.000  11.977  -4.492  1.00  0.00    -0.206 F 
ATOM     72  C   UNL     1       9.521  14.237  -4.088  1.00  0.00     0.040 A 
ATOM     73  C   UNL     1       7.691  15.306  -5.227  1.00  0.00     0.040 A 
ATOM     74  F   UNL     1       6.342  14.079  -6.698  1.00  0.00    -0.206 F 
ATOM     75  C   UNL     1       8.750  15.373  -4.326  1.00  0.00     0.006 A 
ENDBRANCH  54  68
BRANCH  55  76
ATOM     76  C   UNL     1       5.122   4.355  -9.774  1.00  0.00     0.057 A 
ATOM     77  C   UNL     1       5.937   3.492 -10.514  1.00  0.00     0.134 A 
ATOM     78  C   UNL     1       3.777   3.995  -9.618  1.00  0.00     0.134 A 
ATOM     79  F   UNL     1       7.229   3.790 -10.715  1.00  0.00    -0.206 F 
ATOM     80  C   UNL     1       5.433   2.321 -11.084  1.00  0.00     0.040 A 
ATOM     81  C   UNL     1       3.267   2.813 -10.157  1.00  0.00     0.040 A 
ATOM     82  F   UNL     1       2.943   4.777  -8.915  1.00  0.00    -0.206 F 
ATOM     83  C   UNL     1       4.096   1.975 -10.898  1.00  0.00     0.006 A 
ENDBRANCH  55  76
BRANCH  67  84
ATOM     84  C   UNL     1       7.572  10.381 -12.352  1.00  0.00     0.057 A 
ATOM     85  C   UNL     1       6.547  10.704 -13.249  1.00  0.00     0.134 A 
ATOM     86  C   UNL     1       8.890  10.617 -12.767  1.00  0.00     0.134 A 
ATOM     87  F   UNL     1       5.263  10.495 -12.921  1.00  0.00    -0.206 F 
ATOM     88  C   UNL     1       6.824  11.233 -14.512  1.00  0.00     0.040 A 
ATOM     89  C   UNL     1       9.178  11.177 -14.011  1.00  0.00     0.040 A 
ATOM     90  F   UNL     1       9.920  10.341 -11.952  1.00  0.00    -0.206 F 
ATOM     91  C   UNL     1       8.143  11.484 -14.890  1.00  0.00     0.006 A 
ENDBRANCH  67  84
ENDBRANCH  41  42
ENDBRANCH  34  36
ENDBRANCH  33  34
ENDBRANCH  32  33
ENDBRANCH  31  32
ENDBRANCH  30  31
ENDBRANCH  29  30
ENDBRANCH   1  29
TORSDOF 22
