REMARK SMILES O=C(OCCOCCOCCOCCOC(=O)c1cc(-c2ccn(C(F)F)c(=O)c2)ccc1O)c1ccc(-c2c3nc(c(-c4c(F)cccc4F)c4ccc([nH]4)c(-c4c(F)cccc4F)c4nc(c(-c5c(F)cccc5F)c5ccc2[nH]5)C=C4)C=C3)cc1
REMARK SMILES IDX 9 1 8 2 7 3 6 4 5 5 4 6 3 7 2 8 1 9 35 10 36 11 88 12 37 13
REMARK SMILES IDX 87 14 38 15 39 16 40 17 81 18 41 19 86 20 80 21 82 22 42 23
REMARK SMILES IDX 85 24 79 25 78 26 43 28 69 29 52 30 68 31 53 32 56 33 67 34
REMARK SMILES IDX 83 35 54 36 55 37 66 39 84 40 57 41 44 42 45 43 50 44 46 45
REMARK SMILES IDX 47 46 49 47 51 48 48 49 70 50 71 51 76 52 72 53 73 54 75 55
REMARK SMILES IDX 77 56 74 57 58 58 59 59 64 60 60 61 61 62 63 63 65 64 62 65
REMARK SMILES IDX 10 66 11 67 12 68 13 69 14 70 15 71 16 72 17 73 18 74 19 75
REMARK SMILES IDX 33 76 20 77 32 78 31 79 34 80 21 82 22 83 30 84 23 85 28 86
REMARK SMILES IDX 24 87 29 88 25 89 26 90 27 91
REMARK H PARENT 82 27 56 38 34 81
REMARK Flexibility Score: inf
ROOT
ATOM      1  O   UNL     1       2.310   2.453  -2.717  1.00  0.00    -0.377 OA
ENDROOT
BRANCH   1   2
ATOM      2  C   UNL     1       1.759   1.938  -1.508  1.00  0.00     0.188 C 
BRANCH   2   3
ATOM      3  C   UNL     1       2.256   0.548  -1.115  1.00  0.00     0.188 C 
BRANCH   3   4
ATOM      4  O   UNL     1       3.594   0.598  -0.600  1.00  0.00    -0.376 OA
BRANCH   4   5
ATOM      5  C   UNL     1       4.469  -0.403  -1.117  1.00  0.00     0.202 C 
BRANCH   5   6
ATOM      6  C   UNL     1       4.375  -1.766  -0.437  1.00  0.00     0.261 C 
BRANCH   6   7
ATOM      7  O   UNL     1       3.078  -2.069   0.088  1.00  0.00    -0.460 OA
BRANCH   7   8
ATOM      8  C   UNL     1       2.506  -1.666   1.247  1.00  0.00     0.338 C 
ATOM      9  O   UNL     1       1.401  -2.137   1.521  1.00  0.00    -0.246 OA
BRANCH   8  10
ATOM     10  C   UNL     1       3.072  -0.641   2.194  1.00  0.00     0.060 A 
ATOM     11  C   UNL     1       2.202  -0.198   3.212  1.00  0.00     0.016 A 
ATOM     12  C   UNL     1       4.362  -0.099   2.175  1.00  0.00     0.016 A 
ATOM     13  C   UNL     1       2.615   0.718   4.183  1.00  0.00     0.010 A 
ATOM     14  C   UNL     1       4.779   0.831   3.130  1.00  0.00     0.010 A 
ATOM     15  C   UNL     1       3.919   1.217   4.155  1.00  0.00    -0.014 A 
BRANCH  15  16
ATOM     16  C   UNL     1       4.472   1.946   5.310  1.00  0.00     0.031 A 
ATOM     17  C   UNL     1       4.630   3.430   5.305  1.00  0.00     0.074 A 
ATOM     18  C   UNL     1       4.912   1.194   6.336  1.00  0.00     0.049 A 
ATOM     19  N   UNL     1       5.025   4.213   6.275  1.00  0.00    -0.248 NA
ATOM     20  C   UNL     1       4.329   4.126   4.045  1.00  0.00     0.031 C 
ATOM     21  C   UNL     1       4.894  -0.273   6.366  1.00  0.00     0.029 A 
ATOM     22  N   UNL     1       5.473   1.545   7.531  1.00  0.00    -0.354 N 
ATOM     23  C   UNL     1       4.980   5.502   5.761  1.00  0.00     0.074 A 
ATOM     24  C   UNL     1       4.588   5.387   4.371  1.00  0.00     0.031 C 
ATOM     25  C   UNL     1       5.418  -0.695   7.526  1.00  0.00     0.029 A 
ATOM     26  C   UNL     1       5.796   0.467   8.317  1.00  0.00     0.049 A 
ATOM     27  H   UNL     1       5.630   2.479   7.802  1.00  0.00     0.167 HD
ATOM     28  C   UNL     1       5.225   6.667   6.410  1.00  0.00     0.037 A 
ATOM     29  C   UNL     1       6.320   0.428   9.553  1.00  0.00     0.037 A 
ATOM     30  C   UNL     1       5.674   6.736   7.781  1.00  0.00     0.049 A 
ATOM     31  C   UNL     1       6.553   1.730  10.258  1.00  0.00     0.074 A 
ATOM     32  C   UNL     1       5.935   7.851   8.558  1.00  0.00     0.029 A 
ATOM     33  N   UNL     1       5.945   5.628   8.575  1.00  0.00    -0.354 N 
ATOM     34  N   UNL     1       6.396   2.952   9.807  1.00  0.00    -0.248 NA
ATOM     35  C   UNL     1       6.996   1.649  11.653  1.00  0.00     0.031 C 
ATOM     36  C   UNL     1       6.398   7.417   9.808  1.00  0.00     0.029 A 
ATOM     37  C   UNL     1       6.381   6.031   9.828  1.00  0.00     0.049 A 
ATOM     38  H   UNL     1       5.843   4.691   8.289  1.00  0.00     0.167 HD
ATOM     39  C   UNL     1       6.701   3.790  10.868  1.00  0.00     0.074 A 
ATOM     40  C   UNL     1       7.021   2.929  11.993  1.00  0.00     0.031 C 
ATOM     41  C   UNL     1       6.719   5.145  10.915  1.00  0.00     0.037 A 
BRANCH  28  42
ATOM     42  C   UNL     1       4.996   7.944   5.650  1.00  0.00     0.057 A 
ATOM     43  C   UNL     1       6.053   8.800   5.318  1.00  0.00     0.134 A 
ATOM     44  C   UNL     1       3.706   8.346   5.270  1.00  0.00     0.134 A 
ATOM     45  F   UNL     1       7.314   8.489   5.656  1.00  0.00    -0.206 F 
ATOM     46  C   UNL     1       5.838  10.002   4.636  1.00  0.00     0.040 A 
ATOM     47  C   UNL     1       3.481   9.531   4.566  1.00  0.00     0.040 A 
ATOM     48  F   UNL     1       2.644   7.575   5.551  1.00  0.00    -0.206 F 
ATOM     49  C   UNL     1       4.550  10.366   4.252  1.00  0.00     0.006 A 
ENDBRANCH  28  42
BRANCH  29  50
ATOM     50  C   UNL     1       6.566  -0.878  10.209  1.00  0.00     0.057 A 
ATOM     51  C   UNL     1       7.589  -1.730   9.776  1.00  0.00     0.134 A 
ATOM     52  C   UNL     1       5.756  -1.323  11.259  1.00  0.00     0.134 A 
ATOM     53  F   UNL     1       8.384  -1.372   8.756  1.00  0.00    -0.206 F 
ATOM     54  C   UNL     1       7.798  -2.978  10.365  1.00  0.00     0.040 A 
ATOM     55  C   UNL     1       5.970  -2.558  11.874  1.00  0.00     0.040 A 
ATOM     56  F   UNL     1       4.761  -0.551  11.718  1.00  0.00    -0.206 F 
ATOM     57  C   UNL     1       6.992  -3.391  11.423  1.00  0.00     0.006 A 
ENDBRANCH  29  50
BRANCH  41  58
ATOM     58  C   UNL     1       7.096   5.748  12.236  1.00  0.00     0.057 A 
ATOM     59  C   UNL     1       6.130   6.369  13.037  1.00  0.00     0.134 A 
ATOM     60  C   UNL     1       8.403   5.671  12.735  1.00  0.00     0.134 A 
ATOM     61  F   UNL     1       4.862   6.480  12.615  1.00  0.00    -0.206 F 
ATOM     62  C   UNL     1       6.448   6.873  14.298  1.00  0.00     0.040 A 
ATOM     63  C   UNL     1       8.726   6.145  14.006  1.00  0.00     0.040 A 
ATOM     64  F   UNL     1       9.369   5.071  12.022  1.00  0.00    -0.206 F 
ATOM     65  C   UNL     1       7.745   6.749  14.791  1.00  0.00     0.006 A 
ENDBRANCH  41  58
ENDBRANCH  15  16
ENDBRANCH   8  10
ENDBRANCH   7   8
ENDBRANCH   6   7
ENDBRANCH   5   6
ENDBRANCH   4   5
ENDBRANCH   3   4
ENDBRANCH   2   3
ENDBRANCH   1   2
BRANCH   1  66
ATOM     66  C   UNL     1       3.727   2.445  -2.836  1.00  0.00     0.188 C 
BRANCH  66  67
ATOM     67  C   UNL     1       4.558   3.163  -1.752  1.00  0.00     0.188 C 
BRANCH  67  68
ATOM     68  O   UNL     1       3.772   3.896  -0.828  1.00  0.00    -0.376 OA
BRANCH  68  69
ATOM     69  C   UNL     1       3.758   5.306  -0.994  1.00  0.00     0.202 C 
BRANCH  69  70
ATOM     70  C   UNL     1       3.185   5.862  -2.305  1.00  0.00     0.261 C 
BRANCH  70  71
ATOM     71  O   UNL     1       3.710   5.304  -3.520  1.00  0.00    -0.460 OA
BRANCH  71  72
ATOM     72  C   UNL     1       4.963   5.623  -3.936  1.00  0.00     0.342 C 
ATOM     73  O   UNL     1       5.770   6.312  -3.363  1.00  0.00    -0.246 OA
BRANCH  72  74
ATOM     74  C   UNL     1       5.243   4.737  -5.103  1.00  0.00     0.102 A 
ATOM     75  C   UNL     1       6.244   3.753  -4.975  1.00  0.00     0.028 A 
ATOM     76  C   UNL     1       4.398   4.732  -6.219  1.00  0.00     0.130 A 
ATOM     77  C   UNL     1       6.341   2.729  -5.930  1.00  0.00    -0.017 A 
ATOM     78  C   UNL     1       4.530   3.748  -7.197  1.00  0.00     0.048 A 
ATOM     79  C   UNL     1       5.489   2.745  -7.044  1.00  0.00     0.012 A 
BRANCH  76  80
ATOM     80  O   UNL     1       3.425   5.683  -6.349  1.00  0.00    -0.507 OA
ATOM     81  H   UNL     1       3.329   6.348  -5.697  1.00  0.00     0.293 HD
ENDBRANCH  76  80
BRANCH  77  82
ATOM     82  C   UNL     1       7.268   1.589  -5.780  1.00  0.00    -0.011 A 
ATOM     83  C   UNL     1       8.596   1.575  -6.358  1.00  0.00     0.027 A 
ATOM     84  C   UNL     1       6.801   0.471  -5.194  1.00  0.00     0.080 A 
ATOM     85  C   UNL     1       9.320   0.449  -6.373  1.00  0.00     0.095 A 
ATOM     86  C   UNL     1       7.615  -0.779  -5.162  1.00  0.00     0.255 A 
ATOM     87  N   UNL     1       8.840  -0.718  -5.807  1.00  0.00    -0.258 N 
ATOM     88  O   UNL     1       7.145  -1.764  -4.600  1.00  0.00    -0.269 OA
BRANCH  87  89
ATOM     89  C   UNL     1       9.599  -1.942  -5.897  1.00  0.00     0.451 C 
ATOM     90  F   UNL     1       9.866  -2.449  -4.670  1.00  0.00    -0.185 F 
ATOM     91  F   UNL     1       8.915  -2.880  -6.599  1.00  0.00    -0.185 F 
ENDBRANCH  87  89
ENDBRANCH  77  82
ENDBRANCH  72  74
ENDBRANCH  71  72
ENDBRANCH  70  71
ENDBRANCH  69  70
ENDBRANCH  68  69
ENDBRANCH  67  68
ENDBRANCH  66  67
ENDBRANCH   1  66
TORSDOF 23
