REMARK SMILES C[C@H](Oc1ccnc2c(F)cc(F)cc12)C(=O)OCCOCCOCCOCCOC(=O)c1ccc(-c2c3nc(c(-c4c(F)cccc4F)c4ccc([nH]4)c(-c4c(F)cccc4F)c4nc(c(-c5c(F)cccc5F)c5ccc2[nH]5)C=C4)C=C3)cc1
REMARK SMILES IDX 24 1 23 2 22 3 21 4 20 5 19 6 18 7 16 8 17 9 2 10 1 11 3 12
REMARK SMILES IDX 4 13 5 14 15 15 6 16 8 17 14 18 7 19 9 20 12 21 10 22 11 23
REMARK SMILES IDX 13 24 25 25 26 26 27 27 28 28 29 29 30 30 31 31 32 32 33 33
REMARK SMILES IDX 34 34 86 35 35 36 85 37 36 38 37 39 38 40 79 41 39 42 84 43
REMARK SMILES IDX 78 44 80 45 40 46 83 47 77 48 76 49 41 51 67 52 50 53 66 54
REMARK SMILES IDX 51 55 54 56 65 57 81 58 52 59 53 60 64 62 82 63 55 64 42 65
REMARK SMILES IDX 43 66 48 67 44 68 45 69 47 70 49 71 46 72 68 73 69 74 74 75
REMARK SMILES IDX 70 76 71 77 73 78 75 79 72 80 56 81 57 82 62 83 58 84 59 85
REMARK SMILES IDX 61 86 63 87 60 88
REMARK H PARENT 80 50 54 61
REMARK Flexibility Score: inf
ROOT
ATOM      1  O   UNL     1      -1.925  -0.348   0.629  1.00  0.00    -0.377 OA
ENDROOT
BRANCH   1   2
ATOM      2  C   UNL     1      -1.261   0.890   0.763  1.00  0.00     0.188 C 
BRANCH   2   3
ATOM      3  C   UNL     1      -1.841   2.006  -0.120  1.00  0.00     0.188 C 
BRANCH   3   4
ATOM      4  O   UNL     1      -3.180   1.948  -0.592  1.00  0.00    -0.376 OA
BRANCH   4   5
ATOM      5  C   UNL     1      -3.700   0.796  -1.244  1.00  0.00     0.202 C 
BRANCH   5   6
ATOM      6  C   UNL     1      -2.901  -0.019  -2.275  1.00  0.00     0.261 C 
BRANCH   6   7
ATOM      7  O   UNL     1      -1.532  -0.273  -1.936  1.00  0.00    -0.461 OA
BRANCH   7   8
ATOM      8  C   UNL     1      -0.603   0.351  -2.695  1.00  0.00     0.347 C 
ATOM      9  O   UNL     1      -0.861   1.007  -3.700  1.00  0.00    -0.248 OA
BRANCH   8  10
ATOM     10  C   UNL     1       0.824   0.260  -2.103  1.00  0.00     0.279 C 
ATOM     11  C   UNL     1       1.855   0.025  -3.208  1.00  0.00     0.066 C 
BRANCH  10  12
ATOM     12  O   UNL     1       1.178  -0.402  -0.896  1.00  0.00    -0.478 OA
BRANCH  12  13
ATOM     13  C   UNL     1       1.119  -1.757  -0.720  1.00  0.00     0.131 A 
ATOM     14  C   UNL     1       0.665  -2.643  -1.684  1.00  0.00     0.067 A 
ATOM     15  C   UNL     1       1.586  -2.253   0.529  1.00  0.00     0.048 A 
ATOM     16  C   UNL     1       0.740  -3.992  -1.407  1.00  0.00     0.115 A 
ATOM     17  C   UNL     1       1.639  -3.655   0.702  1.00  0.00     0.110 A 
ATOM     18  C   UNL     1       1.997  -1.421   1.601  1.00  0.00     0.053 A 
ATOM     19  N   UNL     1       1.228  -4.503  -0.260  1.00  0.00    -0.253 NA
ATOM     20  C   UNL     1       2.139  -4.154   1.911  1.00  0.00     0.152 A 
ATOM     21  C   UNL     1       2.459  -1.966   2.795  1.00  0.00     0.127 A 
ATOM     22  F   UNL     1       2.239  -5.482   2.093  1.00  0.00    -0.204 F 
ATOM     23  C   UNL     1       2.548  -3.333   2.957  1.00  0.00     0.080 A 
ATOM     24  F   UNL     1       2.824  -1.157   3.798  1.00  0.00    -0.207 F 
ENDBRANCH  12  13
ENDBRANCH  10  12
ENDBRANCH   8  10
ENDBRANCH   7   8
ENDBRANCH   6   7
ENDBRANCH   5   6
ENDBRANCH   4   5
ENDBRANCH   3   4
ENDBRANCH   2   3
ENDBRANCH   1   2
BRANCH   1  25
ATOM     25  C   UNL     1      -2.874  -0.682   1.633  1.00  0.00     0.188 C 
BRANCH  25  26
ATOM     26  C   UNL     1      -3.723   0.447   2.260  1.00  0.00     0.188 C 
BRANCH  26  27
ATOM     27  O   UNL     1      -2.965   1.555   2.723  1.00  0.00    -0.376 OA
BRANCH  27  28
ATOM     28  C   UNL     1      -2.671   1.632   4.110  1.00  0.00     0.202 C 
BRANCH  28  29
ATOM     29  C   UNL     1      -1.726   0.569   4.695  1.00  0.00     0.261 C 
BRANCH  29  30
ATOM     30  O   UNL     1      -2.124  -0.803   4.543  1.00  0.00    -0.460 OA
BRANCH  30  31
ATOM     31  C   UNL     1      -3.300  -1.194   5.073  1.00  0.00     0.338 C 
ATOM     32  O   UNL     1      -4.076  -0.521   5.729  1.00  0.00    -0.246 OA
BRANCH  31  33
ATOM     33  C   UNL     1      -3.587  -2.549   4.556  1.00  0.00     0.060 A 
ATOM     34  C   UNL     1      -4.692  -2.743   3.716  1.00  0.00     0.016 A 
ATOM     35  C   UNL     1      -2.760  -3.621   4.895  1.00  0.00     0.016 A 
ATOM     36  C   UNL     1      -4.989  -4.018   3.232  1.00  0.00     0.010 A 
ATOM     37  C   UNL     1      -3.079  -4.904   4.443  1.00  0.00     0.010 A 
ATOM     38  C   UNL     1      -4.214  -5.112   3.639  1.00  0.00    -0.014 A 
BRANCH  38  39
ATOM     39  C   UNL     1      -4.740  -6.484   3.450  1.00  0.00     0.031 A 
ATOM     40  C   UNL     1      -5.590  -7.063   4.548  1.00  0.00     0.074 A 
ATOM     41  C   UNL     1      -4.488  -7.199   2.341  1.00  0.00     0.049 A 
ATOM     42  N   UNL     1      -6.131  -8.249   4.650  1.00  0.00    -0.248 NA
ATOM     43  C   UNL     1      -5.866  -6.174   5.690  1.00  0.00     0.031 C 
ATOM     44  C   UNL     1      -3.720  -6.736   1.188  1.00  0.00     0.029 A 
ATOM     45  N   UNL     1      -4.851  -8.482   2.015  1.00  0.00    -0.354 N 
ATOM     46  C   UNL     1      -6.815  -8.246   5.859  1.00  0.00     0.074 A 
ATOM     47  C   UNL     1      -6.590  -6.956   6.473  1.00  0.00     0.031 C 
ATOM     48  C   UNL     1      -3.655  -7.731   0.283  1.00  0.00     0.029 A 
ATOM     49  C   UNL     1      -4.348  -8.906   0.809  1.00  0.00     0.049 A 
ATOM     50  H   UNL     1      -5.418  -9.044   2.591  1.00  0.00     0.167 HD
ATOM     51  C   UNL     1      -7.569  -9.226   6.410  1.00  0.00     0.037 A 
ATOM     52  C   UNL     1      -4.421 -10.115   0.220  1.00  0.00     0.037 A 
ATOM     53  C   UNL     1      -7.760 -10.523   5.819  1.00  0.00     0.049 A 
ATOM     54  C   UNL     1      -5.161 -11.233   0.913  1.00  0.00     0.074 A 
ATOM     55  C   UNL     1      -8.500 -11.590   6.296  1.00  0.00     0.029 A 
ATOM     56  N   UNL     1      -7.183 -10.936   4.627  1.00  0.00    -0.354 N 
ATOM     57  N   UNL     1      -5.832 -11.215   2.040  1.00  0.00    -0.248 NA
ATOM     58  C   UNL     1      -5.146 -12.545   0.248  1.00  0.00     0.031 C 
ATOM     59  C   UNL     1      -8.322 -12.669   5.423  1.00  0.00     0.029 A 
ATOM     60  C   UNL     1      -7.522 -12.255   4.370  1.00  0.00     0.049 A 
ATOM     61  H   UNL     1      -6.617 -10.376   4.049  1.00  0.00     0.167 HD
ATOM     62  C   UNL     1      -6.341 -12.499   2.203  1.00  0.00     0.074 A 
ATOM     63  C   UNL     1      -5.919 -13.264   1.049  1.00  0.00     0.031 C 
ATOM     64  C   UNL     1      -7.091 -13.003   3.216  1.00  0.00     0.037 A 
BRANCH  51  65
ATOM     65  C   UNL     1      -8.202  -8.933   7.739  1.00  0.00     0.057 A 
ATOM     66  C   UNL     1      -7.758  -9.578   8.899  1.00  0.00     0.134 A 
ATOM     67  C   UNL     1      -9.243  -8.004   7.874  1.00  0.00     0.134 A 
ATOM     68  F   UNL     1      -6.766 -10.479   8.842  1.00  0.00    -0.206 F 
ATOM     69  C   UNL     1      -8.322  -9.306  10.147  1.00  0.00     0.040 A 
ATOM     70  C   UNL     1      -9.794  -7.701   9.120  1.00  0.00     0.040 A 
ATOM     71  F   UNL     1      -9.702  -7.335   6.805  1.00  0.00    -0.206 F 
ATOM     72  C   UNL     1      -9.336  -8.357  10.261  1.00  0.00     0.006 A 
ENDBRANCH  51  65
BRANCH  52  73
ATOM     73  C   UNL     1      -3.760 -10.360  -1.089  1.00  0.00     0.057 A 
ATOM     74  C   UNL     1      -2.365 -10.379  -1.211  1.00  0.00     0.134 A 
ATOM     75  C   UNL     1      -4.509 -10.644  -2.237  1.00  0.00     0.134 A 
ATOM     76  F   UNL     1      -1.588 -10.123  -0.148  1.00  0.00    -0.206 F 
ATOM     77  C   UNL     1      -1.740 -10.668  -2.425  1.00  0.00     0.040 A 
ATOM     78  C   UNL     1      -3.898 -10.964  -3.450  1.00  0.00     0.040 A 
ATOM     79  F   UNL     1      -5.849 -10.671  -2.178  1.00  0.00    -0.206 F 
ATOM     80  C   UNL     1      -2.508 -10.973  -3.547  1.00  0.00     0.006 A 
ENDBRANCH  52  73
BRANCH  64  81
ATOM     81  C   UNL     1      -7.526 -14.438   3.102  1.00  0.00     0.057 A 
ATOM     82  C   UNL     1      -8.873 -14.761   2.895  1.00  0.00     0.134 A 
ATOM     83  C   UNL     1      -6.620 -15.501   3.217  1.00  0.00     0.134 A 
ATOM     84  F   UNL     1      -9.798 -13.794   2.788  1.00  0.00    -0.206 F 
ATOM     85  C   UNL     1      -9.303 -16.085   2.804  1.00  0.00     0.040 A 
ATOM     86  C   UNL     1      -7.033 -16.829   3.095  1.00  0.00     0.040 A 
ATOM     87  F   UNL     1      -5.313 -15.263   3.405  1.00  0.00    -0.206 F 
ATOM     88  C   UNL     1      -8.380 -17.124   2.893  1.00  0.00     0.006 A 
ENDBRANCH  64  81
ENDBRANCH  38  39
ENDBRANCH  31  33
ENDBRANCH  30  31
ENDBRANCH  29  30
ENDBRANCH  28  29
ENDBRANCH  27  28
ENDBRANCH  26  27
ENDBRANCH  25  26
ENDBRANCH   1  25
TORSDOF 22
