REMARK SMILES CCc1ccc(S(=O)(=O)c2nnn(-c3ccc(C(=O)OCCOCCOCCOCCOC(=O)c4ccc(-c5c6nc(c(-c7c(F)cccc7F)c7ccc([nH]7)c(-c7c(F)cccc7F)c7nc(c(-c8c(F)cccc8F)c8ccc5[nH]8)C=C7)C=C6)cc4)cc3)c2C)cc1
REMARK SMILES IDX 25 1 24 2 23 3 22 4 21 5 20 6 18 7 19 8 17 9 14 10 15 11
REMARK SMILES IDX 90 12 16 13 89 14 13 15 10 16 11 17 91 18 12 19 92 20 7 21
REMARK SMILES IDX 8 22 9 23 6 24 3 25 4 26 94 27 5 28 93 29 2 30 1 31 26 32
REMARK SMILES IDX 27 33 28 34 29 35 30 36 31 37 32 38 33 39 34 40 35 41 36 42
REMARK SMILES IDX 88 43 37 44 87 45 38 46 39 47 40 48 81 49 41 50 86 51 80 52
REMARK SMILES IDX 82 53 42 54 85 55 79 56 78 57 43 59 69 60 52 61 68 62 53 63
REMARK SMILES IDX 56 64 67 65 83 66 54 67 55 68 66 70 84 71 57 72 44 73 45 74
REMARK SMILES IDX 50 75 46 76 47 77 49 78 51 79 48 80 70 81 71 82 76 83 72 84
REMARK SMILES IDX 73 85 75 86 77 87 74 88 58 89 59 90 64 91 60 92 61 93 63 94
REMARK SMILES IDX 65 95 62 96
REMARK H PARENT 82 58 56 69
REMARK Flexibility Score: inf
ROOT
ATOM      1  C   UNL     1       0.749  14.492  -0.544  1.00  0.00     0.188 C 
ENDROOT
BRANCH   1   2
ATOM      2  C   UNL     1      -0.099  14.368   0.741  1.00  0.00     0.188 C 
BRANCH   2   3
ATOM      3  O   UNL     1       0.357  15.200   1.793  1.00  0.00    -0.376 OA
BRANCH   3   4
ATOM      4  C   UNL     1       1.065  14.662   2.886  1.00  0.00     0.202 C 
BRANCH   4   5
ATOM      5  C   UNL     1       2.265  13.733   2.667  1.00  0.00     0.261 C 
BRANCH   5   6
ATOM      6  O   UNL     1       2.172  12.815   1.578  1.00  0.00    -0.460 OA
BRANCH   6   7
ATOM      7  C   UNL     1       1.353  11.758   1.731  1.00  0.00     0.338 C 
ATOM      8  O   UNL     1       0.689  11.472   2.719  1.00  0.00    -0.246 OA
BRANCH   7   9
ATOM      9  C   UNL     1       1.240  11.083   0.420  1.00  0.00     0.060 A 
ATOM     10  C   UNL     1       1.031   9.636  -1.930  1.00  0.00     0.067 A 
ATOM     11  C   UNL     1      -0.133   9.932  -1.214  1.00  0.00     0.029 A 
ATOM     12  C   UNL     1       2.264  10.193  -1.567  1.00  0.00     0.029 A 
ATOM     13  C   UNL     1      -0.017  10.632  -0.013  1.00  0.00     0.018 A 
ATOM     14  C   UNL     1       2.369  10.923  -0.391  1.00  0.00     0.018 A 
BRANCH  10  15
ATOM     15  N   UNL     1       1.001   8.600  -2.886  1.00  0.00    -0.216 N 
ATOM     16  C   UNL     1       1.308   6.711  -3.921  1.00  0.00     0.205 A 
ATOM     17  N   UNL     1       0.174   7.300  -4.413  1.00  0.00    -0.117 NA
ATOM     18  C   UNL     1       1.832   7.490  -2.905  1.00  0.00     0.081 A 
ATOM     19  N   UNL     1      -0.044   8.411  -3.721  1.00  0.00    -0.061 NA
ATOM     20  C   UNL     1       2.873   7.201  -1.884  1.00  0.00     0.070 C 
BRANCH  16  21
ATOM     21  S   UNL     1       1.815   5.128  -4.390  1.00  0.00     0.227 S 
ATOM     22  O   UNL     1       3.261   5.229  -4.452  1.00  0.00    -0.217 OA
ATOM     23  O   UNL     1       1.010   4.769  -5.539  1.00  0.00    -0.217 OA
BRANCH  21  24
ATOM     24  C   UNL     1       1.407   4.020  -3.065  1.00  0.00     0.073 A 
ATOM     25  C   UNL     1       0.866   2.202  -0.990  1.00  0.00    -0.048 A 
ATOM     26  C   UNL     1       1.740   1.858  -2.029  1.00  0.00     0.005 A 
ATOM     27  C   UNL     1       0.285   3.482  -0.998  1.00  0.00     0.005 A 
ATOM     28  C   UNL     1       2.015   2.762  -3.060  1.00  0.00     0.021 A 
ATOM     29  C   UNL     1       0.540   4.384  -2.033  1.00  0.00     0.021 A 
BRANCH  25  30
ATOM     30  C   UNL     1       0.513   1.271   0.150  1.00  0.00     0.032 C 
ATOM     31  C   UNL     1       0.979  -0.174   0.028  1.00  0.00     0.009 C 
ENDBRANCH  25  30
ENDBRANCH  21  24
ENDBRANCH  16  21
ENDBRANCH  10  15
ENDBRANCH   7   9
ENDBRANCH   6   7
ENDBRANCH   5   6
ENDBRANCH   4   5
ENDBRANCH   3   4
ENDBRANCH   2   3
ENDBRANCH   1   2
BRANCH   1  32
ATOM     32  O   UNL     1       2.007  15.141  -0.444  1.00  0.00    -0.377 OA
BRANCH  32  33
ATOM     33  C   UNL     1       2.078  16.489   0.023  1.00  0.00     0.188 C 
BRANCH  33  34
ATOM     34  C   UNL     1       0.835  17.397   0.262  1.00  0.00     0.188 C 
BRANCH  34  35
ATOM     35  O   UNL     1      -0.415  16.855  -0.134  1.00  0.00    -0.376 OA
BRANCH  35  36
ATOM     36  C   UNL     1      -1.176  17.383  -1.199  1.00  0.00     0.202 C 
BRANCH  36  37
ATOM     37  C   UNL     1      -0.588  17.248  -2.597  1.00  0.00     0.261 C 
BRANCH  37  38
ATOM     38  O   UNL     1       0.802  17.493  -2.633  1.00  0.00    -0.460 OA
BRANCH  38  39
ATOM     39  C   UNL     1       1.153  18.766  -2.408  1.00  0.00     0.338 C 
ATOM     40  O   UNL     1       0.420  19.693  -2.066  1.00  0.00    -0.246 OA
BRANCH  39  41
ATOM     41  C   UNL     1       2.561  18.915  -2.761  1.00  0.00     0.060 A 
ATOM     42  C   UNL     1       3.090  20.193  -2.591  1.00  0.00     0.016 A 
ATOM     43  C   UNL     1       3.110  17.969  -3.642  1.00  0.00     0.016 A 
ATOM     44  C   UNL     1       3.944  20.644  -3.560  1.00  0.00     0.010 A 
ATOM     45  C   UNL     1       3.933  18.430  -4.627  1.00  0.00     0.010 A 
ATOM     46  C   UNL     1       4.234  19.788  -4.627  1.00  0.00    -0.014 A 
BRANCH  46  47
ATOM     47  C   UNL     1       4.888  20.354  -5.773  1.00  0.00     0.031 A 
ATOM     48  C   UNL     1       6.333  20.530  -5.563  1.00  0.00     0.074 A 
ATOM     49  C   UNL     1       4.227  20.588  -6.919  1.00  0.00     0.049 A 
ATOM     50  N   UNL     1       6.976  21.640  -5.432  1.00  0.00    -0.248 NA
ATOM     51  C   UNL     1       7.122  19.326  -5.260  1.00  0.00     0.031 C 
ATOM     52  C   UNL     1       2.872  20.181  -7.301  1.00  0.00     0.029 A 
ATOM     53  N   UNL     1       4.701  21.170  -8.047  1.00  0.00    -0.354 N 
ATOM     54  C   UNL     1       8.299  21.267  -5.247  1.00  0.00     0.074 A 
ATOM     55  C   UNL     1       8.295  19.864  -4.934  1.00  0.00     0.031 C 
ATOM     56  C   UNL     1       2.732  20.321  -8.641  1.00  0.00     0.029 A 
ATOM     57  C   UNL     1       3.935  20.934  -9.178  1.00  0.00     0.049 A 
ATOM     58  H   UNL     1       5.522  21.714  -8.062  1.00  0.00     0.167 HD
ATOM     59  C   UNL     1       9.312  22.077  -5.650  1.00  0.00     0.037 A 
ATOM     60  C   UNL     1       4.353  21.141 -10.451  1.00  0.00     0.037 A 
ATOM     61  C   UNL     1       8.862  23.433  -5.836  1.00  0.00     0.049 A 
ATOM     62  C   UNL     1       5.527  22.060 -10.386  1.00  0.00     0.074 A 
ATOM     63  C   UNL     1       8.255  24.368  -5.017  1.00  0.00     0.029 A 
ATOM     64  N   UNL     1       8.655  23.874  -7.122  1.00  0.00    -0.354 N 
ATOM     65  N   UNL     1       5.443  23.317 -10.047  1.00  0.00    -0.248 NA
ATOM     66  C   UNL     1       6.847  21.461 -10.224  1.00  0.00     0.031 C 
ATOM     67  C   UNL     1       7.313  25.037  -5.853  1.00  0.00     0.029 A 
ATOM     68  C   UNL     1       7.441  24.513  -7.140  1.00  0.00     0.049 A 
ATOM     69  H   UNL     1       9.264  23.754  -7.886  1.00  0.00     0.167 HD
ATOM     70  C   UNL     1       6.558  23.550  -9.252  1.00  0.00     0.074 A 
ATOM     71  C   UNL     1       7.424  22.391  -9.458  1.00  0.00     0.031 C 
ATOM     72  C   UNL     1       6.547  24.503  -8.273  1.00  0.00     0.037 A 
BRANCH  59  73
ATOM     73  C   UNL     1      10.585  21.549  -6.250  1.00  0.00     0.057 A 
ATOM     74  C   UNL     1      11.650  22.435  -6.469  1.00  0.00     0.134 A 
ATOM     75  C   UNL     1      10.710  20.289  -6.876  1.00  0.00     0.134 A 
ATOM     76  F   UNL     1      11.636  23.669  -5.945  1.00  0.00    -0.206 F 
ATOM     77  C   UNL     1      12.726  22.115  -7.304  1.00  0.00     0.040 A 
ATOM     78  C   UNL     1      11.806  19.939  -7.662  1.00  0.00     0.040 A 
ATOM     79  F   UNL     1       9.738  19.369  -6.852  1.00  0.00    -0.206 F 
ATOM     80  C   UNL     1      12.804  20.865  -7.907  1.00  0.00     0.006 A 
ENDBRANCH  59  73
BRANCH  60  81
ATOM     81  C   UNL     1       4.030  20.348 -11.660  1.00  0.00     0.057 A 
ATOM     82  C   UNL     1       4.332  20.831 -12.941  1.00  0.00     0.134 A 
ATOM     83  C   UNL     1       3.659  18.993 -11.586  1.00  0.00     0.134 A 
ATOM     84  F   UNL     1       4.738  22.097 -13.112  1.00  0.00    -0.206 F 
ATOM     85  C   UNL     1       4.290  20.011 -14.077  1.00  0.00     0.040 A 
ATOM     86  C   UNL     1       3.602  18.166 -12.713  1.00  0.00     0.040 A 
ATOM     87  F   UNL     1       3.423  18.397 -10.409  1.00  0.00    -0.206 F 
ATOM     88  C   UNL     1       3.933  18.671 -13.963  1.00  0.00     0.006 A 
ENDBRANCH  60  81
BRANCH  72  89
ATOM     89  C   UNL     1       5.378  25.446  -8.218  1.00  0.00     0.057 A 
ATOM     90  C   UNL     1       4.058  25.039  -7.968  1.00  0.00     0.134 A 
ATOM     91  C   UNL     1       5.618  26.823  -8.251  1.00  0.00     0.134 A 
ATOM     92  F   UNL     1       3.750  23.746  -7.812  1.00  0.00    -0.206 F 
ATOM     93  C   UNL     1       3.019  25.961  -7.803  1.00  0.00     0.040 A 
ATOM     94  C   UNL     1       4.596  27.755  -8.053  1.00  0.00     0.040 A 
ATOM     95  F   UNL     1       6.866  27.288  -8.424  1.00  0.00    -0.206 F 
ATOM     96  C   UNL     1       3.289  27.325  -7.838  1.00  0.00     0.006 A 
ENDBRANCH  72  89
ENDBRANCH  46  47
ENDBRANCH  39  41
ENDBRANCH  38  39
ENDBRANCH  37  38
ENDBRANCH  36  37
ENDBRANCH  35  36
ENDBRANCH  34  35
ENDBRANCH  33  34
ENDBRANCH  32  33
ENDBRANCH   1  32
TORSDOF 24
