REMARK SMILES CC(C)(C)OC(=O)N1CCC(c2c(C(=O)OCCOCCOCCOCCOC(=O)c3ccc(-c4c5nc(c(-c6c(F)cccc6F)c6ccc([nH]6)c(-c6c(F)cccc6F)c6nc(c(-c7c(F)cccc7F)c7ccc4[nH]7)C=C6)C=C5)cc3)cnn2-c2ccccc2)CC1
REMARK SMILES IDX 21 1 20 2 19 3 18 4 17 5 16 6 14 7 15 8 13 9 12 10 87 11
REMARK SMILES IDX 85 12 86 13 11 14 6 15 7 16 8 17 9 18 95 19 10 20 94 21 5 22
REMARK SMILES IDX 2 23 1 24 3 25 4 26 88 27 89 28 93 29 90 30 92 31 91 32
REMARK SMILES IDX 22 33 23 34 24 35 25 36 26 37 27 38 28 39 29 40 30 41 31 42
REMARK SMILES IDX 32 43 84 44 33 45 83 46 34 47 35 48 36 49 77 50 37 51 82 52
REMARK SMILES IDX 76 53 78 54 38 55 81 56 75 57 74 58 39 60 65 61 48 62 64 63
REMARK SMILES IDX 49 64 52 65 63 66 79 67 50 68 51 69 62 71 80 72 53 73 40 74
REMARK SMILES IDX 41 75 46 76 42 77 43 78 45 79 47 80 44 81 66 82 67 83 72 84
REMARK SMILES IDX 68 85 69 86 71 87 73 88 70 89 54 90 55 91 60 92 56 93 57 94
REMARK SMILES IDX 59 95 61 96 58 97
REMARK H PARENT 78 59 52 70
REMARK Flexibility Score: inf
ROOT
ATOM      1  C   UNL     1      -0.687   3.672  -9.517  1.00  0.00     0.188 C 
ENDROOT
BRANCH   1   2
ATOM      2  C   UNL     1      -1.018   4.905  -8.638  1.00  0.00     0.188 C 
BRANCH   2   3
ATOM      3  O   UNL     1      -1.688   5.914  -9.355  1.00  0.00    -0.376 OA
BRANCH   3   4
ATOM      4  C   UNL     1      -1.023   7.124  -9.619  1.00  0.00     0.202 C 
BRANCH   4   5
ATOM      5  C   UNL     1       0.356   7.112 -10.296  1.00  0.00     0.261 C 
BRANCH   5   6
ATOM      6  O   UNL     1       1.224   5.993 -10.064  1.00  0.00    -0.460 OA
BRANCH   6   7
ATOM      7  C   UNL     1       1.935   5.921  -8.907  1.00  0.00     0.341 C 
ATOM      8  O   UNL     1       1.861   6.747  -7.994  1.00  0.00    -0.246 OA
BRANCH   7   9
ATOM      9  C   UNL     1       2.717   4.697  -8.841  1.00  0.00     0.102 A 
ATOM     10  C   UNL     1       2.945   3.818  -7.765  1.00  0.00     0.062 A 
ATOM     11  N   UNL     1       3.792   2.839  -8.288  1.00  0.00    -0.237 N 
ATOM     12  C   UNL     1       3.336   4.082  -9.947  1.00  0.00     0.151 A 
ATOM     13  N   UNL     1       4.030   3.005  -9.610  1.00  0.00    -0.175 NA
BRANCH  10  14
ATOM     14  C   UNL     1       2.307   3.842  -6.375  1.00  0.00     0.043 C 
ATOM     15  C   UNL     1       0.559   1.516  -3.540  1.00  0.00     0.410 C 
ATOM     16  O   UNL     1      -0.258   0.814  -4.127  1.00  0.00    -0.224 OA
ATOM     17  N   UNL     1       0.986   2.727  -4.056  1.00  0.00    -0.308 N 
ATOM     18  C   UNL     1       0.220   3.280  -5.147  1.00  0.00     0.124 C 
ATOM     19  C   UNL     1       2.283   3.364  -3.822  1.00  0.00     0.124 C 
ATOM     20  C   UNL     1       1.001   3.037  -6.417  1.00  0.00     0.032 C 
ATOM     21  C   UNL     1       3.124   3.415  -5.132  1.00  0.00     0.032 C 
BRANCH  15  22
ATOM     22  O   UNL     1       1.070   1.224  -2.315  1.00  0.00    -0.444 OA
BRANCH  22  23
ATOM     23  C   UNL     1       0.536   0.072  -1.598  1.00  0.00     0.106 C 
ATOM     24  C   UNL     1       1.119   0.162  -0.179  1.00  0.00     0.056 C 
ATOM     25  C   UNL     1       1.015  -1.233  -2.246  1.00  0.00     0.056 C 
ATOM     26  C   UNL     1      -0.999   0.102  -1.463  1.00  0.00     0.056 C 
ENDBRANCH  22  23
ENDBRANCH  15  22
ENDBRANCH  10  14
BRANCH  11  27
ATOM     27  C   UNL     1       4.587   1.905  -7.601  1.00  0.00     0.065 A 
ATOM     28  C   UNL     1       5.964   2.147  -7.550  1.00  0.00     0.028 A 
ATOM     29  C   UNL     1       4.023   0.796  -6.967  1.00  0.00     0.028 A 
ATOM     30  C   UNL     1       6.773   1.329  -6.769  1.00  0.00     0.002 A 
ATOM     31  C   UNL     1       4.844  -0.019  -6.186  1.00  0.00     0.002 A 
ATOM     32  C   UNL     1       6.209   0.260  -6.072  1.00  0.00     0.000 A 
ENDBRANCH  11  27
ENDBRANCH   7   9
ENDBRANCH   6   7
ENDBRANCH   5   6
ENDBRANCH   4   5
ENDBRANCH   3   4
ENDBRANCH   2   3
ENDBRANCH   1   2
BRANCH   1  33
ATOM     33  O   UNL     1      -1.347   3.429 -10.753  1.00  0.00    -0.377 OA
BRANCH  33  34
ATOM     34  C   UNL     1      -2.599   4.039 -11.019  1.00  0.00     0.188 C 
BRANCH  34  35
ATOM     35  C   UNL     1      -3.714   3.992  -9.946  1.00  0.00     0.188 C 
BRANCH  35  36
ATOM     36  O   UNL     1      -3.327   3.572  -8.652  1.00  0.00    -0.376 OA
BRANCH  36  37
ATOM     37  C   UNL     1      -3.432   2.255  -8.148  1.00  0.00     0.202 C 
BRANCH  37  38
ATOM     38  C   UNL     1      -3.073   1.026  -8.972  1.00  0.00     0.261 C 
BRANCH  38  39
ATOM     39  O   UNL     1      -3.192   1.197 -10.362  1.00  0.00    -0.460 OA
BRANCH  39  40
ATOM     40  C   UNL     1      -4.456   1.220 -10.803  1.00  0.00     0.338 C 
ATOM     41  O   UNL     1      -5.482   1.313 -10.140  1.00  0.00    -0.246 OA
BRANCH  40  42
ATOM     42  C   UNL     1      -4.423   0.978 -12.238  1.00  0.00     0.060 A 
ATOM     43  C   UNL     1      -5.614   1.192 -12.927  1.00  0.00     0.016 A 
ATOM     44  C   UNL     1      -3.385   0.172 -12.729  1.00  0.00     0.016 A 
ATOM     45  C   UNL     1      -5.885   0.357 -13.979  1.00  0.00     0.010 A 
ATOM     46  C   UNL     1      -3.670  -0.682 -13.754  1.00  0.00     0.010 A 
ATOM     47  C   UNL     1      -4.952  -0.641 -14.289  1.00  0.00    -0.014 A 
BRANCH  47  48
ATOM     48  C   UNL     1      -5.319  -1.617 -15.279  1.00  0.00     0.031 A 
ATOM     49  C   UNL     1      -5.239  -1.060 -16.640  1.00  0.00     0.074 A 
ATOM     50  C   UNL     1      -5.611  -2.889 -14.959  1.00  0.00     0.049 A 
ATOM     51  N   UNL     1      -6.226  -0.743 -17.406  1.00  0.00    -0.248 NA
ATOM     52  C   UNL     1      -3.927  -0.585 -17.109  1.00  0.00     0.031 C 
ATOM     53  C   UNL     1      -5.449  -3.572 -13.673  1.00  0.00     0.029 A 
ATOM     54  N   UNL     1      -6.045  -3.880 -15.778  1.00  0.00    -0.354 N 
ATOM     55  C   UNL     1      -5.639  -0.244 -18.559  1.00  0.00     0.074 A 
ATOM     56  C   UNL     1      -4.267   0.041 -18.235  1.00  0.00     0.031 C 
ATOM     57  C   UNL     1      -5.564  -4.908 -13.862  1.00  0.00     0.029 A 
ATOM     58  C   UNL     1      -5.939  -5.157 -15.244  1.00  0.00     0.049 A 
ATOM     59  H   UNL     1      -6.407  -3.707 -16.677  1.00  0.00     0.167 HD
ATOM     60  C   UNL     1      -6.252  -0.394 -19.761  1.00  0.00     0.037 A 
ATOM     61  C   UNL     1      -6.076  -6.312 -15.943  1.00  0.00     0.037 A 
ATOM     62  C   UNL     1      -7.652  -0.699 -19.597  1.00  0.00     0.049 A 
ATOM     63  C   UNL     1      -6.799  -5.982 -17.201  1.00  0.00     0.074 A 
ATOM     64  C   UNL     1      -8.725  -0.049 -19.020  1.00  0.00     0.029 A 
ATOM     65  N   UNL     1      -8.025  -2.016 -19.718  1.00  0.00    -0.354 N 
ATOM     66  N   UNL     1      -8.052  -5.622 -17.241  1.00  0.00    -0.248 NA
ATOM     67  C   UNL     1      -6.003  -5.593 -18.356  1.00  0.00     0.031 C 
ATOM     68  C   UNL     1      -9.503  -1.078 -18.414  1.00  0.00     0.029 A 
ATOM     69  C   UNL     1      -8.904  -2.304 -18.706  1.00  0.00     0.049 A 
ATOM     70  H   UNL     1      -7.716  -2.643 -20.411  1.00  0.00     0.167 HD
ATOM     71  C   UNL     1      -8.097  -4.604 -18.185  1.00  0.00     0.074 A 
ATOM     72  C   UNL     1      -6.824  -4.689 -18.897  1.00  0.00     0.031 C 
ATOM     73  C   UNL     1      -9.029  -3.610 -18.098  1.00  0.00     0.037 A 
BRANCH  60  74
ATOM     74  C   UNL     1      -5.503  -0.681 -21.034  1.00  0.00     0.057 A 
ATOM     75  C   UNL     1      -6.203  -0.662 -22.250  1.00  0.00     0.134 A 
ATOM     76  C   UNL     1      -4.214  -1.254 -21.090  1.00  0.00     0.134 A 
ATOM     77  F   UNL     1      -7.448  -0.166 -22.318  1.00  0.00    -0.206 F 
ATOM     78  C   UNL     1      -5.684  -1.228 -23.419  1.00  0.00     0.040 A 
ATOM     79  C   UNL     1      -3.664  -1.770 -22.264  1.00  0.00     0.040 A 
ATOM     80  F   UNL     1      -3.457  -1.444 -20.004  1.00  0.00    -0.206 F 
ATOM     81  C   UNL     1      -4.412  -1.789 -23.427  1.00  0.00     0.006 A 
ENDBRANCH  60  74
BRANCH  61  82
ATOM     82  C   UNL     1      -5.344  -7.589 -15.777  1.00  0.00     0.057 A 
ATOM     83  C   UNL     1      -5.785  -8.761 -16.411  1.00  0.00     0.134 A 
ATOM     84  C   UNL     1      -4.046  -7.632 -15.239  1.00  0.00     0.134 A 
ATOM     85  F   UNL     1      -6.992  -8.806 -16.992  1.00  0.00    -0.206 F 
ATOM     86  C   UNL     1      -4.972  -9.896 -16.531  1.00  0.00     0.040 A 
ATOM     87  C   UNL     1      -3.227  -8.761 -15.346  1.00  0.00     0.040 A 
ATOM     88  F   UNL     1      -3.493  -6.550 -14.674  1.00  0.00    -0.206 F 
ATOM     89  C   UNL     1      -3.683  -9.894 -16.008  1.00  0.00     0.006 A 
ENDBRANCH  61  82
BRANCH  73  90
ATOM     90  C   UNL     1     -10.160  -3.795 -17.123  1.00  0.00     0.057 A 
ATOM     91  C   UNL     1     -10.001  -3.877 -15.730  1.00  0.00     0.134 A 
ATOM     92  C   UNL     1     -11.472  -3.738 -17.606  1.00  0.00     0.134 A 
ATOM     93  F   UNL     1      -8.787  -3.840 -15.167  1.00  0.00    -0.206 F 
ATOM     94  C   UNL     1     -11.099  -3.941 -14.865  1.00  0.00     0.040 A 
ATOM     95  C   UNL     1     -12.576  -3.765 -16.751  1.00  0.00     0.040 A 
ATOM     96  F   UNL     1     -11.701  -3.604 -18.922  1.00  0.00    -0.206 F 
ATOM     97  C   UNL     1     -12.392  -3.877 -15.376  1.00  0.00     0.006 A 
ENDBRANCH  73  90
ENDBRANCH  47  48
ENDBRANCH  40  42
ENDBRANCH  39  40
ENDBRANCH  38  39
ENDBRANCH  37  38
ENDBRANCH  36  37
ENDBRANCH  35  36
ENDBRANCH  34  35
ENDBRANCH  33  34
ENDBRANCH   1  33
TORSDOF 24
