REMARK SMILES C=C1C[C@@]23CC[C@H]4[C@@](C)(CCC[C@@]4(C)C(=O)OCCOCCOCCOCCOC(=O)c4ccc(-c5c6nc(c(-c7c(F)cccc7F)c7ccc([nH]7)c(-c7c(F)cccc7F)c7nc(c(-c8c(F)cccc8F)c8ccc5[nH]8)C=C7)C=C6)cc4)[C@H]2CC[C@]1(O)C3
REMARK SMILES IDX 24 1 23 2 22 3 21 4 20 5 19 6 18 7 17 8 15 9 16 10 13 11
REMARK SMILES IDX 1 12 2 13 3 14 89 15 4 16 88 17 91 18 5 19 86 20 87 21 6 22
REMARK SMILES IDX 8 23 7 24 9 25 10 26 11 27 12 28 14 29 90 30 25 32 26 33
REMARK SMILES IDX 27 34 28 35 29 36 30 37 31 38 32 39 33 40 85 41 34 42 84 43
REMARK SMILES IDX 35 44 36 45 37 46 78 47 38 48 83 49 77 50 79 51 39 52 82 53
REMARK SMILES IDX 76 54 75 55 40 57 66 58 49 59 65 60 50 61 53 62 64 63 80 64
REMARK SMILES IDX 51 65 52 66 63 68 81 69 54 70 41 71 42 72 47 73 43 74 44 75
REMARK SMILES IDX 46 76 48 77 45 78 67 79 68 80 73 81 69 82 70 83 72 84 74 85
REMARK SMILES IDX 71 86 55 87 56 88 61 89 57 90 58 91 60 92 62 93 59 94
REMARK H PARENT 90 31 79 56 53 67
REMARK Flexibility Score: inf
ROOT
ATOM      1  C   UNL     1       0.849  10.285   2.496  1.00  0.00     0.188 C 
ENDROOT
BRANCH   1   2
ATOM      2  O   UNL     1       0.861   8.921   2.886  1.00  0.00    -0.377 OA
BRANCH   2   3
ATOM      3  C   UNL     1      -0.191   8.155   2.341  1.00  0.00     0.188 C 
BRANCH   3   4
ATOM      4  C   UNL     1      -1.633   8.645   2.525  1.00  0.00     0.188 C 
BRANCH   4   5
ATOM      5  O   UNL     1      -1.758   9.821   3.298  1.00  0.00    -0.376 OA
BRANCH   5   6
ATOM      6  C   UNL     1      -2.849   9.811   4.208  1.00  0.00     0.202 C 
BRANCH   6   7
ATOM      7  C   UNL     1      -2.639   8.906   5.434  1.00  0.00     0.261 C 
BRANCH   7   8
ATOM      8  O   UNL     1      -2.423   7.484   5.227  1.00  0.00    -0.463 OA
BRANCH   8   9
ATOM      9  C   UNL     1      -3.451   6.619   4.978  1.00  0.00     0.312 C 
ATOM     10  O   UNL     1      -4.552   7.014   4.611  1.00  0.00    -0.252 OA
BRANCH   9  11
ATOM     11  C   UNL     1      -3.081   5.072   5.302  1.00  0.00     0.069 C 
ATOM     12  C   UNL     1       1.411   0.053   0.332  1.00  0.00     0.011 C 
ATOM     13  C   UNL     1       0.651   1.021   0.864  1.00  0.00    -0.045 C 
ATOM     14  C   UNL     1       0.835   1.660   2.239  1.00  0.00     0.040 C 
ATOM     15  C   UNL     1      -0.694   1.448   0.340  1.00  0.00     0.086 C 
ATOM     16  C   UNL     1      -0.610   2.141   2.620  1.00  0.00    -0.020 C 
ATOM     17  C   UNL     1      -0.671   2.907  -0.181  1.00  0.00     0.040 C 
ATOM     18  C   UNL     1      -1.457   1.276   1.647  1.00  0.00     0.047 C 
ATOM     19  C   UNL     1      -1.046   1.852   4.044  1.00  0.00     0.008 C 
ATOM     20  C   UNL     1      -0.934   3.612   2.231  1.00  0.00     0.002 C 
ATOM     21  C   UNL     1      -0.277   3.989   0.875  1.00  0.00     0.008 C 
ATOM     22  C   UNL     1      -2.450   2.501   4.332  1.00  0.00     0.006 C 
ATOM     23  C   UNL     1      -1.419   4.694   3.323  1.00  0.00    -0.025 C 
ATOM     24  C   UNL     1      -2.259   4.032   4.403  1.00  0.00     0.012 C 
ATOM     25  C   UNL     1      -2.349   5.555   2.404  1.00  0.00     0.012 C 
ATOM     26  C   UNL     1      -0.419   5.496   4.308  1.00  0.00     0.007 C 
ATOM     27  C   UNL     1      -0.635   5.484   5.934  1.00  0.00     0.002 C 
ATOM     28  C   UNL     1      -2.107   5.229   6.497  1.00  0.00     0.019 C 
ATOM     29  C   UNL     1      -4.445   4.425   5.555  1.00  0.00     0.024 C 
BRANCH  15  30
ATOM     30  O   UNL     1      -1.223   0.587  -0.650  1.00  0.00    -0.386 OA
ATOM     31  H   UNL     1      -0.730   0.704  -1.477  1.00  0.00     0.211 HD
ENDBRANCH  15  30
ENDBRANCH   9  11
ENDBRANCH   8   9
ENDBRANCH   7   8
ENDBRANCH   6   7
ENDBRANCH   5   6
ENDBRANCH   4   5
ENDBRANCH   3   4
ENDBRANCH   2   3
ENDBRANCH   1   2
BRANCH   1  32
ATOM     32  C   UNL     1       0.711  10.594   0.986  1.00  0.00     0.188 C 
BRANCH  32  33
ATOM     33  O   UNL     1      -0.114   9.704   0.242  1.00  0.00    -0.376 OA
BRANCH  33  34
ATOM     34  C   UNL     1       0.504   8.900  -0.773  1.00  0.00     0.202 C 
BRANCH  34  35
ATOM     35  C   UNL     1       1.669   7.916  -0.453  1.00  0.00     0.261 C 
BRANCH  35  36
ATOM     36  O   UNL     1       2.554   8.284   0.613  1.00  0.00    -0.460 OA
BRANCH  36  37
ATOM     37  C   UNL     1       3.570   9.104   0.290  1.00  0.00     0.338 C 
ATOM     38  O   UNL     1       3.825   9.553  -0.823  1.00  0.00    -0.246 OA
BRANCH  37  39
ATOM     39  C   UNL     1       4.199   9.591   1.531  1.00  0.00     0.060 A 
ATOM     40  C   UNL     1       4.062  10.953   1.827  1.00  0.00     0.016 A 
ATOM     41  C   UNL     1       4.913   8.748   2.386  1.00  0.00     0.016 A 
ATOM     42  C   UNL     1       4.603  11.474   2.994  1.00  0.00     0.010 A 
ATOM     43  C   UNL     1       5.530   9.290   3.522  1.00  0.00     0.010 A 
ATOM     44  C   UNL     1       5.389  10.659   3.814  1.00  0.00    -0.014 A 
BRANCH  44  45
ATOM     45  C   UNL     1       6.265  11.344   4.788  1.00  0.00     0.031 A 
ATOM     46  C   UNL     1       7.601  11.825   4.291  1.00  0.00     0.074 A 
ATOM     47  C   UNL     1       5.835  11.654   6.023  1.00  0.00     0.049 A 
ATOM     48  N   UNL     1       8.523  12.509   4.913  1.00  0.00    -0.248 NA
ATOM     49  C   UNL     1       7.929  11.508   2.889  1.00  0.00     0.031 C 
ATOM     50  C   UNL     1       4.526  11.313   6.577  1.00  0.00     0.029 A 
ATOM     51  N   UNL     1       6.459  12.344   7.031  1.00  0.00    -0.354 N 
ATOM     52  C   UNL     1       9.526  12.722   3.975  1.00  0.00     0.074 A 
ATOM     53  C   UNL     1       9.121  12.066   2.753  1.00  0.00     0.031 C 
ATOM     54  C   UNL     1       4.452  11.781   7.837  1.00  0.00     0.029 A 
ATOM     55  C   UNL     1       5.714  12.432   8.181  1.00  0.00     0.049 A 
ATOM     56  H   UNL     1       7.356  12.739   6.938  1.00  0.00     0.167 HD
ATOM     57  C   UNL     1      10.677  13.416   4.117  1.00  0.00     0.037 A 
ATOM     58  C   UNL     1       6.037  12.960   9.378  1.00  0.00     0.037 A 
ATOM     59  C   UNL     1      11.086  14.043   5.343  1.00  0.00     0.049 A 
ATOM     60  C   UNL     1       7.385  13.619   9.544  1.00  0.00     0.074 A 
ATOM     61  C   UNL     1      12.255  14.732   5.611  1.00  0.00     0.029 A 
ATOM     62  N   UNL     1      10.337  14.051   6.509  1.00  0.00    -0.354 N 
ATOM     63  N   UNL     1       8.330  13.814   8.655  1.00  0.00    -0.248 NA
ATOM     64  C   UNL     1       7.709  14.139  10.881  1.00  0.00     0.031 C 
ATOM     65  C   UNL     1      12.234  15.115   6.955  1.00  0.00     0.029 A 
ATOM     66  C   UNL     1      11.026  14.718   7.506  1.00  0.00     0.049 A 
ATOM     67  H   UNL     1       9.447  13.642   6.613  1.00  0.00     0.167 HD
ATOM     68  C   UNL     1       9.339  14.507   9.313  1.00  0.00     0.074 A 
ATOM     69  C   UNL     1       8.881  14.718  10.670  1.00  0.00     0.031 C 
ATOM     70  C   UNL     1      10.539  14.931   8.845  1.00  0.00     0.037 A 
BRANCH  57  71
ATOM     71  C   UNL     1      11.582  13.509   2.926  1.00  0.00     0.057 A 
ATOM     72  C   UNL     1      11.264  14.308   1.820  1.00  0.00     0.134 A 
ATOM     73  C   UNL     1      12.803  12.825   2.901  1.00  0.00     0.134 A 
ATOM     74  F   UNL     1      10.098  14.970   1.771  1.00  0.00    -0.206 F 
ATOM     75  C   UNL     1      12.127  14.418   0.728  1.00  0.00     0.040 A 
ATOM     76  C   UNL     1      13.685  12.947   1.827  1.00  0.00     0.040 A 
ATOM     77  F   UNL     1      13.164  12.038   3.925  1.00  0.00    -0.206 F 
ATOM     78  C   UNL     1      13.347  13.745   0.735  1.00  0.00     0.006 A 
ENDBRANCH  57  71
BRANCH  58  79
ATOM     79  C   UNL     1       5.105  12.855  10.534  1.00  0.00     0.057 A 
ATOM     80  C   UNL     1       4.563  13.991  11.148  1.00  0.00     0.134 A 
ATOM     81  C   UNL     1       4.802  11.613  11.106  1.00  0.00     0.134 A 
ATOM     82  F   UNL     1       4.832  15.213  10.666  1.00  0.00    -0.206 F 
ATOM     83  C   UNL     1       3.791  13.899  12.309  1.00  0.00     0.040 A 
ATOM     84  C   UNL     1       4.005  11.504  12.246  1.00  0.00     0.040 A 
ATOM     85  F   UNL     1       5.289  10.483  10.572  1.00  0.00    -0.206 F 
ATOM     86  C   UNL     1       3.510  12.652  12.861  1.00  0.00     0.006 A 
ENDBRANCH  58  79
BRANCH  70  87
ATOM     87  C   UNL     1      11.413  15.706   9.789  1.00  0.00     0.057 A 
ATOM     88  C   UNL     1      12.040  15.103  10.886  1.00  0.00     0.134 A 
ATOM     89  C   UNL     1      11.655  17.069   9.574  1.00  0.00     0.134 A 
ATOM     90  F   UNL     1      11.844  13.803  11.153  1.00  0.00    -0.206 F 
ATOM     91  C   UNL     1      12.848  15.836  11.757  1.00  0.00     0.040 A 
ATOM     92  C   UNL     1      12.488  17.805  10.418  1.00  0.00     0.040 A 
ATOM     93  F   UNL     1      11.098  17.706   8.533  1.00  0.00    -0.206 F 
ATOM     94  C   UNL     1      13.079  17.190  11.519  1.00  0.00     0.006 A 
ENDBRANCH  70  87
ENDBRANCH  44  45
ENDBRANCH  37  39
ENDBRANCH  36  37
ENDBRANCH  35  36
ENDBRANCH  34  35
ENDBRANCH  33  34
ENDBRANCH  32  33
ENDBRANCH   1  32
TORSDOF 21
