REMARK SMILES O=C(OCCOCCOCCOCCOC(=O)c1ccc(-c2c3nc(c(-c4c(F)cccc4F)c4ccc([nH]4)c(-c4c(F)cccc4F)c4nc(c(-c5c(F)cccc5F)c5ccc2[nH]5)C=C4)C=C3)cc1)C1=Cc2cc(S(F)(F)(F)(F)F)ccc2O[C@@H]1C(F)(F)F
REMARK SMILES IDX 10 1 9 2 8 3 7 4 6 5 5 6 4 7 3 8 2 9 1 10 72 11 73 12 87 13
REMARK SMILES IDX 74 14 86 15 75 16 85 17 76 18 84 19 83 20 88 21 89 22 90 23
REMARK SMILES IDX 91 24 77 25 78 26 79 27 80 28 81 29 82 30 11 31 12 32 13 33
REMARK SMILES IDX 14 34 15 35 16 36 17 37 18 38 19 39 71 40 20 41 70 42 21 43
REMARK SMILES IDX 22 44 23 45 64 46 24 47 69 48 63 49 65 50 25 51 68 52 62 53
REMARK SMILES IDX 61 54 26 56 52 57 35 58 51 59 36 60 39 61 50 62 66 63 37 64
REMARK SMILES IDX 38 65 49 67 67 68 40 69 27 70 28 71 33 72 29 73 30 74 32 75
REMARK SMILES IDX 34 76 31 77 53 78 54 79 59 80 55 81 56 82 58 83 60 84 57 85
REMARK SMILES IDX 41 86 42 87 47 88 43 89 44 90 46 91 48 92 45 93
REMARK H PARENT 65 55 39 66
REMARK Flexibility Score: inf
ROOT
ATOM      1  C   UNL     1       4.348   1.018  -2.663  1.00  0.00     0.188 C 
ENDROOT
BRANCH   1   2
ATOM      2  O   UNL     1       2.928   1.018  -2.663  1.00  0.00    -0.377 OA
BRANCH   2   3
ATOM      3  C   UNL     1       2.455   1.935  -1.688  1.00  0.00     0.188 C 
BRANCH   3   4
ATOM      4  C   UNL     1       2.962   1.524  -0.316  1.00  0.00     0.188 C 
BRANCH   4   5
ATOM      5  O   UNL     1       4.382   1.524  -0.316  1.00  0.00    -0.376 OA
BRANCH   5   6
ATOM      6  C   UNL     1       4.855   0.606  -1.290  1.00  0.00     0.202 C 
BRANCH   6   7
ATOM      7  C   UNL     1       4.348  -0.789  -0.961  1.00  0.00     0.261 C 
BRANCH   7   8
ATOM      8  O   UNL     1       2.928  -0.789  -0.961  1.00  0.00    -0.460 OA
BRANCH   8   9
ATOM      9  C   UNL     1       2.218   0.054  -0.066  1.00  0.00     0.338 C 
ATOM     10  O   UNL     1       0.948   0.054  -0.066  1.00  0.00    -0.246 OA
BRANCH   9  11
ATOM     11  C   UNL     1       2.978   0.957   0.892  1.00  0.00     0.087 C 
ATOM     12  C   UNL     1       4.339   0.957   0.892  1.00  0.00     0.027 C 
ATOM     13  C   UNL     1       2.218   1.859   1.851  1.00  0.00     0.316 C 
ATOM     14  C   UNL     1       5.099   0.054  -0.066  1.00  0.00     0.019 A 
ATOM     15  O   UNL     1       3.661   0.621  -1.871  1.00  0.00    -0.475 OA
ATOM     16  C   UNL     1       6.087  -0.726   0.513  1.00  0.00     0.036 A 
ATOM     17  C   UNL     1       4.783  -0.076  -1.349  1.00  0.00     0.128 A 
ATOM     18  C   UNL     1       6.890  -1.420  -0.421  1.00  0.00     0.107 A 
ATOM     19  C   UNL     1       5.531  -0.878  -2.176  1.00  0.00     0.048 A 
ATOM     20  C   UNL     1       6.560  -1.632  -1.682  1.00  0.00     0.028 A 
BRANCH  13  21
ATOM     21  C   UNL     1       2.586   3.309   1.580  1.00  0.00     0.430 C 
ATOM     22  F   UNL     1       2.264   3.621   0.328  1.00  0.00    -0.167 F 
ATOM     23  F   UNL     1       1.921   4.099   2.418  1.00  0.00    -0.167 F 
ATOM     24  F   UNL     1       3.893   3.476   1.757  1.00  0.00    -0.167 F 
ENDBRANCH  13  21
BRANCH  18  25
ATOM     25  S   UNL     1       8.483  -2.063   0.151  1.00  0.00     0.310 S 
ATOM     26  F   UNL     1       8.008  -2.024   1.663  1.00  0.00    -0.094 F 
ATOM     27  F   UNL     1       8.995  -0.586   0.345  1.00  0.00    -0.094 F 
ATOM     28  F   UNL     1       9.839  -2.630   0.655  1.00  0.00    -0.094 F 
ATOM     29  F   UNL     1       7.904  -3.531   0.083  1.00  0.00    -0.094 F 
ATOM     30  F   UNL     1       7.063  -1.500  -0.256  1.00  0.00    -0.094 F 
ENDBRANCH  18  25
ENDBRANCH   9  11
ENDBRANCH   8   9
ENDBRANCH   7   8
ENDBRANCH   6   7
ENDBRANCH   5   6
ENDBRANCH   4   5
ENDBRANCH   3   4
ENDBRANCH   2   3
ENDBRANCH   1   2
BRANCH   1  31
ATOM     31  C   UNL     1       4.855   2.412  -2.992  1.00  0.00     0.188 C 
BRANCH  31  32
ATOM     32  O   UNL     1       4.382   3.330  -2.018  1.00  0.00    -0.376 OA
BRANCH  32  33
ATOM     33  C   UNL     1       2.962   3.330  -2.018  1.00  0.00     0.202 C 
BRANCH  33  34
ATOM     34  C   UNL     1       2.455   3.742  -3.390  1.00  0.00     0.261 C 
BRANCH  34  35
ATOM     35  O   UNL     1       2.928   2.824  -4.365  1.00  0.00    -0.460 OA
BRANCH  35  36
ATOM     36  C   UNL     1       4.324   2.647  -4.554  1.00  0.00     0.338 C 
ATOM     37  O   UNL     1       5.150   3.309  -3.851  1.00  0.00    -0.246 OA
BRANCH  36  38
ATOM     38  C   UNL     1       4.831   1.664  -5.597  1.00  0.00     0.060 A 
ATOM     39  C   UNL     1       5.755   0.746  -5.125  1.00  0.00     0.016 A 
ATOM     40  C   UNL     1       4.341   1.577  -6.828  1.00  0.00     0.016 A 
ATOM     41  C   UNL     1       6.322  -0.067  -6.134  1.00  0.00     0.010 A 
ATOM     42  C   UNL     1       4.851   0.665  -7.721  1.00  0.00     0.010 A 
ATOM     43  C   UNL     1       5.808  -0.233  -7.339  1.00  0.00    -0.014 A 
BRANCH  43  44
ATOM     44  C   UNL     1       6.257  -1.361  -8.253  1.00  0.00     0.031 A 
ATOM     45  C   UNL     1       6.820  -1.093  -9.502  1.00  0.00     0.074 A 
ATOM     46  C   UNL     1       5.911  -2.629  -7.817  1.00  0.00     0.049 A 
ATOM     47  N   UNL     1       7.147  -1.970 -10.453  1.00  0.00    -0.248 NA
ATOM     48  C   UNL     1       7.157   0.256  -9.981  1.00  0.00     0.031 C 
ATOM     49  C   UNL     1       5.351  -2.909  -6.555  1.00  0.00     0.029 A 
ATOM     50  N   UNL     1       6.037  -3.820  -8.496  1.00  0.00    -0.354 N 
ATOM     51  C   UNL     1       7.679  -1.337 -11.500  1.00  0.00     0.074 A 
ATOM     52  C   UNL     1       7.688   0.104 -11.215  1.00  0.00     0.031 C 
ATOM     53  C   UNL     1       5.131  -4.248  -6.479  1.00  0.00     0.029 A 
ATOM     54  C   UNL     1       5.551  -4.827  -7.691  1.00  0.00     0.049 A 
ATOM     55  H   UNL     1       6.409  -3.933  -9.400  1.00  0.00     0.167 HD
ATOM     56  C   UNL     1       8.160  -1.905 -12.681  1.00  0.00     0.037 A 
ATOM     57  C   UNL     1       5.469  -6.180  -7.981  1.00  0.00     0.037 A 
ATOM     58  C   UNL     1       8.117  -3.263 -12.953  1.00  0.00     0.049 A 
ATOM     59  C   UNL     1       5.896  -6.742  -9.187  1.00  0.00     0.074 A 
ATOM     60  C   UNL     1       8.604  -3.853 -14.135  1.00  0.00     0.029 A 
ATOM     61  N   UNL     1       7.609  -4.267 -12.159  1.00  0.00    -0.354 N 
ATOM     62  N   UNL     1       6.464  -6.114 -10.217  1.00  0.00    -0.248 NA
ATOM     63  C   UNL     1       5.784  -8.169  -9.518  1.00  0.00     0.031 C 
ATOM     64  C   UNL     1       8.385  -5.193 -14.059  1.00  0.00     0.029 A 
ATOM     65  C   UNL     1       7.756  -5.462 -12.829  1.00  0.00     0.049 A 
ATOM     66  H   UNL     1       7.210  -4.151 -11.266  1.00  0.00     0.167 HD
ATOM     67  C   UNL     1       6.753  -6.987 -11.185  1.00  0.00     0.074 A 
ATOM     68  C   UNL     1       6.313  -8.320 -10.752  1.00  0.00     0.031 C 
ATOM     69  C   UNL     1       7.369  -6.725 -12.410  1.00  0.00     0.037 A 
BRANCH  56  70
ATOM     70  C   UNL     1       8.764  -0.982 -13.727  1.00  0.00     0.057 A 
ATOM     71  C   UNL     1       9.944  -0.283 -13.532  1.00  0.00     0.134 A 
ATOM     72  C   UNL     1       8.158  -0.995 -14.909  1.00  0.00     0.134 A 
ATOM     73  F   UNL     1      10.712  -0.443 -12.458  1.00  0.00    -0.206 F 
ATOM     74  C   UNL     1      10.257   0.616 -14.579  1.00  0.00     0.040 A 
ATOM     75  C   UNL     1       8.601  -0.191 -15.931  1.00  0.00     0.040 A 
ATOM     76  F   UNL     1       7.113  -1.794 -15.105  1.00  0.00    -0.206 F 
ATOM     77  C   UNL     1       9.727   0.572 -15.788  1.00  0.00     0.006 A 
ENDBRANCH  56  70
BRANCH  57  78
ATOM     78  C   UNL     1       4.880  -7.105  -6.928  1.00  0.00     0.057 A 
ATOM     79  C   UNL     1       5.555  -8.240  -6.510  1.00  0.00     0.134 A 
ATOM     80  C   UNL     1       3.630  -6.867  -6.548  1.00  0.00     0.134 A 
ATOM     81  F   UNL     1       6.868  -8.397  -6.651  1.00  0.00    -0.206 F 
ATOM     82  C   UNL     1       4.720  -9.218  -5.920  1.00  0.00     0.040 A 
ATOM     83  C   UNL     1       2.918  -7.815  -5.855  1.00  0.00     0.040 A 
ATOM     84  F   UNL     1       3.063  -5.700  -6.841  1.00  0.00    -0.206 F 
ATOM     85  C   UNL     1       3.504  -8.986  -5.460  1.00  0.00     0.006 A 
ENDBRANCH  57  78
BRANCH  69  86
ATOM     86  C   UNL     1       7.633  -7.898 -13.341  1.00  0.00     0.057 A 
ATOM     87  C   UNL     1       6.499  -8.526 -13.829  1.00  0.00     0.134 A 
ATOM     88  C   UNL     1       8.845  -8.246 -13.754  1.00  0.00     0.134 A 
ATOM     89  F   UNL     1       5.270  -8.052 -13.643  1.00  0.00    -0.206 F 
ATOM     90  C   UNL     1       6.767  -9.718 -14.543  1.00  0.00     0.040 A 
ATOM     91  C   UNL     1       9.021  -9.344 -14.562  1.00  0.00     0.040 A 
ATOM     92  F   UNL     1       9.900  -7.527 -13.382  1.00  0.00    -0.206 F 
ATOM     93  C   UNL     1       7.948 -10.048 -15.033  1.00  0.00     0.006 A 
ENDBRANCH  69  86
ENDBRANCH  43  44
ENDBRANCH  36  38
ENDBRANCH  35  36
ENDBRANCH  34  35
ENDBRANCH  33  34
ENDBRANCH  32  33
ENDBRANCH  31  32
ENDBRANCH   1  31
TORSDOF 22
