REMARK SMILES Cc1ccc(OCC(=O)N[C@H](C)C(=O)OCCOCCOCCOCCOC(=O)c2ccc(-c3c4nc(c(-c5c(F)cccc5F)c5ccc([nH]5)c(-c5c(F)cccc5F)c5nc(c(-c6c(F)cccc6F)c6ccc3[nH]6)C=C5)C=C4)cc2)c(Br)c1
REMARK SMILES IDX 20 1 19 2 18 3 17 4 16 5 15 6 13 7 14 8 11 9 12 10 10 11
REMARK SMILES IDX 8 12 9 13 7 15 6 16 5 17 1 18 2 19 3 20 86 21 4 22 84 23
REMARK SMILES IDX 85 24 21 25 22 26 23 27 24 28 25 29 26 30 27 31 28 32 29 33
REMARK SMILES IDX 30 34 31 35 83 36 32 37 82 38 33 39 34 40 35 41 76 42 36 43
REMARK SMILES IDX 81 44 75 45 77 46 37 47 80 48 74 49 73 50 38 52 64 53 47 54
REMARK SMILES IDX 63 55 48 56 51 57 62 58 78 59 49 60 50 61 61 63 79 64 52 65
REMARK SMILES IDX 39 66 40 67 45 68 41 69 42 70 44 71 46 72 43 73 65 74 66 75
REMARK SMILES IDX 71 76 67 77 68 78 70 79 72 80 69 81 53 82 54 83 59 84 55 85
REMARK SMILES IDX 56 86 58 87 60 88 57 89
REMARK H PARENT 10 14 77 51 51 62
REMARK Flexibility Score: inf
ROOT
ATOM      1  C   UNL     1       1.127   6.710  -1.895  1.00  0.00     0.188 C 
ENDROOT
BRANCH   1   2
ATOM      2  C   UNL     1       2.648   6.954  -1.811  1.00  0.00     0.188 C 
BRANCH   2   3
ATOM      3  O   UNL     1       3.295   7.755  -2.781  1.00  0.00    -0.376 OA
BRANCH   3   4
ATOM      4  C   UNL     1       3.591   7.233  -4.068  1.00  0.00     0.202 C 
BRANCH   4   5
ATOM      5  C   UNL     1       3.648   5.728  -4.301  1.00  0.00     0.261 C 
BRANCH   5   6
ATOM      6  O   UNL     1       2.431   5.034  -3.972  1.00  0.00    -0.462 OA
BRANCH   6   7
ATOM      7  C   UNL     1       2.579   3.933  -3.193  1.00  0.00     0.328 C 
ATOM      8  O   UNL     1       3.636   3.598  -2.663  1.00  0.00    -0.250 OA
BRANCH   7   9
ATOM      9  C   UNL     1       1.347   3.025  -3.164  1.00  0.00     0.189 C 
ATOM     10  C   UNL     1      -0.033   3.598  -3.448  1.00  0.00     0.043 C 
BRANCH   9  11
ATOM     11  N   UNL     1       1.579   1.759  -3.863  1.00  0.00    -0.340 N 
ATOM     12  C   UNL     1       2.086   1.486  -5.094  1.00  0.00     0.258 C 
ATOM     13  O   UNL     1       1.937   0.335  -5.518  1.00  0.00    -0.271 OA
ATOM     14  H   UNL     1       1.321   0.961  -3.347  1.00  0.00     0.164 HD
BRANCH  12  15
ATOM     15  C   UNL     1       2.917   2.507  -5.898  1.00  0.00     0.329 C 
BRANCH  15  16
ATOM     16  O   UNL     1       2.338   3.705  -6.375  1.00  0.00    -0.483 OA
BRANCH  16  17
ATOM     17  C   UNL     1       1.303   3.645  -7.261  1.00  0.00     0.134 A 
ATOM     18  C   UNL     1      -2.175   3.724  -9.809  1.00  0.00     0.044 C 
ATOM     19  C   UNL     1      -0.973   3.679  -8.922  1.00  0.00    -0.050 A 
ATOM     20  C   UNL     1      -0.339   2.478  -8.615  1.00  0.00     0.007 A 
ATOM     21  C   UNL     1      -0.442   4.870  -8.430  1.00  0.00     0.023 A 
ATOM     22  C   UNL     1       0.789   2.462  -7.791  1.00  0.00     0.048 A 
ATOM     23  C   UNL     1       0.711   4.856  -7.646  1.00  0.00     0.060 A 
ATOM     24  Br  UNL     1       1.480   6.542  -7.259  1.00  0.00    -0.047 Br
ENDBRANCH  16  17
ENDBRANCH  15  16
ENDBRANCH  12  15
ENDBRANCH   9  11
ENDBRANCH   7   9
ENDBRANCH   6   7
ENDBRANCH   5   6
ENDBRANCH   4   5
ENDBRANCH   3   4
ENDBRANCH   2   3
ENDBRANCH   1   2
BRANCH   1  25
ATOM     25  O   UNL     1       0.463   6.800  -3.141  1.00  0.00    -0.377 OA
BRANCH  25  26
ATOM     26  C   UNL     1       0.397   8.036  -3.843  1.00  0.00     0.188 C 
BRANCH  26  27
ATOM     27  C   UNL     1       0.888   9.355  -3.223  1.00  0.00     0.188 C 
BRANCH  27  28
ATOM     28  O   UNL     1       0.897   9.364  -1.811  1.00  0.00    -0.376 OA
BRANCH  28  29
ATOM     29  C   UNL     1      -0.216   9.909  -1.126  1.00  0.00     0.202 C 
BRANCH  29  30
ATOM     30  C   UNL     1      -1.627   9.404  -1.468  1.00  0.00     0.261 C 
BRANCH  30  31
ATOM     31  O   UNL     1      -2.031   9.457  -2.846  1.00  0.00    -0.460 OA
BRANCH  31  32
ATOM     32  C   UNL     1      -2.084  10.657  -3.453  1.00  0.00     0.338 C 
ATOM     33  O   UNL     1      -1.827  11.748  -2.963  1.00  0.00    -0.246 OA
BRANCH  32  34
ATOM     34  C   UNL     1      -2.368  10.425  -4.883  1.00  0.00     0.060 A 
ATOM     35  C   UNL     1      -1.414  10.774  -5.849  1.00  0.00     0.016 A 
ATOM     36  C   UNL     1      -3.597   9.886  -5.268  1.00  0.00     0.016 A 
ATOM     37  C   UNL     1      -1.710  10.631  -7.208  1.00  0.00     0.010 A 
ATOM     38  C   UNL     1      -3.896   9.757  -6.627  1.00  0.00     0.010 A 
ATOM     39  C   UNL     1      -2.971  10.167  -7.604  1.00  0.00    -0.014 A 
BRANCH  39  40
ATOM     40  C   UNL     1      -3.410  10.299  -9.016  1.00  0.00     0.031 A 
ATOM     41  C   UNL     1      -4.300  11.456  -9.381  1.00  0.00     0.074 A 
ATOM     42  C   UNL     1      -3.029   9.424  -9.963  1.00  0.00     0.049 A 
ATOM     43  N   UNL     1      -4.882  11.733 -10.520  1.00  0.00    -0.248 NA
ATOM     44  C   UNL     1      -4.566  12.434  -8.314  1.00  0.00     0.031 C 
ATOM     45  C   UNL     1      -2.110   8.308  -9.761  1.00  0.00     0.029 A 
ATOM     46  N   UNL     1      -3.381   9.336 -11.287  1.00  0.00    -0.354 N 
ATOM     47  C   UNL     1      -5.583  12.913 -10.305  1.00  0.00     0.074 A 
ATOM     48  C   UNL     1      -5.389  13.276  -8.918  1.00  0.00     0.031 C 
ATOM     49  C   UNL     1      -1.986   7.632 -10.918  1.00  0.00     0.029 A 
ATOM     50  C   UNL     1      -2.845   8.245 -11.927  1.00  0.00     0.049 A 
ATOM     51  H   UNL     1      -3.962   9.992 -11.736  1.00  0.00     0.167 HD
ATOM     52  C   UNL     1      -6.312  13.637 -11.188  1.00  0.00     0.037 A 
ATOM     53  C   UNL     1      -3.047   7.783 -13.177  1.00  0.00     0.037 A 
ATOM     54  C   UNL     1      -6.513  13.268 -12.564  1.00  0.00     0.049 A 
ATOM     55  C   UNL     1      -3.965   8.534 -14.103  1.00  0.00     0.074 A 
ATOM     56  C   UNL     1      -7.232  13.935 -13.540  1.00  0.00     0.029 A 
ATOM     57  N   UNL     1      -6.003  12.122 -13.156  1.00  0.00    -0.354 N 
ATOM     58  N   UNL     1      -4.617   9.652 -13.896  1.00  0.00    -0.248 NA
ATOM     59  C   UNL     1      -4.169   7.959 -15.441  1.00  0.00     0.031 C 
ATOM     60  C   UNL     1      -7.208  13.162 -14.705  1.00  0.00     0.029 A 
ATOM     61  C   UNL     1      -6.419  12.047 -14.476  1.00  0.00     0.049 A 
ATOM     62  H   UNL     1      -5.431  11.460 -12.706  1.00  0.00     0.167 HD
ATOM     63  C   UNL     1      -5.273   9.936 -15.088  1.00  0.00     0.074 A 
ATOM     64  C   UNL     1      -4.937   8.875 -16.013  1.00  0.00     0.031 C 
ATOM     65  C   UNL     1      -6.073  10.988 -15.390  1.00  0.00     0.037 A 
BRANCH  52  66
ATOM     66  C   UNL     1      -6.971  14.885 -10.674  1.00  0.00     0.057 A 
ATOM     67  C   UNL     1      -6.233  16.018 -10.304  1.00  0.00     0.134 A 
ATOM     68  C   UNL     1      -8.365  14.957 -10.555  1.00  0.00     0.134 A 
ATOM     69  F   UNL     1      -4.893  16.011 -10.378  1.00  0.00    -0.206 F 
ATOM     70  C   UNL     1      -6.855  17.164  -9.805  1.00  0.00     0.040 A 
ATOM     71  C   UNL     1      -9.000  16.109 -10.087  1.00  0.00     0.040 A 
ATOM     72  F   UNL     1      -9.133  13.912 -10.895  1.00  0.00    -0.206 F 
ATOM     73  C   UNL     1      -8.243  17.213  -9.702  1.00  0.00     0.006 A 
ENDBRANCH  52  66
BRANCH  53  74
ATOM     74  C   UNL     1      -2.387   6.534 -13.635  1.00  0.00     0.057 A 
ATOM     75  C   UNL     1      -1.378   6.558 -14.604  1.00  0.00     0.134 A 
ATOM     76  C   UNL     1      -2.783   5.283 -13.149  1.00  0.00     0.134 A 
ATOM     77  F   UNL     1      -0.988   7.722 -15.142  1.00  0.00    -0.206 F 
ATOM     78  C   UNL     1      -0.788   5.383 -15.074  1.00  0.00     0.040 A 
ATOM     79  C   UNL     1      -2.181   4.102 -13.589  1.00  0.00     0.040 A 
ATOM     80  F   UNL     1      -3.753   5.192 -12.227  1.00  0.00    -0.206 F 
ATOM     81  C   UNL     1      -1.183   4.150 -14.558  1.00  0.00     0.006 A 
ENDBRANCH  53  74
BRANCH  65  82
ATOM     82  C   UNL     1      -6.601  11.072 -16.794  1.00  0.00     0.057 A 
ATOM     83  C   UNL     1      -7.578  10.192 -17.278  1.00  0.00     0.134 A 
ATOM     84  C   UNL     1      -6.151  12.076 -17.662  1.00  0.00     0.134 A 
ATOM     85  F   UNL     1      -8.042   9.199 -16.505  1.00  0.00    -0.206 F 
ATOM     86  C   UNL     1      -8.068  10.292 -18.582  1.00  0.00     0.040 A 
ATOM     87  C   UNL     1      -6.656  12.206 -18.956  1.00  0.00     0.040 A 
ATOM     88  F   UNL     1      -5.223  12.958 -17.260  1.00  0.00    -0.206 F 
ATOM     89  C   UNL     1      -7.613  11.307 -19.422  1.00  0.00     0.006 A 
ENDBRANCH  65  82
ENDBRANCH  39  40
ENDBRANCH  32  34
ENDBRANCH  31  32
ENDBRANCH  30  31
ENDBRANCH  29  30
ENDBRANCH  28  29
ENDBRANCH  27  28
ENDBRANCH  26  27
ENDBRANCH  25  26
ENDBRANCH   1  25
TORSDOF 24
