REMARK SMILES [NH3+]C[C@@H]1CC[C@H](C(=O)N[C@@H](Cc2ccccc2)C(=O)OCCOCCOCCOCCOC(=O)c2ccc(-c3c4nc(c(-c5c(F)cccc5F)c5ccc([nH]5)c(-c5c(F)cccc5F)c5nc(c(-c6c(F)cccc6F)c6ccc3[nH]6)C=C5)C=C4)cc2)O1
REMARK SMILES IDX 25 1 24 2 23 3 22 4 21 5 20 6 18 7 19 8 10 9 9 10 7 11 8 12
REMARK SMILES IDX 6 14 3 15 4 16 89 17 5 18 2 19 1 20 11 24 12 25 13 26 17 27
REMARK SMILES IDX 14 28 16 29 15 30 26 31 27 32 28 33 29 34 30 35 31 36 32 37
REMARK SMILES IDX 33 38 34 39 35 40 36 41 88 42 37 43 87 44 38 45 39 46 40 47
REMARK SMILES IDX 81 48 41 49 86 50 80 51 82 52 42 53 85 54 79 55 78 56 43 58
REMARK SMILES IDX 69 59 52 60 68 61 53 62 56 63 67 64 83 65 54 66 55 67 66 69
REMARK SMILES IDX 84 70 57 71 44 72 45 73 50 74 46 75 47 76 49 77 51 78 48 79
REMARK SMILES IDX 70 80 71 81 76 82 72 83 73 84 75 85 77 86 74 87 58 88 59 89
REMARK SMILES IDX 64 90 60 91 61 92 63 93 65 94 62 95
REMARK H PARENT 9 13 1 21 1 22 1 23 82 57 56 68
REMARK Flexibility Score: inf
ROOT
ATOM      1  C   UNL     1      -2.663   1.263  -0.354  1.00  0.00     0.188 C 
ENDROOT
BRANCH   1   2
ATOM      2  C   UNL     1      -1.742   0.184   0.233  1.00  0.00     0.188 C 
BRANCH   2   3
ATOM      3  O   UNL     1      -2.316  -0.858   0.997  1.00  0.00    -0.376 OA
BRANCH   3   4
ATOM      4  C   UNL     1      -2.977  -0.587   2.221  1.00  0.00     0.202 C 
BRANCH   4   5
ATOM      5  C   UNL     1      -2.822   0.703   3.049  1.00  0.00     0.261 C 
BRANCH   5   6
ATOM      6  O   UNL     1      -2.510   1.919   2.355  1.00  0.00    -0.462 OA
BRANCH   6   7
ATOM      7  C   UNL     1      -1.296   2.458   2.607  1.00  0.00     0.329 C 
ATOM      8  O   UNL     1      -0.470   1.966   3.373  1.00  0.00    -0.250 OA
BRANCH   7   9
ATOM      9  C   UNL     1      -1.071   3.840   1.968  1.00  0.00     0.196 C 
BRANCH   9  10
ATOM     10  N   UNL     1      -1.868   4.337   0.841  1.00  0.00    -0.340 N 
ATOM     11  C   UNL     1      -1.491   4.600  -0.449  1.00  0.00     0.249 C 
ATOM     12  O   UNL     1      -2.296   5.187  -1.180  1.00  0.00    -0.272 OA
ATOM     13  H   UNL     1      -2.817   4.506   1.042  1.00  0.00     0.164 HD
BRANCH  11  14
ATOM     14  C   UNL     1      -0.106   4.175  -1.007  1.00  0.00     0.207 C 
ATOM     15  C   UNL     1       1.629   2.709  -0.458  1.00  0.00     0.174 C 
ATOM     16  C   UNL     1       2.012   4.052   0.138  1.00  0.00     0.041 C 
ATOM     17  O   UNL     1       0.225   2.803  -0.761  1.00  0.00    -0.359 OA
ATOM     18  C   UNL     1       1.069   5.024  -0.540  1.00  0.00     0.045 C 
BRANCH  15  19
ATOM     19  C   UNL     1       1.859   1.526   0.497  1.00  0.00     0.291 C 
BRANCH  19  20
ATOM     20  N   UNL     1       1.769   0.231  -0.182  1.00  0.00    -0.355 N 
ATOM     21  H   UNL     1       1.928  -0.518   0.491  1.00  0.00     0.344 HD
ATOM     22  H   UNL     1       2.474   0.183  -0.917  1.00  0.00     0.344 HD
ATOM     23  H   UNL     1       0.841   0.127  -0.594  1.00  0.00     0.344 HD
ENDBRANCH  19  20
ENDBRANCH  15  19
ENDBRANCH  11  14
ENDBRANCH   9  10
BRANCH   9  24
ATOM     24  C   UNL     1      -1.051   4.884   3.104  1.00  0.00     0.072 C 
BRANCH  24  25
ATOM     25  C   UNL     1      -2.412   5.126   3.723  1.00  0.00    -0.045 A 
ATOM     26  C   UNL     1      -3.110   6.309   3.455  1.00  0.00     0.004 A 
ATOM     27  C   UNL     1      -3.020   4.154   4.533  1.00  0.00     0.004 A 
ATOM     28  C   UNL     1      -4.402   6.492   3.950  1.00  0.00     0.000 A 
ATOM     29  C   UNL     1      -4.325   4.319   4.989  1.00  0.00     0.000 A 
ATOM     30  C   UNL     1      -5.018   5.489   4.697  1.00  0.00     0.000 A 
ENDBRANCH  24  25
ENDBRANCH   9  24
ENDBRANCH   7   9
ENDBRANCH   6   7
ENDBRANCH   5   6
ENDBRANCH   4   5
ENDBRANCH   3   4
ENDBRANCH   2   3
ENDBRANCH   1   2
BRANCH   1  31
ATOM     31  O   UNL     1      -3.932   1.365   0.257  1.00  0.00    -0.377 OA
BRANCH  31  32
ATOM     32  C   UNL     1      -4.968   0.526  -0.222  1.00  0.00     0.188 C 
BRANCH  32  33
ATOM     33  C   UNL     1      -4.626  -0.755  -1.011  1.00  0.00     0.188 C 
BRANCH  33  34
ATOM     34  O   UNL     1      -3.592  -0.608  -1.972  1.00  0.00    -0.376 OA
BRANCH  34  35
ATOM     35  C   UNL     1      -3.937  -0.368  -3.327  1.00  0.00     0.202 C 
BRANCH  35  36
ATOM     36  C   UNL     1      -4.677   0.935  -3.669  1.00  0.00     0.261 C 
BRANCH  36  37
ATOM     37  O   UNL     1      -5.929   1.159  -3.004  1.00  0.00    -0.460 OA
BRANCH  37  38
ATOM     38  C   UNL     1      -6.899   0.228  -3.132  1.00  0.00     0.338 C 
ATOM     39  O   UNL     1      -6.877  -0.775  -3.811  1.00  0.00    -0.246 OA
BRANCH  38  40
ATOM     40  C   UNL     1      -7.935   0.539  -2.119  1.00  0.00     0.060 A 
ATOM     41  C   UNL     1      -8.238  -0.418  -1.141  1.00  0.00     0.016 A 
ATOM     42  C   UNL     1      -8.582   1.777  -2.121  1.00  0.00     0.016 A 
ATOM     43  C   UNL     1      -9.215  -0.153  -0.182  1.00  0.00     0.010 A 
ATOM     44  C   UNL     1      -9.583   2.030  -1.181  1.00  0.00     0.010 A 
ATOM     45  C   UNL     1      -9.929   1.051  -0.232  1.00  0.00    -0.014 A 
BRANCH  45  46
ATOM     46  C   UNL     1     -11.186   1.185   0.542  1.00  0.00     0.031 A 
ATOM     47  C   UNL     1     -12.478   0.872  -0.164  1.00  0.00     0.074 A 
ATOM     48  C   UNL     1     -11.188   1.551   1.835  1.00  0.00     0.049 A 
ATOM     49  N   UNL     1     -13.708   0.972   0.268  1.00  0.00    -0.248 NA
ATOM     50  C   UNL     1     -12.364   0.382  -1.548  1.00  0.00     0.031 C 
ATOM     51  C   UNL     1     -10.001   1.833   2.639  1.00  0.00     0.029 A 
ATOM     52  N   UNL     1     -12.237   1.759   2.696  1.00  0.00    -0.354 N 
ATOM     53  C   UNL     1     -14.510   0.569  -0.792  1.00  0.00     0.074 A 
ATOM     54  C   UNL     1     -13.634   0.247  -1.895  1.00  0.00     0.031 C 
ATOM     55  C   UNL     1     -10.390   2.197   3.875  1.00  0.00     0.029 A 
ATOM     56  C   UNL     1     -11.851   2.207   3.936  1.00  0.00     0.049 A 
ATOM     57  H   UNL     1     -13.177   1.601   2.448  1.00  0.00     0.167 HD
ATOM     58  C   UNL     1     -15.859   0.470  -0.839  1.00  0.00     0.037 A 
ATOM     59  C   UNL     1     -12.598   2.607   4.984  1.00  0.00     0.037 A 
ATOM     60  C   UNL     1     -16.728   0.790   0.260  1.00  0.00     0.049 A 
ATOM     61  C   UNL     1     -14.103   2.561   4.879  1.00  0.00     0.074 A 
ATOM     62  C   UNL     1     -18.108   0.705   0.319  1.00  0.00     0.029 A 
ATOM     63  N   UNL     1     -16.301   1.265   1.491  1.00  0.00    -0.354 N 
ATOM     64  N   UNL     1     -14.854   2.152   3.883  1.00  0.00    -0.248 NA
ATOM     65  C   UNL     1     -14.865   3.030   6.046  1.00  0.00     0.031 C 
ATOM     66  C   UNL     1     -18.520   1.185   1.565  1.00  0.00     0.029 A 
ATOM     67  C   UNL     1     -17.394   1.506   2.306  1.00  0.00     0.049 A 
ATOM     68  H   UNL     1     -15.362   1.409   1.746  1.00  0.00     0.167 HD
ATOM     69  C   UNL     1     -16.169   2.280   4.317  1.00  0.00     0.074 A 
ATOM     70  C   UNL     1     -16.113   2.792   5.670  1.00  0.00     0.031 C 
ATOM     71  C   UNL     1     -17.320   2.000   3.657  1.00  0.00     0.037 A 
BRANCH  58  72
ATOM     72  C   UNL     1     -16.480   0.028  -2.131  1.00  0.00     0.057 A 
ATOM     73  C   UNL     1     -16.383  -1.293  -2.589  1.00  0.00     0.134 A 
ATOM     74  C   UNL     1     -17.225   0.927  -2.904  1.00  0.00     0.134 A 
ATOM     75  F   UNL     1     -15.668  -2.199  -1.906  1.00  0.00    -0.206 F 
ATOM     76  C   UNL     1     -16.993  -1.699  -3.777  1.00  0.00     0.040 A 
ATOM     77  C   UNL     1     -17.863   0.526  -4.078  1.00  0.00     0.040 A 
ATOM     78  F   UNL     1     -17.358   2.206  -2.522  1.00  0.00    -0.206 F 
ATOM     79  C   UNL     1     -17.745  -0.790  -4.519  1.00  0.00     0.006 A 
ENDBRANCH  58  72
BRANCH  59  80
ATOM     80  C   UNL     1     -11.949   3.118   6.220  1.00  0.00     0.057 A 
ATOM     81  C   UNL     1     -12.060   2.437   7.438  1.00  0.00     0.134 A 
ATOM     82  C   UNL     1     -11.248   4.331   6.226  1.00  0.00     0.134 A 
ATOM     83  F   UNL     1     -12.741   1.283   7.506  1.00  0.00    -0.206 F 
ATOM     84  C   UNL     1     -11.526   2.955   8.620  1.00  0.00     0.040 A 
ATOM     85  C   UNL     1     -10.683   4.846   7.394  1.00  0.00     0.040 A 
ATOM     86  F   UNL     1     -11.105   5.037   5.095  1.00  0.00    -0.206 F 
ATOM     87  C   UNL     1     -10.831   4.162   8.598  1.00  0.00     0.006 A 
ENDBRANCH  59  80
BRANCH  71  88
ATOM     88  C   UNL     1     -18.611   2.188   4.402  1.00  0.00     0.057 A 
ATOM     89  C   UNL     1     -19.110   3.457   4.719  1.00  0.00     0.134 A 
ATOM     90  C   UNL     1     -19.390   1.080   4.762  1.00  0.00     0.134 A 
ATOM     91  F   UNL     1     -18.411   4.560   4.411  1.00  0.00    -0.206 F 
ATOM     92  C   UNL     1     -20.323   3.617   5.392  1.00  0.00     0.040 A 
ATOM     93  C   UNL     1     -20.619   1.228   5.406  1.00  0.00     0.040 A 
ATOM     94  F   UNL     1     -18.979  -0.165   4.476  1.00  0.00    -0.206 F 
ATOM     95  C   UNL     1     -21.085   2.499   5.730  1.00  0.00     0.006 A 
ENDBRANCH  71  88
ENDBRANCH  45  46
ENDBRANCH  38  40
ENDBRANCH  37  38
ENDBRANCH  36  37
ENDBRANCH  35  36
ENDBRANCH  34  35
ENDBRANCH  33  34
ENDBRANCH  32  33
ENDBRANCH  31  32
ENDBRANCH   1  31
TORSDOF 26
