REMARK SMILES CCCCCCCNC(=O)Oc1cccc(-c2ccc([C@@H](C)C(=O)OCCOCCOCCOCCOC(=O)c3ccc(-c4c5nc(c(-c6c(F)cccc6F)c6ccc([nH]6)c(-c6c(F)cccc6F)c6nc(c(-c7c(F)cccc7F)c7ccc4[nH]7)C=C6)C=C5)cc3)cc2F)c1
REMARK SMILES IDX 27 1 26 2 25 3 23 4 24 5 21 6 22 7 20 8 17 9 18 10 95 11
REMARK SMILES IDX 19 12 94 13 96 14 16 15 12 16 13 17 97 18 14 19 15 20 11 21
REMARK SMILES IDX 9 22 8 23 10 25 7 26 6 27 5 28 4 29 3 30 2 31 1 32 28 33
REMARK SMILES IDX 29 34 30 35 31 36 32 37 33 38 34 39 35 40 36 41 37 42 38 43
REMARK SMILES IDX 39 44 40 45 41 46 93 47 42 48 92 49 43 50 44 51 45 52 86 53
REMARK SMILES IDX 46 54 91 55 85 56 87 57 47 58 90 59 84 60 83 61 48 63 74 64
REMARK SMILES IDX 57 65 73 66 58 67 61 68 72 69 88 70 59 71 60 72 71 74 89 75
REMARK SMILES IDX 62 76 49 77 50 78 55 79 51 80 52 81 54 82 56 83 53 84 75 85
REMARK SMILES IDX 76 86 81 87 77 88 78 89 80 90 82 91 79 92 63 93 64 94 69 95
REMARK SMILES IDX 65 96 66 97 68 98 70 99 67 100
REMARK H PARENT 8 24 87 62 61 73
REMARK Flexibility Score: inf
ROOT
ATOM      1  C   UNL     1      -9.467 -11.518   0.857  1.00  0.00     0.202 C 
ENDROOT
BRANCH   1   2
ATOM      2  C   UNL     1     -10.167 -12.072  -0.398  1.00  0.00     0.261 C 
BRANCH   2   3
ATOM      3  O   UNL     1     -10.007 -11.326  -1.624  1.00  0.00    -0.463 OA
BRANCH   3   4
ATOM      4  C   UNL     1     -11.086 -10.625  -2.042  1.00  0.00     0.313 C 
ATOM      5  O   UNL     1     -12.163 -10.627  -1.448  1.00  0.00    -0.252 OA
BRANCH   4   6
ATOM      6  C   UNL     1     -10.914  -9.833  -3.338  1.00  0.00     0.126 C 
ATOM      7  C   UNL     1     -11.748 -10.502  -4.425  1.00  0.00     0.025 C 
BRANCH   6   8
ATOM      8  C   UNL     1      -9.531  -9.449  -3.865  1.00  0.00    -0.031 A 
ATOM      9  C   UNL     1      -6.967  -8.589  -4.844  1.00  0.00     0.018 A 
ATOM     10  C   UNL     1      -7.273  -9.951  -4.665  1.00  0.00     0.012 A 
ATOM     11  C   UNL     1      -7.972  -7.673  -4.518  1.00  0.00     0.131 A 
ATOM     12  C   UNL     1      -8.531 -10.376  -4.186  1.00  0.00     0.005 A 
ATOM     13  C   UNL     1      -9.227  -8.085  -4.055  1.00  0.00     0.044 A 
ATOM     14  F   UNL     1      -7.755  -6.354  -4.656  1.00  0.00    -0.206 F 
BRANCH   9  15
ATOM     15  C   UNL     1      -5.668  -8.153  -5.397  1.00  0.00    -0.012 A 
ATOM     16  C   UNL     1      -3.625  -6.831  -5.295  1.00  0.00     0.133 A 
ATOM     17  C   UNL     1      -3.231  -7.283  -6.552  1.00  0.00     0.047 A 
ATOM     18  C   UNL     1      -4.834  -7.243  -4.721  1.00  0.00     0.056 A 
ATOM     19  C   UNL     1      -4.044  -8.182  -7.234  1.00  0.00     0.004 A 
ATOM     20  C   UNL     1      -5.247  -8.613  -6.661  1.00  0.00     0.009 A 
BRANCH  16  21
ATOM     21  O   UNL     1      -2.820  -5.848  -4.694  1.00  0.00    -0.410 OA
BRANCH  21  22
ATOM     22  C   UNL     1      -2.266  -6.152  -3.461  1.00  0.00     0.412 C 
ATOM     23  N   UNL     1      -1.476  -5.154  -2.957  1.00  0.00    -0.321 N 
ATOM     24  H   UNL     1      -1.104  -5.303  -2.058  1.00  0.00     0.167 HD
ATOM     25  O   UNL     1      -2.421  -7.198  -2.839  1.00  0.00    -0.224 OA
BRANCH  23  26
ATOM     26  C   UNL     1      -1.126  -3.900  -3.598  1.00  0.00     0.119 C 
BRANCH  26  27
ATOM     27  C   UNL     1      -1.580  -2.685  -2.788  1.00  0.00     0.021 C 
BRANCH  27  28
ATOM     28  C   UNL     1      -0.967  -2.575  -1.385  1.00  0.00     0.002 C 
BRANCH  28  29
ATOM     29  C   UNL     1       0.561  -2.469  -1.339  1.00  0.00     0.000 C 
BRANCH  29  30
ATOM     30  C   UNL     1       1.154  -1.232  -2.022  1.00  0.00    -0.000 C 
BRANCH  30  31
ATOM     31  C   UNL     1       0.705   0.114  -1.445  1.00  0.00    -0.003 C 
ATOM     32  C   UNL     1       1.092   0.305   0.014  1.00  0.00     0.004 C 
ENDBRANCH  30  31
ENDBRANCH  29  30
ENDBRANCH  28  29
ENDBRANCH  27  28
ENDBRANCH  26  27
ENDBRANCH  23  26
ENDBRANCH  21  22
ENDBRANCH  16  21
ENDBRANCH   9  15
ENDBRANCH   6   8
ENDBRANCH   4   6
ENDBRANCH   3   4
ENDBRANCH   2   3
ENDBRANCH   1   2
BRANCH   1  33
ATOM     33  O   UNL     1      -9.617 -10.161   1.247  1.00  0.00    -0.376 OA
BRANCH  33  34
ATOM     34  C   UNL     1      -9.389  -9.107   0.321  1.00  0.00     0.188 C 
BRANCH  34  35
ATOM     35  C   UNL     1      -8.262  -9.196  -0.718  1.00  0.00     0.188 C 
BRANCH  35  36
ATOM     36  O   UNL     1      -7.622 -10.452  -0.805  1.00  0.00    -0.377 OA
BRANCH  36  37
ATOM     37  C   UNL     1      -6.356 -10.565  -0.176  1.00  0.00     0.188 C 
BRANCH  37  38
ATOM     38  C   UNL     1      -6.172  -9.848   1.175  1.00  0.00     0.188 C 
BRANCH  38  39
ATOM     39  O   UNL     1      -6.501  -8.464   1.147  1.00  0.00    -0.376 OA
BRANCH  39  40
ATOM     40  C   UNL     1      -5.456  -7.522   0.937  1.00  0.00     0.202 C 
BRANCH  40  41
ATOM     41  C   UNL     1      -4.732  -7.535  -0.420  1.00  0.00     0.261 C 
BRANCH  41  42
ATOM     42  O   UNL     1      -4.091  -8.764  -0.787  1.00  0.00    -0.460 OA
BRANCH  42  43
ATOM     43  C   UNL     1      -3.119  -9.248   0.016  1.00  0.00     0.338 C 
ATOM     44  O   UNL     1      -2.684  -8.749   1.030  1.00  0.00    -0.246 OA
BRANCH  43  45
ATOM     45  C   UNL     1      -2.832 -10.632  -0.433  1.00  0.00     0.060 A 
ATOM     46  C   UNL     1      -3.066 -11.691   0.455  1.00  0.00     0.016 A 
ATOM     47  C   UNL     1      -2.349 -10.886  -1.718  1.00  0.00     0.016 A 
ATOM     48  C   UNL     1      -2.787 -13.004   0.072  1.00  0.00     0.010 A 
ATOM     49  C   UNL     1      -2.043 -12.200  -2.091  1.00  0.00     0.010 A 
ATOM     50  C   UNL     1      -2.232 -13.262  -1.188  1.00  0.00    -0.014 A 
BRANCH  50  51
ATOM     51  C   UNL     1      -1.688 -14.611  -1.490  1.00  0.00     0.031 A 
ATOM     52  C   UNL     1      -0.210 -14.842  -1.327  1.00  0.00     0.074 A 
ATOM     53  C   UNL     1      -2.486 -15.622  -1.876  1.00  0.00     0.049 A 
ATOM     54  N   UNL     1       0.498 -15.914  -1.577  1.00  0.00    -0.248 NA
ATOM     55  C   UNL     1       0.573 -13.708  -0.811  1.00  0.00     0.031 C 
ATOM     56  C   UNL     1      -3.938 -15.546  -2.022  1.00  0.00     0.029 A 
ATOM     57  N   UNL     1      -2.179 -16.915  -2.224  1.00  0.00    -0.354 N 
ATOM     58  C   UNL     1       1.809 -15.581  -1.257  1.00  0.00     0.074 A 
ATOM     59  C   UNL     1       1.802 -14.201  -0.822  1.00  0.00     0.031 C 
ATOM     60  C   UNL     1      -4.395 -16.736  -2.448  1.00  0.00     0.029 A 
ATOM     61  C   UNL     1      -3.266 -17.646  -2.639  1.00  0.00     0.049 A 
ATOM     62  H   UNL     1      -1.267 -17.282  -2.181  1.00  0.00     0.167 HD
ATOM     63  C   UNL     1       2.918 -16.356  -1.316  1.00  0.00     0.037 A 
ATOM     64  C   UNL     1      -3.335 -18.895  -3.141  1.00  0.00     0.037 A 
ATOM     65  C   UNL     1       2.926 -17.727  -1.756  1.00  0.00     0.049 A 
ATOM     66  C   UNL     1      -2.074 -19.709  -3.283  1.00  0.00     0.074 A 
ATOM     67  C   UNL     1       3.996 -18.601  -1.832  1.00  0.00     0.029 A 
ATOM     68  N   UNL     1       1.812 -18.418  -2.209  1.00  0.00    -0.354 N 
ATOM     69  N   UNL     1      -0.843 -19.397  -2.953  1.00  0.00    -0.248 NA
ATOM     70  C   UNL     1      -2.212 -21.051  -3.870  1.00  0.00     0.031 C 
ATOM     71  C   UNL     1       3.541 -19.800  -2.391  1.00  0.00     0.029 A 
ATOM     72  C   UNL     1       2.176 -19.696  -2.601  1.00  0.00     0.049 A 
ATOM     73  H   UNL     1       0.898 -18.054  -2.246  1.00  0.00     0.167 HD
ATOM     74  C   UNL     1      -0.069 -20.509  -3.266  1.00  0.00     0.074 A 
ATOM     75  C   UNL     1      -0.970 -21.510  -3.796  1.00  0.00     0.031 C 
ATOM     76  C   UNL     1       1.269 -20.685  -3.127  1.00  0.00     0.037 A 
BRANCH  63  77
ATOM     77  C   UNL     1       4.225 -15.725  -0.929  1.00  0.00     0.057 A 
ATOM     78  C   UNL     1       4.524 -15.384   0.396  1.00  0.00     0.134 A 
ATOM     79  C   UNL     1       5.210 -15.482  -1.895  1.00  0.00     0.134 A 
ATOM     80  F   UNL     1       3.621 -15.577   1.369  1.00  0.00    -0.206 F 
ATOM     81  C   UNL     1       5.745 -14.802   0.742  1.00  0.00     0.040 A 
ATOM     82  C   UNL     1       6.445 -14.928  -1.558  1.00  0.00     0.040 A 
ATOM     83  F   UNL     1       4.991 -15.789  -3.183  1.00  0.00    -0.206 F 
ATOM     84  C   UNL     1       6.713 -14.579  -0.236  1.00  0.00     0.006 A 
ENDBRANCH  63  77
BRANCH  64  85
ATOM     85  C   UNL     1      -4.642 -19.453  -3.577  1.00  0.00     0.057 A 
ATOM     86  C   UNL     1      -5.233 -20.533  -2.911  1.00  0.00     0.134 A 
ATOM     87  C   UNL     1      -5.317 -18.939  -4.692  1.00  0.00     0.134 A 
ATOM     88  F   UNL     1      -4.623 -21.090  -1.854  1.00  0.00    -0.206 F 
ATOM     89  C   UNL     1      -6.435 -21.094  -3.347  1.00  0.00     0.040 A 
ATOM     90  C   UNL     1      -6.535 -19.470  -5.121  1.00  0.00     0.040 A 
ATOM     91  F   UNL     1      -4.805 -17.907  -5.378  1.00  0.00    -0.206 F 
ATOM     92  C   UNL     1      -7.093 -20.557  -4.452  1.00  0.00     0.006 A 
ENDBRANCH  64  85
BRANCH  76  93
ATOM     93  C   UNL     1       1.838 -22.019  -3.524  1.00  0.00     0.057 A 
ATOM     94  C   UNL     1       1.920 -22.423  -4.863  1.00  0.00     0.134 A 
ATOM     95  C   UNL     1       2.349 -22.894  -2.556  1.00  0.00     0.134 A 
ATOM     96  F   UNL     1       1.440 -21.639  -5.841  1.00  0.00    -0.206 F 
ATOM     97  C   UNL     1       2.465 -23.658  -5.222  1.00  0.00     0.040 A 
ATOM     98  C   UNL     1       2.924 -24.117  -2.904  1.00  0.00     0.040 A 
ATOM     99  F   UNL     1       2.314 -22.567  -1.255  1.00  0.00    -0.206 F 
ATOM    100  C   UNL     1       2.976 -24.505  -4.241  1.00  0.00     0.006 A 
ENDBRANCH  76  93
ENDBRANCH  50  51
ENDBRANCH  43  45
ENDBRANCH  42  43
ENDBRANCH  41  42
ENDBRANCH  40  41
ENDBRANCH  39  40
ENDBRANCH  38  39
ENDBRANCH  37  38
ENDBRANCH  36  37
ENDBRANCH  35  36
ENDBRANCH  34  35
ENDBRANCH  33  34
ENDBRANCH   1  33
TORSDOF 30
