REMARK SMILES Cc1ccnc(C(=O)c2[nH]c3cc(Cl)c(F)cc3c2CC(=O)OCCOCCOCCOCCOC(=O)c2ccc(-c3c4nc(c(-c5c(F)cccc5F)c5ccc([nH]5)c(-c5c(F)cccc5F)c5nc(c(-c6c(F)cccc6F)c6ccc3[nH]6)C=C5)C=C4)cc2)c1
REMARK SMILES IDX 28 1 27 2 26 3 25 4 24 5 23 6 21 7 22 8 20 9 19 10 9 11
REMARK SMILES IDX 10 12 11 13 18 15 12 16 17 17 13 18 15 19 14 20 16 21 7 22
REMARK SMILES IDX 8 23 6 24 1 25 2 26 3 27 92 28 4 29 5 30 29 31 30 32 31 33
REMARK SMILES IDX 32 34 33 35 34 36 35 37 36 38 37 39 38 40 39 41 91 42 40 43
REMARK SMILES IDX 90 44 41 45 42 46 43 47 84 48 44 49 89 50 83 51 85 52 45 53
REMARK SMILES IDX 88 54 82 55 81 56 46 58 72 59 55 60 71 61 56 62 59 63 70 64
REMARK SMILES IDX 86 65 57 66 58 67 69 69 87 70 60 71 47 72 48 73 53 74 49 75
REMARK SMILES IDX 50 76 52 77 54 78 51 79 73 80 74 81 79 82 75 83 76 84 78 85
REMARK SMILES IDX 80 86 77 87 61 88 62 89 67 90 63 91 64 92 66 93 68 94 65 95
REMARK H PARENT 10 14 85 57 59 68
REMARK Flexibility Score: inf
ROOT
ATOM      1  C   UNL     1      -1.642  -1.913  -0.078  1.00  0.00     0.188 C 
ENDROOT
BRANCH   1   2
ATOM      2  C   UNL     1      -1.425  -0.948  -1.245  1.00  0.00     0.188 C 
BRANCH   2   3
ATOM      3  O   UNL     1      -2.639  -0.473  -1.790  1.00  0.00    -0.376 OA
BRANCH   3   4
ATOM      4  C   UNL     1      -2.885  -1.007  -3.085  1.00  0.00     0.202 C 
BRANCH   4   5
ATOM      5  C   UNL     1      -3.199  -2.506  -3.004  1.00  0.00     0.261 C 
BRANCH   5   6
ATOM      6  O   UNL     1      -1.984  -3.256  -2.722  1.00  0.00    -0.463 OA
BRANCH   6   7
ATOM      7  C   UNL     1      -1.101  -3.334  -3.751  1.00  0.00     0.310 C 
ATOM      8  O   UNL     1      -1.421  -3.110  -4.916  1.00  0.00    -0.252 OA
BRANCH   7   9
ATOM      9  C   UNL     1       0.348  -3.603  -3.357  1.00  0.00     0.161 C 
BRANCH   9  10
ATOM     10  C   UNL     1       0.711  -3.877  -1.910  1.00  0.00     0.000 A 
ATOM     11  C   UNL     1       1.707  -3.264  -1.117  1.00  0.00     0.093 A 
ATOM     12  N   UNL     1       1.834  -4.054   0.013  1.00  0.00    -0.351 N 
ATOM     13  C   UNL     1       0.946  -5.103   0.011  1.00  0.00     0.048 A 
ATOM     14  H   UNL     1       2.484  -3.884   0.733  1.00  0.00     0.167 HD
ATOM     15  C   UNL     1       0.204  -5.008  -1.163  1.00  0.00     0.007 A 
ATOM     16  C   UNL     1       0.781  -6.149   0.935  1.00  0.00     0.050 A 
ATOM     17  C   UNL     1      -0.772  -5.998  -1.416  1.00  0.00     0.051 A 
ATOM     18  C   UNL     1      -0.193  -7.114   0.659  1.00  0.00     0.078 A 
ATOM     19  C   UNL     1      -0.963  -7.032  -0.494  1.00  0.00     0.142 A 
ATOM     20  Cl  UNL     1      -0.417  -8.417   1.767  1.00  0.00    -0.081 Cl
ATOM     21  F   UNL     1      -1.899  -7.956  -0.758  1.00  0.00    -0.205 F 
BRANCH  11  22
ATOM     22  C   UNL     1       2.745  -2.256  -1.405  1.00  0.00     0.227 C 
ATOM     23  O   UNL     1       3.821  -2.643  -1.859  1.00  0.00    -0.285 OA
BRANCH  22  24
ATOM     24  C   UNL     1       2.602  -0.770  -1.071  1.00  0.00     0.113 A 
ATOM     25  C   UNL     1       0.116   1.854   0.223  1.00  0.00     0.044 C 
ATOM     26  C   UNL     1       1.367   1.173  -0.276  1.00  0.00    -0.047 A 
ATOM     27  C   UNL     1       2.404   1.979  -0.721  1.00  0.00     0.023 A 
ATOM     28  C   UNL     1       1.518  -0.227  -0.398  1.00  0.00     0.036 A 
ATOM     29  C   UNL     1       3.501   1.367  -1.296  1.00  0.00     0.112 A 
ATOM     30  N   UNL     1       3.611   0.031  -1.504  1.00  0.00    -0.253 NA
ENDBRANCH  22  24
ENDBRANCH  11  22
ENDBRANCH   9  10
ENDBRANCH   7   9
ENDBRANCH   6   7
ENDBRANCH   5   6
ENDBRANCH   4   5
ENDBRANCH   3   4
ENDBRANCH   2   3
ENDBRANCH   1   2
BRANCH   1  31
ATOM     31  O   UNL     1      -1.524  -1.208   1.159  1.00  0.00    -0.377 OA
BRANCH  31  32
ATOM     32  C   UNL     1      -0.636  -1.825   2.093  1.00  0.00     0.188 C 
BRANCH  32  33
ATOM     33  C   UNL     1       0.308  -0.762   2.659  1.00  0.00     0.188 C 
BRANCH  33  34
ATOM     34  O   UNL     1       1.675  -1.153   2.734  1.00  0.00    -0.376 OA
BRANCH  34  35
ATOM     35  C   UNL     1       1.961  -2.250   3.602  1.00  0.00     0.202 C 
BRANCH  35  36
ATOM     36  C   UNL     1       1.626  -2.034   5.089  1.00  0.00     0.261 C 
BRANCH  36  37
ATOM     37  O   UNL     1       0.198  -1.977   5.280  1.00  0.00    -0.460 OA
BRANCH  37  38
ATOM     38  C   UNL     1      -0.239  -0.983   6.115  1.00  0.00     0.338 C 
ATOM     39  O   UNL     1       0.392  -0.444   6.992  1.00  0.00    -0.246 OA
BRANCH  38  40
ATOM     40  C   UNL     1      -1.481  -0.427   5.504  1.00  0.00     0.060 A 
ATOM     41  C   UNL     1      -2.451  -1.268   4.963  1.00  0.00     0.016 A 
ATOM     42  C   UNL     1      -1.492   0.949   5.206  1.00  0.00     0.016 A 
ATOM     43  C   UNL     1      -3.369  -0.743   4.055  1.00  0.00     0.010 A 
ATOM     44  C   UNL     1      -2.422   1.471   4.297  1.00  0.00     0.010 A 
ATOM     45  C   UNL     1      -3.354   0.623   3.697  1.00  0.00    -0.014 A 
BRANCH  45  46
ATOM     46  C   UNL     1      -4.507   1.110   2.914  1.00  0.00     0.031 A 
ATOM     47  C   UNL     1      -5.811   0.791   3.562  1.00  0.00     0.074 A 
ATOM     48  C   UNL     1      -4.564   1.912   1.829  1.00  0.00     0.049 A 
ATOM     49  N   UNL     1      -6.798   0.105   3.085  1.00  0.00    -0.248 NA
ATOM     50  C   UNL     1      -5.979   1.226   4.957  1.00  0.00     0.031 C 
ATOM     51  C   UNL     1      -3.477   2.633   1.176  1.00  0.00     0.029 A 
ATOM     52  N   UNL     1      -5.676   2.324   1.128  1.00  0.00    -0.354 N 
ATOM     53  C   UNL     1      -7.779   0.142   4.066  1.00  0.00     0.074 A 
ATOM     54  C   UNL     1      -7.187   0.742   5.236  1.00  0.00     0.031 C 
ATOM     55  C   UNL     1      -3.996   3.531   0.306  1.00  0.00     0.029 A 
ATOM     56  C   UNL     1      -5.446   3.391   0.270  1.00  0.00     0.049 A 
ATOM     57  H   UNL     1      -6.558   1.898   1.226  1.00  0.00     0.167 HD
ATOM     58  C   UNL     1      -9.080  -0.159   3.820  1.00  0.00     0.037 A 
ATOM     59  C   UNL     1      -6.368   4.152  -0.376  1.00  0.00     0.037 A 
ATOM     60  C   UNL     1      -9.271  -0.905   2.612  1.00  0.00     0.049 A 
ATOM     61  C   UNL     1      -7.660   3.425  -0.416  1.00  0.00     0.074 A 
ATOM     62  C   UNL     1      -8.785  -2.104   2.124  1.00  0.00     0.029 A 
ATOM     63  N   UNL     1      -9.861  -0.288   1.539  1.00  0.00    -0.354 N 
ATOM     64  N   UNL     1      -7.945   2.438  -1.214  1.00  0.00    -0.248 NA
ATOM     65  C   UNL     1      -8.595   3.622   0.681  1.00  0.00     0.031 C 
ATOM     66  C   UNL     1      -8.683  -1.925   0.715  1.00  0.00     0.029 A 
ATOM     67  C   UNL     1      -9.126  -0.634   0.432  1.00  0.00     0.049 A 
ATOM     68  H   UNL     1     -10.657   0.291   1.558  1.00  0.00     0.167 HD
ATOM     69  C   UNL     1      -8.797   1.629  -0.481  1.00  0.00     0.074 A 
ATOM     70  C   UNL     1      -9.273   2.476   0.605  1.00  0.00     0.031 C 
ATOM     71  C   UNL     1      -8.821   0.274  -0.651  1.00  0.00     0.037 A 
BRANCH  58  72
ATOM     72  C   UNL     1     -10.194   0.486   4.582  1.00  0.00     0.057 A 
ATOM     73  C   UNL     1     -11.452  -0.122   4.665  1.00  0.00     0.134 A 
ATOM     74  C   UNL     1     -10.116   1.810   5.062  1.00  0.00     0.134 A 
ATOM     75  F   UNL     1     -11.651  -1.355   4.176  1.00  0.00    -0.206 F 
ATOM     76  C   UNL     1     -12.559   0.542   5.205  1.00  0.00     0.040 A 
ATOM     77  C   UNL     1     -11.198   2.463   5.651  1.00  0.00     0.040 A 
ATOM     78  F   UNL     1      -9.008   2.550   4.907  1.00  0.00    -0.206 F 
ATOM     79  C   UNL     1     -12.431   1.833   5.711  1.00  0.00     0.006 A 
ENDBRANCH  58  72
BRANCH  59  80
ATOM     80  C   UNL     1      -6.274   5.564  -0.825  1.00  0.00     0.057 A 
ATOM     81  C   UNL     1      -7.152   6.093  -1.785  1.00  0.00     0.134 A 
ATOM     82  C   UNL     1      -5.482   6.502  -0.140  1.00  0.00     0.134 A 
ATOM     83  F   UNL     1      -7.989   5.294  -2.463  1.00  0.00    -0.206 F 
ATOM     84  C   UNL     1      -7.242   7.469  -2.040  1.00  0.00     0.040 A 
ATOM     85  C   UNL     1      -5.553   7.876  -0.394  1.00  0.00     0.040 A 
ATOM     86  F   UNL     1      -4.672   6.126   0.860  1.00  0.00    -0.206 F 
ATOM     87  C   UNL     1      -6.444   8.366  -1.339  1.00  0.00     0.006 A 
ENDBRANCH  59  80
BRANCH  71  88
ATOM     88  C   UNL     1      -8.234  -0.320  -1.906  1.00  0.00     0.057 A 
ATOM     89  C   UNL     1      -6.958  -0.041  -2.409  1.00  0.00     0.134 A 
ATOM     90  C   UNL     1      -8.973  -1.296  -2.596  1.00  0.00     0.134 A 
ATOM     91  F   UNL     1      -6.099   0.759  -1.762  1.00  0.00    -0.206 F 
ATOM     92  C   UNL     1      -6.499  -0.627  -3.592  1.00  0.00     0.040 A 
ATOM     93  C   UNL     1      -8.473  -1.960  -3.721  1.00  0.00     0.040 A 
ATOM     94  F   UNL     1     -10.197  -1.648  -2.170  1.00  0.00    -0.206 F 
ATOM     95  C   UNL     1      -7.233  -1.614  -4.234  1.00  0.00     0.006 A 
ENDBRANCH  71  88
ENDBRANCH  45  46
ENDBRANCH  38  40
ENDBRANCH  37  38
ENDBRANCH  36  37
ENDBRANCH  35  36
ENDBRANCH  34  35
ENDBRANCH  33  34
ENDBRANCH  32  33
ENDBRANCH  31  32
ENDBRANCH   1  31
TORSDOF 23
