REMARK SMILES CN(C)C(=O)Nc1cccc(/C=C/C(=O)OCCOCCOCCOCCOC(=O)c2ccc(-c3c4nc(c(-c5c(F)cccc5F)c5ccc([nH]5)c(-c5c(F)cccc5F)c5nc(c(-c6c(F)cccc6F)c6ccc3[nH]6)C=C5)C=C4)cc2)n1
REMARK SMILES IDX 22 1 21 2 20 3 19 4 18 5 17 6 16 7 14 8 15 9 13 10 12 11
REMARK SMILES IDX 11 12 7 13 8 14 85 15 9 16 10 17 6 18 1 19 2 20 3 21 4 22
REMARK SMILES IDX 5 23 23 25 24 26 25 27 26 28 27 29 28 30 29 31 30 32 31 33
REMARK SMILES IDX 32 34 84 35 33 36 83 37 34 38 35 39 36 40 77 41 37 42 82 43
REMARK SMILES IDX 76 44 78 45 38 46 81 47 75 48 74 49 39 51 65 52 48 53 64 54
REMARK SMILES IDX 49 55 52 56 63 57 79 58 50 59 51 60 62 62 80 63 53 64 40 65
REMARK SMILES IDX 41 66 46 67 42 68 43 69 45 70 47 71 44 72 66 73 67 74 72 75
REMARK SMILES IDX 68 76 69 77 71 78 73 79 70 80 54 81 55 82 60 83 56 84 57 85
REMARK SMILES IDX 59 86 61 87 58 88
REMARK H PARENT 6 24 78 50 52 61
REMARK Flexibility Score: inf
ROOT
ATOM      1  O   UNL     1      -1.575   2.594  10.445  1.00  0.00    -0.377 OA
ENDROOT
BRANCH   1   2
ATOM      2  C   UNL     1      -0.626   1.608  10.063  1.00  0.00     0.188 C 
BRANCH   2   3
ATOM      3  C   UNL     1       0.832   1.839  10.508  1.00  0.00     0.188 C 
BRANCH   3   4
ATOM      4  O   UNL     1       0.946   2.764  11.575  1.00  0.00    -0.376 OA
BRANCH   4   5
ATOM      5  C   UNL     1       1.419   4.073  11.328  1.00  0.00     0.202 C 
BRANCH   5   6
ATOM      6  C   UNL     1       0.784   4.955  10.241  1.00  0.00     0.261 C 
BRANCH   6   7
ATOM      7  O   UNL     1       0.383   4.300   9.036  1.00  0.00    -0.460 OA
BRANCH   7   8
ATOM      8  C   UNL     1       1.348   3.997   8.143  1.00  0.00     0.330 C 
ATOM      9  O   UNL     1       2.537   4.245   8.253  1.00  0.00    -0.247 OA
BRANCH   8  10
ATOM     10  C   UNL     1       0.789   3.164   7.058  1.00  0.00     0.095 C 
ATOM     11  C   UNL     1      -0.516   3.139   6.732  1.00  0.00     0.036 C 
BRANCH  11  12
ATOM     12  C   UNL     1      -1.057   2.260   5.690  1.00  0.00     0.066 A 
ATOM     13  C   UNL     1      -0.639   0.567   4.178  1.00  0.00     0.134 A 
ATOM     14  C   UNL     1      -1.892   0.704   3.599  1.00  0.00     0.047 A 
ATOM     15  N   UNL     1      -0.242   1.277   5.250  1.00  0.00    -0.231 NA
ATOM     16  C   UNL     1      -2.752   1.672   4.107  1.00  0.00     0.006 A 
ATOM     17  C   UNL     1      -2.323   2.478   5.159  1.00  0.00     0.028 A 
BRANCH  13  18
ATOM     18  N   UNL     1       0.329  -0.284   3.670  1.00  0.00    -0.292 N 
ATOM     19  C   UNL     1       0.818  -0.246   0.029  1.00  0.00     0.148 C 
ATOM     20  N   UNL     1       0.404   0.211   1.345  1.00  0.00    -0.331 N 
ATOM     21  C   UNL     1       0.093   1.633   1.434  1.00  0.00     0.148 C 
ATOM     22  C   UNL     1       0.637  -0.648   2.402  1.00  0.00     0.322 C 
ATOM     23  O   UNL     1       1.239  -1.714   2.245  1.00  0.00    -0.248 OA
ATOM     24  H   UNL     1       0.898  -0.701   4.356  1.00  0.00     0.173 HD
ENDBRANCH  13  18
ENDBRANCH  11  12
ENDBRANCH   8  10
ENDBRANCH   7   8
ENDBRANCH   6   7
ENDBRANCH   5   6
ENDBRANCH   4   5
ENDBRANCH   3   4
ENDBRANCH   2   3
ENDBRANCH   1   2
BRANCH   1  25
ATOM     25  C   UNL     1      -1.830   2.829  11.832  1.00  0.00     0.188 C 
BRANCH  25  26
ATOM     26  C   UNL     1      -1.259   1.940  12.966  1.00  0.00     0.188 C 
BRANCH  26  27
ATOM     27  O   UNL     1      -0.812   0.659  12.556  1.00  0.00    -0.376 OA
BRANCH  27  28
ATOM     28  C   UNL     1      -1.583  -0.466  12.933  1.00  0.00     0.202 C 
BRANCH  28  29
ATOM     29  C   UNL     1      -2.987  -0.564  12.321  1.00  0.00     0.261 C 
BRANCH  29  30
ATOM     30  O   UNL     1      -3.835   0.578  12.516  1.00  0.00    -0.460 OA
BRANCH  30  31
ATOM     31  C   UNL     1      -4.231   0.844  13.778  1.00  0.00     0.338 C 
ATOM     32  O   UNL     1      -3.955   0.216  14.789  1.00  0.00    -0.246 OA
BRANCH  31  33
ATOM     33  C   UNL     1      -4.922   2.147  13.764  1.00  0.00     0.060 A 
ATOM     34  C   UNL     1      -4.400   3.207  14.518  1.00  0.00     0.016 A 
ATOM     35  C   UNL     1      -6.076   2.324  12.998  1.00  0.00     0.016 A 
ATOM     36  C   UNL     1      -5.053   4.439  14.533  1.00  0.00     0.010 A 
ATOM     37  C   UNL     1      -6.739   3.552  13.028  1.00  0.00     0.010 A 
ATOM     38  C   UNL     1      -6.249   4.605  13.822  1.00  0.00    -0.014 A 
BRANCH  38  39
ATOM     39  C   UNL     1      -7.084   5.809  14.049  1.00  0.00     0.031 A 
ATOM     40  C   UNL     1      -8.257   5.703  14.982  1.00  0.00     0.074 A 
ATOM     41  C   UNL     1      -6.809   6.976  13.442  1.00  0.00     0.049 A 
ATOM     42  N   UNL     1      -9.157   6.599  15.295  1.00  0.00    -0.248 NA
ATOM     43  C   UNL     1      -8.442   4.403  15.647  1.00  0.00     0.031 C 
ATOM     44  C   UNL     1      -5.686   7.214  12.538  1.00  0.00     0.029 A 
ATOM     45  N   UNL     1      -7.470   8.178  13.487  1.00  0.00    -0.354 N 
ATOM     46  C   UNL     1     -10.023   5.968  16.179  1.00  0.00     0.074 A 
ATOM     47  C   UNL     1      -9.558   4.606  16.328  1.00  0.00     0.031 C 
ATOM     48  C   UNL     1      -5.747   8.483  12.097  1.00  0.00     0.029 A 
ATOM     49  C   UNL     1      -6.931   9.132  12.661  1.00  0.00     0.049 A 
ATOM     50  H   UNL     1      -8.256   8.340  14.058  1.00  0.00     0.167 HD
ATOM     51  C   UNL     1     -11.105   6.478  16.813  1.00  0.00     0.037 A 
ATOM     52  C   UNL     1      -7.359  10.376  12.371  1.00  0.00     0.037 A 
ATOM     53  C   UNL     1     -11.567   7.833  16.657  1.00  0.00     0.049 A 
ATOM     54  C   UNL     1      -8.600  10.908  13.041  1.00  0.00     0.074 A 
ATOM     55  C   UNL     1     -12.628   8.460  17.286  1.00  0.00     0.029 A 
ATOM     56  N   UNL     1     -11.005   8.765  15.796  1.00  0.00    -0.354 N 
ATOM     57  N   UNL     1      -9.388  10.322  13.910  1.00  0.00    -0.248 NA
ATOM     58  C   UNL     1      -9.007  12.277  12.693  1.00  0.00     0.031 C 
ATOM     59  C   UNL     1     -12.752   9.747  16.753  1.00  0.00     0.029 A 
ATOM     60  C   UNL     1     -11.723   9.949  15.846  1.00  0.00     0.049 A 
ATOM     61  H   UNL     1     -10.213   8.608  15.233  1.00  0.00     0.167 HD
ATOM     62  C   UNL     1     -10.367  11.255  14.231  1.00  0.00     0.074 A 
ATOM     63  C   UNL     1     -10.065  12.451  13.473  1.00  0.00     0.031 C 
ATOM     64  C   UNL     1     -11.418  11.133  15.081  1.00  0.00     0.037 A 
BRANCH  51  65
ATOM     65  C   UNL     1     -11.890   5.546  17.693  1.00  0.00     0.057 A 
ATOM     66  C   UNL     1     -11.376   5.038  18.893  1.00  0.00     0.134 A 
ATOM     67  C   UNL     1     -13.184   5.151  17.328  1.00  0.00     0.134 A 
ATOM     68  F   UNL     1     -10.138   5.363  19.296  1.00  0.00    -0.206 F 
ATOM     69  C   UNL     1     -12.104   4.141  19.678  1.00  0.00     0.040 A 
ATOM     70  C   UNL     1     -13.934   4.281  18.121  1.00  0.00     0.040 A 
ATOM     71  F   UNL     1     -13.741   5.603  16.195  1.00  0.00    -0.206 F 
ATOM     72  C   UNL     1     -13.389   3.764  19.294  1.00  0.00     0.006 A 
ENDBRANCH  51  65
BRANCH  52  73
ATOM     73  C   UNL     1      -6.614  11.197  11.384  1.00  0.00     0.057 A 
ATOM     74  C   UNL     1      -5.890  12.329  11.773  1.00  0.00     0.134 A 
ATOM     75  C   UNL     1      -6.601  10.861  10.024  1.00  0.00     0.134 A 
ATOM     76  F   UNL     1      -5.883  12.718  13.057  1.00  0.00    -0.206 F 
ATOM     77  C   UNL     1      -5.185  13.101  10.847  1.00  0.00     0.040 A 
ATOM     78  C   UNL     1      -5.880  11.607   9.091  1.00  0.00     0.040 A 
ATOM     79  F   UNL     1      -7.275   9.787   9.585  1.00  0.00    -0.206 F 
ATOM     80  C   UNL     1      -5.172  12.735   9.502  1.00  0.00     0.006 A 
ENDBRANCH  52  73
BRANCH  64  81
ATOM     81  C   UNL     1     -12.306  12.333  15.262  1.00  0.00     0.057 A 
ATOM     82  C   UNL     1     -13.169  12.781  14.254  1.00  0.00     0.134 A 
ATOM     83  C   UNL     1     -12.330  13.022  16.483  1.00  0.00     0.134 A 
ATOM     84  F   UNL     1     -13.190  12.174  13.057  1.00  0.00    -0.206 F 
ATOM     85  C   UNL     1     -14.003  13.885  14.443  1.00  0.00     0.040 A 
ATOM     86  C   UNL     1     -13.183  14.107  16.695  1.00  0.00     0.040 A 
ATOM     87  F   UNL     1     -11.539  12.641  17.497  1.00  0.00    -0.206 F 
ATOM     88  C   UNL     1     -14.017  14.546  15.670  1.00  0.00     0.006 A 
ENDBRANCH  64  81
ENDBRANCH  38  39
ENDBRANCH  31  33
ENDBRANCH  30  31
ENDBRANCH  29  30
ENDBRANCH  28  29
ENDBRANCH  27  28
ENDBRANCH  26  27
ENDBRANCH  25  26
ENDBRANCH   1  25
TORSDOF 22
