REMARK SMILES CCC1(CC)CCN(C(=O)NC(CC)(CC)C(=O)OCCOCCOCCOCCOC(=O)c2ccc(-c3c4nc(c(-c5c(F)cccc5F)c5ccc([nH]5)c(-c5c(F)cccc5F)c5nc(c(-c6c(F)cccc6F)c6ccc3[nH]6)C=C5)C=C4)cc2)CC1
REMARK SMILES IDX 25 1 24 2 23 3 22 4 21 5 20 6 19 7 17 8 18 9 12 10 11 11
REMARK SMILES IDX 3 12 6 13 89 14 7 15 88 16 8 17 9 18 10 19 2 21 1 22 4 23
REMARK SMILES IDX 5 24 13 25 14 26 15 27 16 28 26 29 27 30 28 31 29 32 30 33
REMARK SMILES IDX 31 34 32 35 33 36 34 37 35 38 87 39 36 40 86 41 37 42 38 43
REMARK SMILES IDX 39 44 80 45 40 46 85 47 79 48 81 49 41 50 84 51 78 52 77 53
REMARK SMILES IDX 42 55 68 56 51 57 67 58 52 59 55 60 66 61 82 62 53 63 54 64
REMARK SMILES IDX 65 66 83 67 56 68 43 69 44 70 49 71 45 72 46 73 48 74 50 75
REMARK SMILES IDX 47 76 69 77 70 78 75 79 71 80 72 81 74 82 76 83 73 84 57 85
REMARK SMILES IDX 58 86 63 87 59 88 60 89 62 90 64 91 61 92
REMARK H PARENT 11 20 81 54 55 65
REMARK Flexibility Score: inf
ROOT
ATOM      1  O   UNL     1       5.481  -0.461   2.549  1.00  0.00    -0.377 OA
ENDROOT
BRANCH   1   2
ATOM      2  C   UNL     1       5.138  -0.016   1.247  1.00  0.00     0.188 C 
BRANCH   2   3
ATOM      3  C   UNL     1       3.697   0.380   0.937  1.00  0.00     0.188 C 
BRANCH   3   4
ATOM      4  O   UNL     1       2.713  -0.529   1.403  1.00  0.00    -0.376 OA
BRANCH   4   5
ATOM      5  C   UNL     1       2.211  -1.616   0.648  1.00  0.00     0.202 C 
BRANCH   5   6
ATOM      6  C   UNL     1       3.010  -2.240  -0.489  1.00  0.00     0.261 C 
BRANCH   6   7
ATOM      7  O   UNL     1       3.764  -1.288  -1.244  1.00  0.00    -0.461 OA
BRANCH   7   8
ATOM      8  C   UNL     1       3.195  -0.656  -2.302  1.00  0.00     0.331 C 
ATOM      9  O   UNL     1       2.106  -0.973  -2.768  1.00  0.00    -0.249 OA
BRANCH   8  10
ATOM     10  C   UNL     1       4.104   0.535  -2.814  1.00  0.00     0.139 C 
BRANCH  10  11
ATOM     11  N   UNL     1       3.560   1.971  -2.841  1.00  0.00    -0.322 N 
ATOM     12  C   UNL     1      -0.274   2.394   0.792  1.00  0.00    -0.027 C 
ATOM     13  C   UNL     1      -0.221   3.723  -0.029  1.00  0.00     0.028 C 
ATOM     14  C   UNL     1       0.890   1.544   0.340  1.00  0.00     0.028 C 
ATOM     15  C   UNL     1       0.642   3.797  -1.346  1.00  0.00     0.122 C 
ATOM     16  C   UNL     1       1.090   1.453  -1.152  1.00  0.00     0.122 C 
ATOM     17  N   UNL     1       1.601   2.701  -1.602  1.00  0.00    -0.325 N 
ATOM     18  C   UNL     1       2.733   2.910  -2.333  1.00  0.00     0.318 C 
ATOM     19  O   UNL     1       3.053   4.061  -2.662  1.00  0.00    -0.249 OA
ATOM     20  H   UNL     1       4.042   2.418  -3.574  1.00  0.00     0.166 HD
BRANCH  12  21
ATOM     21  C   UNL     1      -1.608   1.573   0.719  1.00  0.00     0.004 C 
ATOM     22  C   UNL     1      -1.801   0.513  -0.363  1.00  0.00     0.004 C 
ENDBRANCH  12  21
BRANCH  12  23
ATOM     23  C   UNL     1       0.024   2.684   2.320  1.00  0.00     0.004 C 
ATOM     24  C   UNL     1      -1.147   3.130   3.182  1.00  0.00     0.004 C 
ENDBRANCH  12  23
ENDBRANCH  10  11
BRANCH  10  25
ATOM     25  C   UNL     1       4.204   0.099  -4.330  1.00  0.00     0.037 C 
ATOM     26  C   UNL     1       5.274   0.743  -5.203  1.00  0.00     0.007 C 
ENDBRANCH  10  25
BRANCH  10  27
ATOM     27  C   UNL     1       5.569   0.471  -2.206  1.00  0.00     0.037 C 
ATOM     28  C   UNL     1       6.133   1.705  -1.512  1.00  0.00     0.007 C 
ENDBRANCH  10  27
ENDBRANCH   8  10
ENDBRANCH   7   8
ENDBRANCH   6   7
ENDBRANCH   5   6
ENDBRANCH   4   5
ENDBRANCH   3   4
ENDBRANCH   2   3
ENDBRANCH   1   2
BRANCH   1  29
ATOM     29  C   UNL     1       4.411  -0.733   3.432  1.00  0.00     0.188 C 
BRANCH  29  30
ATOM     30  C   UNL     1       3.746   0.507   4.062  1.00  0.00     0.188 C 
BRANCH  30  31
ATOM     31  O   UNL     1       4.133   1.730   3.444  1.00  0.00    -0.376 OA
BRANCH  31  32
ATOM     32  C   UNL     1       5.050   2.562   4.136  1.00  0.00     0.202 C 
BRANCH  32  33
ATOM     33  C   UNL     1       6.496   2.064   4.289  1.00  0.00     0.261 C 
BRANCH  33  34
ATOM     34  O   UNL     1       6.671   0.739   4.807  1.00  0.00    -0.460 OA
BRANCH  34  35
ATOM     35  C   UNL     1       6.272   0.468   6.076  1.00  0.00     0.338 C 
ATOM     36  O   UNL     1       5.859   1.244   6.891  1.00  0.00    -0.246 OA
BRANCH  35  37
ATOM     37  C   UNL     1       6.179  -1.022   6.164  1.00  0.00     0.060 A 
ATOM     38  C   UNL     1       4.983  -1.577   6.653  1.00  0.00     0.016 A 
ATOM     39  C   UNL     1       7.144  -1.851   5.572  1.00  0.00     0.016 A 
ATOM     40  C   UNL     1       4.750  -2.952   6.538  1.00  0.00     0.010 A 
ATOM     41  C   UNL     1       6.928  -3.231   5.495  1.00  0.00     0.010 A 
ATOM     42  C   UNL     1       5.743  -3.790   6.005  1.00  0.00    -0.014 A 
BRANCH  42  43
ATOM     43  C   UNL     1       5.707  -5.232   6.354  1.00  0.00     0.031 A 
ATOM     44  C   UNL     1       6.317  -5.595   7.681  1.00  0.00     0.074 A 
ATOM     45  C   UNL     1       5.153  -6.180   5.578  1.00  0.00     0.049 A 
ATOM     46  N   UNL     1       6.409  -6.755   8.274  1.00  0.00    -0.248 NA
ATOM     47  C   UNL     1       6.910  -4.481   8.444  1.00  0.00     0.031 C 
ATOM     48  C   UNL     1       4.513  -5.965   4.283  1.00  0.00     0.029 A 
ATOM     49  N   UNL     1       5.048  -7.536   5.784  1.00  0.00    -0.354 N 
ATOM     50  C   UNL     1       7.057  -6.503   9.476  1.00  0.00     0.074 A 
ATOM     51  C   UNL     1       7.377  -5.097   9.513  1.00  0.00     0.031 C 
ATOM     52  C   UNL     1       4.089  -7.151   3.805  1.00  0.00     0.029 A 
ATOM     53  C   UNL     1       4.443  -8.210   4.751  1.00  0.00     0.049 A 
ATOM     54  H   UNL     1       5.377  -7.982   6.597  1.00  0.00     0.167 HD
ATOM     55  C   UNL     1       7.354  -7.363  10.476  1.00  0.00     0.037 A 
ATOM     56  C   UNL     1       4.214  -9.530   4.593  1.00  0.00     0.037 A 
ATOM     57  C   UNL     1       7.068  -8.767  10.431  1.00  0.00     0.049 A 
ATOM     58  C   UNL     1       4.620 -10.490   5.688  1.00  0.00     0.074 A 
ATOM     59  C   UNL     1       7.322  -9.728  11.391  1.00  0.00     0.029 A 
ATOM     60  N   UNL     1       6.483  -9.413   9.353  1.00  0.00    -0.354 N 
ATOM     61  N   UNL     1       5.186 -10.237   6.845  1.00  0.00    -0.248 NA
ATOM     62  C   UNL     1       4.349 -11.917   5.457  1.00  0.00     0.031 C 
ATOM     63  C   UNL     1       6.940 -10.968  10.870  1.00  0.00     0.029 A 
ATOM     64  C   UNL     1       6.391 -10.768   9.612  1.00  0.00     0.049 A 
ATOM     65  H   UNL     1       6.178  -8.973   8.527  1.00  0.00     0.167 HD
ATOM     66  C   UNL     1       5.307 -11.464   7.490  1.00  0.00     0.074 A 
ATOM     67  C   UNL     1       4.750 -12.460   6.598  1.00  0.00     0.031 C 
ATOM     68  C   UNL     1       5.826 -11.742   8.713  1.00  0.00     0.037 A 
BRANCH  55  69
ATOM     69  C   UNL     1       8.063  -6.793  11.667  1.00  0.00     0.057 A 
ATOM     70  C   UNL     1       7.428  -5.916  12.558  1.00  0.00     0.134 A 
ATOM     71  C   UNL     1       9.408  -7.095  11.904  1.00  0.00     0.134 A 
ATOM     72  F   UNL     1       6.148  -5.559  12.367  1.00  0.00    -0.206 F 
ATOM     73  C   UNL     1       8.117  -5.335  13.623  1.00  0.00     0.040 A 
ATOM     74  C   UNL     1      10.099  -6.545  12.984  1.00  0.00     0.040 A 
ATOM     75  F   UNL     1      10.076  -7.919  11.083  1.00  0.00    -0.206 F 
ATOM     76  C   UNL     1       9.456  -5.654  13.841  1.00  0.00     0.006 A 
ENDBRANCH  55  69
BRANCH  56  77
ATOM     77  C   UNL     1       3.568 -10.036   3.352  1.00  0.00     0.057 A 
ATOM     78  C   UNL     1       2.277 -10.577   3.368  1.00  0.00     0.134 A 
ATOM     79  C   UNL     1       4.238 -10.013   2.123  1.00  0.00     0.134 A 
ATOM     80  F   UNL     1       1.593 -10.657   4.519  1.00  0.00    -0.206 F 
ATOM     81  C   UNL     1       1.680 -11.086   2.212  1.00  0.00     0.040 A 
ATOM     82  C   UNL     1       3.645 -10.497   0.954  1.00  0.00     0.040 A 
ATOM     83  F   UNL     1       5.481  -9.516   2.038  1.00  0.00    -0.206 F 
ATOM     84  C   UNL     1       2.363 -11.041   0.998  1.00  0.00     0.006 A 
ENDBRANCH  56  77
BRANCH  68  85
ATOM     85  C   UNL     1       5.781 -13.168   9.182  1.00  0.00     0.057 A 
ATOM     86  C   UNL     1       6.610 -14.157   8.639  1.00  0.00     0.134 A 
ATOM     87  C   UNL     1       4.944 -13.537  10.244  1.00  0.00     0.134 A 
ATOM     88  F   UNL     1       7.431 -13.871   7.617  1.00  0.00    -0.206 F 
ATOM     89  C   UNL     1       6.591 -15.468   9.120  1.00  0.00     0.040 A 
ATOM     90  C   UNL     1       4.938 -14.836  10.752  1.00  0.00     0.040 A 
ATOM     91  F   UNL     1       4.137 -12.634  10.821  1.00  0.00    -0.206 F 
ATOM     92  C   UNL     1       5.759 -15.808  10.185  1.00  0.00     0.006 A 
ENDBRANCH  68  85
ENDBRANCH  42  43
ENDBRANCH  35  37
ENDBRANCH  34  35
ENDBRANCH  33  34
ENDBRANCH  32  33
ENDBRANCH  31  32
ENDBRANCH  30  31
ENDBRANCH  29  30
ENDBRANCH   1  29
TORSDOF 25
