REMARK SMILES CC(C)n1c2c(c3ccccc31)[C@@H](c1ccccc1)N(CC(=O)OCCOCCOCCOCCOC(=O)c1ccc(-c3c4nc(c(-c5c(F)cccc5F)c5ccc([nH]5)c(-c5c(F)cccc5F)c5nc(c(-c6c(F)cccc6F)c6ccc3[nH]6)C=C5)C=C4)cc1)C2=O
REMARK SMILES IDX 30 1 29 2 28 3 27 4 26 5 25 6 24 7 22 8 23 9 21 10 20 11
REMARK SMILES IDX 4 12 5 13 12 14 6 15 93 16 7 17 11 18 13 19 94 20 8 21 10 22
REMARK SMILES IDX 9 23 2 24 1 25 3 26 14 27 15 28 19 29 16 30 18 31 17 32
REMARK SMILES IDX 31 33 32 34 33 35 34 36 35 37 36 38 37 39 38 40 39 41 40 42
REMARK SMILES IDX 92 43 41 44 91 45 42 46 43 47 44 48 85 49 45 50 90 51 84 52
REMARK SMILES IDX 86 53 46 54 89 55 83 56 82 57 47 59 73 60 56 61 72 62 57 63
REMARK SMILES IDX 60 64 71 65 87 66 58 67 59 68 70 70 88 71 61 72 48 73 49 74
REMARK SMILES IDX 54 75 50 76 51 77 53 78 55 79 52 80 74 81 75 82 80 83 76 84
REMARK SMILES IDX 77 85 79 86 81 87 78 88 62 89 63 90 68 91 64 92 65 93 67 94
REMARK SMILES IDX 69 95 66 96
REMARK H PARENT 86 58 60 69
REMARK Flexibility Score: inf
ROOT
ATOM      1  O   UNL     1      -5.499  -0.990   3.199  1.00  0.00    -0.377 OA
ENDROOT
BRANCH   1   2
ATOM      2  C   UNL     1      -6.560  -1.623   2.539  1.00  0.00     0.188 C 
BRANCH   2   3
ATOM      3  C   UNL     1      -7.188  -2.777   3.306  1.00  0.00     0.188 C 
BRANCH   3   4
ATOM      4  O   UNL     1      -7.169  -2.757   4.718  1.00  0.00    -0.376 OA
BRANCH   4   5
ATOM      5  C   UNL     1      -5.938  -2.629   5.427  1.00  0.00     0.202 C 
BRANCH   5   6
ATOM      6  C   UNL     1      -4.620  -3.305   4.980  1.00  0.00     0.261 C 
BRANCH   6   7
ATOM      7  O   UNL     1      -4.018  -2.817   3.751  1.00  0.00    -0.462 OA
BRANCH   7   8
ATOM      8  C   UNL     1      -3.979  -3.674   2.705  1.00  0.00     0.325 C 
ATOM      9  O   UNL     1      -4.332  -4.852   2.791  1.00  0.00    -0.250 OA
BRANCH   8  10
ATOM     10  C   UNL     1      -3.498  -3.114   1.342  1.00  0.00     0.243 C 
BRANCH  10  11
ATOM     11  N   UNL     1      -3.132  -1.738   0.991  1.00  0.00    -0.315 N 
ATOM     12  N   UNL     1      -1.000   1.167   0.762  1.00  0.00    -0.334 N 
ATOM     13  C   UNL     1      -1.839   0.090   0.815  1.00  0.00     0.114 A 
ATOM     14  C   UNL     1      -1.826   2.298   0.696  1.00  0.00     0.049 A 
ATOM     15  C   UNL     1      -3.075   0.459   0.361  1.00  0.00     0.018 A 
ATOM     16  C   UNL     1      -1.828  -1.279   1.238  1.00  0.00     0.272 C 
ATOM     17  C   UNL     1      -3.091   1.864   0.253  1.00  0.00     0.006 A 
ATOM     18  C   UNL     1      -1.606   3.656   0.993  1.00  0.00     0.027 A 
ATOM     19  C   UNL     1      -4.029  -0.693   0.393  1.00  0.00     0.150 C 
ATOM     20  O   UNL     1      -0.928  -1.909   1.748  1.00  0.00    -0.267 OA
ATOM     21  C   UNL     1      -4.067   2.823  -0.076  1.00  0.00     0.011 A 
ATOM     22  C   UNL     1      -2.633   4.576   0.758  1.00  0.00     0.002 A 
ATOM     23  C   UNL     1      -3.836   4.173   0.197  1.00  0.00     0.001 A 
BRANCH  12  24
ATOM     24  C   UNL     1       0.470   1.141   0.774  1.00  0.00     0.082 C 
ATOM     25  C   UNL     1       1.061  -0.104   0.087  1.00  0.00     0.031 C 
ATOM     26  C   UNL     1       1.126   2.345   0.070  1.00  0.00     0.031 C 
ENDBRANCH  12  24
BRANCH  19  27
ATOM     27  C   UNL     1      -4.636  -0.952  -0.987  1.00  0.00    -0.021 A 
ATOM     28  C   UNL     1      -5.639  -1.936  -1.124  1.00  0.00     0.006 A 
ATOM     29  C   UNL     1      -4.391  -0.169  -2.132  1.00  0.00     0.006 A 
ATOM     30  C   UNL     1      -6.356  -2.127  -2.311  1.00  0.00     0.000 A 
ATOM     31  C   UNL     1      -5.121  -0.341  -3.319  1.00  0.00     0.000 A 
ATOM     32  C   UNL     1      -6.104  -1.319  -3.409  1.00  0.00     0.000 A 
ENDBRANCH  19  27
ENDBRANCH  10  11
ENDBRANCH   8  10
ENDBRANCH   7   8
ENDBRANCH   6   7
ENDBRANCH   5   6
ENDBRANCH   4   5
ENDBRANCH   3   4
ENDBRANCH   2   3
ENDBRANCH   1   2
BRANCH   1  33
ATOM     33  C   UNL     1      -5.691   0.235   3.873  1.00  0.00     0.188 C 
BRANCH  33  34
ATOM     34  C   UNL     1      -7.117   0.669   4.228  1.00  0.00     0.188 C 
BRANCH  34  35
ATOM     35  O   UNL     1      -7.959   0.750   3.092  1.00  0.00    -0.376 OA
BRANCH  35  36
ATOM     36  C   UNL     1      -8.029   1.957   2.349  1.00  0.00     0.202 C 
BRANCH  36  37
ATOM     37  C   UNL     1      -6.775   2.786   2.021  1.00  0.00     0.261 C 
BRANCH  37  38
ATOM     38  O   UNL     1      -5.831   2.921   3.088  1.00  0.00    -0.460 OA
BRANCH  38  39
ATOM     39  C   UNL     1      -5.785   3.999   3.891  1.00  0.00     0.338 C 
ATOM     40  O   UNL     1      -6.366   5.056   3.748  1.00  0.00    -0.246 OA
BRANCH  39  41
ATOM     41  C   UNL     1      -5.214   3.463   5.155  1.00  0.00     0.060 A 
ATOM     42  C   UNL     1      -4.004   2.756   5.189  1.00  0.00     0.016 A 
ATOM     43  C   UNL     1      -6.109   3.387   6.230  1.00  0.00     0.016 A 
ATOM     44  C   UNL     1      -3.750   1.895   6.263  1.00  0.00     0.010 A 
ATOM     45  C   UNL     1      -5.876   2.488   7.268  1.00  0.00     0.010 A 
ATOM     46  C   UNL     1      -4.718   1.708   7.270  1.00  0.00    -0.014 A 
BRANCH  46  47
ATOM     47  C   UNL     1      -4.381   0.886   8.445  1.00  0.00     0.031 A 
ATOM     48  C   UNL     1      -3.291   1.503   9.251  1.00  0.00     0.074 A 
ATOM     49  C   UNL     1      -5.056  -0.193   8.911  1.00  0.00     0.049 A 
ATOM     50  N   UNL     1      -2.133   1.012   9.547  1.00  0.00    -0.248 NA
ATOM     51  C   UNL     1      -3.473   2.907   9.660  1.00  0.00     0.031 C 
ATOM     52  C   UNL     1      -6.309  -0.748   8.398  1.00  0.00     0.029 A 
ATOM     53  N   UNL     1      -4.806  -0.987  10.005  1.00  0.00    -0.354 N 
ATOM     54  C   UNL     1      -1.516   1.973  10.344  1.00  0.00     0.074 A 
ATOM     55  C   UNL     1      -2.300   3.172  10.231  1.00  0.00     0.031 C 
ATOM     56  C   UNL     1      -6.794  -1.665   9.266  1.00  0.00     0.029 A 
ATOM     57  C   UNL     1      -5.863  -1.825  10.369  1.00  0.00     0.049 A 
ATOM     58  H   UNL     1      -3.952  -0.967  10.494  1.00  0.00     0.167 HD
ATOM     59  C   UNL     1      -0.563   1.631  11.250  1.00  0.00     0.037 A 
ATOM     60  C   UNL     1      -6.009  -2.571  11.500  1.00  0.00     0.037 A 
ATOM     61  C   UNL     1       0.045   0.368  10.924  1.00  0.00     0.049 A 
ATOM     62  C   UNL     1      -4.674  -2.729  12.117  1.00  0.00     0.074 A 
ATOM     63  C   UNL     1       0.765  -0.128   9.854  1.00  0.00     0.029 A 
ATOM     64  N   UNL     1      -0.333  -0.729  11.654  1.00  0.00    -0.354 N 
ATOM     65  N   UNL     1      -3.720  -3.451  11.604  1.00  0.00    -0.248 NA
ATOM     66  C   UNL     1      -4.255  -1.726  13.080  1.00  0.00     0.031 C 
ATOM     67  C   UNL     1       0.382  -1.498   9.748  1.00  0.00     0.029 A 
ATOM     68  C   UNL     1      -0.512  -1.770  10.783  1.00  0.00     0.049 A 
ATOM     69  H   UNL     1      -0.454  -0.763  12.630  1.00  0.00     0.167 HD
ATOM     70  C   UNL     1      -2.573  -2.702  11.813  1.00  0.00     0.074 A 
ATOM     71  C   UNL     1      -2.949  -1.696  12.803  1.00  0.00     0.031 C 
ATOM     72  C   UNL     1      -1.514  -2.794  10.957  1.00  0.00     0.037 A 
BRANCH  59  73
ATOM     73  C   UNL     1      -0.502   2.225  12.639  1.00  0.00     0.057 A 
ATOM     74  C   UNL     1      -1.588   2.855  13.286  1.00  0.00     0.134 A 
ATOM     75  C   UNL     1       0.566   1.872  13.481  1.00  0.00     0.134 A 
ATOM     76  F   UNL     1      -2.712   3.201  12.647  1.00  0.00    -0.206 F 
ATOM     77  C   UNL     1      -1.628   3.076  14.664  1.00  0.00     0.040 A 
ATOM     78  C   UNL     1       0.514   2.041  14.870  1.00  0.00     0.040 A 
ATOM     79  F   UNL     1       1.657   1.264  12.990  1.00  0.00    -0.206 F 
ATOM     80  C   UNL     1      -0.592   2.633  15.467  1.00  0.00     0.006 A 
ENDBRANCH  59  73
BRANCH  60  81
ATOM     81  C   UNL     1      -7.251  -2.962  12.222  1.00  0.00     0.057 A 
ATOM     82  C   UNL     1      -8.404  -2.158  12.170  1.00  0.00     0.134 A 
ATOM     83  C   UNL     1      -7.274  -3.987  13.184  1.00  0.00     0.134 A 
ATOM     84  F   UNL     1      -8.462  -1.090  11.362  1.00  0.00    -0.206 F 
ATOM     85  C   UNL     1      -9.508  -2.360  13.006  1.00  0.00     0.040 A 
ATOM     86  C   UNL     1      -8.373  -4.196  14.035  1.00  0.00     0.040 A 
ATOM     87  F   UNL     1      -6.207  -4.779  13.365  1.00  0.00    -0.206 F 
ATOM     88  C   UNL     1      -9.494  -3.377  13.951  1.00  0.00     0.006 A 
ENDBRANCH  60  81
BRANCH  72  89
ATOM     89  C   UNL     1      -1.521  -3.921   9.961  1.00  0.00     0.057 A 
ATOM     90  C   UNL     1      -0.460  -4.832   9.974  1.00  0.00     0.134 A 
ATOM     91  C   UNL     1      -2.459  -4.053   8.924  1.00  0.00     0.134 A 
ATOM     92  F   UNL     1       0.501  -4.737  10.907  1.00  0.00    -0.206 F 
ATOM     93  C   UNL     1      -0.334  -5.832   9.007  1.00  0.00     0.040 A 
ATOM     94  C   UNL     1      -2.362  -5.071   7.970  1.00  0.00     0.040 A 
ATOM     95  F   UNL     1      -3.460  -3.175   8.774  1.00  0.00    -0.206 F 
ATOM     96  C   UNL     1      -1.291  -5.960   8.005  1.00  0.00     0.006 A 
ENDBRANCH  72  89
ENDBRANCH  46  47
ENDBRANCH  39  41
ENDBRANCH  38  39
ENDBRANCH  37  38
ENDBRANCH  36  37
ENDBRANCH  35  36
ENDBRANCH  34  35
ENDBRANCH  33  34
ENDBRANCH   1  33
TORSDOF 23
