REMARK SMILES NS(=O)(=O)c1ccc(-n2nc(C(F)(F)F)cc2-c2ccc(CC(=O)OCCOCCOCCOCCOC(=O)c3ccc(-c4c5nc(c(-c6c(F)cccc6F)c6ccc([nH]6)c(-c6c(F)cccc6F)c6nc(c(-c7c(F)cccc7F)c7ccc4[nH]7)C=C6)C=C5)cc3)cc2)cc1
REMARK SMILES IDX 29 1 28 2 27 3 26 4 25 5 23 6 24 7 22 8 21 9 18 10 19 11
REMARK SMILES IDX 95 12 20 13 94 14 17 15 9 16 10 17 11 18 16 19 8 20 5 21
REMARK SMILES IDX 6 22 97 23 7 24 96 25 2 26 3 27 4 28 1 29 12 32 13 33 14 34
REMARK SMILES IDX 15 35 30 36 31 37 32 38 33 39 34 40 35 41 36 42 37 43 38 44
REMARK SMILES IDX 39 45 40 46 41 47 93 48 42 49 92 50 43 51 44 52 45 53 86 54
REMARK SMILES IDX 46 55 91 56 85 57 87 58 47 59 90 60 84 61 83 62 48 64 74 65
REMARK SMILES IDX 57 66 73 67 58 68 61 69 72 70 88 71 59 72 60 73 71 75 89 76
REMARK SMILES IDX 62 77 49 78 50 79 55 80 51 81 52 82 54 83 56 84 53 85 75 86
REMARK SMILES IDX 76 87 81 88 77 89 78 90 80 91 82 92 79 93 63 94 64 95 69 96
REMARK SMILES IDX 65 97 66 98 68 99 70 100 67 101
REMARK H PARENT 1 30 1 31 87 63 61 74
REMARK Flexibility Score: inf
ROOT
ATOM      1  C   UNL     1      -4.768  -2.663  -2.616  1.00  0.00     0.188 C 
ENDROOT
BRANCH   1   2
ATOM      2  O   UNL     1      -5.790  -2.528  -1.658  1.00  0.00    -0.376 OA
BRANCH   2   3
ATOM      3  C   UNL     1      -6.232  -3.640  -0.905  1.00  0.00     0.202 C 
BRANCH   3   4
ATOM      4  C   UNL     1      -5.843  -5.117  -1.162  1.00  0.00     0.261 C 
BRANCH   4   5
ATOM      5  O   UNL     1      -5.006  -5.453  -2.289  1.00  0.00    -0.463 OA
BRANCH   5   6
ATOM      6  C   UNL     1      -5.603  -5.627  -3.485  1.00  0.00     0.310 C 
ATOM      7  O   UNL     1      -6.825  -5.617  -3.621  1.00  0.00    -0.252 OA
BRANCH   6   8
ATOM      8  C   UNL     1      -4.677  -5.766  -4.692  1.00  0.00     0.158 C 
BRANCH   8   9
ATOM      9  C   UNL     1      -3.146  -5.665  -4.662  1.00  0.00    -0.037 A 
ATOM     10  C   UNL     1      -0.263  -5.567  -4.998  1.00  0.00     0.000 A 
ATOM     11  C   UNL     1      -1.067  -4.455  -5.266  1.00  0.00     0.010 A 
ATOM     12  C   UNL     1      -0.931  -6.723  -4.545  1.00  0.00     0.010 A 
ATOM     13  C   UNL     1      -2.477  -4.508  -5.117  1.00  0.00     0.005 A 
ATOM     14  C   UNL     1      -2.339  -6.769  -4.366  1.00  0.00     0.005 A 
BRANCH  10  15
ATOM     15  C   UNL     1       1.190  -5.602  -5.337  1.00  0.00     0.075 A 
ATOM     16  N   UNL     1       2.176  -4.608  -5.162  1.00  0.00    -0.233 N 
ATOM     17  N   UNL     1       3.325  -4.915  -5.818  1.00  0.00    -0.163 NA
ATOM     18  C   UNL     1       3.184  -6.181  -6.232  1.00  0.00     0.167 A 
ATOM     19  C   UNL     1       1.851  -6.612  -6.031  1.00  0.00     0.064 A 
BRANCH  16  20
ATOM     20  C   UNL     1       2.215  -3.459  -4.322  1.00  0.00     0.065 A 
ATOM     21  C   UNL     1       2.464  -1.229  -2.562  1.00  0.00     0.082 A 
ATOM     22  C   UNL     1       1.819  -2.415  -2.232  1.00  0.00     0.024 A 
ATOM     23  C   UNL     1       3.099  -1.201  -3.789  1.00  0.00     0.024 A 
ATOM     24  C   UNL     1       1.603  -3.497  -3.093  1.00  0.00     0.030 A 
ATOM     25  C   UNL     1       3.017  -2.334  -4.639  1.00  0.00     0.030 A 
BRANCH  21  26
ATOM     26  S   UNL     1       2.727  -0.007  -1.264  1.00  0.00     0.238 S 
ATOM     27  O   UNL     1       4.061   0.549  -1.373  1.00  0.00    -0.207 OA
ATOM     28  O   UNL     1       2.215  -0.496  -0.022  1.00  0.00    -0.207 OA
BRANCH  26  29
ATOM     29  N   UNL     1       1.688   1.255  -1.619  1.00  0.00    -0.225 NA
ATOM     30  H   UNL     1       1.789   1.986  -0.915  1.00  0.00     0.137 HD
ATOM     31  H   UNL     1       0.726   0.914  -1.620  1.00  0.00     0.137 HD
ENDBRANCH  26  29
ENDBRANCH  21  26
ENDBRANCH  16  20
BRANCH  18  32
ATOM     32  C   UNL     1       4.318  -6.971  -6.834  1.00  0.00     0.435 C 
ATOM     33  F   UNL     1       5.350  -6.202  -7.275  1.00  0.00    -0.164 F 
ATOM     34  F   UNL     1       4.845  -7.851  -5.937  1.00  0.00    -0.164 F 
ATOM     35  F   UNL     1       3.907  -7.715  -7.898  1.00  0.00    -0.164 F 
ENDBRANCH  18  32
ENDBRANCH  10  15
ENDBRANCH   8   9
ENDBRANCH   6   8
ENDBRANCH   5   6
ENDBRANCH   4   5
ENDBRANCH   3   4
ENDBRANCH   2   3
ENDBRANCH   1   2
BRANCH   1  36
ATOM     36  C   UNL     1      -3.425  -3.235  -2.140  1.00  0.00     0.188 C 
BRANCH  36  37
ATOM     37  O   UNL     1      -3.209  -3.474  -0.764  1.00  0.00    -0.377 OA
BRANCH  37  38
ATOM     38  C   UNL     1      -3.368  -2.455   0.210  1.00  0.00     0.188 C 
BRANCH  38  39
ATOM     39  C   UNL     1      -3.295  -0.953  -0.111  1.00  0.00     0.188 C 
BRANCH  39  40
ATOM     40  O   UNL     1      -3.252  -0.617  -1.472  1.00  0.00    -0.376 OA
BRANCH  40  41
ATOM     41  C   UNL     1      -1.984  -0.471  -2.055  1.00  0.00     0.202 C 
BRANCH  41  42
ATOM     42  C   UNL     1      -0.763  -1.254  -1.565  1.00  0.00     0.261 C 
BRANCH  42  43
ATOM     43  O   UNL     1      -0.740  -2.387  -0.660  1.00  0.00    -0.460 OA
BRANCH  43  44
ATOM     44  C   UNL     1      -0.305  -2.152   0.622  1.00  0.00     0.338 C 
ATOM     45  O   UNL     1      -0.561  -1.130   1.244  1.00  0.00    -0.246 OA
BRANCH  44  46
ATOM     46  C   UNL     1       0.759  -3.115   1.099  1.00  0.00     0.060 A 
ATOM     47  C   UNL     1       1.683  -2.522   1.964  1.00  0.00     0.016 A 
ATOM     48  C   UNL     1       1.178  -4.200   0.324  1.00  0.00     0.016 A 
ATOM     49  C   UNL     1       3.045  -2.654   1.689  1.00  0.00     0.010 A 
ATOM     50  C   UNL     1       2.554  -4.333   0.056  1.00  0.00     0.010 A 
ATOM     51  C   UNL     1       3.480  -3.433   0.606  1.00  0.00    -0.014 A 
BRANCH  51  52
ATOM     52  C   UNL     1       4.938  -3.534   0.355  1.00  0.00     0.031 A 
ATOM     53  C   UNL     1       5.502  -4.389   1.407  1.00  0.00     0.074 A 
ATOM     54  C   UNL     1       5.777  -3.063  -0.601  1.00  0.00     0.049 A 
ATOM     55  N   UNL     1       6.149  -3.984   2.445  1.00  0.00    -0.248 NA
ATOM     56  C   UNL     1       5.033  -5.779   1.461  1.00  0.00     0.031 C 
ATOM     57  C   UNL     1       5.474  -2.314  -1.794  1.00  0.00     0.029 A 
ATOM     58  N   UNL     1       7.146  -3.193  -0.725  1.00  0.00    -0.354 N 
ATOM     59  C   UNL     1       6.348  -5.133   3.185  1.00  0.00     0.074 A 
ATOM     60  C   UNL     1       5.415  -6.110   2.692  1.00  0.00     0.031 C 
ATOM     61  C   UNL     1       6.515  -2.243  -2.644  1.00  0.00     0.029 A 
ATOM     62  C   UNL     1       7.646  -2.851  -1.996  1.00  0.00     0.049 A 
ATOM     63  H   UNL     1       7.723  -3.498   0.012  1.00  0.00     0.167 HD
ATOM     64  C   UNL     1       7.485  -5.303   3.900  1.00  0.00     0.037 A 
ATOM     65  C   UNL     1       8.896  -3.034  -2.499  1.00  0.00     0.037 A 
ATOM     66  C   UNL     1       8.142  -4.047   4.165  1.00  0.00     0.049 A 
ATOM     67  C   UNL     1       9.806  -3.181  -1.340  1.00  0.00     0.074 A 
ATOM     68  C   UNL     1       7.745  -2.867   4.769  1.00  0.00     0.029 A 
ATOM     69  N   UNL     1       9.262  -3.732   3.435  1.00  0.00    -0.354 N 
ATOM     70  N   UNL     1      10.132  -2.189  -0.559  1.00  0.00    -0.248 NA
ATOM     71  C   UNL     1       9.904  -4.509  -0.755  1.00  0.00     0.031 C 
ATOM     72  C   UNL     1       8.344  -1.831   3.996  1.00  0.00     0.029 A 
ATOM     73  C   UNL     1       9.137  -2.429   3.019  1.00  0.00     0.049 A 
ATOM     74  H   UNL     1      10.019  -4.332   3.244  1.00  0.00     0.167 HD
ATOM     75  C   UNL     1      10.014  -2.712   0.719  1.00  0.00     0.074 A 
ATOM     76  C   UNL     1       9.918  -4.160   0.534  1.00  0.00     0.031 C 
ATOM     77  C   UNL     1       9.700  -1.923   1.788  1.00  0.00     0.037 A 
BRANCH  64  78
ATOM     78  C   UNL     1       8.158  -6.641   3.987  1.00  0.00     0.057 A 
ATOM     79  C   UNL     1       9.174  -6.829   4.930  1.00  0.00     0.134 A 
ATOM     80  C   UNL     1       8.022  -7.673   3.029  1.00  0.00     0.134 A 
ATOM     81  F   UNL     1       9.423  -5.899   5.864  1.00  0.00    -0.206 F 
ATOM     82  C   UNL     1      10.017  -7.943   4.897  1.00  0.00     0.040 A 
ATOM     83  C   UNL     1       8.812  -8.819   3.028  1.00  0.00     0.040 A 
ATOM     84  F   UNL     1       7.193  -7.592   1.982  1.00  0.00    -0.206 F 
ATOM     85  C   UNL     1       9.836  -8.943   3.947  1.00  0.00     0.006 A 
ENDBRANCH  64  78
BRANCH  65  86
ATOM     86  C   UNL     1       9.298  -3.375  -3.892  1.00  0.00     0.057 A 
ATOM     87  C   UNL     1      10.647  -3.392  -4.286  1.00  0.00     0.134 A 
ATOM     88  C   UNL     1       8.398  -3.963  -4.801  1.00  0.00     0.134 A 
ATOM     89  F   UNL     1      11.598  -2.884  -3.488  1.00  0.00    -0.206 F 
ATOM     90  C   UNL     1      11.075  -3.991  -5.483  1.00  0.00     0.040 A 
ATOM     91  C   UNL     1       8.809  -4.557  -6.001  1.00  0.00     0.040 A 
ATOM     92  F   UNL     1       7.092  -4.061  -4.521  1.00  0.00    -0.206 F 
ATOM     93  C   UNL     1      10.155  -4.591  -6.337  1.00  0.00     0.006 A 
ENDBRANCH  65  86
BRANCH  77  94
ATOM     94  C   UNL     1       9.720  -0.427   1.617  1.00  0.00     0.057 A 
ATOM     95  C   UNL     1       8.897   0.284   0.729  1.00  0.00     0.134 A 
ATOM     96  C   UNL     1      10.482   0.333   2.514  1.00  0.00     0.134 A 
ATOM     97  F   UNL     1       8.063  -0.353  -0.106  1.00  0.00    -0.206 F 
ATOM     98  C   UNL     1       8.859   1.685   0.721  1.00  0.00     0.040 A 
ATOM     99  C   UNL     1      10.428   1.728   2.539  1.00  0.00     0.040 A 
ATOM    100  F   UNL     1      11.256  -0.277   3.427  1.00  0.00    -0.206 F 
ATOM    101  C   UNL     1       9.620   2.410   1.634  1.00  0.00     0.006 A 
ENDBRANCH  77  94
ENDBRANCH  51  52
ENDBRANCH  44  46
ENDBRANCH  43  44
ENDBRANCH  42  43
ENDBRANCH  41  42
ENDBRANCH  40  41
ENDBRANCH  39  40
ENDBRANCH  38  39
ENDBRANCH  37  38
ENDBRANCH  36  37
ENDBRANCH   1  36
TORSDOF 26
