REMARK SMILES CCNC(=O)N1[C@@H](C(=O)OCCOCCOCCOCCOC(=O)c2ccc(-c3c4nc(c(-c5c(F)cccc5F)c5ccc([nH]5)c(-c5c(F)cccc5F)c5nc(c(-c6c(F)cccc6F)c6ccc3[nH]6)C=C5)C=C4)cc2)CC[C@@H]2CCCC[C@H]21
REMARK SMILES IDX 16 1 15 2 14 3 13 4 12 5 11 6 10 7 8 8 9 9 7 10 6 11 86 12
REMARK SMILES IDX 79 13 81 14 85 15 80 16 82 17 84 18 83 19 4 20 3 21 5 23
REMARK SMILES IDX 2 24 1 25 17 26 18 27 19 28 20 29 21 30 22 31 23 32 24 33
REMARK SMILES IDX 25 34 26 35 78 36 27 37 77 38 28 39 29 40 30 41 71 42 31 43
REMARK SMILES IDX 76 44 70 45 72 46 32 47 75 48 69 49 68 50 33 52 59 53 42 54
REMARK SMILES IDX 58 55 43 56 46 57 57 58 73 59 44 60 45 61 56 63 74 64 47 65
REMARK SMILES IDX 34 66 35 67 40 68 36 69 37 70 39 71 41 72 38 73 60 74 61 75
REMARK SMILES IDX 66 76 62 77 63 78 65 79 67 80 64 81 48 82 49 83 54 84 50 85
REMARK SMILES IDX 51 86 53 87 55 88 52 89
REMARK H PARENT 3 22 72 51 46 62
REMARK Flexibility Score: inf
ROOT
ATOM      1  O   UNL     1      -2.108   1.360  -5.458  1.00  0.00    -0.377 OA
ENDROOT
BRANCH   1   2
ATOM      2  C   UNL     1      -2.642   2.006  -4.315  1.00  0.00     0.188 C 
BRANCH   2   3
ATOM      3  C   UNL     1      -1.685   2.924  -3.539  1.00  0.00     0.188 C 
BRANCH   3   4
ATOM      4  O   UNL     1      -0.472   3.263  -4.168  1.00  0.00    -0.376 OA
BRANCH   4   5
ATOM      5  C   UNL     1       0.658   2.431  -4.306  1.00  0.00     0.202 C 
BRANCH   5   6
ATOM      6  C   UNL     1       0.813   0.921  -4.053  1.00  0.00     0.261 C 
BRANCH   6   7
ATOM      7  O   UNL     1      -0.303   0.040  -4.051  1.00  0.00    -0.462 OA
BRANCH   7   8
ATOM      8  C   UNL     1      -0.940  -0.058  -2.861  1.00  0.00     0.329 C 
ATOM      9  O   UNL     1      -0.768   0.714  -1.922  1.00  0.00    -0.250 OA
BRANCH   8  10
ATOM     10  C   UNL     1      -1.832  -1.286  -2.738  1.00  0.00     0.197 C 
ATOM     11  N   UNL     1      -1.236  -2.466  -2.079  1.00  0.00    -0.308 N 
ATOM     12  C   UNL     1      -2.199  -3.563  -1.832  1.00  0.00     0.091 C 
ATOM     13  C   UNL     1      -2.614  -1.644  -4.004  1.00  0.00     0.038 C 
ATOM     14  C   UNL     1      -3.151  -3.856  -3.025  1.00  0.00     0.012 C 
ATOM     15  C   UNL     1      -1.579  -4.893  -1.362  1.00  0.00     0.025 C 
ATOM     16  C   UNL     1      -3.750  -2.582  -3.614  1.00  0.00     0.008 C 
ATOM     17  C   UNL     1      -4.267  -4.812  -2.581  1.00  0.00     0.006 C 
ATOM     18  C   UNL     1      -2.655  -5.910  -0.975  1.00  0.00     0.002 C 
ATOM     19  C   UNL     1      -3.678  -6.128  -2.088  1.00  0.00     0.000 C 
BRANCH  11  20
ATOM     20  C   UNL     1       0.091  -2.752  -2.324  1.00  0.00     0.318 C 
ATOM     21  N   UNL     1       1.021  -2.080  -1.575  1.00  0.00    -0.338 N 
ATOM     22  H   UNL     1       1.951  -2.377  -1.704  1.00  0.00     0.165 HD
ATOM     23  O   UNL     1       0.468  -3.617  -3.109  1.00  0.00    -0.249 OA
BRANCH  21  24
ATOM     24  C   UNL     1       0.853  -0.997  -0.618  1.00  0.00     0.114 C 
ATOM     25  C   UNL     1       1.763  -1.033   0.589  1.00  0.00     0.027 C 
ENDBRANCH  21  24
ENDBRANCH  11  20
ENDBRANCH   8  10
ENDBRANCH   7   8
ENDBRANCH   6   7
ENDBRANCH   5   6
ENDBRANCH   4   5
ENDBRANCH   3   4
ENDBRANCH   2   3
ENDBRANCH   1   2
BRANCH   1  26
ATOM     26  C   UNL     1      -1.747   2.128  -6.602  1.00  0.00     0.188 C 
BRANCH  26  27
ATOM     27  C   UNL     1      -1.891   3.665  -6.612  1.00  0.00     0.188 C 
BRANCH  27  28
ATOM     28  O   UNL     1      -2.954   4.165  -5.823  1.00  0.00    -0.376 OA
BRANCH  28  29
ATOM     29  C   UNL     1      -4.203   4.438  -6.433  1.00  0.00     0.202 C 
BRANCH  29  30
ATOM     30  C   UNL     1      -4.906   3.302  -7.191  1.00  0.00     0.261 C 
BRANCH  30  31
ATOM     31  O   UNL     1      -4.183   2.712  -8.283  1.00  0.00    -0.460 OA
BRANCH  31  32
ATOM     32  C   UNL     1      -3.732   3.515  -9.268  1.00  0.00     0.338 C 
ATOM     33  O   UNL     1      -3.921   4.712  -9.397  1.00  0.00    -0.246 OA
BRANCH  32  34
ATOM     34  C   UNL     1      -2.779   2.721 -10.072  1.00  0.00     0.060 A 
ATOM     35  C   UNL     1      -1.436   3.121 -10.143  1.00  0.00     0.016 A 
ATOM     36  C   UNL     1      -3.210   1.570 -10.731  1.00  0.00     0.016 A 
ATOM     37  C   UNL     1      -0.524   2.377 -10.891  1.00  0.00     0.010 A 
ATOM     38  C   UNL     1      -2.304   0.846 -11.508  1.00  0.00     0.010 A 
ATOM     39  C   UNL     1      -0.965   1.262 -11.612  1.00  0.00    -0.014 A 
BRANCH  39  40
ATOM     40  C   UNL     1      -0.091   0.650 -12.639  1.00  0.00     0.031 A 
ATOM     41  C   UNL     1      -0.270   1.087 -14.066  1.00  0.00     0.074 A 
ATOM     42  C   UNL     1       0.837  -0.268 -12.318  1.00  0.00     0.049 A 
ATOM     43  N   UNL     1       0.271   0.612 -15.157  1.00  0.00    -0.248 NA
ATOM     44  C   UNL     1      -1.189   2.217 -14.292  1.00  0.00     0.031 C 
ATOM     45  C   UNL     1       1.150  -0.722 -10.965  1.00  0.00     0.029 A 
ATOM     46  N   UNL     1       1.677  -0.998 -13.122  1.00  0.00    -0.354 N 
ATOM     47  C   UNL     1      -0.240   1.381 -16.194  1.00  0.00     0.074 A 
ATOM     48  C   UNL     1      -1.158   2.333 -15.611  1.00  0.00     0.031 C 
ATOM     49  C   UNL     1       2.099  -1.674 -11.034  1.00  0.00     0.029 A 
ATOM     50  C   UNL     1       2.424  -1.926 -12.437  1.00  0.00     0.049 A 
ATOM     51  H   UNL     1       1.738  -0.869 -14.096  1.00  0.00     0.167 HD
ATOM     52  C   UNL     1       0.040   1.305 -17.516  1.00  0.00     0.037 A 
ATOM     53  C   UNL     1       3.241  -2.892 -12.901  1.00  0.00     0.037 A 
ATOM     54  C   UNL     1       0.945   0.348 -18.092  1.00  0.00     0.049 A 
ATOM     55  C   UNL     1       3.434  -3.040 -14.391  1.00  0.00     0.074 A 
ATOM     56  C   UNL     1       1.287   0.178 -19.422  1.00  0.00     0.029 A 
ATOM     57  N   UNL     1       1.649  -0.603 -17.370  1.00  0.00    -0.354 N 
ATOM     58  N   UNL     1       2.955  -2.307 -15.367  1.00  0.00    -0.248 NA
ATOM     59  C   UNL     1       4.275  -4.159 -14.845  1.00  0.00     0.031 C 
ATOM     60  C   UNL     1       2.160  -0.909 -19.511  1.00  0.00     0.029 A 
ATOM     61  C   UNL     1       2.404  -1.381 -18.231  1.00  0.00     0.049 A 
ATOM     62  H   UNL     1       1.617  -0.710 -16.392  1.00  0.00     0.167 HD
ATOM     63  C   UNL     1       3.463  -2.853 -16.541  1.00  0.00     0.074 A 
ATOM     64  C   UNL     1       4.301  -3.967 -16.155  1.00  0.00     0.031 C 
ATOM     65  C   UNL     1       3.252  -2.471 -17.825  1.00  0.00     0.037 A 
BRANCH  52  66
ATOM     66  C   UNL     1      -0.650   2.271 -18.431  1.00  0.00     0.057 A 
ATOM     67  C   UNL     1      -0.310   3.629 -18.458  1.00  0.00     0.134 A 
ATOM     68  C   UNL     1      -1.623   1.829 -19.336  1.00  0.00     0.134 A 
ATOM     69  F   UNL     1       0.602   4.120 -17.605  1.00  0.00    -0.206 F 
ATOM     70  C   UNL     1      -0.921   4.516 -19.346  1.00  0.00     0.040 A 
ATOM     71  C   UNL     1      -2.222   2.700 -20.247  1.00  0.00     0.040 A 
ATOM     72  F   UNL     1      -1.993   0.539 -19.363  1.00  0.00    -0.206 F 
ATOM     73  C   UNL     1      -1.872   4.049 -20.252  1.00  0.00     0.006 A 
ENDBRANCH  52  66
BRANCH  53  74
ATOM     74  C   UNL     1       3.910  -3.838 -11.967  1.00  0.00     0.057 A 
ATOM     75  C   UNL     1       5.306  -3.885 -11.858  1.00  0.00     0.134 A 
ATOM     76  C   UNL     1       3.178  -4.769 -11.220  1.00  0.00     0.134 A 
ATOM     77  F   UNL     1       6.066  -3.039 -12.569  1.00  0.00    -0.206 F 
ATOM     78  C   UNL     1       5.948  -4.843 -11.072  1.00  0.00     0.040 A 
ATOM     79  C   UNL     1       3.806  -5.711 -10.403  1.00  0.00     0.040 A 
ATOM     80  F   UNL     1       1.838  -4.784 -11.280  1.00  0.00    -0.206 F 
ATOM     81  C   UNL     1       5.197  -5.759 -10.339  1.00  0.00     0.006 A 
ENDBRANCH  53  74
BRANCH  65  82
ATOM     82  C   UNL     1       3.971  -3.230 -18.903  1.00  0.00     0.057 A 
ATOM     83  C   UNL     1       3.606  -4.534 -19.258  1.00  0.00     0.134 A 
ATOM     84  C   UNL     1       4.997  -2.622 -19.638  1.00  0.00     0.134 A 
ATOM     85  F   UNL     1       2.639  -5.177 -18.586  1.00  0.00    -0.206 F 
ATOM     86  C   UNL     1       4.249  -5.214 -20.294  1.00  0.00     0.040 A 
ATOM     87  C   UNL     1       5.626  -3.280 -20.695  1.00  0.00     0.040 A 
ATOM     88  F   UNL     1       5.387  -1.369 -19.358  1.00  0.00    -0.206 F 
ATOM     89  C   UNL     1       5.256  -4.582 -21.022  1.00  0.00     0.006 A 
ENDBRANCH  65  82
ENDBRANCH  39  40
ENDBRANCH  32  34
ENDBRANCH  31  32
ENDBRANCH  30  31
ENDBRANCH  29  30
ENDBRANCH  28  29
ENDBRANCH  27  28
ENDBRANCH  26  27
ENDBRANCH   1  26
TORSDOF 22
