REMARK SMILES Cn1cc(S(=O)(=O)NC[C@H]2CC[C@@H](C(=O)OCCOCCOCCOCCOC(=O)c3ccc(-c4c5nc(c(-c6c(F)cccc6F)c6ccc([nH]6)c(-c6c(F)cccc6F)c6nc(c(-c7c(F)cccc7F)c7ccc4[nH]7)C=C6)C=C5)cc3)CC2)cn1
REMARK SMILES IDX 21 1 20 2 19 3 18 4 17 5 16 6 14 7 15 8 13 9 10 10 11 11
REMARK SMILES IDX 86 12 12 13 85 14 9 15 8 16 5 18 6 19 7 20 4 21 1 22 2 23
REMARK SMILES IDX 3 24 88 25 87 26 22 27 23 28 24 29 25 30 26 31 27 32 28 33
REMARK SMILES IDX 29 34 30 35 31 36 32 37 84 38 33 39 83 40 34 41 35 42 36 43
REMARK SMILES IDX 77 44 37 45 82 46 76 47 78 48 38 49 81 50 75 51 74 52 39 54
REMARK SMILES IDX 65 55 48 56 64 57 49 58 52 59 63 60 79 61 50 62 51 63 62 65
REMARK SMILES IDX 80 66 53 67 40 68 41 69 46 70 42 71 43 72 45 73 47 74 44 75
REMARK SMILES IDX 66 76 67 77 72 78 68 79 69 80 71 81 73 82 70 83 54 84 55 85
REMARK SMILES IDX 60 86 56 87 57 88 59 89 61 90 58 91
REMARK H PARENT 8 17 78 53 52 64
REMARK Flexibility Score: inf
ROOT
ATOM      1  C   UNL     1       7.539  -4.017  -3.046  1.00  0.00     0.188 C 
ENDROOT
BRANCH   1   2
ATOM      2  C   UNL     1       8.321  -2.751  -2.678  1.00  0.00     0.188 C 
BRANCH   2   3
ATOM      3  O   UNL     1       8.326  -2.454  -1.289  1.00  0.00    -0.376 OA
BRANCH   3   4
ATOM      4  C   UNL     1       7.616  -1.273  -0.943  1.00  0.00     0.202 C 
BRANCH   4   5
ATOM      5  C   UNL     1       6.093  -1.407  -0.946  1.00  0.00     0.261 C 
BRANCH   5   6
ATOM      6  O   UNL     1       5.496  -2.024  -2.102  1.00  0.00    -0.463 OA
BRANCH   6   7
ATOM      7  C   UNL     1       5.247  -1.250  -3.180  1.00  0.00     0.309 C 
ATOM      8  O   UNL     1       5.690  -0.117  -3.325  1.00  0.00    -0.252 OA
BRANCH   7   9
ATOM      9  C   UNL     1       4.268  -1.896  -4.172  1.00  0.00     0.099 C 
ATOM     10  C   UNL     1       2.044  -3.040  -2.528  1.00  0.00     0.004 C 
ATOM     11  C   UNL     1       2.204  -1.531  -2.763  1.00  0.00     0.006 C 
ATOM     12  C   UNL     1       3.303  -3.863  -2.831  1.00  0.00     0.006 C 
ATOM     13  C   UNL     1       2.916  -1.185  -4.071  1.00  0.00     0.015 C 
ATOM     14  C   UNL     1       4.015  -3.409  -4.099  1.00  0.00     0.015 C 
BRANCH  10  15
ATOM     15  C   UNL     1       1.471  -3.367  -1.139  1.00  0.00     0.102 C 
BRANCH  15  16
ATOM     16  N   UNL     1       2.371  -3.087  -0.012  1.00  0.00    -0.211 NA
ATOM     17  H   UNL     1       2.203  -3.833   0.664  1.00  0.00     0.141 HD
BRANCH  16  18
ATOM     18  S   UNL     1       2.366  -1.665   0.875  1.00  0.00     0.243 S 
ATOM     19  O   UNL     1       3.478  -0.869   0.414  1.00  0.00    -0.207 OA
ATOM     20  O   UNL     1       2.241  -2.028   2.269  1.00  0.00    -0.207 OA
BRANCH  18  21
ATOM     21  C   UNL     1       0.994  -0.706   0.558  1.00  0.00     0.120 A 
ATOM     22  C   UNL     1      -2.453   0.132   0.032  1.00  0.00     0.173 C 
ATOM     23  N   UNL     1      -1.026   0.033   0.220  1.00  0.00    -0.274 N 
ATOM     24  C   UNL     1      -0.334  -1.061   0.643  1.00  0.00     0.130 A 
ATOM     25  N   UNL     1      -0.243   1.088  -0.077  1.00  0.00    -0.180 NA
ATOM     26  C   UNL     1       0.996   0.634   0.142  1.00  0.00     0.156 A 
ENDBRANCH  18  21
ENDBRANCH  16  18
ENDBRANCH  15  16
ENDBRANCH  10  15
ENDBRANCH   7   9
ENDBRANCH   6   7
ENDBRANCH   5   6
ENDBRANCH   4   5
ENDBRANCH   3   4
ENDBRANCH   2   3
ENDBRANCH   1   2
BRANCH   1  27
ATOM     27  O   UNL     1       6.745  -4.656  -2.055  1.00  0.00    -0.377 OA
BRANCH  27  28
ATOM     28  C   UNL     1       7.342  -4.989  -0.802  1.00  0.00     0.188 C 
BRANCH  28  29
ATOM     29  C   UNL     1       8.848  -5.313  -0.726  1.00  0.00     0.188 C 
BRANCH  29  30
ATOM     30  O   UNL     1       9.456  -5.645  -1.966  1.00  0.00    -0.376 OA
BRANCH  30  31
ATOM     31  C   UNL     1       9.603  -7.028  -2.260  1.00  0.00     0.202 C 
BRANCH  31  32
ATOM     32  C   UNL     1       8.292  -7.798  -2.472  1.00  0.00     0.261 C 
BRANCH  32  33
ATOM     33  O   UNL     1       7.492  -7.966  -1.290  1.00  0.00    -0.460 OA
BRANCH  33  34
ATOM     34  C   UNL     1       8.065  -8.599  -0.246  1.00  0.00     0.338 C 
ATOM     35  O   UNL     1       9.167  -9.112  -0.195  1.00  0.00    -0.246 OA
BRANCH  34  36
ATOM     36  C   UNL     1       7.177  -8.443   0.917  1.00  0.00     0.060 A 
ATOM     37  C   UNL     1       7.655  -7.769   2.046  1.00  0.00     0.016 A 
ATOM     38  C   UNL     1       5.901  -9.009   0.904  1.00  0.00     0.016 A 
ATOM     39  C   UNL     1       6.871  -7.709   3.196  1.00  0.00     0.010 A 
ATOM     40  C   UNL     1       5.123  -8.962   2.061  1.00  0.00     0.010 A 
ATOM     41  C   UNL     1       5.625  -8.351   3.223  1.00  0.00    -0.014 A 
BRANCH  41  42
ATOM     42  C   UNL     1       4.956  -8.582   4.522  1.00  0.00     0.031 A 
ATOM     43  C   UNL     1       5.215  -9.883   5.231  1.00  0.00     0.074 A 
ATOM     44  C   UNL     1       4.157  -7.653   5.072  1.00  0.00     0.049 A 
ATOM     45  N   UNL     1       4.741 -10.319   6.370  1.00  0.00    -0.248 NA
ATOM     46  C   UNL     1       6.132 -10.821   4.561  1.00  0.00     0.031 C 
ATOM     47  C   UNL     1       3.855  -6.346   4.495  1.00  0.00     0.029 A 
ATOM     48  N   UNL     1       3.451  -7.678   6.248  1.00  0.00    -0.354 N 
ATOM     49  C   UNL     1       5.303 -11.576   6.553  1.00  0.00     0.074 A 
ATOM     50  C   UNL     1       6.125 -11.850   5.395  1.00  0.00     0.031 C 
ATOM     51  C   UNL     1       3.012  -5.694   5.317  1.00  0.00     0.029 A 
ATOM     52  C   UNL     1       2.704  -6.547   6.464  1.00  0.00     0.049 A 
ATOM     53  H   UNL     1       3.477  -8.436   6.876  1.00  0.00     0.167 HD
ATOM     54  C   UNL     1       5.157 -12.423   7.598  1.00  0.00     0.037 A 
ATOM     55  C   UNL     1       1.861  -6.247   7.470  1.00  0.00     0.037 A 
ATOM     56  C   UNL     1       4.335 -12.155   8.746  1.00  0.00     0.049 A 
ATOM     57  C   UNL     1       1.670  -7.231   8.594  1.00  0.00     0.074 A 
ATOM     58  C   UNL     1       4.127 -12.946   9.862  1.00  0.00     0.029 A 
ATOM     59  N   UNL     1       3.577 -11.007   8.919  1.00  0.00    -0.354 N 
ATOM     60  N   UNL     1       2.228  -8.405   8.774  1.00  0.00    -0.248 NA
ATOM     61  C   UNL     1       0.733  -6.846   9.660  1.00  0.00     0.031 C 
ATOM     62  C   UNL     1       3.210 -12.293  10.693  1.00  0.00     0.029 A 
ATOM     63  C   UNL     1       2.884 -11.076  10.115  1.00  0.00     0.049 A 
ATOM     64  H   UNL     1       3.539 -10.255   8.285  1.00  0.00     0.167 HD
ATOM     65  C   UNL     1       1.736  -8.881   9.984  1.00  0.00     0.074 A 
ATOM     66  C   UNL     1       0.841  -7.867  10.499  1.00  0.00     0.031 C 
ATOM     67  C   UNL     1       2.003 -10.052  10.614  1.00  0.00     0.037 A 
BRANCH  54  68
ATOM     68  C   UNL     1       5.889 -13.730   7.527  1.00  0.00     0.057 A 
ATOM     69  C   UNL     1       7.279 -13.807   7.688  1.00  0.00     0.134 A 
ATOM     70  C   UNL     1       5.195 -14.926   7.309  1.00  0.00     0.134 A 
ATOM     71  F   UNL     1       8.004 -12.694   7.881  1.00  0.00    -0.206 F 
ATOM     72  C   UNL     1       7.955 -15.026   7.613  1.00  0.00     0.040 A 
ATOM     73  C   UNL     1       5.857 -16.153   7.255  1.00  0.00     0.040 A 
ATOM     74  F   UNL     1       3.864 -14.920   7.145  1.00  0.00    -0.206 F 
ATOM     75  C   UNL     1       7.242 -16.204   7.401  1.00  0.00     0.006 A 
ENDBRANCH  54  68
BRANCH  55  76
ATOM     76  C   UNL     1       1.129  -4.956   7.466  1.00  0.00     0.057 A 
ATOM     77  C   UNL     1       1.427  -3.950   8.391  1.00  0.00     0.134 A 
ATOM     78  C   UNL     1       0.097  -4.710   6.553  1.00  0.00     0.134 A 
ATOM     79  F   UNL     1       2.387  -4.139   9.308  1.00  0.00    -0.206 F 
ATOM     80  C   UNL     1       0.712  -2.751   8.422  1.00  0.00     0.040 A 
ATOM     81  C   UNL     1      -0.610  -3.506   6.557  1.00  0.00     0.040 A 
ATOM     82  F   UNL     1      -0.241  -5.637   5.645  1.00  0.00    -0.206 F 
ATOM     83  C   UNL     1      -0.307  -2.525   7.499  1.00  0.00     0.006 A 
ENDBRANCH  55  76
BRANCH  67  84
ATOM     84  C   UNL     1       1.349 -10.282  11.945  1.00  0.00     0.057 A 
ATOM     85  C   UNL     1      -0.015 -10.577  12.059  1.00  0.00     0.134 A 
ATOM     86  C   UNL     1       2.106 -10.251  13.124  1.00  0.00     0.134 A 
ATOM     87  F   UNL     1      -0.796 -10.613  10.969  1.00  0.00    -0.206 F 
ATOM     88  C   UNL     1      -0.608 -10.810  13.300  1.00  0.00     0.040 A 
ATOM     89  C   UNL     1       1.529 -10.506  14.368  1.00  0.00     0.040 A 
ATOM     90  F   UNL     1       3.420  -9.986  13.083  1.00  0.00    -0.206 F 
ATOM     91  C   UNL     1       0.166 -10.781  14.459  1.00  0.00     0.006 A 
ENDBRANCH  67  84
ENDBRANCH  41  42
ENDBRANCH  34  36
ENDBRANCH  33  34
ENDBRANCH  32  33
ENDBRANCH  31  32
ENDBRANCH  30  31
ENDBRANCH  29  30
ENDBRANCH  28  29
ENDBRANCH  27  28
ENDBRANCH   1  27
TORSDOF 24
