REMARK SMILES Cc1nn(C)cc1-c1ccnc2nc(CCC(=O)OCCOCCOCCOCCOC(=O)c3ccc(-c4c5nc(c(-c6c(F)cccc6F)c6ccc([nH]6)c(-c6c(F)cccc6F)c6nc(c(-c7c(F)cccc7F)c7ccc4[nH]7)C=C6)C=C5)cc3)nn12
REMARK SMILES IDX 24 1 23 2 22 3 21 4 20 5 19 6 17 7 18 8 16 9 15 10 14 11
REMARK SMILES IDX 8 12 9 13 89 14 10 15 12 16 88 17 11 18 13 19 7 20 1 21 2 22
REMARK SMILES IDX 3 23 4 24 6 25 5 26 25 27 26 28 27 29 28 30 29 31 30 32
REMARK SMILES IDX 31 33 32 34 33 35 34 36 35 37 87 38 36 39 86 40 37 41 38 42
REMARK SMILES IDX 39 43 80 44 40 45 85 46 79 47 81 48 41 49 84 50 78 51 77 52
REMARK SMILES IDX 42 54 68 55 51 56 67 57 52 58 55 59 66 60 82 61 53 62 54 63
REMARK SMILES IDX 65 65 83 66 56 67 43 68 44 69 49 70 45 71 46 72 48 73 50 74
REMARK SMILES IDX 47 75 69 76 70 77 75 78 71 79 72 80 74 81 76 82 73 83 57 84
REMARK SMILES IDX 58 85 63 86 59 87 60 88 62 89 64 90 61 91
REMARK H PARENT 81 53 55 64
REMARK Flexibility Score: inf
ROOT
ATOM      1  C   UNL     1       0.096  -2.764   4.694  1.00  0.00     0.188 C 
ENDROOT
BRANCH   1   2
ATOM      2  C   UNL     1       1.521  -2.457   5.193  1.00  0.00     0.188 C 
BRANCH   2   3
ATOM      3  O   UNL     1       2.175  -1.489   4.384  1.00  0.00    -0.376 OA
BRANCH   3   4
ATOM      4  C   UNL     1       3.090  -1.896   3.385  1.00  0.00     0.202 C 
BRANCH   4   5
ATOM      5  C   UNL     1       2.721  -3.010   2.401  1.00  0.00     0.261 C 
BRANCH   5   6
ATOM      6  O   UNL     1       1.948  -4.078   2.964  1.00  0.00    -0.463 OA
BRANCH   6   7
ATOM      7  C   UNL     1       2.428  -5.330   2.917  1.00  0.00     0.306 C 
ATOM      8  O   UNL     1       3.606  -5.602   2.711  1.00  0.00    -0.252 OA
BRANCH   7   9
ATOM      9  C   UNL     1       1.388  -6.401   3.200  1.00  0.00     0.131 C 
BRANCH   9  10
ATOM     10  C   UNL     1      -0.102  -6.057   3.237  1.00  0.00     0.091 C 
BRANCH  10  11
ATOM     11  C   UNL     1      -0.705  -5.587   1.959  1.00  0.00     0.154 A 
ATOM     12  C   UNL     1      -1.208  -3.386  -0.692  1.00  0.00     0.081 A 
ATOM     13  C   UNL     1      -2.216  -3.429  -1.583  1.00  0.00     0.049 A 
ATOM     14  N   UNL     1      -1.129  -4.394   0.282  1.00  0.00    -0.196 N 
ATOM     15  C   UNL     1      -3.188  -4.539  -1.407  1.00  0.00     0.117 A 
ATOM     16  C   UNL     1      -2.110  -5.387   0.387  1.00  0.00     0.252 A 
ATOM     17  N   UNL     1      -0.222  -4.552   1.275  1.00  0.00    -0.149 NA
ATOM     18  N   UNL     1      -3.156  -5.455  -0.489  1.00  0.00    -0.220 NA
ATOM     19  N   UNL     1      -1.853  -6.127   1.448  1.00  0.00    -0.194 NA
BRANCH  12  20
ATOM     20  C   UNL     1      -0.417  -2.213  -0.524  1.00  0.00     0.041 A 
ATOM     21  C   UNL     1      -2.149  -0.965   0.918  1.00  0.00     0.069 C 
ATOM     22  C   UNL     1      -0.838  -1.112   0.247  1.00  0.00     0.069 A 
ATOM     23  N   UNL     1       0.093  -0.155   0.297  1.00  0.00    -0.178 NA
ATOM     24  N   UNL     1       1.120  -0.670  -0.404  1.00  0.00    -0.275 N 
ATOM     25  C   UNL     1       0.856  -1.907  -0.936  1.00  0.00     0.119 A 
ATOM     26  C   UNL     1       2.352   0.078  -0.483  1.00  0.00     0.173 C 
ENDBRANCH  12  20
ENDBRANCH  10  11
ENDBRANCH   9  10
ENDBRANCH   7   9
ENDBRANCH   6   7
ENDBRANCH   5   6
ENDBRANCH   4   5
ENDBRANCH   3   4
ENDBRANCH   2   3
ENDBRANCH   1   2
BRANCH   1  27
ATOM     27  O   UNL     1      -0.813  -1.680   4.575  1.00  0.00    -0.377 OA
BRANCH  27  28
ATOM     28  C   UNL     1      -0.343  -0.593   3.781  1.00  0.00     0.188 C 
BRANCH  28  29
ATOM     29  C   UNL     1       0.182   0.558   4.642  1.00  0.00     0.188 C 
BRANCH  29  30
ATOM     30  O   UNL     1       0.159   0.237   6.029  1.00  0.00    -0.376 OA
BRANCH  30  31
ATOM     31  C   UNL     1      -1.027   0.582   6.739  1.00  0.00     0.202 C 
BRANCH  31  32
ATOM     32  C   UNL     1      -2.393   0.045   6.261  1.00  0.00     0.261 C 
BRANCH  32  33
ATOM     33  O   UNL     1      -2.841   0.442   4.947  1.00  0.00    -0.460 OA
BRANCH  33  34
ATOM     34  C   UNL     1      -2.963   1.755   4.665  1.00  0.00     0.338 C 
ATOM     35  O   UNL     1      -2.751   2.695   5.413  1.00  0.00    -0.246 OA
BRANCH  34  36
ATOM     36  C   UNL     1      -3.278   1.891   3.222  1.00  0.00     0.060 A 
ATOM     37  C   UNL     1      -2.464   2.694   2.409  1.00  0.00     0.016 A 
ATOM     38  C   UNL     1      -4.363   1.209   2.662  1.00  0.00     0.016 A 
ATOM     39  C   UNL     1      -2.729   2.813   1.035  1.00  0.00     0.010 A 
ATOM     40  C   UNL     1      -4.632   1.337   1.292  1.00  0.00     0.010 A 
ATOM     41  C   UNL     1      -3.821   2.143   0.465  1.00  0.00    -0.014 A 
BRANCH  41  42
ATOM     42  C   UNL     1      -4.254   2.392  -0.939  1.00  0.00     0.031 A 
ATOM     43  C   UNL     1      -5.375   3.362  -1.159  1.00  0.00     0.074 A 
ATOM     44  C   UNL     1      -3.727   1.759  -2.005  1.00  0.00     0.049 A 
ATOM     45  N   UNL     1      -5.966   3.704  -2.274  1.00  0.00    -0.248 NA
ATOM     46  C   UNL     1      -5.877   4.055   0.037  1.00  0.00     0.031 C 
ATOM     47  C   UNL     1      -2.561   0.893  -1.981  1.00  0.00     0.029 A 
ATOM     48  N   UNL     1      -4.127   1.725  -3.321  1.00  0.00    -0.354 N 
ATOM     49  C   UNL     1      -6.865   4.697  -1.921  1.00  0.00     0.074 A 
ATOM     50  C   UNL     1      -6.813   4.831  -0.481  1.00  0.00     0.031 C 
ATOM     51  C   UNL     1      -2.396   0.321  -3.186  1.00  0.00     0.029 A 
ATOM     52  C   UNL     1      -3.432   0.815  -4.086  1.00  0.00     0.049 A 
ATOM     53  H   UNL     1      -4.843   2.296  -3.682  1.00  0.00     0.167 HD
ATOM     54  C   UNL     1      -7.631   5.466  -2.728  1.00  0.00     0.037 A 
ATOM     55  C   UNL     1      -3.604   0.431  -5.367  1.00  0.00     0.037 A 
ATOM     56  C   UNL     1      -7.729   5.304  -4.151  1.00  0.00     0.049 A 
ATOM     57  C   UNL     1      -4.622   1.147  -6.214  1.00  0.00     0.074 A 
ATOM     58  C   UNL     1      -8.485   6.031  -5.053  1.00  0.00     0.029 A 
ATOM     59  N   UNL     1      -7.071   4.323  -4.878  1.00  0.00    -0.354 N 
ATOM     60  N   UNL     1      -5.415   2.138  -5.886  1.00  0.00    -0.248 NA
ATOM     61  C   UNL     1      -4.737   0.729  -7.620  1.00  0.00     0.031 C 
ATOM     62  C   UNL     1      -8.328   5.452  -6.318  1.00  0.00     0.029 A 
ATOM     63  C   UNL     1      -7.435   4.397  -6.212  1.00  0.00     0.049 A 
ATOM     64  H   UNL     1      -6.437   3.670  -4.501  1.00  0.00     0.167 HD
ATOM     65  C   UNL     1      -6.068   2.509  -7.054  1.00  0.00     0.074 A 
ATOM     66  C   UNL     1      -5.596   1.621  -8.096  1.00  0.00     0.031 C 
ATOM     67  C   UNL     1      -6.957   3.514  -7.247  1.00  0.00     0.037 A 
BRANCH  54  68
ATOM     68  C   UNL     1      -8.421   6.542  -2.051  1.00  0.00     0.057 A 
ATOM     69  C   UNL     1      -7.794   7.665  -1.492  1.00  0.00     0.134 A 
ATOM     70  C   UNL     1      -9.807   6.429  -1.900  1.00  0.00     0.134 A 
ATOM     71  F   UNL     1      -6.463   7.816  -1.581  1.00  0.00    -0.206 F 
ATOM     72  C   UNL     1      -8.513   8.616  -0.769  1.00  0.00     0.040 A 
ATOM     73  C   UNL     1     -10.540   7.388  -1.201  1.00  0.00     0.040 A 
ATOM     74  F   UNL     1     -10.463   5.375  -2.407  1.00  0.00    -0.206 F 
ATOM     75  C   UNL     1      -9.891   8.478  -0.623  1.00  0.00     0.006 A 
ENDBRANCH  54  68
BRANCH  55  76
ATOM     76  C   UNL     1      -2.768  -0.651  -5.950  1.00  0.00     0.057 A 
ATOM     77  C   UNL     1      -1.780  -0.370  -6.901  1.00  0.00     0.134 A 
ATOM     78  C   UNL     1      -2.964  -1.994  -5.604  1.00  0.00     0.134 A 
ATOM     79  F   UNL     1      -1.557   0.894  -7.287  1.00  0.00    -0.206 F 
ATOM     80  C   UNL     1      -1.035  -1.385  -7.505  1.00  0.00     0.040 A 
ATOM     81  C   UNL     1      -2.217  -3.019  -6.191  1.00  0.00     0.040 A 
ATOM     82  F   UNL     1      -3.884  -2.333  -4.688  1.00  0.00    -0.206 F 
ATOM     83  C   UNL     1      -1.253  -2.715  -7.151  1.00  0.00     0.006 A 
ENDBRANCH  55  76
BRANCH  67  84
ATOM     84  C   UNL     1      -7.448   3.746  -8.646  1.00  0.00     0.057 A 
ATOM     85  C   UNL     1      -8.347   2.875  -9.272  1.00  0.00     0.134 A 
ATOM     86  C   UNL     1      -7.054   4.889  -9.355  1.00  0.00     0.134 A 
ATOM     87  F   UNL     1      -8.751   1.755  -8.655  1.00  0.00    -0.206 F 
ATOM     88  C   UNL     1      -8.826   3.125 -10.560  1.00  0.00     0.040 A 
ATOM     89  C   UNL     1      -7.546   5.163 -10.632  1.00  0.00     0.040 A 
ATOM     90  F   UNL     1      -6.198   5.768  -8.811  1.00  0.00    -0.206 F 
ATOM     91  C   UNL     1      -8.432   4.277 -11.239  1.00  0.00     0.006 A 
ENDBRANCH  67  84
ENDBRANCH  41  42
ENDBRANCH  34  36
ENDBRANCH  33  34
ENDBRANCH  32  33
ENDBRANCH  31  32
ENDBRANCH  30  31
ENDBRANCH  29  30
ENDBRANCH  28  29
ENDBRANCH  27  28
ENDBRANCH   1  27
TORSDOF 23
