REMARK SMILES O=C(OCCOCCOCCOCCOC(=O)c1ccc2c(c1)[C@@H]1C=CC[C@@H]1[C@H](c1ccncc1)N2)c1ccc(-c2c3nc(c(-c4c(F)cccc4F)c4ccc([nH]4)c(-c4c(F)cccc4F)c4nc(c(-c5c(F)cccc5F)c5ccc2[nH]5)C=C4)C=C3)cc1
REMARK SMILES IDX 8 1 7 2 6 3 5 4 4 5 3 6 2 7 1 8 37 9 38 10 90 11 39 12 89 13
REMARK SMILES IDX 40 14 41 15 42 16 83 17 43 18 88 19 82 20 84 21 44 22 87 23
REMARK SMILES IDX 81 24 80 25 45 27 71 28 54 29 70 30 55 31 58 32 69 33 85 34
REMARK SMILES IDX 56 35 57 36 68 38 86 39 59 40 46 41 47 42 52 43 48 44 49 45
REMARK SMILES IDX 51 46 53 47 50 48 72 49 73 50 78 51 74 52 75 53 77 54 79 55
REMARK SMILES IDX 76 56 60 57 61 58 66 59 62 60 63 61 65 62 67 63 64 64 9 65
REMARK SMILES IDX 10 66 11 67 12 68 13 69 14 70 15 71 16 72 17 73 18 74 19 75
REMARK SMILES IDX 23 76 20 77 22 78 21 79 24 80 36 81 25 82 28 83 29 84 26 86
REMARK SMILES IDX 27 87 30 88 31 89 35 90 32 91 34 92 33 93
REMARK H PARENT 84 26 58 37 36 85
REMARK Flexibility Score: inf
ROOT
ATOM      1  C   UNL     1       1.768  -1.488   2.256  1.00  0.00     0.188 C 
ENDROOT
BRANCH   1   2
ATOM      2  C   UNL     1       2.211  -0.174   1.611  1.00  0.00     0.188 C 
BRANCH   2   3
ATOM      3  O   UNL     1       3.549  -0.281   1.116  1.00  0.00    -0.376 OA
BRANCH   3   4
ATOM      4  C   UNL     1       4.350   0.887   1.279  1.00  0.00     0.202 C 
BRANCH   4   5
ATOM      5  C   UNL     1       4.205   1.900   0.142  1.00  0.00     0.261 C 
BRANCH   5   6
ATOM      6  O   UNL     1       2.860   1.975  -0.347  1.00  0.00    -0.460 OA
BRANCH   6   7
ATOM      7  C   UNL     1       2.314   1.290  -1.382  1.00  0.00     0.338 C 
ATOM      8  O   UNL     1       1.146   1.536  -1.684  1.00  0.00    -0.246 OA
BRANCH   7   9
ATOM      9  C   UNL     1       3.035   0.257  -2.198  1.00  0.00     0.060 A 
ATOM     10  C   UNL     1       4.138  -0.496  -1.786  1.00  0.00     0.016 A 
ATOM     11  C   UNL     1       2.492  -0.027  -3.464  1.00  0.00     0.016 A 
ATOM     12  C   UNL     1       4.708  -1.469  -2.599  1.00  0.00     0.010 A 
ATOM     13  C   UNL     1       3.048  -1.011  -4.286  1.00  0.00     0.010 A 
ATOM     14  C   UNL     1       4.171  -1.724  -3.855  1.00  0.00    -0.014 A 
BRANCH  14  15
ATOM     15  C   UNL     1       4.889  -2.641  -4.754  1.00  0.00     0.031 A 
ATOM     16  C   UNL     1       5.751  -2.039  -5.818  1.00  0.00     0.074 A 
ATOM     17  C   UNL     1       4.831  -3.969  -4.553  1.00  0.00     0.049 A 
ATOM     18  N   UNL     1       6.385  -2.620  -6.798  1.00  0.00    -0.248 NA
ATOM     19  C   UNL     1       5.932  -0.577  -5.763  1.00  0.00     0.031 C 
ATOM     20  C   UNL     1       4.119  -4.627  -3.455  1.00  0.00     0.029 A 
ATOM     21  N   UNL     1       5.384  -5.002  -5.261  1.00  0.00    -0.354 N 
ATOM     22  C   UNL     1       7.002  -1.594  -7.500  1.00  0.00     0.074 A 
ATOM     23  C   UNL     1       6.686  -0.356  -6.828  1.00  0.00     0.031 C 
ATOM     24  C   UNL     1       4.266  -5.957  -3.574  1.00  0.00     0.029 A 
ATOM     25  C   UNL     1       5.023  -6.241  -4.789  1.00  0.00     0.049 A 
ATOM     26  H   UNL     1       5.981  -4.870  -6.032  1.00  0.00     0.167 HD
ATOM     27  C   UNL     1       7.750  -1.691  -8.622  1.00  0.00     0.037 A 
ATOM     28  C   UNL     1       5.237  -7.458  -5.324  1.00  0.00     0.037 A 
ATOM     29  C   UNL     1       8.049  -2.943  -9.257  1.00  0.00     0.049 A 
ATOM     30  C   UNL     1       5.989  -7.530  -6.628  1.00  0.00     0.074 A 
ATOM     31  C   UNL     1       8.778  -3.179 -10.407  1.00  0.00     0.029 A 
ATOM     32  N   UNL     1       7.621  -4.178  -8.786  1.00  0.00    -0.354 N 
ATOM     33  N   UNL     1       6.546  -6.559  -7.314  1.00  0.00    -0.248 NA
ATOM     34  C   UNL     1       6.120  -8.854  -7.247  1.00  0.00     0.031 C 
ATOM     35  C   UNL     1       8.746  -4.554 -10.659  1.00  0.00     0.029 A 
ATOM     36  C   UNL     1       8.037  -5.178  -9.642  1.00  0.00     0.049 A 
ATOM     37  H   UNL     1       7.099  -4.318  -7.963  1.00  0.00     0.167 HD
ATOM     38  C   UNL     1       7.096  -7.152  -8.441  1.00  0.00     0.074 A 
ATOM     39  C   UNL     1       6.829  -8.573  -8.332  1.00  0.00     0.031 C 
ATOM     40  C   UNL     1       7.751  -6.582  -9.482  1.00  0.00     0.037 A 
BRANCH  27  41
ATOM     41  C   UNL     1       8.206  -0.415  -9.258  1.00  0.00     0.057 A 
ATOM     42  C   UNL     1       9.233   0.370  -8.720  1.00  0.00     0.134 A 
ATOM     43  C   UNL     1       7.587   0.044 -10.429  1.00  0.00     0.134 A 
ATOM     44  F   UNL     1       9.845   0.003  -7.584  1.00  0.00    -0.206 F 
ATOM     45  C   UNL     1       9.618   1.573  -9.315  1.00  0.00     0.040 A 
ATOM     46  C   UNL     1       7.976   1.234 -11.044  1.00  0.00     0.040 A 
ATOM     47  F   UNL     1       6.588  -0.655 -10.989  1.00  0.00    -0.206 F 
ATOM     48  C   UNL     1       8.992   2.006 -10.484  1.00  0.00     0.006 A 
ENDBRANCH  27  41
BRANCH  28  49
ATOM     49  C   UNL     1       4.662  -8.677  -4.695  1.00  0.00     0.057 A 
ATOM     50  C   UNL     1       5.475  -9.700  -4.194  1.00  0.00     0.134 A 
ATOM     51  C   UNL     1       3.275  -8.868  -4.615  1.00  0.00     0.134 A 
ATOM     52  F   UNL     1       6.810  -9.595  -4.261  1.00  0.00    -0.206 F 
ATOM     53  C   UNL     1       4.934 -10.871  -3.657  1.00  0.00     0.040 A 
ATOM     54  C   UNL     1       2.720 -10.020  -4.054  1.00  0.00     0.040 A 
ATOM     55  F   UNL     1       2.433  -7.933  -5.080  1.00  0.00    -0.206 F 
ATOM     56  C   UNL     1       3.551 -11.031  -3.582  1.00  0.00     0.006 A 
ENDBRANCH  28  49
BRANCH  40  57
ATOM     57  C   UNL     1       8.226  -7.497 -10.568  1.00  0.00     0.057 A 
ATOM     58  C   UNL     1       7.341  -8.034 -11.509  1.00  0.00     0.134 A 
ATOM     59  C   UNL     1       9.590  -7.776 -10.717  1.00  0.00     0.134 A 
ATOM     60  F   UNL     1       6.022  -7.810 -11.407  1.00  0.00    -0.206 F 
ATOM     61  C   UNL     1       7.796  -8.826 -12.561  1.00  0.00     0.040 A 
ATOM     62  C   UNL     1      10.059  -8.546 -11.779  1.00  0.00     0.040 A 
ATOM     63  F   UNL     1      10.486  -7.280  -9.851  1.00  0.00    -0.206 F 
ATOM     64  C   UNL     1       9.161  -9.075 -12.704  1.00  0.00     0.006 A 
ENDBRANCH  40  57
ENDBRANCH  14  15
ENDBRANCH   7   9
ENDBRANCH   6   7
ENDBRANCH   5   6
ENDBRANCH   4   5
ENDBRANCH   3   4
ENDBRANCH   2   3
ENDBRANCH   1   2
BRANCH   1  65
ATOM     65  O   UNL     1       2.450  -1.839   3.458  1.00  0.00    -0.377 OA
BRANCH  65  66
ATOM     66  C   UNL     1       3.873  -1.810   3.430  1.00  0.00     0.188 C 
BRANCH  66  67
ATOM     67  C   UNL     1       4.619  -2.676   2.390  1.00  0.00     0.188 C 
BRANCH  67  68
ATOM     68  O   UNL     1       3.790  -3.457   1.540  1.00  0.00    -0.376 OA
BRANCH  68  69
ATOM     69  C   UNL     1       3.756  -4.851   1.834  1.00  0.00     0.202 C 
BRANCH  69  70
ATOM     70  C   UNL     1       2.952  -5.216   3.089  1.00  0.00     0.261 C 
BRANCH  70  71
ATOM     71  O   UNL     1       3.477  -4.701   4.324  1.00  0.00    -0.460 OA
BRANCH  71  72
ATOM     72  C   UNL     1       4.728  -5.056   4.691  1.00  0.00     0.338 C 
ATOM     73  O   UNL     1       5.471  -5.838   4.125  1.00  0.00    -0.246 OA
BRANCH  72  74
ATOM     74  C   UNL     1       5.130  -4.156   5.793  1.00  0.00     0.060 A 
ATOM     75  C   UNL     1       6.295  -3.396   5.662  1.00  0.00     0.018 A 
ATOM     76  C   UNL     1       4.302  -3.982   6.903  1.00  0.00     0.022 A 
ATOM     77  C   UNL     1       6.620  -2.450   6.638  1.00  0.00     0.027 A 
ATOM     78  C   UNL     1       4.651  -3.067   7.911  1.00  0.00    -0.017 A 
ATOM     79  C   UNL     1       5.833  -2.311   7.789  1.00  0.00     0.038 A 
ATOM     80  C   UNL     1       3.783  -2.962   9.143  1.00  0.00     0.049 C 
ATOM     81  N   UNL     1       6.234  -1.435   8.799  1.00  0.00    -0.378 N 
ATOM     82  C   UNL     1       2.403  -2.424   8.882  1.00  0.00    -0.023 C 
ATOM     83  C   UNL     1       4.301  -1.991  10.219  1.00  0.00     0.031 C 
ATOM     84  C   UNL     1       5.817  -1.797  10.147  1.00  0.00     0.114 C 
ATOM     85  H   UNL     1       6.764  -0.627   8.612  1.00  0.00     0.161 HD
ATOM     86  C   UNL     1       2.221  -1.210   9.414  1.00  0.00    -0.030 C 
ATOM     87  C   UNL     1       3.459  -0.712  10.082  1.00  0.00     0.034 C 
BRANCH  84  88
ATOM     88  C   UNL     1       6.313  -0.833  11.210  1.00  0.00    -0.022 A 
ATOM     89  C   UNL     1       6.347  -1.270  12.543  1.00  0.00     0.026 A 
ATOM     90  C   UNL     1       6.692   0.488  10.948  1.00  0.00     0.026 A 
ATOM     91  C   UNL     1       6.749  -0.391  13.534  1.00  0.00     0.111 A 
ATOM     92  C   UNL     1       7.091   1.290  12.008  1.00  0.00     0.111 A 
ATOM     93  N   UNL     1       7.127   0.880  13.294  1.00  0.00    -0.265 NA
ENDBRANCH  84  88
ENDBRANCH  72  74
ENDBRANCH  71  72
ENDBRANCH  70  71
ENDBRANCH  69  70
ENDBRANCH  68  69
ENDBRANCH  67  68
ENDBRANCH  66  67
ENDBRANCH  65  66
ENDBRANCH   1  65
TORSDOF 21
