REMARK SMILES Cc1ccc(S(=O)(=O)n2cc(C(=O)C(=O)N[C@@H](Cc3cnc[nH]3)C(=O)OCCOCCOCCOCCOC(=O)c3ccc(-c4c5nc(c(-c6c(F)cccc6F)c6ccc([nH]6)c(-c6c(F)cccc6F)c6nc(c(-c7c(F)cccc7F)c7ccc4[nH]7)C=C6)C=C5)cc3)c3ccccc32)cc1
REMARK SMILES IDX 30 1 29 2 28 3 27 4 26 5 24 6 25 7 17 8 16 9 14 10 15 11
REMARK SMILES IDX 12 13 13 14 11 15 9 16 10 17 100 18 95 19 99 20 96 21 98 22
REMARK SMILES IDX 97 23 6 24 7 25 8 26 5 27 1 28 2 29 3 30 102 31 4 32 101 33
REMARK SMILES IDX 18 34 19 35 20 36 23 37 21 38 22 39 31 41 32 42 33 43 34 44
REMARK SMILES IDX 35 45 36 46 37 47 38 48 39 49 40 50 41 51 42 52 94 53 43 54
REMARK SMILES IDX 93 55 44 56 45 57 46 58 87 59 47 60 92 61 86 62 88 63 48 64
REMARK SMILES IDX 91 65 85 66 84 67 49 69 75 70 58 71 74 72 59 73 62 74 73 75
REMARK SMILES IDX 89 76 60 77 61 78 72 80 90 81 63 82 50 83 51 84 56 85 52 86
REMARK SMILES IDX 53 87 55 88 57 89 54 90 76 91 77 92 82 93 78 94 79 95 81 96
REMARK SMILES IDX 83 97 80 98 64 99 65 100 70 101 66 102 67 103 69 104 71 105
REMARK SMILES IDX 68 106
REMARK H PARENT 16 12 23 40 88 68 62 79
REMARK Flexibility Score: inf
ROOT
ATOM      1  C   UNL     1      -4.598   6.374   2.414  1.00  0.00     0.188 C 
ENDROOT
BRANCH   1   2
ATOM      2  O   UNL     1      -4.333   7.578   3.116  1.00  0.00    -0.376 OA
BRANCH   2   3
ATOM      3  C   UNL     1      -5.490   8.215   3.661  1.00  0.00     0.202 C 
BRANCH   3   4
ATOM      4  C   UNL     1      -6.611   8.539   2.674  1.00  0.00     0.261 C 
BRANCH   4   5
ATOM      5  O   UNL     1      -7.424   7.362   2.473  1.00  0.00    -0.462 OA
BRANCH   5   6
ATOM      6  C   UNL     1      -8.199   7.394   1.361  1.00  0.00     0.329 C 
ATOM      7  O   UNL     1      -8.298   8.368   0.620  1.00  0.00    -0.250 OA
BRANCH   6   8
ATOM      8  C   UNL     1      -9.027   6.110   1.168  1.00  0.00     0.198 C 
BRANCH   8   9
ATOM      9  N   UNL     1      -8.633   4.902   1.918  1.00  0.00    -0.335 N 
ATOM     10  C   UNL     1      -7.713   3.930   1.559  1.00  0.00     0.293 C 
ATOM     11  O   UNL     1      -7.646   2.879   2.185  1.00  0.00    -0.265 OA
ATOM     12  H   UNL     1      -9.081   4.770   2.785  1.00  0.00     0.164 HD
BRANCH  10  13
ATOM     13  C   UNL     1      -6.717   4.213   0.405  1.00  0.00     0.252 C 
ATOM     14  O   UNL     1      -6.802   5.307  -0.150  1.00  0.00    -0.283 OA
BRANCH  13  15
ATOM     15  C   UNL     1      -5.636   3.295   0.001  1.00  0.00     0.054 A 
ATOM     16  N   UNL     1      -4.258   1.549  -0.251  1.00  0.00    -0.240 N 
ATOM     17  C   UNL     1      -5.309   2.042   0.493  1.00  0.00     0.117 A 
ATOM     18  C   UNL     1      -3.920   2.417  -1.266  1.00  0.00     0.065 A 
ATOM     19  C   UNL     1      -4.680   3.571  -1.044  1.00  0.00     0.012 A 
ATOM     20  C   UNL     1      -3.019   2.325  -2.343  1.00  0.00     0.028 A 
ATOM     21  C   UNL     1      -4.438   4.702  -1.855  1.00  0.00     0.011 A 
ATOM     22  C   UNL     1      -2.825   3.454  -3.144  1.00  0.00     0.002 A 
ATOM     23  C   UNL     1      -3.504   4.638  -2.889  1.00  0.00     0.001 A 
BRANCH  16  24
ATOM     24  S   UNL     1      -3.617  -0.018  -0.041  1.00  0.00     0.268 S 
ATOM     25  O   UNL     1      -3.960  -0.711  -1.284  1.00  0.00    -0.201 OA
ATOM     26  O   UNL     1      -4.080  -0.470   1.242  1.00  0.00    -0.201 OA
BRANCH  24  27
ATOM     27  C   UNL     1      -1.844   0.063   0.044  1.00  0.00     0.088 A 
ATOM     28  C   UNL     1       2.465  -0.012   0.038  1.00  0.00     0.044 C 
ATOM     29  C   UNL     1       0.964   0.022   0.056  1.00  0.00    -0.051 A 
ATOM     30  C   UNL     1       0.242  -1.171  -0.062  1.00  0.00     0.005 A 
ATOM     31  C   UNL     1       0.266   1.229   0.200  1.00  0.00     0.005 A 
ATOM     32  C   UNL     1      -1.154  -1.152  -0.075  1.00  0.00     0.022 A 
ATOM     33  C   UNL     1      -1.135   1.253   0.211  1.00  0.00     0.022 A 
ENDBRANCH  24  27
ENDBRANCH  16  24
ENDBRANCH  13  15
ENDBRANCH  10  13
ENDBRANCH   8   9
BRANCH   8  34
ATOM     34  C   UNL     1     -10.521   6.470   1.308  1.00  0.00     0.092 C 
BRANCH  34  35
ATOM     35  C   UNL     1     -11.149   6.243   2.641  1.00  0.00     0.037 A 
ATOM     36  C   UNL     1     -11.712   5.119   3.209  1.00  0.00     0.134 A 
ATOM     37  N   UNL     1     -11.382   7.240   3.553  1.00  0.00    -0.348 N 
ATOM     38  N   UNL     1     -12.300   5.417   4.409  1.00  0.00    -0.245 NA
ATOM     39  C   UNL     1     -12.107   6.704   4.579  1.00  0.00     0.196 A 
ATOM     40  H   UNL     1     -11.081   8.175   3.481  1.00  0.00     0.167 HD
ENDBRANCH  34  35
ENDBRANCH   8  34
ENDBRANCH   6   8
ENDBRANCH   5   6
ENDBRANCH   4   5
ENDBRANCH   3   4
ENDBRANCH   2   3
ENDBRANCH   1   2
BRANCH   1  41
ATOM     41  C   UNL     1      -4.860   5.095   3.220  1.00  0.00     0.188 C 
BRANCH  41  42
ATOM     42  O   UNL     1      -5.619   5.170   4.410  1.00  0.00    -0.377 OA
BRANCH  42  43
ATOM     43  C   UNL     1      -4.849   5.381   5.593  1.00  0.00     0.188 C 
BRANCH  43  44
ATOM     44  C   UNL     1      -3.724   4.377   5.821  1.00  0.00     0.188 C 
BRANCH  44  45
ATOM     45  O   UNL     1      -2.529   4.919   5.249  1.00  0.00    -0.376 OA
BRANCH  45  46
ATOM     46  C   UNL     1      -1.379   4.083   5.349  1.00  0.00     0.202 C 
BRANCH  46  47
ATOM     47  C   UNL     1      -0.952   3.790   6.794  1.00  0.00     0.261 C 
BRANCH  47  48
ATOM     48  O   UNL     1      -0.864   5.038   7.506  1.00  0.00    -0.460 OA
BRANCH  48  49
ATOM     49  C   UNL     1      -1.644   5.137   8.614  1.00  0.00     0.338 C 
ATOM     50  O   UNL     1      -1.883   4.235   9.401  1.00  0.00    -0.246 OA
BRANCH  49  51
ATOM     51  C   UNL     1      -2.412   6.417   8.572  1.00  0.00     0.060 A 
ATOM     52  C   UNL     1      -3.478   6.601   9.467  1.00  0.00     0.016 A 
ATOM     53  C   UNL     1      -2.271   7.282   7.487  1.00  0.00     0.016 A 
ATOM     54  C   UNL     1      -4.477   7.545   9.191  1.00  0.00     0.010 A 
ATOM     55  C   UNL     1      -3.293   8.174   7.185  1.00  0.00     0.010 A 
ATOM     56  C   UNL     1      -4.441   8.263   7.990  1.00  0.00    -0.014 A 
BRANCH  56  57
ATOM     57  C   UNL     1      -5.633   8.874   7.363  1.00  0.00     0.031 A 
ATOM     58  C   UNL     1      -5.619  10.238   6.754  1.00  0.00     0.074 A 
ATOM     59  C   UNL     1      -6.655   8.050   7.012  1.00  0.00     0.049 A 
ATOM     60  N   UNL     1      -6.668  10.795   6.240  1.00  0.00    -0.248 NA
ATOM     61  C   UNL     1      -4.451  11.110   6.669  1.00  0.00     0.031 C 
ATOM     62  C   UNL     1      -7.633   8.263   5.943  1.00  0.00     0.029 A 
ATOM     63  N   UNL     1      -7.044   6.819   7.530  1.00  0.00    -0.354 N 
ATOM     64  C   UNL     1      -6.262  11.838   5.447  1.00  0.00     0.074 A 
ATOM     65  C   UNL     1      -4.910  12.094   5.882  1.00  0.00     0.031 C 
ATOM     66  C   UNL     1      -8.534   7.279   5.938  1.00  0.00     0.029 A 
ATOM     67  C   UNL     1      -8.376   6.581   7.182  1.00  0.00     0.049 A 
ATOM     68  H   UNL     1      -6.474   6.213   8.056  1.00  0.00     0.167 HD
ATOM     69  C   UNL     1      -7.075  12.263   4.432  1.00  0.00     0.037 A 
ATOM     70  C   UNL     1      -9.382   6.446   8.089  1.00  0.00     0.037 A 
ATOM     71  C   UNL     1      -8.432  11.661   4.488  1.00  0.00     0.049 A 
ATOM     72  C   UNL     1     -10.382   7.591   8.009  1.00  0.00     0.074 A 
ATOM     73  C   UNL     1      -9.312  11.127   3.558  1.00  0.00     0.029 A 
ATOM     74  N   UNL     1      -9.065  11.486   5.729  1.00  0.00    -0.354 N 
ATOM     75  N   UNL     1     -10.178   8.667   7.283  1.00  0.00    -0.248 NA
ATOM     76  C   UNL     1     -11.673   7.648   8.681  1.00  0.00     0.031 C 
ATOM     77  C   UNL     1     -10.469  10.660   4.247  1.00  0.00     0.029 A 
ATOM     78  C   UNL     1     -10.291  10.867   5.605  1.00  0.00     0.049 A 
ATOM     79  H   UNL     1      -8.679  11.773   6.587  1.00  0.00     0.167 HD
ATOM     80  C   UNL     1     -11.220   9.543   7.389  1.00  0.00     0.074 A 
ATOM     81  C   UNL     1     -12.142   8.844   8.268  1.00  0.00     0.031 C 
ATOM     82  C   UNL     1     -11.202  10.757   6.751  1.00  0.00     0.037 A 
BRANCH  69  83
ATOM     83  C   UNL     1      -6.619  13.160   3.272  1.00  0.00     0.057 A 
ATOM     84  C   UNL     1      -7.551  13.745   2.387  1.00  0.00     0.134 A 
ATOM     85  C   UNL     1      -5.277  13.418   2.917  1.00  0.00     0.134 A 
ATOM     86  F   UNL     1      -8.872  13.610   2.569  1.00  0.00    -0.206 F 
ATOM     87  C   UNL     1      -7.184  14.503   1.258  1.00  0.00     0.040 A 
ATOM     88  C   UNL     1      -4.897  14.236   1.836  1.00  0.00     0.040 A 
ATOM     89  F   UNL     1      -4.248  12.848   3.551  1.00  0.00    -0.206 F 
ATOM     90  C   UNL     1      -5.852  14.771   0.990  1.00  0.00     0.006 A 
ENDBRANCH  69  83
BRANCH  70  91
ATOM     91  C   UNL     1      -9.027   5.486   9.170  1.00  0.00     0.057 A 
ATOM     92  C   UNL     1      -8.965   4.144   8.739  1.00  0.00     0.134 A 
ATOM     93  C   UNL     1      -8.144   5.855  10.196  1.00  0.00     0.134 A 
ATOM     94  F   UNL     1      -9.812   3.709   7.793  1.00  0.00    -0.206 F 
ATOM     95  C   UNL     1      -7.917   3.298   9.111  1.00  0.00     0.040 A 
ATOM     96  C   UNL     1      -7.095   5.004  10.588  1.00  0.00     0.040 A 
ATOM     97  F   UNL     1      -8.112   7.120  10.639  1.00  0.00    -0.206 F 
ATOM     98  C   UNL     1      -6.944   3.750   9.996  1.00  0.00     0.006 A 
ENDBRANCH  70  91
BRANCH  82  99
ATOM     99  C   UNL     1     -12.056  11.978   7.072  1.00  0.00     0.057 A 
ATOM    100  C   UNL     1     -12.833  12.137   8.227  1.00  0.00     0.134 A 
ATOM    101  C   UNL     1     -11.974  13.148   6.268  1.00  0.00     0.134 A 
ATOM    102  F   UNL     1     -12.941  11.175   9.149  1.00  0.00    -0.206 F 
ATOM    103  C   UNL     1     -13.500  13.333   8.537  1.00  0.00     0.040 A 
ATOM    104  C   UNL     1     -12.595  14.358   6.591  1.00  0.00     0.040 A 
ATOM    105  F   UNL     1     -11.253  13.196   5.139  1.00  0.00    -0.206 F 
ATOM    106  C   UNL     1     -13.371  14.453   7.729  1.00  0.00     0.006 A 
ENDBRANCH  82  99
ENDBRANCH  56  57
ENDBRANCH  49  51
ENDBRANCH  48  49
ENDBRANCH  47  48
ENDBRANCH  46  47
ENDBRANCH  45  46
ENDBRANCH  44  45
ENDBRANCH  43  44
ENDBRANCH  42  43
ENDBRANCH  41  42
ENDBRANCH   1  41
TORSDOF 27
