REMARK SMILES COc1ccc(-c2sc(N)nc2C(=O)OCCOCCOCCOCCOC(=O)c2ccc(-c3c4nc(c(-c5c(F)cccc5F)c5ccc([nH]5)c(-c5c(F)cccc5F)c5nc(c(-c6c(F)cccc6F)c6ccc3[nH]6)C=C5)C=C4)cc2)cc1OC
REMARK SMILES IDX 21 1 20 2 19 3 18 4 17 5 16 6 15 7 13 8 14 9 12 10 7 11 8 12
REMARK SMILES IDX 9 13 11 14 6 15 3 16 4 17 85 18 5 19 84 20 2 21 1 22 86 23
REMARK SMILES IDX 87 24 10 25 22 28 23 29 24 30 25 31 26 32 27 33 28 34 29 35
REMARK SMILES IDX 30 36 31 37 83 38 32 39 82 40 33 41 34 42 35 43 76 44 36 45
REMARK SMILES IDX 81 46 75 47 77 48 37 49 80 50 74 51 73 52 38 54 64 55 47 56
REMARK SMILES IDX 63 57 48 58 51 59 62 60 78 61 49 62 50 63 61 65 79 66 52 67
REMARK SMILES IDX 39 68 40 69 45 70 41 71 42 72 44 73 46 74 43 75 65 76 66 77
REMARK SMILES IDX 71 78 67 79 68 80 70 81 72 82 69 83 53 84 54 85 59 86 55 87
REMARK SMILES IDX 56 88 58 89 60 90 57 91
REMARK H PARENT 10 26 10 27 77 53 51 64
REMARK Flexibility Score: inf
ROOT
ATOM      1  O   UNL     1       6.512   1.101   5.947  1.00  0.00    -0.377 OA
ENDROOT
BRANCH   1   2
ATOM      2  C   UNL     1       5.157   1.536   5.882  1.00  0.00     0.188 C 
BRANCH   2   3
ATOM      3  C   UNL     1       4.730   2.443   4.716  1.00  0.00     0.188 C 
BRANCH   3   4
ATOM      4  O   UNL     1       5.296   3.754   4.834  1.00  0.00    -0.376 OA
BRANCH   4   5
ATOM      5  C   UNL     1       4.354   4.795   5.086  1.00  0.00     0.202 C 
BRANCH   5   6
ATOM      6  C   UNL     1       4.015   4.943   6.575  1.00  0.00     0.261 C 
BRANCH   6   7
ATOM      7  O   UNL     1       3.395   3.792   7.170  1.00  0.00    -0.458 OA
BRANCH   7   8
ATOM      8  C   UNL     1       2.196   3.375   6.673  1.00  0.00     0.358 C 
ATOM      9  O   UNL     1       1.546   3.993   5.838  1.00  0.00    -0.244 OA
BRANCH   8  10
ATOM     10  C   UNL     1       1.856   2.040   7.170  1.00  0.00     0.169 A 
ATOM     11  C   UNL     1       1.355   1.000   6.393  1.00  0.00     0.071 A 
ATOM     12  S   UNL     1       1.179  -0.407   7.364  1.00  0.00    -0.096 S 
ATOM     13  C   UNL     1       1.861   0.423   8.698  1.00  0.00     0.181 A 
ATOM     14  N   UNL     1       2.160   1.677   8.486  1.00  0.00    -0.213 NA
BRANCH  11  15
ATOM     15  C   UNL     1       1.096   0.923   4.955  1.00  0.00    -0.002 A 
ATOM     16  C   UNL     1       0.790   0.966   2.162  1.00  0.00     0.160 A 
ATOM     17  C   UNL     1      -0.144   1.602   2.988  1.00  0.00     0.051 A 
ATOM     18  C   UNL     1       1.887   0.307   2.722  1.00  0.00     0.161 A 
ATOM     19  C   UNL     1       0.011   1.587   4.378  1.00  0.00     0.014 A 
ATOM     20  C   UNL     1       2.002   0.252   4.116  1.00  0.00     0.060 A 
BRANCH  16  21
ATOM     21  O   UNL     1       0.619   1.088   0.810  1.00  0.00    -0.493 OA
ATOM     22  C   UNL     1      -0.102  -0.024   0.282  1.00  0.00     0.278 C 
ENDBRANCH  16  21
BRANCH  18  23
ATOM     23  O   UNL     1       2.898  -0.334   2.058  1.00  0.00    -0.493 OA
ATOM     24  C   UNL     1       3.267   0.192   0.788  1.00  0.00     0.278 C 
ENDBRANCH  18  23
ENDBRANCH  11  15
BRANCH  13  25
ATOM     25  N   UNL     1       2.086  -0.186   9.865  1.00  0.00    -0.375 N 
ATOM     26  H   UNL     1       1.845  -1.134   9.980  1.00  0.00     0.159 HD
ATOM     27  H   UNL     1       2.493   0.312  10.610  1.00  0.00     0.159 HD
ENDBRANCH  13  25
ENDBRANCH   8  10
ENDBRANCH   7   8
ENDBRANCH   6   7
ENDBRANCH   5   6
ENDBRANCH   4   5
ENDBRANCH   3   4
ENDBRANCH   2   3
ENDBRANCH   1   2
BRANCH   1  28
ATOM     28  C   UNL     1       7.493   2.058   5.577  1.00  0.00     0.188 C 
BRANCH  28  29
ATOM     29  C   UNL     1       7.801   2.016   4.070  1.00  0.00     0.188 C 
BRANCH  29  30
ATOM     30  O   UNL     1       7.097   0.982   3.378  1.00  0.00    -0.376 OA
BRANCH  30  31
ATOM     31  C   UNL     1       7.804  -0.234   3.154  1.00  0.00     0.202 C 
BRANCH  31  32
ATOM     32  C   UNL     1       8.112  -1.082   4.398  1.00  0.00     0.261 C 
BRANCH  32  33
ATOM     33  O   UNL     1       9.035  -0.493   5.330  1.00  0.00    -0.460 OA
BRANCH  33  34
ATOM     34  C   UNL     1      10.255  -0.148   4.872  1.00  0.00     0.338 C 
ATOM     35  O   UNL     1      10.725  -0.357   3.769  1.00  0.00    -0.246 OA
BRANCH  34  36
ATOM     36  C   UNL     1      10.884   0.713   5.892  1.00  0.00     0.060 A 
ATOM     37  C   UNL     1      11.350   1.976   5.507  1.00  0.00     0.016 A 
ATOM     38  C   UNL     1      10.998   0.284   7.218  1.00  0.00     0.016 A 
ATOM     39  C   UNL     1      11.975   2.799   6.442  1.00  0.00     0.010 A 
ATOM     40  C   UNL     1      11.645   1.098   8.148  1.00  0.00     0.010 A 
ATOM     41  C   UNL     1      12.171   2.339   7.753  1.00  0.00    -0.014 A 
BRANCH  41  42
ATOM     42  C   UNL     1      13.144   3.035   8.624  1.00  0.00     0.031 A 
ATOM     43  C   UNL     1      14.581   2.597   8.551  1.00  0.00     0.074 A 
ATOM     44  C   UNL     1      12.778   4.039   9.439  1.00  0.00     0.049 A 
ATOM     45  N   UNL     1      15.623   3.045   9.202  1.00  0.00    -0.248 NA
ATOM     46  C   UNL     1      14.882   1.503   7.611  1.00  0.00     0.031 C 
ATOM     47  C   UNL     1      11.425   4.573   9.576  1.00  0.00     0.029 A 
ATOM     48  N   UNL     1      13.528   4.787  10.310  1.00  0.00    -0.354 N 
ATOM     49  C   UNL     1      16.700   2.302   8.738  1.00  0.00     0.074 A 
ATOM     50  C   UNL     1      16.185   1.349   7.781  1.00  0.00     0.031 C 
ATOM     51  C   UNL     1      11.440   5.564  10.487  1.00  0.00     0.029 A 
ATOM     52  C   UNL     1      12.798   5.719  11.006  1.00  0.00     0.049 A 
ATOM     53  H   UNL     1      14.499   4.668  10.426  1.00  0.00     0.167 HD
ATOM     54  C   UNL     1      18.007   2.409   9.070  1.00  0.00     0.037 A 
ATOM     55  C   UNL     1      13.190   6.587  11.959  1.00  0.00     0.037 A 
ATOM     56  C   UNL     1      18.520   3.333  10.042  1.00  0.00     0.049 A 
ATOM     57  C   UNL     1      14.639   6.632  12.371  1.00  0.00     0.074 A 
ATOM     58  C   UNL     1      19.825   3.503  10.468  1.00  0.00     0.029 A 
ATOM     59  N   UNL     1      17.744   4.240  10.745  1.00  0.00    -0.354 N 
ATOM     60  N   UNL     1      15.654   5.941  11.910  1.00  0.00    -0.248 NA
ATOM     61  C   UNL     1      14.996   7.582  13.435  1.00  0.00     0.031 C 
ATOM     62  C   UNL     1      19.833   4.495  11.455  1.00  0.00     0.029 A 
ATOM     63  C   UNL     1      18.540   4.967  11.613  1.00  0.00     0.049 A 
ATOM     64  H   UNL     1      16.771   4.351  10.643  1.00  0.00     0.167 HD
ATOM     65  C   UNL     1      16.771   6.397  12.601  1.00  0.00     0.074 A 
ATOM     66  C   UNL     1      16.310   7.426  13.509  1.00  0.00     0.031 C 
ATOM     67  C   UNL     1      18.063   6.002  12.492  1.00  0.00     0.037 A 
BRANCH  54  68
ATOM     68  C   UNL     1      18.961   1.484   8.380  1.00  0.00     0.057 A 
ATOM     69  C   UNL     1      19.325   1.676   7.040  1.00  0.00     0.134 A 
ATOM     70  C   UNL     1      19.519   0.393   9.055  1.00  0.00     0.134 A 
ATOM     71  F   UNL     1      18.804   2.690   6.333  1.00  0.00    -0.206 F 
ATOM     72  C   UNL     1      20.199   0.803   6.391  1.00  0.00     0.040 A 
ATOM     73  C   UNL     1      20.411  -0.474   8.423  1.00  0.00     0.040 A 
ATOM     74  F   UNL     1      19.206   0.153  10.337  1.00  0.00    -0.206 F 
ATOM     75  C   UNL     1      20.749  -0.273   7.086  1.00  0.00     0.006 A 
ENDBRANCH  54  68
BRANCH  55  76
ATOM     76  C   UNL     1      12.204   7.495  12.597  1.00  0.00     0.057 A 
ATOM     77  C   UNL     1      12.232   8.875  12.361  1.00  0.00     0.134 A 
ATOM     78  C   UNL     1      11.245   7.014  13.495  1.00  0.00     0.134 A 
ATOM     79  F   UNL     1      13.147   9.399  11.532  1.00  0.00    -0.206 F 
ATOM     80  C   UNL     1      11.355   9.746  13.010  1.00  0.00     0.040 A 
ATOM     81  C   UNL     1      10.347   7.871  14.134  1.00  0.00     0.040 A 
ATOM     82  F   UNL     1      11.170   5.703  13.767  1.00  0.00    -0.206 F 
ATOM     83  C   UNL     1      10.407   9.243  13.898  1.00  0.00     0.006 A 
ENDBRANCH  55  76
BRANCH  67  84
ATOM     84  C   UNL     1      19.075   6.715  13.337  1.00  0.00     0.057 A 
ATOM     85  C   UNL     1      19.190   6.477  14.712  1.00  0.00     0.134 A 
ATOM     86  C   UNL     1      19.976   7.615  12.755  1.00  0.00     0.134 A 
ATOM     87  F   UNL     1      18.349   5.633  15.329  1.00  0.00    -0.206 F 
ATOM     88  C   UNL     1      20.156   7.125  15.483  1.00  0.00     0.040 A 
ATOM     89  C   UNL     1      20.960   8.252  13.512  1.00  0.00     0.040 A 
ATOM     90  F   UNL     1      19.924   7.878  11.441  1.00  0.00    -0.206 F 
ATOM     91  C   UNL     1      21.049   8.011  14.881  1.00  0.00     0.006 A 
ENDBRANCH  67  84
ENDBRANCH  41  42
ENDBRANCH  34  36
ENDBRANCH  33  34
ENDBRANCH  32  33
ENDBRANCH  31  32
ENDBRANCH  30  31
ENDBRANCH  29  30
ENDBRANCH  28  29
ENDBRANCH   1  28
TORSDOF 24
