REMARK SMILES CNC(=O)c1cc(S(=O)(=O)N2CCC(C(=O)OCCOCCOCCOCCOC(=O)c3ccc(-c4c5nc(c(-c6c(F)cccc6F)c6ccc([nH]6)c(-c6c(F)cccc6F)c6nc(c(-c7c(F)cccc7F)c7ccc4[nH]7)C=C6)C=C5)cc3)CC2)ccc1OC
REMARK SMILES IDX 22 1 21 2 20 3 19 4 18 5 17 6 15 7 16 8 14 9 11 10 12 11
REMARK SMILES IDX 87 12 13 13 86 14 8 15 9 16 10 17 7 18 5 19 6 20 90 21 89 22
REMARK SMILES IDX 88 23 3 24 1 25 2 26 4 28 91 29 92 30 23 31 24 32 25 33
REMARK SMILES IDX 26 34 27 35 28 36 29 37 30 38 31 39 32 40 33 41 85 42 34 43
REMARK SMILES IDX 84 44 35 45 36 46 37 47 78 48 38 49 83 50 77 51 79 52 39 53
REMARK SMILES IDX 82 54 76 55 75 56 40 58 66 59 49 60 65 61 50 62 53 63 64 64
REMARK SMILES IDX 80 65 51 66 52 67 63 69 81 70 54 71 41 72 42 73 47 74 43 75
REMARK SMILES IDX 44 76 46 77 48 78 45 79 67 80 68 81 73 82 69 83 70 84 72 85
REMARK SMILES IDX 74 86 71 87 55 88 56 89 61 90 57 91 58 92 60 93 62 94 59 95
REMARK H PARENT 2 27 79 57 53 68
REMARK Flexibility Score: inf
ROOT
ATOM      1  C   UNL     1      -1.844  -6.651  -7.791  1.00  0.00     0.188 C 
ENDROOT
BRANCH   1   2
ATOM      2  C   UNL     1      -3.076  -7.404  -7.268  1.00  0.00     0.188 C 
BRANCH   2   3
ATOM      3  O   UNL     1      -3.925  -8.086  -8.180  1.00  0.00    -0.376 OA
BRANCH   3   4
ATOM      4  C   UNL     1      -4.504  -7.390  -9.281  1.00  0.00     0.202 C 
BRANCH   4   5
ATOM      5  C   UNL     1      -5.178  -6.028  -9.066  1.00  0.00     0.261 C 
BRANCH   5   6
ATOM      6  O   UNL     1      -4.274  -4.960  -8.714  1.00  0.00    -0.463 OA
BRANCH   6   7
ATOM      7  C   UNL     1      -4.493  -4.385  -7.513  1.00  0.00     0.309 C 
ATOM      8  O   UNL     1      -5.380  -4.719  -6.731  1.00  0.00    -0.252 OA
BRANCH   7   9
ATOM      9  C   UNL     1      -3.549  -3.259  -7.159  1.00  0.00     0.102 C 
ATOM     10  N   UNL     1      -2.140  -0.790  -6.820  1.00  0.00    -0.198 NA
ATOM     11  C   UNL     1      -1.407  -2.012  -7.235  1.00  0.00     0.103 C 
ATOM     12  C   UNL     1      -3.559  -0.882  -6.399  1.00  0.00     0.103 C 
ATOM     13  C   UNL     1      -2.298  -3.000  -7.989  1.00  0.00     0.032 C 
ATOM     14  C   UNL     1      -4.335  -1.954  -7.141  1.00  0.00     0.032 C 
BRANCH  10  15
ATOM     15  S   UNL     1      -1.217   0.425  -6.048  1.00  0.00     0.243 S 
ATOM     16  O   UNL     1      -2.005   1.638  -6.087  1.00  0.00    -0.207 OA
ATOM     17  O   UNL     1       0.128   0.375  -6.580  1.00  0.00    -0.207 OA
BRANCH  15  18
ATOM     18  C   UNL     1      -1.079  -0.008  -4.317  1.00  0.00     0.083 A 
ATOM     19  C   UNL     1      -0.486   0.743  -2.082  1.00  0.00     0.083 A 
ATOM     20  C   UNL     1      -0.579   0.982  -3.461  1.00  0.00     0.039 A 
ATOM     21  C   UNL     1      -0.977  -0.453  -1.544  1.00  0.00     0.131 A 
ATOM     22  C   UNL     1      -1.427  -1.454  -2.410  1.00  0.00     0.048 A 
ATOM     23  C   UNL     1      -1.469  -1.240  -3.793  1.00  0.00     0.025 A 
BRANCH  19  24
ATOM     24  C   UNL     1       0.154   1.797  -1.272  1.00  0.00     0.254 C 
ATOM     25  C   UNL     1       1.977   0.251  -0.419  1.00  0.00     0.143 C 
ATOM     26  N   UNL     1       1.271   1.508  -0.530  1.00  0.00    -0.355 N 
ATOM     27  H   UNL     1       1.640   2.254  -0.004  1.00  0.00     0.163 HD
ATOM     28  O   UNL     1      -0.305   2.935  -1.296  1.00  0.00    -0.269 OA
ENDBRANCH  19  24
BRANCH  21  29
ATOM     29  O   UNL     1      -1.019  -0.778  -0.215  1.00  0.00    -0.496 OA
ATOM     30  C   UNL     1      -1.658   0.206   0.602  1.00  0.00     0.278 C 
ENDBRANCH  21  29
ENDBRANCH  15  18
ENDBRANCH  10  15
ENDBRANCH   7   9
ENDBRANCH   6   7
ENDBRANCH   5   6
ENDBRANCH   4   5
ENDBRANCH   3   4
ENDBRANCH   2   3
ENDBRANCH   1   2
BRANCH   1  31
ATOM     31  O   UNL     1      -1.940  -6.269  -9.150  1.00  0.00    -0.377 OA
BRANCH  31  32
ATOM     32  C   UNL     1      -1.207  -7.039 -10.102  1.00  0.00     0.188 C 
BRANCH  32  33
ATOM     33  C   UNL     1      -1.077  -8.554  -9.865  1.00  0.00     0.188 C 
BRANCH  33  34
ATOM     34  O   UNL     1      -0.319  -8.869  -8.699  1.00  0.00    -0.376 OA
BRANCH  34  35
ATOM     35  C   UNL     1       1.062  -9.167  -8.889  1.00  0.00     0.202 C 
BRANCH  35  36
ATOM     36  C   UNL     1       1.945  -7.971  -9.281  1.00  0.00     0.261 C 
BRANCH  36  37
ATOM     37  O   UNL     1       1.739  -7.451 -10.608  1.00  0.00    -0.460 OA
BRANCH  37  38
ATOM     38  C   UNL     1       1.819  -8.304 -11.651  1.00  0.00     0.338 C 
ATOM     39  O   UNL     1       2.149  -9.473 -11.629  1.00  0.00    -0.246 OA
BRANCH  38  40
ATOM     40  C   UNL     1       1.246  -7.623 -12.828  1.00  0.00     0.060 A 
ATOM     41  C   UNL     1       0.169  -8.221 -13.495  1.00  0.00     0.016 A 
ATOM     42  C   UNL     1       1.783  -6.417 -13.284  1.00  0.00     0.016 A 
ATOM     43  C   UNL     1      -0.350  -7.630 -14.648  1.00  0.00     0.010 A 
ATOM     44  C   UNL     1       1.275  -5.838 -14.448  1.00  0.00     0.010 A 
ATOM     45  C   UNL     1       0.229  -6.459 -15.152  1.00  0.00    -0.014 A 
BRANCH  45  46
ATOM     46  C   UNL     1      -0.116  -5.981 -16.512  1.00  0.00     0.031 A 
ATOM     47  C   UNL     1       0.753  -6.412 -17.660  1.00  0.00     0.074 A 
ATOM     48  C   UNL     1      -1.169  -5.173 -16.725  1.00  0.00     0.049 A 
ATOM     49  N   UNL     1       0.714  -6.048 -18.915  1.00  0.00    -0.248 NA
ATOM     50  C   UNL     1       1.813  -7.385 -17.346  1.00  0.00     0.031 C 
ATOM     51  C   UNL     1      -2.114  -4.724 -15.705  1.00  0.00     0.029 A 
ATOM     52  N   UNL     1      -1.606  -4.573 -17.880  1.00  0.00    -0.354 N 
ATOM     53  C   UNL     1       1.741  -6.744 -19.540  1.00  0.00     0.074 A 
ATOM     54  C   UNL     1       2.402  -7.532 -18.523  1.00  0.00     0.031 C 
ATOM     55  C   UNL     1      -3.011  -3.901 -16.277  1.00  0.00     0.029 A 
ATOM     56  C   UNL     1      -2.680  -3.738 -17.692  1.00  0.00     0.049 A 
ATOM     57  H   UNL     1      -1.189  -4.727 -18.758  1.00  0.00     0.167 HD
ATOM     58  C   UNL     1       2.098  -6.731 -20.845  1.00  0.00     0.037 A 
ATOM     59  C   UNL     1      -3.300  -2.914 -18.560  1.00  0.00     0.037 A 
ATOM     60  C   UNL     1       1.451  -5.937 -21.853  1.00  0.00     0.049 A 
ATOM     61  C   UNL     1      -2.816  -2.837 -19.985  1.00  0.00     0.074 A 
ATOM     62  C   UNL     1       1.736  -5.861 -23.205  1.00  0.00     0.029 A 
ATOM     63  N   UNL     1       0.395  -5.072 -21.615  1.00  0.00    -0.354 N 
ATOM     64  N   UNL     1      -1.856  -3.512 -20.572  1.00  0.00    -0.248 NA
ATOM     65  C   UNL     1      -3.496  -1.876 -20.867  1.00  0.00     0.031 C 
ATOM     66  C   UNL     1       0.880  -4.914 -23.777  1.00  0.00     0.029 A 
ATOM     67  C   UNL     1       0.034  -4.436 -22.790  1.00  0.00     0.049 A 
ATOM     68  H   UNL     1      -0.035  -4.932 -20.741  1.00  0.00     0.167 HD
ATOM     69  C   UNL     1      -1.835  -3.076 -21.892  1.00  0.00     0.074 A 
ATOM     70  C   UNL     1      -2.884  -2.087 -22.024  1.00  0.00     0.031 C 
ATOM     71  C   UNL     1      -1.019  -3.460 -22.905  1.00  0.00     0.037 A 
BRANCH  58  72
ATOM     72  C   UNL     1       3.262  -7.587 -21.246  1.00  0.00     0.057 A 
ATOM     73  C   UNL     1       3.161  -8.982 -21.320  1.00  0.00     0.134 A 
ATOM     74  C   UNL     1       4.490  -7.006 -21.585  1.00  0.00     0.134 A 
ATOM     75  F   UNL     1       2.016  -9.598 -20.991  1.00  0.00    -0.206 F 
ATOM     76  C   UNL     1       4.247  -9.771 -21.699  1.00  0.00     0.040 A 
ATOM     77  C   UNL     1       5.577  -7.784 -21.987  1.00  0.00     0.040 A 
ATOM     78  F   UNL     1       4.653  -5.676 -21.535  1.00  0.00    -0.206 F 
ATOM     79  C   UNL     1       5.458  -9.172 -22.040  1.00  0.00     0.006 A 
ENDBRANCH  58  72
BRANCH  59  80
ATOM     80  C   UNL     1      -4.430  -2.064 -18.107  1.00  0.00     0.057 A 
ATOM     81  C   UNL     1      -5.733  -2.288 -18.565  1.00  0.00     0.134 A 
ATOM     82  C   UNL     1      -4.228  -0.985 -17.239  1.00  0.00     0.134 A 
ATOM     83  F   UNL     1      -5.985  -3.289 -19.421  1.00  0.00    -0.206 F 
ATOM     84  C   UNL     1      -6.792  -1.459 -18.190  1.00  0.00     0.040 A 
ATOM     85  C   UNL     1      -5.281  -0.162 -16.837  1.00  0.00     0.040 A 
ATOM     86  F   UNL     1      -3.001  -0.714 -16.768  1.00  0.00    -0.206 F 
ATOM     87  C   UNL     1      -6.568  -0.395 -17.319  1.00  0.00     0.006 A 
ENDBRANCH  59  80
BRANCH  71  88
ATOM     88  C   UNL     1      -1.245  -2.835 -24.250  1.00  0.00     0.057 A 
ATOM     89  C   UNL     1      -0.867  -1.516 -24.524  1.00  0.00     0.134 A 
ATOM     90  C   UNL     1      -1.794  -3.583 -25.300  1.00  0.00     0.134 A 
ATOM     91  F   UNL     1      -0.347  -0.743 -23.558  1.00  0.00    -0.206 F 
ATOM     92  C   UNL     1      -1.039  -0.956 -25.791  1.00  0.00     0.040 A 
ATOM     93  C   UNL     1      -1.949  -3.043 -26.577  1.00  0.00     0.040 A 
ATOM     94  F   UNL     1      -2.168  -4.857 -25.106  1.00  0.00    -0.206 F 
ATOM     95  C   UNL     1      -1.574  -1.724 -26.825  1.00  0.00     0.006 A 
ENDBRANCH  71  88
ENDBRANCH  45  46
ENDBRANCH  38  40
ENDBRANCH  37  38
ENDBRANCH  36  37
ENDBRANCH  35  36
ENDBRANCH  34  35
ENDBRANCH  33  34
ENDBRANCH  32  33
ENDBRANCH  31  32
ENDBRANCH   1  31
TORSDOF 24
