REMARK SMILES CCC[NH2+][C@@]1(C(=O)OCCOCCOCCOCCOC(=O)c2ccc(-c3c4nc(c(-c5c(F)cccc5F)c5ccc([nH]5)c(-c5c(F)cccc5F)c5nc(c(-c6c(F)cccc6F)c6ccc3[nH]6)C=C5)C=C4)cc2)CCC[C@@H]1CCOC
REMARK SMILES IDX 13 1 12 2 11 3 10 4 9 5 8 6 6 7 7 8 5 9 77 10 80 11 78 12
REMARK SMILES IDX 79 13 4 14 3 17 2 18 1 19 81 20 82 21 83 22 84 23 14 24
REMARK SMILES IDX 15 25 16 26 17 27 18 28 19 29 20 30 21 31 22 32 23 33 24 34
REMARK SMILES IDX 76 35 25 36 75 37 26 38 27 39 28 40 69 41 29 42 74 43 68 44
REMARK SMILES IDX 70 45 30 46 73 47 67 48 66 49 31 51 57 52 40 53 56 54 41 55
REMARK SMILES IDX 44 56 55 57 71 58 42 59 43 60 54 62 72 63 45 64 32 65 33 66
REMARK SMILES IDX 38 67 34 68 35 69 37 70 39 71 36 72 58 73 59 74 64 75 60 76
REMARK SMILES IDX 61 77 63 78 65 79 62 80 46 81 47 82 52 83 48 84 49 85 51 86
REMARK SMILES IDX 53 87 50 88
REMARK H PARENT 4 15 4 16 70 50 44 61
REMARK Flexibility Score: inf
ROOT
ATOM      1  C   UNL     1       4.264   2.093  -4.112  1.00  0.00     0.188 C 
ENDROOT
BRANCH   1   2
ATOM      2  C   UNL     1       4.832   1.095  -3.103  1.00  0.00     0.188 C 
BRANCH   2   3
ATOM      3  O   UNL     1       5.703   0.087  -3.611  1.00  0.00    -0.376 OA
BRANCH   3   4
ATOM      4  C   UNL     1       5.487  -0.387  -4.934  1.00  0.00     0.202 C 
BRANCH   4   5
ATOM      5  C   UNL     1       4.175  -1.136  -5.215  1.00  0.00     0.261 C 
BRANCH   5   6
ATOM      6  O   UNL     1       2.942  -0.369  -5.165  1.00  0.00    -0.459 OA
BRANCH   6   7
ATOM      7  C   UNL     1       2.143  -0.580  -4.086  1.00  0.00     0.368 C 
ATOM      8  O   UNL     1       2.493  -1.267  -3.123  1.00  0.00    -0.245 OA
BRANCH   7   9
ATOM      9  C   UNL     1       0.662   0.001  -4.172  1.00  0.00     0.197 C 
ATOM     10  C   UNL     1      -0.022  -0.826  -5.299  1.00  0.00     0.081 C 
ATOM     11  C   UNL     1       0.338   1.451  -4.693  1.00  0.00     0.065 C 
ATOM     12  C   UNL     1       0.320  -0.114  -6.603  1.00  0.00     0.008 C 
ATOM     13  C   UNL     1       0.538   1.342  -6.228  1.00  0.00     0.011 C 
BRANCH   9  14
ATOM     14  N   UNL     1       0.004  -0.486  -2.915  1.00  0.00    -0.332 N 
ATOM     15  H   UNL     1      -0.527  -1.319  -3.170  1.00  0.00     0.347 HD
ATOM     16  H   UNL     1       0.791  -0.594  -2.276  1.00  0.00     0.347 HD
BRANCH  14  17
ATOM     17  C   UNL     1      -0.895   0.362  -2.171  1.00  0.00     0.261 C 
BRANCH  17  18
ATOM     18  C   UNL     1      -0.972   0.152  -0.643  1.00  0.00     0.058 C 
ATOM     19  C   UNL     1       0.113  -0.681   0.027  1.00  0.00     0.010 C 
ENDBRANCH  17  18
ENDBRANCH  14  17
ENDBRANCH   9  14
BRANCH  11  20
ATOM     20  C   UNL     1       0.888   2.841  -4.267  1.00  0.00     0.039 C 
BRANCH  20  21
ATOM     21  C   UNL     1       0.843   3.416  -2.849  1.00  0.00     0.160 C 
BRANCH  21  22
ATOM     22  O   UNL     1       2.040   3.211  -2.115  1.00  0.00    -0.385 OA
ATOM     23  C   UNL     1       2.042   2.040  -1.326  1.00  0.00     0.194 C 
ENDBRANCH  21  22
ENDBRANCH  20  21
ENDBRANCH  11  20
ENDBRANCH   7   9
ENDBRANCH   6   7
ENDBRANCH   5   6
ENDBRANCH   4   5
ENDBRANCH   3   4
ENDBRANCH   2   3
ENDBRANCH   1   2
BRANCH   1  24
ATOM     24  O   UNL     1       5.211   2.425  -5.108  1.00  0.00    -0.377 OA
BRANCH  24  25
ATOM     25  C   UNL     1       5.803   3.697  -4.973  1.00  0.00     0.188 C 
BRANCH  25  26
ATOM     26  C   UNL     1       6.337   4.054  -3.579  1.00  0.00     0.188 C 
BRANCH  26  27
ATOM     27  O   UNL     1       5.303   4.177  -2.603  1.00  0.00    -0.376 OA
BRANCH  27  28
ATOM     28  C   UNL     1       4.899   5.489  -2.228  1.00  0.00     0.202 C 
BRANCH  28  29
ATOM     29  C   UNL     1       3.956   6.221  -3.197  1.00  0.00     0.261 C 
BRANCH  29  30
ATOM     30  O   UNL     1       4.440   6.417  -4.534  1.00  0.00    -0.460 OA
BRANCH  30  31
ATOM     31  C   UNL     1       5.597   7.106  -4.697  1.00  0.00     0.338 C 
ATOM     32  O   UNL     1       6.250   7.659  -3.852  1.00  0.00    -0.246 OA
BRANCH  31  33
ATOM     33  C   UNL     1       6.044   6.842  -6.088  1.00  0.00     0.060 A 
ATOM     34  C   UNL     1       7.305   6.263  -6.277  1.00  0.00     0.016 A 
ATOM     35  C   UNL     1       5.200   7.079  -7.177  1.00  0.00     0.016 A 
ATOM     36  C   UNL     1       7.724   5.908  -7.558  1.00  0.00     0.010 A 
ATOM     37  C   UNL     1       5.640   6.770  -8.466  1.00  0.00     0.010 A 
ATOM     38  C   UNL     1       6.912   6.205  -8.660  1.00  0.00    -0.014 A 
BRANCH  38  39
ATOM     39  C   UNL     1       7.511   6.183 -10.013  1.00  0.00     0.031 A 
ATOM     40  C   UNL     1       8.181   7.442 -10.485  1.00  0.00     0.074 A 
ATOM     41  C   UNL     1       7.485   5.085 -10.787  1.00  0.00     0.049 A 
ATOM     42  N   UNL     1       8.763   7.701 -11.625  1.00  0.00    -0.248 NA
ATOM     43  C   UNL     1       8.193   8.566  -9.531  1.00  0.00     0.031 C 
ATOM     44  C   UNL     1       6.901   3.798 -10.416  1.00  0.00     0.029 A 
ATOM     45  N   UNL     1       7.961   4.888 -12.058  1.00  0.00    -0.354 N 
ATOM     46  C   UNL     1       9.211   9.012 -11.524  1.00  0.00     0.074 A 
ATOM     47  C   UNL     1       8.809   9.507 -10.227  1.00  0.00     0.031 C 
ATOM     48  C   UNL     1       7.035   2.947 -11.450  1.00  0.00     0.029 A 
ATOM     49  C   UNL     1       7.689   3.639 -12.560  1.00  0.00     0.049 A 
ATOM     50  H   UNL     1       8.451   5.576 -12.563  1.00  0.00     0.167 HD
ATOM     51  C   UNL     1       9.900   9.739 -12.432  1.00  0.00     0.037 A 
ATOM     52  C   UNL     1       7.925   3.130 -13.786  1.00  0.00     0.037 A 
ATOM     53  C   UNL     1      10.274   9.248 -13.729  1.00  0.00     0.049 A 
ATOM     54  C   UNL     1       8.623   3.986 -14.813  1.00  0.00     0.074 A 
ATOM     55  C   UNL     1      10.978   9.896 -14.727  1.00  0.00     0.029 A 
ATOM     56  N   UNL     1       9.954   7.988 -14.213  1.00  0.00    -0.354 N 
ATOM     57  N   UNL     1       9.076   5.213 -14.700  1.00  0.00    -0.248 NA
ATOM     58  C   UNL     1       8.846   3.387 -16.137  1.00  0.00     0.031 C 
ATOM     59  C   UNL     1      11.036   9.048 -15.837  1.00  0.00     0.029 A 
ATOM     60  C   UNL     1      10.420   7.849 -15.508  1.00  0.00     0.049 A 
ATOM     61  H   UNL     1       9.468   7.296 -13.710  1.00  0.00     0.167 HD
ATOM     62  C   UNL     1       9.661   5.520 -15.923  1.00  0.00     0.074 A 
ATOM     63  C   UNL     1       9.515   4.347 -16.760  1.00  0.00     0.031 C 
ATOM     64  C   UNL     1      10.267   6.667 -16.319  1.00  0.00     0.037 A 
BRANCH  51  65
ATOM     65  C   UNL     1      10.245  11.150 -12.059  1.00  0.00     0.057 A 
ATOM     66  C   UNL     1      11.200  11.448 -11.077  1.00  0.00     0.134 A 
ATOM     67  C   UNL     1       9.607  12.227 -12.688  1.00  0.00     0.134 A 
ATOM     68  F   UNL     1      11.829  10.462 -10.419  1.00  0.00    -0.206 F 
ATOM     69  C   UNL     1      11.487  12.765 -10.715  1.00  0.00     0.040 A 
ATOM     70  C   UNL     1       9.907  13.548 -12.354  1.00  0.00     0.040 A 
ATOM     71  F   UNL     1       8.680  12.012 -13.633  1.00  0.00    -0.206 F 
ATOM     72  C   UNL     1      10.844  13.820 -11.359  1.00  0.00     0.006 A 
ENDBRANCH  51  65
BRANCH  52  73
ATOM     73  C   UNL     1       7.479   1.752 -14.122  1.00  0.00     0.057 A 
ATOM     74  C   UNL     1       8.398   0.725 -14.363  1.00  0.00     0.134 A 
ATOM     75  C   UNL     1       6.119   1.436 -14.234  1.00  0.00     0.134 A 
ATOM     76  F   UNL     1       9.716   0.968 -14.298  1.00  0.00    -0.206 F 
ATOM     77  C   UNL     1       7.984  -0.561 -14.719  1.00  0.00     0.040 A 
ATOM     78  C   UNL     1       5.689   0.149 -14.564  1.00  0.00     0.040 A 
ATOM     79  F   UNL     1       5.186   2.375 -14.019  1.00  0.00    -0.206 F 
ATOM     80  C   UNL     1       6.624  -0.853 -14.815  1.00  0.00     0.006 A 
ENDBRANCH  52  73
BRANCH  64  81
ATOM     81  C   UNL     1      10.850   6.699 -17.702  1.00  0.00     0.057 A 
ATOM     82  C   UNL     1      10.044   6.759 -18.846  1.00  0.00     0.134 A 
ATOM     83  C   UNL     1      12.239   6.730 -17.886  1.00  0.00     0.134 A 
ATOM     84  F   UNL     1       8.708   6.724 -18.739  1.00  0.00    -0.206 F 
ATOM     85  C   UNL     1      10.600   6.827 -20.125  1.00  0.00     0.040 A 
ATOM     86  C   UNL     1      12.805   6.827 -19.157  1.00  0.00     0.040 A 
ATOM     87  F   UNL     1      13.067   6.689 -16.831  1.00  0.00    -0.206 F 
ATOM     88  C   UNL     1      11.984   6.870 -20.282  1.00  0.00     0.006 A 
ENDBRANCH  64  81
ENDBRANCH  38  39
ENDBRANCH  31  33
ENDBRANCH  30  31
ENDBRANCH  29  30
ENDBRANCH  28  29
ENDBRANCH  27  28
ENDBRANCH  26  27
ENDBRANCH  25  26
ENDBRANCH  24  25
ENDBRANCH   1  24
TORSDOF 26
