REMARK SMILES CCC1(CC)C[NH+]([C@H](C)CCC(=O)OCCOCCOCCOCCOC(=O)c2ccc(-c3c4nc(c(-c5c(F)cccc5F)c5ccc([nH]5)c(-c5c(F)cccc5F)c5nc(c(-c6c(F)cccc6F)c6ccc3[nH]6)C=C5)C=C4)cc2)C1
REMARK SMILES IDX 19 1 18 2 17 3 16 4 15 5 14 6 12 7 13 8 11 9 10 10 8 11 9 12
REMARK SMILES IDX 7 13 3 14 6 15 83 16 2 18 1 19 4 20 5 21 20 22 21 23 22 24
REMARK SMILES IDX 23 25 24 26 25 27 26 28 27 29 28 30 29 31 30 32 82 33 31 34
REMARK SMILES IDX 81 35 32 36 33 37 34 38 75 39 35 40 80 41 74 42 76 43 36 44
REMARK SMILES IDX 79 45 73 46 72 47 37 49 63 50 46 51 62 52 47 53 50 54 61 55
REMARK SMILES IDX 77 56 48 57 49 58 60 60 78 61 51 62 38 63 39 64 44 65 40 66
REMARK SMILES IDX 41 67 43 68 45 69 42 70 64 71 65 72 70 73 66 74 67 75 69 76
REMARK SMILES IDX 71 77 68 78 52 79 53 80 58 81 54 82 55 83 57 84 59 85 56 86
REMARK H PARENT 7 17 76 48 50 59
REMARK Flexibility Score: inf
ROOT
ATOM      1  C   UNL     1       2.475   0.904   8.236  1.00  0.00     0.188 C 
ENDROOT
BRANCH   1   2
ATOM      2  C   UNL     1       1.565   1.569   9.273  1.00  0.00     0.188 C 
BRANCH   2   3
ATOM      3  O   UNL     1       0.920   0.741  10.216  1.00  0.00    -0.376 OA
BRANCH   3   4
ATOM      4  C   UNL     1      -0.152  -0.109   9.839  1.00  0.00     0.202 C 
BRANCH   4   5
ATOM      5  C   UNL     1      -0.899  -0.090   8.488  1.00  0.00     0.261 C 
BRANCH   5   6
ATOM      6  O   UNL     1      -0.210   0.434   7.345  1.00  0.00    -0.463 OA
BRANCH   6   7
ATOM      7  C   UNL     1      -0.722   1.544   6.779  1.00  0.00     0.306 C 
ATOM      8  O   UNL     1      -1.721   2.127   7.191  1.00  0.00    -0.252 OA
BRANCH   7   9
ATOM      9  C   UNL     1       0.079   2.103   5.620  1.00  0.00     0.129 C 
BRANCH   9  10
ATOM     10  C   UNL     1       1.228   1.361   4.924  1.00  0.00     0.076 C 
BRANCH  10  11
ATOM     11  C   UNL     1       1.054  -0.131   4.562  1.00  0.00     0.181 C 
ATOM     12  C   UNL     1      -0.147  -0.292   3.616  1.00  0.00     0.075 C 
BRANCH  11  13
ATOM     13  N   UNL     1       2.369  -0.673   4.152  1.00  0.00    -0.331 N 
ATOM     14  C   UNL     1       3.252  -1.512   2.401  1.00  0.00     0.068 C 
ATOM     15  C   UNL     1       2.951  -0.085   2.951  1.00  0.00     0.275 C 
ATOM     16  C   UNL     1       2.337  -2.016   3.566  1.00  0.00     0.275 C 
ATOM     17  H   UNL     1       2.849  -0.534   5.041  1.00  0.00     0.348 HD
BRANCH  14  18
ATOM     18  C   UNL     1       2.680  -1.665   0.979  1.00  0.00     0.015 C 
ATOM     19  C   UNL     1       3.442  -0.822  -0.039  1.00  0.00     0.005 C 
ENDBRANCH  14  18
BRANCH  14  20
ATOM     20  C   UNL     1       4.708  -1.998   2.561  1.00  0.00     0.015 C 
ATOM     21  C   UNL     1       4.867  -3.474   2.206  1.00  0.00     0.005 C 
ENDBRANCH  14  20
ENDBRANCH  11  13
ENDBRANCH  10  11
ENDBRANCH   9  10
ENDBRANCH   7   9
ENDBRANCH   6   7
ENDBRANCH   5   6
ENDBRANCH   4   5
ENDBRANCH   3   4
ENDBRANCH   2   3
ENDBRANCH   1   2
BRANCH   1  22
ATOM     22  O   UNL     1       2.167  -0.433   7.902  1.00  0.00    -0.377 OA
BRANCH  22  23
ATOM     23  C   UNL     1       2.639  -1.488   8.727  1.00  0.00     0.188 C 
BRANCH  23  24
ATOM     24  C   UNL     1       3.294  -1.204  10.094  1.00  0.00     0.188 C 
BRANCH  24  25
ATOM     25  O   UNL     1       4.071  -0.020  10.161  1.00  0.00    -0.376 OA
BRANCH  25  26
ATOM     26  C   UNL     1       5.475  -0.113   9.970  1.00  0.00     0.202 C 
BRANCH  26  27
ATOM     27  C   UNL     1       5.983  -0.598   8.602  1.00  0.00     0.261 C 
BRANCH  27  28
ATOM     28  O   UNL     1       5.568  -1.911   8.198  1.00  0.00    -0.460 OA
BRANCH  28  29
ATOM     29  C   UNL     1       5.879  -2.949   8.998  1.00  0.00     0.338 C 
ATOM     30  O   UNL     1       6.526  -2.923  10.034  1.00  0.00    -0.246 OA
BRANCH  29  31
ATOM     31  C   UNL     1       5.152  -4.130   8.498  1.00  0.00     0.060 A 
ATOM     32  C   UNL     1       4.212  -4.757   9.327  1.00  0.00     0.016 A 
ATOM     33  C   UNL     1       5.411  -4.622   7.217  1.00  0.00     0.016 A 
ATOM     34  C   UNL     1       3.561  -5.913   8.894  1.00  0.00     0.010 A 
ATOM     35  C   UNL     1       4.776  -5.790   6.794  1.00  0.00     0.010 A 
ATOM     36  C   UNL     1       3.882  -6.463   7.646  1.00  0.00    -0.014 A 
BRANCH  36  37
ATOM     37  C   UNL     1       3.483  -7.853   7.321  1.00  0.00     0.031 A 
ATOM     38  C   UNL     1       4.496  -8.942   7.543  1.00  0.00     0.074 A 
ATOM     39  C   UNL     1       2.266  -8.147   6.834  1.00  0.00     0.049 A 
ATOM     40  N   UNL     1       4.446 -10.207   7.219  1.00  0.00    -0.248 NA
ATOM     41  C   UNL     1       5.743  -8.541   8.217  1.00  0.00     0.031 C 
ATOM     42  C   UNL     1       1.179  -7.192   6.632  1.00  0.00     0.029 A 
ATOM     43  N   UNL     1       1.751  -9.344   6.402  1.00  0.00    -0.354 N 
ATOM     44  C   UNL     1       5.657 -10.748   7.632  1.00  0.00     0.074 A 
ATOM     45  C   UNL     1       6.433  -9.671   8.205  1.00  0.00     0.031 C 
ATOM     46  C   UNL     1       0.130  -7.838   6.093  1.00  0.00     0.029 A 
ATOM     47  C   UNL     1       0.488  -9.238   5.872  1.00  0.00     0.049 A 
ATOM     48  H   UNL     1       2.240 -10.196   6.466  1.00  0.00     0.167 HD
ATOM     49  C   UNL     1       6.084 -12.029   7.543  1.00  0.00     0.037 A 
ATOM     50  C   UNL     1      -0.271 -10.162   5.249  1.00  0.00     0.037 A 
ATOM     51  C   UNL     1       5.311 -13.095   6.966  1.00  0.00     0.049 A 
ATOM     52  C   UNL     1       0.261 -11.563   5.079  1.00  0.00     0.074 A 
ATOM     53  C   UNL     1       5.648 -14.430   6.830  1.00  0.00     0.029 A 
ATOM     54  N   UNL     1       4.045 -12.943   6.420  1.00  0.00    -0.354 N 
ATOM     55  N   UNL     1       1.404 -12.071   5.475  1.00  0.00    -0.248 NA
ATOM     56  C   UNL     1      -0.604 -12.521   4.374  1.00  0.00     0.031 C 
ATOM     57  C   UNL     1       4.612 -15.073   6.148  1.00  0.00     0.029 A 
ATOM     58  C   UNL     1       3.598 -14.155   5.924  1.00  0.00     0.049 A 
ATOM     59  H   UNL     1       3.540 -12.098   6.390  1.00  0.00     0.167 HD
ATOM     60  C   UNL     1       1.376 -13.412   5.108  1.00  0.00     0.074 A 
ATOM     61  C   UNL     1       0.104 -13.640   4.457  1.00  0.00     0.031 C 
ATOM     62  C   UNL     1       2.316 -14.371   5.301  1.00  0.00     0.037 A 
BRANCH  49  63
ATOM     63  C   UNL     1       7.465 -12.335   8.047  1.00  0.00     0.057 A 
ATOM     64  C   UNL     1       7.787 -12.300   9.410  1.00  0.00     0.134 A 
ATOM     65  C   UNL     1       8.485 -12.686   7.153  1.00  0.00     0.134 A 
ATOM     66  F   UNL     1       6.861 -11.954  10.319  1.00  0.00    -0.206 F 
ATOM     67  C   UNL     1       9.078 -12.576   9.864  1.00  0.00     0.040 A 
ATOM     68  C   UNL     1       9.772 -12.995   7.597  1.00  0.00     0.040 A 
ATOM     69  F   UNL     1       8.247 -12.742   5.834  1.00  0.00    -0.206 F 
ATOM     70  C   UNL     1      10.073 -12.932   8.956  1.00  0.00     0.006 A 
ENDBRANCH  49  63
BRANCH  50  71
ATOM     71  C   UNL     1      -1.609  -9.794   4.718  1.00  0.00     0.057 A 
ATOM     72  C   UNL     1      -2.780 -10.334   5.264  1.00  0.00     0.134 A 
ATOM     73  C   UNL     1      -1.750  -8.918   3.634  1.00  0.00     0.134 A 
ATOM     74  F   UNL     1      -2.711 -11.198   6.287  1.00  0.00    -0.206 F 
ATOM     75  C   UNL     1      -4.039 -10.034   4.740  1.00  0.00     0.040 A 
ATOM     76  C   UNL     1      -3.005  -8.587   3.119  1.00  0.00     0.040 A 
ATOM     77  F   UNL     1      -0.670  -8.366   3.063  1.00  0.00    -0.206 F 
ATOM     78  C   UNL     1      -4.154  -9.153   3.667  1.00  0.00     0.006 A 
ENDBRANCH  50  71
BRANCH  62  79
ATOM     79  C   UNL     1       1.985 -15.772   4.872  1.00  0.00     0.057 A 
ATOM     80  C   UNL     1       1.925 -16.149   3.525  1.00  0.00     0.134 A 
ATOM     81  C   UNL     1       1.793 -16.775   5.832  1.00  0.00     0.134 A 
ATOM     82  F   UNL     1       2.089 -15.237   2.555  1.00  0.00    -0.206 F 
ATOM     83  C   UNL     1       1.669 -17.470   3.149  1.00  0.00     0.040 A 
ATOM     84  C   UNL     1       1.567 -18.103   5.469  1.00  0.00     0.040 A 
ATOM     85  F   UNL     1       1.849 -16.485   7.141  1.00  0.00    -0.206 F 
ATOM     86  C   UNL     1       1.500 -18.453   4.123  1.00  0.00     0.006 A 
ENDBRANCH  62  79
ENDBRANCH  36  37
ENDBRANCH  29  31
ENDBRANCH  28  29
ENDBRANCH  27  28
ENDBRANCH  26  27
ENDBRANCH  25  26
ENDBRANCH  24  25
ENDBRANCH  23  24
ENDBRANCH  22  23
ENDBRANCH   1  22
TORSDOF 25
