REMARK SMILES Cc1cccc(S(=O)(=O)Nc2cc(C(=O)OCCOCCOCCOCCOC(=O)c3ccc(-c4c5nc(c(-c6c(F)cccc6F)c6ccc([nH]6)c(-c6c(F)cccc6F)c6nc(c(-c7c(F)cccc7F)c7ccc4[nH]7)C=C6)C=C5)cc3)ccc2N2CCC[C@H](C[NH+]3CCCC3)C2)c1
REMARK SMILES IDX 21 1 20 2 19 3 18 4 17 5 16 6 14 7 15 8 13 9 11 10 12 11
REMARK SMILES IDX 87 12 86 13 85 14 10 15 7 17 8 18 9 19 6 20 1 21 2 22 3 23
REMARK SMILES IDX 100 24 4 25 5 26 88 27 89 28 99 29 90 30 92 31 91 32 93 33
REMARK SMILES IDX 94 34 95 35 98 36 96 38 97 39 22 40 23 41 24 42 25 43 26 44
REMARK SMILES IDX 27 45 28 46 29 47 30 48 31 49 32 50 84 51 33 52 83 53 34 54
REMARK SMILES IDX 35 55 36 56 77 57 37 58 82 59 76 60 78 61 38 62 81 63 75 64
REMARK SMILES IDX 74 65 39 67 65 68 48 69 64 70 49 71 52 72 63 73 79 74 50 75
REMARK SMILES IDX 51 76 62 78 80 79 53 80 40 81 41 82 46 83 42 84 43 85 45 86
REMARK SMILES IDX 47 87 44 88 66 89 67 90 72 91 68 92 69 93 71 94 73 95 70 96
REMARK SMILES IDX 54 97 55 98 60 99 56 100 57 101 59 102 61 103 58 104
REMARK H PARENT 10 16 94 37 78 66 52 77
REMARK Flexibility Score: inf
ROOT
ATOM      1  C   UNL     1       4.847   3.604  -3.256  1.00  0.00     0.188 C 
ENDROOT
BRANCH   1   2
ATOM      2  C   UNL     1       5.839   2.663  -4.231  1.00  0.00     0.188 C 
BRANCH   2   3
ATOM      3  O   UNL     1       6.194   0.948  -4.300  1.00  0.00    -0.376 OA
BRANCH   3   4
ATOM      4  C   UNL     1       5.362  -0.558  -3.922  1.00  0.00     0.202 C 
BRANCH   4   5
ATOM      5  C   UNL     1       4.056  -0.930  -2.600  1.00  0.00     0.261 C 
BRANCH   5   6
ATOM      6  O   UNL     1       3.616   0.134  -1.179  1.00  0.00    -0.460 OA
BRANCH   6   7
ATOM      7  C   UNL     1       3.976   1.295  -0.294  1.00  0.00     0.338 C 
ATOM      8  O   UNL     1       5.119   1.551   0.109  1.00  0.00    -0.246 OA
BRANCH   7   9
ATOM      9  C   UNL     1       3.022   2.492   0.242  1.00  0.00     0.062 A 
ATOM     10  C   UNL     1       1.020   4.017   0.367  1.00  0.00     0.073 A 
ATOM     11  C   UNL     1       1.833   3.071  -0.270  1.00  0.00     0.044 A 
ATOM     12  C   UNL     1       1.573   4.761   1.396  1.00  0.00     0.061 A 
ATOM     13  C   UNL     1       2.883   4.432   1.767  1.00  0.00     0.029 A 
ATOM     14  C   UNL     1       3.546   3.280   1.277  1.00  0.00     0.018 A 
BRANCH  10  15
ATOM     15  N   UNL     1      -0.294   4.343  -0.178  1.00  0.00    -0.277 N 
ATOM     16  H   UNL     1      -0.343   5.027  -0.885  1.00  0.00     0.180 HD
BRANCH  15  17
ATOM     17  S   UNL     1      -1.767   3.607   0.339  1.00  0.00     0.261 S 
ATOM     18  O   UNL     1      -2.579   3.482  -0.857  1.00  0.00    -0.201 OA
ATOM     19  O   UNL     1      -2.276   4.388   1.448  1.00  0.00    -0.201 OA
BRANCH  17  20
ATOM     20  C   UNL     1      -1.529   1.971   0.967  1.00  0.00     0.088 A 
ATOM     21  C   UNL     1       1.234   0.144   2.654  1.00  0.00     0.044 C 
ATOM     22  C   UNL     1      -0.123   0.388   2.097  1.00  0.00    -0.050 A 
ATOM     23  C   UNL     1      -0.957  -0.659   1.700  1.00  0.00     0.003 A 
ATOM     24  C   UNL     1      -0.453   1.702   1.788  1.00  0.00     0.025 A 
ATOM     25  C   UNL     1      -2.130  -0.380   1.003  1.00  0.00     0.002 A 
ATOM     26  C   UNL     1      -2.409   0.935   0.616  1.00  0.00     0.022 A 
ENDBRANCH  17  20
ENDBRANCH  15  17
ENDBRANCH  10  15
BRANCH  12  27
ATOM     27  N   UNL     1       0.859   5.808   1.943  1.00  0.00    -0.369 N 
ATOM     28  C   UNL     1       1.322   7.182   1.810  1.00  0.00     0.116 C 
ATOM     29  C   UNL     1      -0.097   5.509   3.008  1.00  0.00     0.126 C 
ATOM     30  C   UNL     1       1.822   7.708   3.151  1.00  0.00     0.022 C 
ATOM     31  C   UNL     1       0.450   5.932   4.377  1.00  0.00     0.064 C 
ATOM     32  C   UNL     1       0.822   7.422   4.276  1.00  0.00     0.013 C 
BRANCH  31  33
ATOM     33  C   UNL     1       1.581   4.966   4.813  1.00  0.00     0.267 C 
BRANCH  33  34
ATOM     34  N   UNL     1       2.066   4.925   6.190  1.00  0.00    -0.335 N 
ATOM     35  C   UNL     1       1.052   4.615   7.188  1.00  0.00     0.262 C 
ATOM     36  C   UNL     1       2.790   6.110   6.638  1.00  0.00     0.262 C 
ATOM     37  H   UNL     1       2.726   4.150   6.128  1.00  0.00     0.348 HD
ATOM     38  C   UNL     1       0.643   5.958   7.754  1.00  0.00     0.067 C 
ATOM     39  C   UNL     1       1.910   6.793   7.676  1.00  0.00     0.067 C 
ENDBRANCH  33  34
ENDBRANCH  31  33
ENDBRANCH  12  27
ENDBRANCH   7   9
ENDBRANCH   6   7
ENDBRANCH   5   6
ENDBRANCH   4   5
ENDBRANCH   3   4
ENDBRANCH   2   3
ENDBRANCH   1   2
BRANCH   1  40
ATOM     40  O   UNL     1       3.431   3.677  -3.478  1.00  0.00    -0.377 OA
BRANCH  40  41
ATOM     41  C   UNL     1       2.859   4.473  -4.496  1.00  0.00     0.188 C 
BRANCH  41  42
ATOM     42  C   UNL     1       3.683   4.631  -5.741  1.00  0.00     0.188 C 
BRANCH  42  43
ATOM     43  O   UNL     1       4.662   5.632  -5.566  1.00  0.00    -0.376 OA
BRANCH  43  44
ATOM     44  C   UNL     1       5.120   6.280  -6.752  1.00  0.00     0.202 C 
BRANCH  44  45
ATOM     45  C   UNL     1       4.572   5.831  -8.128  1.00  0.00     0.261 C 
BRANCH  45  46
ATOM     46  O   UNL     1       4.903   4.444  -8.374  1.00  0.00    -0.460 OA
BRANCH  46  47
ATOM     47  C   UNL     1       3.907   3.646  -8.866  1.00  0.00     0.338 C 
ATOM     48  O   UNL     1       2.940   4.018  -9.519  1.00  0.00    -0.246 OA
BRANCH  47  49
ATOM     49  C   UNL     1       3.959   2.363  -8.114  1.00  0.00     0.060 A 
ATOM     50  C   UNL     1       2.806   1.842  -7.554  1.00  0.00     0.016 A 
ATOM     51  C   UNL     1       5.131   1.858  -7.625  1.00  0.00     0.016 A 
ATOM     52  C   UNL     1       2.854   1.225  -6.268  1.00  0.00     0.010 A 
ATOM     53  C   UNL     1       5.104   1.192  -6.374  1.00  0.00     0.010 A 
ATOM     54  C   UNL     1       3.990   1.181  -5.436  1.00  0.00    -0.014 A 
BRANCH  54  55
ATOM     55  C   UNL     1       3.925   1.216  -3.578  1.00  0.00     0.031 A 
ATOM     56  C   UNL     1       5.488   1.017  -2.343  1.00  0.00     0.074 A 
ATOM     57  C   UNL     1       2.523   1.188  -3.236  1.00  0.00     0.049 A 
ATOM     58  N   UNL     1       5.696  -0.091  -1.565  1.00  0.00    -0.248 NA
ATOM     59  C   UNL     1       7.058   1.472  -2.277  1.00  0.00     0.031 C 
ATOM     60  C   UNL     1       1.730   1.073  -1.994  1.00  0.00     0.029 A 
ATOM     61  N   UNL     1       1.391   1.132  -4.082  1.00  0.00    -0.354 N 
ATOM     62  C   UNL     1       6.861  -0.299  -0.905  1.00  0.00     0.074 A 
ATOM     63  C   UNL     1       7.750   0.579  -1.548  1.00  0.00     0.031 C 
ATOM     64  C   UNL     1       0.408   1.029  -2.100  1.00  0.00     0.029 A 
ATOM     65  C   UNL     1       0.246   0.643  -3.421  1.00  0.00     0.049 A 
ATOM     66  H   UNL     1       1.402   1.404  -5.029  1.00  0.00     0.167 HD
ATOM     67  C   UNL     1       6.966  -1.161   0.148  1.00  0.00     0.037 A 
ATOM     68  C   UNL     1      -0.240  -0.612  -3.587  1.00  0.00     0.037 A 
ATOM     69  C   UNL     1       5.664  -1.562   0.704  1.00  0.00     0.049 A 
ATOM     70  C   UNL     1       0.250  -1.694  -2.549  1.00  0.00     0.074 A 
ATOM     71  C   UNL     1       4.983  -1.137   1.827  1.00  0.00     0.029 A 
ATOM     72  N   UNL     1       4.742  -2.353   0.009  1.00  0.00    -0.354 N 
ATOM     73  N   UNL     1       1.310  -1.649  -1.743  1.00  0.00    -0.248 NA
ATOM     74  C   UNL     1      -0.523  -2.905  -2.309  1.00  0.00     0.031 C 
ATOM     75  C   UNL     1       3.689  -1.705   1.796  1.00  0.00     0.029 A 
ATOM     76  C   UNL     1       3.445  -2.276   0.549  1.00  0.00     0.049 A 
ATOM     77  H   UNL     1       4.976  -2.903  -0.773  1.00  0.00     0.167 HD
ATOM     78  C   UNL     1       1.379  -2.770  -0.916  1.00  0.00     0.074 A 
ATOM     79  C   UNL     1       0.196  -3.522  -1.353  1.00  0.00     0.031 C 
ATOM     80  C   UNL     1       2.300  -3.104   0.079  1.00  0.00     0.037 A 
BRANCH  67  81
ATOM     81  C   UNL     1       8.302  -1.252   0.865  1.00  0.00     0.057 A 
ATOM     82  C   UNL     1       8.435  -1.114   2.256  1.00  0.00     0.134 A 
ATOM     83  C   UNL     1       9.524  -1.381   0.172  1.00  0.00     0.134 A 
ATOM     84  F   UNL     1       7.378  -1.133   3.074  1.00  0.00    -0.206 F 
ATOM     85  C   UNL     1       9.676  -0.938   2.886  1.00  0.00     0.040 A 
ATOM     86  C   UNL     1      10.772  -1.175   0.784  1.00  0.00     0.040 A 
ATOM     87  F   UNL     1       9.541  -1.687  -1.136  1.00  0.00    -0.206 F 
ATOM     88  C   UNL     1      10.848  -0.918   2.145  1.00  0.00     0.006 A 
ENDBRANCH  67  81
BRANCH  68  89
ATOM     89  C   UNL     1      -0.851  -0.597  -4.947  1.00  0.00     0.057 A 
ATOM     90  C   UNL     1      -1.669   0.538  -5.251  1.00  0.00     0.134 A 
ATOM     91  C   UNL     1      -0.179  -1.178  -6.014  1.00  0.00     0.134 A 
ATOM     92  F   UNL     1      -2.357   1.155  -4.272  1.00  0.00    -0.206 F 
ATOM     93  C   UNL     1      -1.575   1.215  -6.470  1.00  0.00     0.040 A 
ATOM     94  C   UNL     1      -0.143  -0.544  -7.267  1.00  0.00     0.040 A 
ATOM     95  F   UNL     1       0.600  -2.248  -5.814  1.00  0.00    -0.206 F 
ATOM     96  C   UNL     1      -0.779   0.686  -7.474  1.00  0.00     0.006 A 
ENDBRANCH  68  89
BRANCH  80  97
ATOM     97  C   UNL     1       2.156  -4.373   0.912  1.00  0.00     0.057 A 
ATOM     98  C   UNL     1       0.959  -4.806   1.494  1.00  0.00     0.134 A 
ATOM     99  C   UNL     1       3.311  -5.093   1.298  1.00  0.00     0.134 A 
ATOM    100  F   UNL     1      -0.182  -4.122   1.331  1.00  0.00    -0.206 F 
ATOM    101  C   UNL     1       0.897  -5.949   2.303  1.00  0.00     0.040 A 
ATOM    102  C   UNL     1       3.274  -6.175   2.178  1.00  0.00     0.040 A 
ATOM    103  F   UNL     1       4.529  -4.769   0.841  1.00  0.00    -0.206 F 
ATOM    104  C   UNL     1       2.058  -6.632   2.654  1.00  0.00     0.006 A 
ENDBRANCH  80  97
ENDBRANCH  54  55
ENDBRANCH  47  49
ENDBRANCH  46  47
ENDBRANCH  45  46
ENDBRANCH  44  45
ENDBRANCH  43  44
ENDBRANCH  42  43
ENDBRANCH  41  42
ENDBRANCH  40  41
ENDBRANCH   1  40
TORSDOF 26
