REMARK SMILES NS(=O)(=O)c1ccc(C#Cc2cc(Cl)cc3c2O[C@H](C(F)(F)F)C(C(=O)OCCOCCOCCOCCOC(=O)c2ccc(-c4c5nc(c(-c6c(F)cccc6F)c6ccc([nH]6)c(-c6c(F)cccc6F)c6nc(c(-c7c(F)cccc7F)c7ccc4[nH]7)C=C6)C=C5)cc2)=C3)cc1
REMARK SMILES IDX 32 1 31 2 30 3 29 4 28 5 27 6 25 7 26 8 24 9 11 10 12 11
REMARK SMILES IDX 17 12 13 13 16 14 18 15 14 16 15 17 96 18 19 19 10 20 9 21
REMARK SMILES IDX 8 22 5 23 6 24 98 25 7 26 97 27 2 28 3 29 4 30 1 31 20 34
REMARK SMILES IDX 21 35 22 36 23 37 33 38 34 39 35 40 36 41 37 42 38 43 39 44
REMARK SMILES IDX 40 45 41 46 42 47 43 48 95 49 44 50 94 51 45 52 46 53 47 54
REMARK SMILES IDX 88 55 48 56 93 57 87 58 89 59 49 60 92 61 86 62 85 63 50 65
REMARK SMILES IDX 76 66 59 67 75 68 60 69 63 70 74 71 90 72 61 73 62 74 73 76
REMARK SMILES IDX 91 77 64 78 51 79 52 80 57 81 53 82 54 83 56 84 58 85 55 86
REMARK SMILES IDX 77 87 78 88 83 89 79 90 80 91 82 92 84 93 81 94 65 95 66 96
REMARK SMILES IDX 71 97 67 98 68 99 70 100 72 101 69 102
REMARK H PARENT 1 32 1 33 89 64 63 75
REMARK Flexibility Score: inf
ROOT
ATOM      1  C   UNL     1      -0.781 -12.895  -5.832  1.00  0.00     0.188 C 
ENDROOT
BRANCH   1   2
ATOM      2  C   UNL     1      -0.006 -13.773  -6.837  1.00  0.00     0.188 C 
BRANCH   2   3
ATOM      3  O   UNL     1       0.253 -15.098  -6.422  1.00  0.00    -0.376 OA
BRANCH   3   4
ATOM      4  C   UNL     1       1.356 -15.461  -5.613  1.00  0.00     0.202 C 
BRANCH   4   5
ATOM      5  C   UNL     1       2.187 -14.518  -4.724  1.00  0.00     0.261 C 
BRANCH   5   6
ATOM      6  O   UNL     1       1.986 -13.117  -4.871  1.00  0.00    -0.460 OA
BRANCH   6   7
ATOM      7  C   UNL     1       2.714 -12.505  -5.824  1.00  0.00     0.338 C 
ATOM      8  O   UNL     1       3.533 -13.022  -6.564  1.00  0.00    -0.246 OA
BRANCH   7   9
ATOM      9  C   UNL     1       2.229 -11.116  -5.949  1.00  0.00     0.087 C 
ATOM     10  C   UNL     1       1.296  -7.079  -6.406  1.00  0.00     0.069 A 
ATOM     11  C   UNL     1       1.155  -6.550  -7.692  1.00  0.00     0.041 A 
ATOM     12  C   UNL     1       1.494  -8.457  -6.229  1.00  0.00     0.143 A 
ATOM     13  C   UNL     1       1.194  -7.396  -8.796  1.00  0.00     0.043 A 
ATOM     14  C   UNL     1       1.596  -9.287  -7.350  1.00  0.00     0.020 A 
ATOM     15  O   UNL     1       1.591  -8.925  -4.948  1.00  0.00    -0.474 OA
ATOM     16  Cl  UNL     1       1.026  -6.745 -10.379  1.00  0.00    -0.084 Cl
ATOM     17  C   UNL     1       1.411  -8.762  -8.633  1.00  0.00     0.032 A 
ATOM     18  C   UNL     1       1.996 -10.673  -7.190  1.00  0.00     0.027 C 
ATOM     19  C   UNL     1       1.989 -10.301  -4.707  1.00  0.00     0.316 C 
BRANCH  10  20
ATOM     20  C   UNL     1       1.292  -6.179  -5.288  1.00  0.00    -0.058 C 
ATOM     21  C   UNL     1       1.289  -5.421  -4.361  1.00  0.00    -0.062 C 
BRANCH  21  22
ATOM     22  C   UNL     1       1.222  -4.520  -3.251  1.00  0.00     0.025 A 
ATOM     23  C   UNL     1       0.877  -2.759  -1.120  1.00  0.00     0.082 A 
ATOM     24  C   UNL     1       1.183  -2.256  -2.387  1.00  0.00     0.023 A 
ATOM     25  C   UNL     1       0.791  -4.138  -0.902  1.00  0.00     0.023 A 
ATOM     26  C   UNL     1       1.357  -3.143  -3.454  1.00  0.00     0.018 A 
ATOM     27  C   UNL     1       0.962  -5.018  -1.972  1.00  0.00     0.018 A 
BRANCH  23  28
ATOM     28  S   UNL     1       0.566  -1.683   0.247  1.00  0.00     0.238 S 
ATOM     29  O   UNL     1       1.332  -2.144   1.380  1.00  0.00    -0.207 OA
ATOM     30  O   UNL     1      -0.855  -1.434   0.309  1.00  0.00    -0.207 OA
BRANCH  28  31
ATOM     31  N   UNL     1       1.267  -0.218  -0.189  1.00  0.00    -0.225 NA
ATOM     32  H   UNL     1       1.127   0.461   0.559  1.00  0.00     0.137 HD
ATOM     33  H   UNL     1       0.834   0.125  -1.046  1.00  0.00     0.137 HD
ENDBRANCH  28  31
ENDBRANCH  23  28
ENDBRANCH  21  22
ENDBRANCH  10  20
BRANCH  19  34
ATOM     34  C   UNL     1       3.213 -10.282  -3.783  1.00  0.00     0.430 C 
ATOM     35  F   UNL     1       3.015  -9.472  -2.716  1.00  0.00    -0.167 F 
ATOM     36  F   UNL     1       3.498 -11.509  -3.290  1.00  0.00    -0.167 F 
ATOM     37  F   UNL     1       4.317  -9.840  -4.429  1.00  0.00    -0.167 F 
ENDBRANCH  19  34
ENDBRANCH   7   9
ENDBRANCH   6   7
ENDBRANCH   5   6
ENDBRANCH   4   5
ENDBRANCH   3   4
ENDBRANCH   2   3
ENDBRANCH   1   2
BRANCH   1  38
ATOM     38  O   UNL     1      -0.715 -13.323  -4.483  1.00  0.00    -0.377 OA
BRANCH  38  39
ATOM     39  C   UNL     1      -1.478 -14.461  -4.081  1.00  0.00     0.188 C 
BRANCH  39  40
ATOM     40  C   UNL     1      -2.196 -15.398  -5.087  1.00  0.00     0.188 C 
BRANCH  40  41
ATOM     41  O   UNL     1      -2.544 -14.793  -6.316  1.00  0.00    -0.376 OA
BRANCH  41  42
ATOM     42  C   UNL     1      -3.873 -14.405  -6.591  1.00  0.00     0.202 C 
BRANCH  42  43
ATOM     43  C   UNL     1      -4.617 -13.479  -5.620  1.00  0.00     0.261 C 
BRANCH  43  44
ATOM     44  O   UNL     1      -4.432 -13.726  -4.223  1.00  0.00    -0.460 OA
BRANCH  44  45
ATOM     45  C   UNL     1      -5.035 -14.813  -3.692  1.00  0.00     0.338 C 
ATOM     46  O   UNL     1      -5.709 -15.641  -4.274  1.00  0.00    -0.246 OA
BRANCH  45  47
ATOM     47  C   UNL     1      -4.554 -14.921  -2.295  1.00  0.00     0.060 A 
ATOM     48  C   UNL     1      -4.749 -13.858  -1.410  1.00  0.00     0.016 A 
ATOM     49  C   UNL     1      -3.841 -16.058  -1.892  1.00  0.00     0.016 A 
ATOM     50  C   UNL     1      -4.252 -13.948  -0.109  1.00  0.00     0.010 A 
ATOM     51  C   UNL     1      -3.336 -16.141  -0.590  1.00  0.00     0.010 A 
ATOM     52  C   UNL     1      -3.562 -15.097   0.318  1.00  0.00    -0.014 A 
BRANCH  52  53
ATOM     53  C   UNL     1      -3.254 -15.265   1.760  1.00  0.00     0.031 A 
ATOM     54  C   UNL     1      -1.868 -15.122   2.312  1.00  0.00     0.074 A 
ATOM     55  C   UNL     1      -4.280 -15.546   2.586  1.00  0.00     0.049 A 
ATOM     56  N   UNL     1      -1.478 -15.139   3.562  1.00  0.00    -0.248 NA
ATOM     57  C   UNL     1      -0.781 -14.947   1.341  1.00  0.00     0.031 C 
ATOM     58  C   UNL     1      -5.667 -15.744   2.158  1.00  0.00     0.029 A 
ATOM     59  N   UNL     1      -4.325 -15.695   3.947  1.00  0.00    -0.354 N 
ATOM     60  C   UNL     1      -0.102 -14.950   3.536  1.00  0.00     0.074 A 
ATOM     61  C   UNL     1       0.278 -14.879   2.138  1.00  0.00     0.031 C 
ATOM     62  C   UNL     1      -6.434 -15.946   3.240  1.00  0.00     0.029 A 
ATOM     63  C   UNL     1      -5.589 -15.931   4.429  1.00  0.00     0.049 A 
ATOM     64  H   UNL     1      -3.529 -15.639   4.523  1.00  0.00     0.167 HD
ATOM     65  C   UNL     1       0.755 -14.829   4.581  1.00  0.00     0.037 A 
ATOM     66  C   UNL     1      -6.022 -16.116   5.689  1.00  0.00     0.037 A 
ATOM     67  C   UNL     1       0.373 -14.941   5.969  1.00  0.00     0.049 A 
ATOM     68  C   UNL     1      -5.034 -16.049   6.820  1.00  0.00     0.074 A 
ATOM     69  C   UNL     1       1.166 -14.807   7.098  1.00  0.00     0.029 A 
ATOM     70  N   UNL     1      -0.905 -15.239   6.420  1.00  0.00    -0.354 N 
ATOM     71  N   UNL     1      -3.751 -15.784   6.787  1.00  0.00    -0.248 NA
ATOM     72  C   UNL     1      -5.561 -16.303   8.167  1.00  0.00     0.031 C 
ATOM     73  C   UNL     1       0.385 -15.093   8.223  1.00  0.00     0.029 A 
ATOM     74  C   UNL     1      -0.914 -15.331   7.805  1.00  0.00     0.049 A 
ATOM     75  H   UNL     1      -1.692 -15.366   5.842  1.00  0.00     0.167 HD
ATOM     76  C   UNL     1      -3.324 -15.810   8.109  1.00  0.00     0.074 A 
ATOM     77  C   UNL     1      -4.492 -16.090   8.918  1.00  0.00     0.031 C 
ATOM     78  C   UNL     1      -2.077 -15.620   8.607  1.00  0.00     0.037 A 
BRANCH  65  79
ATOM     79  C   UNL     1       2.204 -14.576   4.261  1.00  0.00     0.057 A 
ATOM     80  C   UNL     1       3.186 -15.531   4.558  1.00  0.00     0.134 A 
ATOM     81  C   UNL     1       2.634 -13.369   3.692  1.00  0.00     0.134 A 
ATOM     82  F   UNL     1       2.851 -16.701   5.121  1.00  0.00    -0.206 F 
ATOM     83  C   UNL     1       4.537 -15.298   4.294  1.00  0.00     0.040 A 
ATOM     84  C   UNL     1       3.978 -13.138   3.393  1.00  0.00     0.040 A 
ATOM     85  F   UNL     1       1.749 -12.409   3.384  1.00  0.00    -0.206 F 
ATOM     86  C   UNL     1       4.935 -14.104   3.698  1.00  0.00     0.006 A 
ENDBRANCH  65  79
BRANCH  66  87
ATOM     87  C   UNL     1      -7.459 -16.377   5.956  1.00  0.00     0.057 A 
ATOM     88  C   UNL     1      -8.074 -17.563   5.536  1.00  0.00     0.134 A 
ATOM     89  C   UNL     1      -8.241 -15.466   6.676  1.00  0.00     0.134 A 
ATOM     90  F   UNL     1      -7.384 -18.472   4.831  1.00  0.00    -0.206 F 
ATOM     91  C   UNL     1      -9.410 -17.836   5.826  1.00  0.00     0.040 A 
ATOM     92  C   UNL     1      -9.568 -15.742   7.004  1.00  0.00     0.040 A 
ATOM     93  F   UNL     1      -7.705 -14.318   7.118  1.00  0.00    -0.206 F 
ATOM     94  C   UNL     1     -10.157 -16.931   6.577  1.00  0.00     0.006 A 
ENDBRANCH  66  87
BRANCH  78  95
ATOM     95  C   UNL     1      -1.924 -15.677  10.102  1.00  0.00     0.057 A 
ATOM     96  C   UNL     1      -1.606 -14.523  10.831  1.00  0.00     0.134 A 
ATOM     97  C   UNL     1      -2.095 -16.865  10.826  1.00  0.00     0.134 A 
ATOM     98  F   UNL     1      -1.419 -13.351  10.206  1.00  0.00    -0.206 F 
ATOM     99  C   UNL     1      -1.469 -14.548  12.220  1.00  0.00     0.040 A 
ATOM    100  C   UNL     1      -1.997 -16.895  12.219  1.00  0.00     0.040 A 
ATOM    101  F   UNL     1      -2.414 -18.006  10.195  1.00  0.00    -0.206 F 
ATOM    102  C   UNL     1      -1.678 -15.734  12.919  1.00  0.00     0.006 A 
ENDBRANCH  78  95
ENDBRANCH  52  53
ENDBRANCH  45  47
ENDBRANCH  44  45
ENDBRANCH  43  44
ENDBRANCH  42  43
ENDBRANCH  41  42
ENDBRANCH  40  41
ENDBRANCH  39  40
ENDBRANCH  38  39
ENDBRANCH   1  38
TORSDOF 25
