REMARK SMILES O=C(OCCOCCOCCOCCOC(=O)[C@H]1C[N@H+](Cc2ccc(Cl)c(Cl)c2)CC12CCCCC2)c1ccc(-c2c3nc(c(-c4c(F)cccc4F)c4ccc([nH]4)c(-c4c(F)cccc4F)c4nc(c(-c5c(F)cccc5F)c5ccc2[nH]5)C=C4)C=C3)cc1
REMARK SMILES IDX 9 1 8 2 7 3 6 4 5 5 4 6 3 7 2 8 1 9 37 10 38 11 90 12 39 13
REMARK SMILES IDX 89 14 40 15 41 16 42 17 83 18 43 19 88 20 82 21 84 22 44 23
REMARK SMILES IDX 87 24 81 25 80 26 45 28 71 29 54 30 70 31 55 32 58 33 69 34
REMARK SMILES IDX 85 35 56 36 57 37 68 39 86 40 59 41 46 42 47 43 52 44 48 45
REMARK SMILES IDX 49 46 51 47 53 48 50 49 72 50 73 51 78 52 74 53 75 54 77 55
REMARK SMILES IDX 79 56 76 57 60 58 61 59 66 60 62 61 63 62 65 63 67 64 64 65
REMARK SMILES IDX 10 66 11 67 12 68 13 69 14 70 15 71 16 72 17 73 18 74 19 75
REMARK SMILES IDX 31 76 20 77 30 78 32 79 36 80 33 82 35 83 34 84 21 85 22 86
REMARK SMILES IDX 23 87 29 88 24 89 27 90 25 91 28 92 26 93
REMARK H PARENT 84 27 58 38 20 81
REMARK Flexibility Score: inf
ROOT
ATOM      1  O   UNL     1       1.928  -1.043   3.367  1.00  0.00    -0.377 OA
ENDROOT
BRANCH   1   2
ATOM      2  C   UNL     1       1.295  -0.997   2.094  1.00  0.00     0.188 C 
BRANCH   2   3
ATOM      3  C   UNL     1       1.764   0.175   1.229  1.00  0.00     0.188 C 
BRANCH   3   4
ATOM      4  O   UNL     1       3.092  -0.114   0.792  1.00  0.00    -0.376 OA
BRANCH   4   5
ATOM      5  C   UNL     1       3.948   1.008   0.590  1.00  0.00     0.202 C 
BRANCH   5   6
ATOM      6  C   UNL     1       3.982   1.464  -0.866  1.00  0.00     0.261 C 
BRANCH   6   7
ATOM      7  O   UNL     1       2.699   1.326  -1.490  1.00  0.00    -0.460 OA
BRANCH   7   8
ATOM      8  C   UNL     1       2.185   0.207  -2.062  1.00  0.00     0.338 C 
ATOM      9  O   UNL     1       1.017   0.233  -2.451  1.00  0.00    -0.246 OA
BRANCH   8  10
ATOM     10  C   UNL     1       2.962  -1.053  -2.292  1.00  0.00     0.060 A 
ATOM     11  C   UNL     1       4.022  -1.511  -1.506  1.00  0.00     0.016 A 
ATOM     12  C   UNL     1       2.531  -1.875  -3.346  1.00  0.00     0.016 A 
ATOM     13  C   UNL     1       4.653  -2.715  -1.750  1.00  0.00     0.010 A 
ATOM     14  C   UNL     1       3.155  -3.099  -3.603  1.00  0.00     0.010 A 
ATOM     15  C   UNL     1       4.224  -3.510  -2.800  1.00  0.00    -0.014 A 
BRANCH  15  16
ATOM     16  C   UNL     1       5.043  -4.684  -3.115  1.00  0.00     0.031 A 
ATOM     17  C   UNL     1       5.978  -4.575  -4.273  1.00  0.00     0.074 A 
ATOM     18  C   UNL     1       5.049  -5.734  -2.276  1.00  0.00     0.049 A 
ATOM     19  N   UNL     1       6.694  -5.498  -4.846  1.00  0.00    -0.248 NA
ATOM     20  C   UNL     1       6.139  -3.231  -4.862  1.00  0.00     0.031 C 
ATOM     21  C   UNL     1       4.307  -5.815  -1.013  1.00  0.00     0.029 A 
ATOM     22  N   UNL     1       5.720  -6.923  -2.344  1.00  0.00    -0.354 N 
ATOM     23  C   UNL     1       7.340  -4.864  -5.897  1.00  0.00     0.074 A 
ATOM     24  C   UNL     1       6.963  -3.471  -5.869  1.00  0.00     0.031 C 
ATOM     25  C   UNL     1       4.558  -6.999  -0.432  1.00  0.00     0.029 A 
ATOM     26  C   UNL     1       5.397  -7.786  -1.326  1.00  0.00     0.049 A 
ATOM     27  H   UNL     1       6.369  -7.138  -3.052  1.00  0.00     0.167 HD
ATOM     28  C   UNL     1       8.153  -5.428  -6.816  1.00  0.00     0.037 A 
ATOM     29  C   UNL     1       5.693  -9.091  -1.192  1.00  0.00     0.037 A 
ATOM     30  C   UNL     1       8.505  -6.820  -6.781  1.00  0.00     0.049 A 
ATOM     31  C   UNL     1       6.503  -9.723  -2.294  1.00  0.00     0.074 A 
ATOM     32  C   UNL     1       9.269  -7.545  -7.671  1.00  0.00     0.029 A 
ATOM     33  N   UNL     1       8.101  -7.696  -5.779  1.00  0.00    -0.354 N 
ATOM     34  N   UNL     1       7.045  -9.158  -3.349  1.00  0.00    -0.248 NA
ATOM     35  C   UNL     1       6.716 -11.172  -2.211  1.00  0.00     0.031 C 
ATOM     36  C   UNL     1       9.284  -8.874  -7.235  1.00  0.00     0.029 A 
ATOM     37  C   UNL     1       8.573  -8.965  -6.045  1.00  0.00     0.049 A 
ATOM     38  H   UNL     1       7.558  -7.447  -4.997  1.00  0.00     0.167 HD
ATOM     39  C   UNL     1       7.670 -10.176  -4.051  1.00  0.00     0.074 A 
ATOM     40  C   UNL     1       7.465 -11.390  -3.283  1.00  0.00     0.031 C 
ATOM     41  C   UNL     1       8.342 -10.130  -5.228  1.00  0.00     0.037 A 
BRANCH  28  42
ATOM     42  C   UNL     1       8.603  -4.571  -7.957  1.00  0.00     0.057 A 
ATOM     43  C   UNL     1       9.569  -3.567  -7.817  1.00  0.00     0.134 A 
ATOM     44  C   UNL     1       8.031  -4.745  -9.225  1.00  0.00     0.134 A 
ATOM     45  F   UNL     1      10.126  -3.322  -6.622  1.00  0.00    -0.206 F 
ATOM     46  C   UNL     1       9.942  -2.760  -8.894  1.00  0.00     0.040 A 
ATOM     47  C   UNL     1       8.411  -3.959 -10.314  1.00  0.00     0.040 A 
ATOM     48  F   UNL     1       7.086  -5.676  -9.423  1.00  0.00    -0.206 F 
ATOM     49  C   UNL     1       9.368  -2.960 -10.149  1.00  0.00     0.006 A 
ENDBRANCH  28  42
BRANCH  29  50
ATOM     50  C   UNL     1       5.135  -9.896  -0.073  1.00  0.00     0.057 A 
ATOM     51  C   UNL     1       5.963 -10.544   0.850  1.00  0.00     0.134 A 
ATOM     52  C   UNL     1       3.752 -10.085   0.070  1.00  0.00     0.134 A 
ATOM     53  F   UNL     1       7.295 -10.425   0.761  1.00  0.00    -0.206 F 
ATOM     54  C   UNL     1       5.442 -11.371   1.850  1.00  0.00     0.040 A 
ATOM     55  C   UNL     1       3.216 -10.881   1.084  1.00  0.00     0.040 A 
ATOM     56  F   UNL     1       2.894  -9.500  -0.779  1.00  0.00    -0.206 F 
ATOM     57  C   UNL     1       4.064 -11.539   1.970  1.00  0.00     0.006 A 
ENDBRANCH  29  50
BRANCH  41  58
ATOM     58  C   UNL     1       8.914 -11.422  -5.721  1.00  0.00     0.057 A 
ATOM     59  C   UNL     1       8.101 -12.423  -6.265  1.00  0.00     0.134 A 
ATOM     60  C   UNL     1      10.297 -11.634  -5.706  1.00  0.00     0.134 A 
ATOM     61  F   UNL     1       6.767 -12.278  -6.291  1.00  0.00    -0.206 F 
ATOM     62  C   UNL     1       8.646 -13.604  -6.764  1.00  0.00     0.040 A 
ATOM     63  C   UNL     1      10.856 -12.797  -6.230  1.00  0.00     0.040 A 
ATOM     64  F   UNL     1      11.124 -10.704  -5.206  1.00  0.00    -0.206 F 
ATOM     65  C   UNL     1      10.029 -13.788  -6.756  1.00  0.00     0.006 A 
ENDBRANCH  41  58
ENDBRANCH  15  16
ENDBRANCH   8  10
ENDBRANCH   7   8
ENDBRANCH   6   7
ENDBRANCH   5   6
ENDBRANCH   4   5
ENDBRANCH   3   4
ENDBRANCH   2   3
ENDBRANCH   1   2
BRANCH   1  66
ATOM     66  C   UNL     1       3.343  -0.995   3.360  1.00  0.00     0.188 C 
BRANCH  66  67
ATOM     67  C   UNL     1       4.158  -2.174   2.792  1.00  0.00     0.188 C 
BRANCH  67  68
ATOM     68  O   UNL     1       3.704  -3.509   2.920  1.00  0.00    -0.376 OA
BRANCH  68  69
ATOM     69  C   UNL     1       2.873  -3.839   4.015  1.00  0.00     0.202 C 
BRANCH  69  70
ATOM     70  C   UNL     1       3.462  -3.725   5.432  1.00  0.00     0.261 C 
BRANCH  70  71
ATOM     71  O   UNL     1       3.866  -2.401   5.835  1.00  0.00    -0.463 OA
BRANCH  71  72
ATOM     72  C   UNL     1       5.193  -2.056   5.814  1.00  0.00     0.315 C 
ATOM     73  O   UNL     1       6.109  -2.818   5.532  1.00  0.00    -0.252 OA
BRANCH  72  74
ATOM     74  C   UNL     1       5.352  -0.593   6.237  1.00  0.00     0.166 C 
ATOM     75  C   UNL     1       5.965  -0.627   7.636  1.00  0.00     0.278 C 
ATOM     76  C   UNL     1       6.194   0.467   5.418  1.00  0.00     0.038 C 
ATOM     77  N   UNL     1       6.638   0.646   7.809  1.00  0.00    -0.330 N 
ATOM     78  C   UNL     1       7.177   1.000   6.499  1.00  0.00     0.270 C 
ATOM     79  C   UNL     1       6.944  -0.046   4.166  1.00  0.00     0.014 C 
ATOM     80  C   UNL     1       5.286   1.612   4.885  1.00  0.00     0.014 C 
ATOM     81  H   UNL     1       7.418   0.561   8.461  1.00  0.00     0.348 HD
ATOM     82  C   UNL     1       7.706   1.052   3.400  1.00  0.00     0.001 C 
ATOM     83  C   UNL     1       6.027   2.762   4.207  1.00  0.00     0.001 C 
ATOM     84  C   UNL     1       6.838   2.254   3.030  1.00  0.00     0.000 C 
BRANCH  77  85
ATOM     85  C   UNL     1       5.978   1.666   8.629  1.00  0.00     0.299 C 
BRANCH  85  86
ATOM     86  C   UNL     1       4.714   2.323   8.110  1.00  0.00     0.008 A 
ATOM     87  C   UNL     1       3.493   1.631   8.054  1.00  0.00     0.011 A 
ATOM     88  C   UNL     1       4.756   3.639   7.612  1.00  0.00     0.031 A 
ATOM     89  C   UNL     1       2.390   2.178   7.387  1.00  0.00     0.022 A 
ATOM     90  C   UNL     1       3.646   4.198   6.962  1.00  0.00     0.060 A 
ATOM     91  C   UNL     1       2.472   3.451   6.818  1.00  0.00     0.059 A 
ATOM     92  Cl  UNL     1       3.825   5.776   6.280  1.00  0.00    -0.083 Cl
ATOM     93  Cl  UNL     1       1.121   4.010   5.898  1.00  0.00    -0.083 Cl
ENDBRANCH  85  86
ENDBRANCH  77  85
ENDBRANCH  72  74
ENDBRANCH  71  72
ENDBRANCH  70  71
ENDBRANCH  69  70
ENDBRANCH  68  69
ENDBRANCH  67  68
ENDBRANCH  66  67
ENDBRANCH   1  66
TORSDOF 22
