REMARK SMILES O=C(OCCOCCOCCOCCOC(=O)[C@H]1CSC2(CCCCC2)[NH2+]1)c1ccc(-c2c3nc(c(-c4c(F)cccc4F)c4ccc([nH]4)c(-c4c(F)cccc4F)c4nc(c(-c5c(F)cccc5F)c5ccc2[nH]5)C=C4)C=C3)cc1
REMARK SMILES IDX 8 1 7 2 6 3 5 4 4 5 3 6 2 7 1 8 28 9 29 10 81 11 30 12 80 13
REMARK SMILES IDX 31 14 32 15 33 16 74 17 34 18 79 19 73 20 75 21 35 22 78 23
REMARK SMILES IDX 72 24 71 25 36 27 62 28 45 29 61 30 46 31 49 32 60 33 76 34
REMARK SMILES IDX 47 35 48 36 59 38 77 39 50 40 37 41 38 42 43 43 39 44 40 45
REMARK SMILES IDX 42 46 44 47 41 48 63 49 64 50 69 51 65 52 66 53 68 54 70 55
REMARK SMILES IDX 67 56 51 57 52 58 57 59 53 60 54 61 56 62 58 63 55 64 9 65
REMARK SMILES IDX 10 66 11 67 12 68 13 69 14 70 15 71 16 72 17 73 18 74 19 75
REMARK SMILES IDX 27 76 20 77 21 78 22 81 26 82 23 83 25 84 24 85
REMARK H PARENT 75 26 49 37 27 79 27 80
REMARK Flexibility Score: inf
ROOT
ATOM      1  C   UNL     1       4.436  -1.691  -0.243  1.00  0.00     0.188 C 
ENDROOT
BRANCH   1   2
ATOM      2  C   UNL     1       3.000  -1.177  -0.380  1.00  0.00     0.188 C 
BRANCH   2   3
ATOM      3  O   UNL     1       2.167  -1.664   0.667  1.00  0.00    -0.376 OA
BRANCH   3   4
ATOM      4  C   UNL     1       0.856  -2.120   0.347  1.00  0.00     0.202 C 
BRANCH   4   5
ATOM      5  C   UNL     1      -0.107  -1.066  -0.180  1.00  0.00     0.261 C 
BRANCH   5   6
ATOM      6  O   UNL     1       0.503   0.169  -0.576  1.00  0.00    -0.460 OA
BRANCH   6   7
ATOM      7  C   UNL     1       0.968   1.198   0.167  1.00  0.00     0.338 C 
ATOM      8  O   UNL     1       1.473   2.154  -0.422  1.00  0.00    -0.246 OA
BRANCH   7   9
ATOM      9  C   UNL     1       0.901   1.275   1.653  1.00  0.00     0.060 A 
ATOM     10  C   UNL     1       1.009   0.201   2.534  1.00  0.00     0.016 A 
ATOM     11  C   UNL     1       0.841   2.565   2.204  1.00  0.00     0.016 A 
ATOM     12  C   UNL     1       0.995   0.365   3.905  1.00  0.00     0.010 A 
ATOM     13  C   UNL     1       0.846   2.753   3.586  1.00  0.00     0.010 A 
ATOM     14  C   UNL     1       0.893   1.641   4.432  1.00  0.00    -0.014 A 
BRANCH  14  15
ATOM     15  C   UNL     1       0.604   1.745   5.863  1.00  0.00     0.031 A 
ATOM     16  C   UNL     1      -0.808   2.045   6.242  1.00  0.00     0.074 A 
ATOM     17  C   UNL     1       1.546   1.432   6.765  1.00  0.00     0.049 A 
ATOM     18  N   UNL     1      -1.309   2.342   7.404  1.00  0.00    -0.248 NA
ATOM     19  C   UNL     1      -1.796   1.998   5.147  1.00  0.00     0.031 C 
ATOM     20  C   UNL     1       2.892   0.946   6.448  1.00  0.00     0.029 A 
ATOM     21  N   UNL     1       1.511   1.466   8.129  1.00  0.00    -0.354 N 
ATOM     22  C   UNL     1      -2.656   2.582   7.171  1.00  0.00     0.074 A 
ATOM     23  C   UNL     1      -2.899   2.384   5.763  1.00  0.00     0.031 C 
ATOM     24  C   UNL     1       3.563   0.746   7.593  1.00  0.00     0.029 A 
ATOM     25  C   UNL     1       2.723   1.177   8.704  1.00  0.00     0.049 A 
ATOM     26  H   UNL     1       0.701   1.676   8.647  1.00  0.00     0.167 HD
ATOM     27  C   UNL     1      -3.589   2.960   8.072  1.00  0.00     0.037 A 
ATOM     28  C   UNL     1       3.114   1.329   9.981  1.00  0.00     0.037 A 
ATOM     29  C   UNL     1      -3.277   3.140   9.462  1.00  0.00     0.049 A 
ATOM     30  C   UNL     1       2.097   1.857  10.953  1.00  0.00     0.074 A 
ATOM     31  C   UNL     1      -4.092   3.574  10.487  1.00  0.00     0.029 A 
ATOM     32  N   UNL     1      -2.023   2.893  10.013  1.00  0.00    -0.354 N 
ATOM     33  N   UNL     1       0.841   2.178  10.735  1.00  0.00    -0.248 NA
ATOM     34  C   UNL     1       2.540   2.063  12.335  1.00  0.00     0.031 C 
ATOM     35  C   UNL     1      -3.312   3.647  11.647  1.00  0.00     0.029 A 
ATOM     36  C   UNL     1      -2.030   3.192  11.361  1.00  0.00     0.049 A 
ATOM     37  H   UNL     1      -1.244   2.555   9.515  1.00  0.00     0.167 HD
ATOM     38  C   UNL     1       0.335   2.606  11.953  1.00  0.00     0.074 A 
ATOM     39  C   UNL     1       1.424   2.495  12.907  1.00  0.00     0.031 C 
ATOM     40  C   UNL     1      -0.910   3.048  12.262  1.00  0.00     0.037 A 
BRANCH  27  41
ATOM     41  C   UNL     1      -4.945   3.307   7.533  1.00  0.00     0.057 A 
ATOM     42  C   UNL     1      -5.807   2.352   6.975  1.00  0.00     0.134 A 
ATOM     43  C   UNL     1      -5.352   4.647   7.480  1.00  0.00     0.134 A 
ATOM     44  F   UNL     1      -5.464   1.055   6.955  1.00  0.00    -0.206 F 
ATOM     45  C   UNL     1      -6.997   2.723   6.342  1.00  0.00     0.040 A 
ATOM     46  C   UNL     1      -6.553   5.026   6.879  1.00  0.00     0.040 A 
ATOM     47  F   UNL     1      -4.572   5.616   7.984  1.00  0.00    -0.206 F 
ATOM     48  C   UNL     1      -7.372   4.064   6.293  1.00  0.00     0.006 A 
ENDBRANCH  27  41
BRANCH  28  49
ATOM     49  C   UNL     1       4.525   1.062  10.358  1.00  0.00     0.057 A 
ATOM     50  C   UNL     1       4.874   0.001  11.197  1.00  0.00     0.134 A 
ATOM     51  C   UNL     1       5.572   1.843   9.844  1.00  0.00     0.134 A 
ATOM     52  F   UNL     1       3.921  -0.778  11.731  1.00  0.00    -0.206 F 
ATOM     53  C   UNL     1       6.207  -0.275  11.515  1.00  0.00     0.040 A 
ATOM     54  C   UNL     1       6.909   1.564  10.131  1.00  0.00     0.040 A 
ATOM     55  F   UNL     1       5.311   2.873   9.026  1.00  0.00    -0.206 F 
ATOM     56  C   UNL     1       7.229   0.503  10.973  1.00  0.00     0.006 A 
ENDBRANCH  28  49
BRANCH  40  57
ATOM     57  C   UNL     1      -1.168   3.395  13.695  1.00  0.00     0.057 A 
ATOM     58  C   UNL     1      -0.683   4.575  14.268  1.00  0.00     0.134 A 
ATOM     59  C   UNL     1      -2.001   2.581  14.473  1.00  0.00     0.134 A 
ATOM     60  F   UNL     1       0.129   5.386  13.573  1.00  0.00    -0.206 F 
ATOM     61  C   UNL     1      -1.018   4.934  15.573  1.00  0.00     0.040 A 
ATOM     62  C   UNL     1      -2.366   2.944  15.767  1.00  0.00     0.040 A 
ATOM     63  F   UNL     1      -2.504   1.443  13.971  1.00  0.00    -0.206 F 
ATOM     64  C   UNL     1      -1.873   4.124  16.320  1.00  0.00     0.006 A 
ENDBRANCH  40  57
ENDBRANCH  14  15
ENDBRANCH   7   9
ENDBRANCH   6   7
ENDBRANCH   5   6
ENDBRANCH   4   5
ENDBRANCH   3   4
ENDBRANCH   2   3
ENDBRANCH   1   2
BRANCH   1  65
ATOM     65  O   UNL     1       4.600  -3.106  -0.340  1.00  0.00    -0.377 OA
BRANCH  65  66
ATOM     66  C   UNL     1       3.674  -3.893   0.400  1.00  0.00     0.188 C 
BRANCH  66  67
ATOM     67  C   UNL     1       3.671  -3.798   1.948  1.00  0.00     0.188 C 
BRANCH  67  68
ATOM     68  O   UNL     1       4.081  -2.537   2.443  1.00  0.00    -0.376 OA
BRANCH  68  69
ATOM     69  C   UNL     1       5.339  -2.425   3.093  1.00  0.00     0.202 C 
BRANCH  69  70
ATOM     70  C   UNL     1       6.630  -3.042   2.510  1.00  0.00     0.261 C 
BRANCH  70  71
ATOM     71  O   UNL     1       6.474  -3.998   1.456  1.00  0.00    -0.459 OA
BRANCH  71  72
ATOM     72  C   UNL     1       6.451  -5.311   1.807  1.00  0.00     0.365 C 
ATOM     73  O   UNL     1       6.616  -5.701   2.961  1.00  0.00    -0.245 OA
BRANCH  72  74
ATOM     74  C   UNL     1       6.064  -6.190   0.597  1.00  0.00     0.304 C 
ATOM     75  C   UNL     1       7.171  -7.143   0.214  1.00  0.00     0.153 C 
ATOM     76  N   UNL     1       4.827  -6.998   0.819  1.00  0.00    -0.320 N 
ATOM     77  S   UNL     1       6.947  -8.514   1.363  1.00  0.00    -0.089 SA
ATOM     78  C   UNL     1       5.137  -8.245   1.524  1.00  0.00     0.143 C 
ATOM     79  H   UNL     1       4.406  -7.220  -0.083  1.00  0.00     0.348 HD
ATOM     80  H   UNL     1       4.180  -6.454   1.389  1.00  0.00     0.348 HD
ATOM     81  C   UNL     1       4.615  -8.173   2.974  1.00  0.00     0.081 C 
ATOM     82  C   UNL     1       4.389  -9.396   0.820  1.00  0.00     0.081 C 
ATOM     83  C   UNL     1       4.836  -9.468   3.746  1.00  0.00     0.007 C 
ATOM     84  C   UNL     1       4.598 -10.736   1.533  1.00  0.00     0.007 C 
ATOM     85  C   UNL     1       4.245 -10.673   3.019  1.00  0.00     0.001 C 
ENDBRANCH  72  74
ENDBRANCH  71  72
ENDBRANCH  70  71
ENDBRANCH  69  70
ENDBRANCH  68  69
ENDBRANCH  67  68
ENDBRANCH  66  67
ENDBRANCH  65  66
ENDBRANCH   1  65
TORSDOF 20
