REMARK SMILES C[N@H+]1CCO[C@H](CNc2nnc(SCC(=O)OCCOCCOCCOCCOC(=O)c3ccc(-c4c5nc(c(-c6c(F)cccc6F)c6ccc([nH]6)c(-c6c(F)cccc6F)c6nc(c(-c7c(F)cccc7F)c7ccc4[nH]7)C=C6)C=C5)cc3)s2)C1
REMARK SMILES IDX 21 1 20 2 19 3 18 4 17 5 15 6 16 7 14 8 13 9 12 10 9 11
REMARK SMILES IDX 10 12 86 13 11 14 8 15 7 17 6 18 1 19 2 20 3 21 87 22 4 24
REMARK SMILES IDX 5 25 22 26 23 27 24 28 25 29 26 30 27 31 28 32 29 33 30 34
REMARK SMILES IDX 31 35 32 36 33 37 85 38 34 39 84 40 35 41 36 42 37 43 78 44
REMARK SMILES IDX 38 45 83 46 77 47 79 48 39 49 82 50 76 51 75 52 40 54 66 55
REMARK SMILES IDX 49 56 65 57 50 58 53 59 64 60 80 61 51 62 52 63 63 65 81 66
REMARK SMILES IDX 54 67 41 68 42 69 47 70 43 71 44 72 46 73 48 74 45 75 67 76
REMARK SMILES IDX 68 77 73 78 69 79 70 80 72 81 74 82 71 83 55 84 56 85 61 86
REMARK SMILES IDX 57 87 58 88 60 89 62 90 59 91
REMARK H PARENT 8 16 2 23 79 53 53 64
REMARK Flexibility Score: inf
ROOT
ATOM      1  C   UNL     1      -3.601  -4.828  -1.974  1.00  0.00     0.188 C 
ENDROOT
BRANCH   1   2
ATOM      2  O   UNL     1      -4.498  -4.292  -2.917  1.00  0.00    -0.376 OA
BRANCH   2   3
ATOM      3  C   UNL     1      -5.655  -3.634  -2.422  1.00  0.00     0.202 C 
BRANCH   3   4
ATOM      4  C   UNL     1      -6.546  -4.343  -1.375  1.00  0.00     0.261 C 
BRANCH   4   5
ATOM      5  O   UNL     1      -5.945  -4.674  -0.088  1.00  0.00    -0.463 OA
BRANCH   5   6
ATOM      6  C   UNL     1      -5.813  -5.992   0.221  1.00  0.00     0.316 C 
ATOM      7  O   UNL     1      -6.156  -6.893  -0.545  1.00  0.00    -0.251 OA
BRANCH   6   8
ATOM      8  C   UNL     1      -5.302  -6.339   1.615  1.00  0.00     0.200 C 
BRANCH   8   9
ATOM      9  S   UNL     1      -4.281  -5.173   2.516  1.00  0.00    -0.082 SA
BRANCH   9  10
ATOM     10  C   UNL     1      -2.592  -5.730   2.507  1.00  0.00     0.176 A 
ATOM     11  C   UNL     1      -0.271  -5.429   1.933  1.00  0.00     0.206 A 
ATOM     12  N   UNL     1      -0.500  -5.324   3.230  1.00  0.00    -0.119 NA
ATOM     13  S   UNL     1      -1.624  -6.196   1.147  1.00  0.00    -0.069 S 
ATOM     14  N   UNL     1      -1.842  -5.470   3.560  1.00  0.00    -0.130 NA
BRANCH  11  15
ATOM     15  N   UNL     1       0.870  -4.951   1.356  1.00  0.00    -0.357 N 
ATOM     16  H   UNL     1       1.613  -4.729   1.964  1.00  0.00     0.163 HD
BRANCH  15  17
ATOM     17  C   UNL     1       1.104  -4.732  -0.073  1.00  0.00     0.153 C 
BRANCH  17  18
ATOM     18  C   UNL     1       2.099  -3.548  -0.405  1.00  0.00     0.192 C 
ATOM     19  C   UNL     1       2.763  -0.265  -0.653  1.00  0.00     0.332 C 
ATOM     20  N   UNL     1       2.071  -1.185  -1.552  1.00  0.00    -0.333 N 
ATOM     21  C   UNL     1       2.955  -1.790  -2.547  1.00  0.00     0.290 C 
ATOM     22  C   UNL     1       1.344  -2.252  -0.825  1.00  0.00     0.296 C 
ATOM     23  H   UNL     1       1.392  -0.603  -2.043  1.00  0.00     0.348 HD
ATOM     24  C   UNL     1       3.801  -2.919  -1.956  1.00  0.00     0.222 C 
ATOM     25  O   UNL     1       2.966  -3.986  -1.479  1.00  0.00    -0.365 OA
ENDBRANCH  17  18
ENDBRANCH  15  17
ENDBRANCH  11  15
ENDBRANCH   9  10
ENDBRANCH   8   9
ENDBRANCH   6   8
ENDBRANCH   5   6
ENDBRANCH   4   5
ENDBRANCH   3   4
ENDBRANCH   2   3
ENDBRANCH   1   2
BRANCH   1  26
ATOM     26  C   UNL     1      -3.217  -3.995  -0.755  1.00  0.00     0.188 C 
BRANCH  26  27
ATOM     27  O   UNL     1      -3.971  -2.854  -0.390  1.00  0.00    -0.377 OA
BRANCH  27  28
ATOM     28  C   UNL     1      -3.383  -1.573  -0.534  1.00  0.00     0.188 C 
BRANCH  28  29
ATOM     29  C   UNL     1      -1.869  -1.548  -0.534  1.00  0.00     0.188 C 
BRANCH  29  30
ATOM     30  O   UNL     1      -1.207  -2.254   0.512  1.00  0.00    -0.376 OA
BRANCH  30  31
ATOM     31  C   UNL     1      -1.741  -2.247   1.828  1.00  0.00     0.202 C 
BRANCH  31  32
ATOM     32  C   UNL     1      -0.737  -1.687   2.829  1.00  0.00     0.261 C 
BRANCH  32  33
ATOM     33  O   UNL     1      -0.985  -0.278   2.901  1.00  0.00    -0.460 OA
BRANCH  33  34
ATOM     34  C   UNL     1      -0.246   0.457   2.043  1.00  0.00     0.338 C 
ATOM     35  O   UNL     1       0.835   0.185   1.570  1.00  0.00    -0.246 OA
BRANCH  34  36
ATOM     36  C   UNL     1      -1.081   1.584   1.610  1.00  0.00     0.060 A 
ATOM     37  C   UNL     1      -1.168   1.867   0.240  1.00  0.00     0.016 A 
ATOM     38  C   UNL     1      -1.773   2.341   2.555  1.00  0.00     0.016 A 
ATOM     39  C   UNL     1      -1.965   2.910  -0.200  1.00  0.00     0.010 A 
ATOM     40  C   UNL     1      -2.516   3.426   2.124  1.00  0.00     0.010 A 
ATOM     41  C   UNL     1      -2.586   3.718   0.753  1.00  0.00    -0.014 A 
BRANCH  41  42
ATOM     42  C   UNL     1      -3.145   5.011   0.352  1.00  0.00     0.031 A 
ATOM     43  C   UNL     1      -2.252   6.204   0.469  1.00  0.00     0.074 A 
ATOM     44  C   UNL     1      -4.431   5.077  -0.016  1.00  0.00     0.049 A 
ATOM     45  N   UNL     1      -2.554   7.471   0.428  1.00  0.00    -0.248 NA
ATOM     46  C   UNL     1      -0.819   5.930   0.687  1.00  0.00     0.031 C 
ATOM     47  C   UNL     1      -5.316   3.923  -0.189  1.00  0.00     0.029 A 
ATOM     48  N   UNL     1      -5.224   6.158  -0.266  1.00  0.00    -0.354 N 
ATOM     49  C   UNL     1      -1.358   8.144   0.645  1.00  0.00     0.074 A 
ATOM     50  C   UNL     1      -0.325   7.151   0.820  1.00  0.00     0.031 C 
ATOM     51  C   UNL     1      -6.551   4.364  -0.475  1.00  0.00     0.029 A 
ATOM     52  C   UNL     1      -6.542   5.823  -0.450  1.00  0.00     0.049 A 
ATOM     53  H   UNL     1      -4.887   7.082  -0.311  1.00  0.00     0.167 HD
ATOM     54  C   UNL     1      -1.165   9.480   0.705  1.00  0.00     0.037 A 
ATOM     55  C   UNL     1      -7.617   6.625  -0.529  1.00  0.00     0.037 A 
ATOM     56  C   UNL     1      -2.243  10.419   0.547  1.00  0.00     0.049 A 
ATOM     57  C   UNL     1      -7.386   8.106  -0.419  1.00  0.00     0.074 A 
ATOM     58  C   UNL     1      -2.210  11.799   0.587  1.00  0.00     0.029 A 
ATOM     59  N   UNL     1      -3.566  10.051   0.321  1.00  0.00    -0.354 N 
ATOM     60  N   UNL     1      -6.260   8.749  -0.204  1.00  0.00    -0.248 NA
ATOM     61  C   UNL     1      -8.560   8.971  -0.561  1.00  0.00     0.031 C 
ATOM     62  C   UNL     1      -3.521  12.263   0.422  1.00  0.00     0.029 A 
ATOM     63  C   UNL     1      -4.363  11.175   0.230  1.00  0.00     0.049 A 
ATOM     64  H   UNL     1      -3.887   9.124   0.238  1.00  0.00     0.167 HD
ATOM     65  C   UNL     1      -6.582  10.097  -0.207  1.00  0.00     0.074 A 
ATOM     66  C   UNL     1      -8.011  10.174  -0.457  1.00  0.00     0.031 C 
ATOM     67  C   UNL     1      -5.784  11.179  -0.022  1.00  0.00     0.037 A 
BRANCH  54  68
ATOM     68  C   UNL     1       0.224   9.970   0.996  1.00  0.00     0.057 A 
ATOM     69  C   UNL     1       1.271   9.837   0.073  1.00  0.00     0.134 A 
ATOM     70  C   UNL     1       0.528  10.568   2.226  1.00  0.00     0.134 A 
ATOM     71  F   UNL     1       1.060   9.250  -1.115  1.00  0.00    -0.206 F 
ATOM     72  C   UNL     1       2.570  10.259   0.370  1.00  0.00     0.040 A 
ATOM     73  C   UNL     1       1.817  11.016   2.526  1.00  0.00     0.040 A 
ATOM     74  F   UNL     1      -0.421  10.720   3.163  1.00  0.00    -0.206 F 
ATOM     75  C   UNL     1       2.844  10.856   1.599  1.00  0.00     0.006 A 
ENDBRANCH  54  68
BRANCH  55  76
ATOM     76  C   UNL     1      -8.968   6.037  -0.702  1.00  0.00     0.057 A 
ATOM     77  C   UNL     1      -9.659   6.163  -1.911  1.00  0.00     0.134 A 
ATOM     78  C   UNL     1      -9.576   5.284   0.311  1.00  0.00     0.134 A 
ATOM     79  F   UNL     1      -9.134   6.877  -2.917  1.00  0.00    -0.206 F 
ATOM     80  C   UNL     1     -10.907   5.567  -2.107  1.00  0.00     0.040 A 
ATOM     81  C   UNL     1     -10.812   4.663   0.122  1.00  0.00     0.040 A 
ATOM     82  F   UNL     1      -8.960   5.111   1.490  1.00  0.00    -0.206 F 
ATOM     83  C   UNL     1     -11.483   4.806  -1.091  1.00  0.00     0.006 A 
ENDBRANCH  55  76
BRANCH  67  84
ATOM     84  C   UNL     1      -6.448  12.516  -0.126  1.00  0.00     0.057 A 
ATOM     85  C   UNL     1      -7.275  13.008   0.890  1.00  0.00     0.134 A 
ATOM     86  C   UNL     1      -6.228  13.328  -1.245  1.00  0.00     0.134 A 
ATOM     87  F   UNL     1      -7.532  12.266   1.978  1.00  0.00    -0.206 F 
ATOM     88  C   UNL     1      -7.883  14.258   0.784  1.00  0.00     0.040 A 
ATOM     89  C   UNL     1      -6.808  14.590  -1.349  1.00  0.00     0.040 A 
ATOM     90  F   UNL     1      -5.436  12.911  -2.245  1.00  0.00    -0.206 F 
ATOM     91  C   UNL     1      -7.645  15.054  -0.335  1.00  0.00     0.006 A 
ENDBRANCH  67  84
ENDBRANCH  41  42
ENDBRANCH  34  36
ENDBRANCH  33  34
ENDBRANCH  32  33
ENDBRANCH  31  32
ENDBRANCH  30  31
ENDBRANCH  29  30
ENDBRANCH  28  29
ENDBRANCH  27  28
ENDBRANCH  26  27
ENDBRANCH   1  26
TORSDOF 25
