REMARK SMILES CC(=O)N[C@@H](Cc1c(OCC(C)C)ccc2ccccc12)C(=O)OCCOCCOCCOCCOC(=O)c1ccc(-c2c3nc(c(-c4c(F)cccc4F)c4ccc([nH]4)c(-c4c(F)cccc4F)c4nc(c(-c5c(F)cccc5F)c5ccc2[nH]5)C=C4)C=C3)cc1
REMARK SMILES IDX 28 1 27 2 26 3 25 4 24 5 22 6 23 7 5 8 4 9 1 10 2 11 3 12
REMARK SMILES IDX 6 14 7 15 8 16 21 17 14 18 16 19 20 20 15 21 17 22 19 23
REMARK SMILES IDX 18 24 9 25 10 26 11 27 12 28 13 29 29 30 30 31 31 32 32 33
REMARK SMILES IDX 33 34 34 35 35 36 36 37 37 38 38 39 39 40 40 41 92 42 41 43
REMARK SMILES IDX 91 44 42 45 43 46 44 47 85 48 45 49 90 50 84 51 86 52 46 53
REMARK SMILES IDX 89 54 83 55 82 56 47 58 73 59 56 60 72 61 57 62 60 63 71 64
REMARK SMILES IDX 87 65 58 66 59 67 70 69 88 70 61 71 48 72 49 73 54 74 50 75
REMARK SMILES IDX 51 76 53 77 55 78 52 79 74 80 75 81 80 82 76 83 77 84 79 85
REMARK SMILES IDX 81 86 78 87 62 88 63 89 68 90 64 91 65 92 67 93 69 94 66 95
REMARK H PARENT 4 13 86 57 60 68
REMARK Flexibility Score: inf
ROOT
ATOM      1  C   UNL     1      -0.827   3.988  -0.581  1.00  0.00     0.188 C 
ENDROOT
BRANCH   1   2
ATOM      2  O   UNL     1      -0.945   5.373  -0.884  1.00  0.00    -0.376 OA
BRANCH   2   3
ATOM      3  C   UNL     1      -0.636   5.840  -2.187  1.00  0.00     0.202 C 
BRANCH   3   4
ATOM      4  C   UNL     1       0.667   5.409  -2.870  1.00  0.00     0.261 C 
BRANCH   4   5
ATOM      5  O   UNL     1       1.012   4.018  -2.760  1.00  0.00    -0.462 OA
BRANCH   5   6
ATOM      6  C   UNL     1       2.133   3.712  -2.056  1.00  0.00     0.329 C 
ATOM      7  O   UNL     1       2.833   4.537  -1.476  1.00  0.00    -0.250 OA
BRANCH   6   8
ATOM      8  C   UNL     1       2.529   2.222  -2.167  1.00  0.00     0.196 C 
BRANCH   8   9
ATOM      9  N   UNL     1       1.462   1.230  -2.394  1.00  0.00    -0.343 N 
ATOM     10  C   UNL     1       1.444   0.174  -0.166  1.00  0.00     0.114 C 
ATOM     11  C   UNL     1       0.990   0.233  -1.594  1.00  0.00     0.217 C 
ATOM     12  O   UNL     1       0.157  -0.559  -2.032  1.00  0.00    -0.275 OA
ATOM     13  H   UNL     1       1.016   1.300  -3.269  1.00  0.00     0.164 HD
ENDBRANCH   8   9
BRANCH   8  14
ATOM     14  C   UNL     1       3.601   2.095  -3.277  1.00  0.00     0.077 C 
BRANCH  14  15
ATOM     15  C   UNL     1       3.001   2.182  -4.686  1.00  0.00     0.005 A 
ATOM     16  C   UNL     1       2.787   3.461  -5.253  1.00  0.00     0.123 A 
ATOM     17  C   UNL     1       2.532   1.013  -5.372  1.00  0.00    -0.011 A 
ATOM     18  C   UNL     1       2.002   3.585  -6.394  1.00  0.00     0.047 A 
ATOM     19  C   UNL     1       1.831   1.176  -6.592  1.00  0.00    -0.018 A 
ATOM     20  C   UNL     1       2.692  -0.316  -4.907  1.00  0.00     0.009 A 
ATOM     21  C   UNL     1       1.548   2.456  -7.068  1.00  0.00     0.012 A 
ATOM     22  C   UNL     1       1.386   0.062  -7.320  1.00  0.00     0.009 A 
ATOM     23  C   UNL     1       2.217  -1.418  -5.625  1.00  0.00     0.001 A 
ATOM     24  C   UNL     1       1.582  -1.229  -6.842  1.00  0.00     0.001 A 
BRANCH  16  25
ATOM     25  O   UNL     1       3.403   4.507  -4.621  1.00  0.00    -0.493 OA
BRANCH  25  26
ATOM     26  C   UNL     1       3.228   5.846  -5.084  1.00  0.00     0.232 C 
BRANCH  26  27
ATOM     27  C   UNL     1       4.323   6.299  -6.064  1.00  0.00     0.020 C 
ATOM     28  C   UNL     1       4.368   5.494  -7.362  1.00  0.00     0.011 C 
ATOM     29  C   UNL     1       4.126   7.780  -6.391  1.00  0.00     0.011 C 
ENDBRANCH  26  27
ENDBRANCH  25  26
ENDBRANCH  16  25
ENDBRANCH  14  15
ENDBRANCH   8  14
ENDBRANCH   6   8
ENDBRANCH   5   6
ENDBRANCH   4   5
ENDBRANCH   3   4
ENDBRANCH   2   3
ENDBRANCH   1   2
BRANCH   1  30
ATOM     30  C   UNL     1      -1.282   2.917  -1.591  1.00  0.00     0.188 C 
BRANCH  30  31
ATOM     31  O   UNL     1      -1.584   3.392  -2.890  1.00  0.00    -0.377 OA
BRANCH  31  32
ATOM     32  C   UNL     1      -2.966   3.523  -3.188  1.00  0.00     0.188 C 
BRANCH  32  33
ATOM     33  C   UNL     1      -3.844   4.160  -2.094  1.00  0.00     0.188 C 
BRANCH  33  34
ATOM     34  O   UNL     1      -3.726   3.533  -0.824  1.00  0.00    -0.376 OA
BRANCH  34  35
ATOM     35  C   UNL     1      -4.660   2.531  -0.451  1.00  0.00     0.202 C 
BRANCH  35  36
ATOM     36  C   UNL     1      -4.731   1.234  -1.277  1.00  0.00     0.261 C 
BRANCH  36  37
ATOM     37  O   UNL     1      -4.990   1.370  -2.683  1.00  0.00    -0.460 OA
BRANCH  37  38
ATOM     38  C   UNL     1      -6.098   2.029  -3.073  1.00  0.00     0.338 C 
ATOM     39  O   UNL     1      -6.978   2.481  -2.360  1.00  0.00    -0.246 OA
BRANCH  38  40
ATOM     40  C   UNL     1      -5.965   2.304  -4.519  1.00  0.00     0.060 A 
ATOM     41  C   UNL     1      -5.994   3.634  -4.963  1.00  0.00     0.016 A 
ATOM     42  C   UNL     1      -5.801   1.259  -5.432  1.00  0.00     0.016 A 
ATOM     43  C   UNL     1      -5.897   3.920  -6.324  1.00  0.00     0.010 A 
ATOM     44  C   UNL     1      -5.736   1.545  -6.798  1.00  0.00     0.010 A 
ATOM     45  C   UNL     1      -5.820   2.874  -7.251  1.00  0.00    -0.014 A 
BRANCH  45  46
ATOM     46  C   UNL     1      -6.053   3.149  -8.688  1.00  0.00     0.031 A 
ATOM     47  C   UNL     1      -7.437   2.930  -9.235  1.00  0.00     0.074 A 
ATOM     48  C   UNL     1      -5.071   3.599  -9.488  1.00  0.00     0.049 A 
ATOM     49  N   UNL     1      -7.873   3.029 -10.464  1.00  0.00    -0.248 NA
ATOM     50  C   UNL     1      -8.468   2.542  -8.258  1.00  0.00     0.031 C 
ATOM     51  C   UNL     1      -3.705   3.901  -9.067  1.00  0.00     0.029 A 
ATOM     52  N   UNL     1      -5.078   3.868 -10.835  1.00  0.00    -0.354 N 
ATOM     53  C   UNL     1      -9.223   2.705 -10.409  1.00  0.00     0.074 A 
ATOM     54  C   UNL     1      -9.528   2.378  -9.034  1.00  0.00     0.031 C 
ATOM     55  C   UNL     1      -2.998   4.299 -10.140  1.00  0.00     0.029 A 
ATOM     56  C   UNL     1      -3.851   4.241 -11.326  1.00  0.00     0.049 A 
ATOM     57  H   UNL     1      -5.885   3.801 -11.394  1.00  0.00     0.167 HD
ATOM     58  C   UNL     1     -10.129   2.686 -11.415  1.00  0.00     0.037 A 
ATOM     59  C   UNL     1      -3.460   4.477 -12.594  1.00  0.00     0.037 A 
ATOM     60  C   UNL     1      -9.819   3.005 -12.783  1.00  0.00     0.049 A 
ATOM     61  C   UNL     1      -4.466   4.363 -13.712  1.00  0.00     0.074 A 
ATOM     62  C   UNL     1     -10.668   3.029 -13.875  1.00  0.00     0.029 A 
ATOM     63  N   UNL     1      -8.558   3.344 -13.247  1.00  0.00    -0.354 N 
ATOM     64  N   UNL     1      -5.745   4.077 -13.651  1.00  0.00    -0.248 NA
ATOM     65  C   UNL     1      -3.973   4.604 -15.076  1.00  0.00     0.031 C 
ATOM     66  C   UNL     1      -9.908   3.322 -15.011  1.00  0.00     0.029 A 
ATOM     67  C   UNL     1      -8.599   3.548 -14.617  1.00  0.00     0.049 A 
ATOM     68  H   UNL     1      -7.752   3.427 -12.687  1.00  0.00     0.167 HD
ATOM     69  C   UNL     1      -6.215   4.138 -14.959  1.00  0.00     0.074 A 
ATOM     70  C   UNL     1      -5.085   4.499 -15.790  1.00  0.00     0.031 C 
ATOM     71  C   UNL     1      -7.467   3.918 -15.430  1.00  0.00     0.037 A 
BRANCH  58  72
ATOM     72  C   UNL     1     -11.531   2.271 -11.075  1.00  0.00     0.057 A 
ATOM     73  C   UNL     1     -12.381   3.077 -10.307  1.00  0.00     0.134 A 
ATOM     74  C   UNL     1     -12.045   1.056 -11.545  1.00  0.00     0.134 A 
ATOM     75  F   UNL     1     -11.947   4.246  -9.811  1.00  0.00    -0.206 F 
ATOM     76  C   UNL     1     -13.683   2.679  -9.998  1.00  0.00     0.040 A 
ATOM     77  C   UNL     1     -13.354   0.660 -11.268  1.00  0.00     0.040 A 
ATOM     78  F   UNL     1     -11.286   0.236 -12.287  1.00  0.00    -0.206 F 
ATOM     79  C   UNL     1     -14.175   1.470 -10.486  1.00  0.00     0.006 A 
ENDBRANCH  58  72
BRANCH  59  80
ATOM     80  C   UNL     1      -2.044   4.823 -12.887  1.00  0.00     0.057 A 
ATOM     81  C   UNL     1      -1.691   6.087 -13.375  1.00  0.00     0.134 A 
ATOM     82  C   UNL     1      -1.015   3.889 -12.717  1.00  0.00     0.134 A 
ATOM     83  F   UNL     1      -2.633   7.018 -13.583  1.00  0.00    -0.206 F 
ATOM     84  C   UNL     1      -0.371   6.402 -13.703  1.00  0.00     0.040 A 
ATOM     85  C   UNL     1       0.313   4.200 -13.014  1.00  0.00     0.040 A 
ATOM     86  F   UNL     1      -1.284   2.660 -12.252  1.00  0.00    -0.206 F 
ATOM     87  C   UNL     1       0.637   5.457 -13.518  1.00  0.00     0.006 A 
ENDBRANCH  59  80
BRANCH  71  88
ATOM     88  C   UNL     1      -7.700   4.106 -16.902  1.00  0.00     0.057 A 
ATOM     89  C   UNL     1      -7.194   3.214 -17.857  1.00  0.00     0.134 A 
ATOM     90  C   UNL     1      -8.488   5.169 -17.366  1.00  0.00     0.134 A 
ATOM     91  F   UNL     1      -6.424   2.181 -17.482  1.00  0.00    -0.206 F 
ATOM     92  C   UNL     1      -7.443   3.386 -19.220  1.00  0.00     0.040 A 
ATOM     93  C   UNL     1      -8.770   5.332 -18.723  1.00  0.00     0.040 A 
ATOM     94  F   UNL     1      -9.014   6.053 -16.506  1.00  0.00    -0.206 F 
ATOM     95  C   UNL     1      -8.241   4.443 -19.655  1.00  0.00     0.006 A 
ENDBRANCH  71  88
ENDBRANCH  45  46
ENDBRANCH  38  40
ENDBRANCH  37  38
ENDBRANCH  36  37
ENDBRANCH  35  36
ENDBRANCH  34  35
ENDBRANCH  33  34
ENDBRANCH  32  33
ENDBRANCH  31  32
ENDBRANCH  30  31
ENDBRANCH   1  30
TORSDOF 26
