REMARK SMILES O=C(N[C@H](CCBr)C(=O)OCCOCCOCCOCCOC(=O)c1ccc(-c2c3nc(c(-c4c(F)cccc4F)c4ccc([nH]4)c(-c4c(F)cccc4F)c4nc(c(-c5c(F)cccc5F)c5ccc2[nH]5)C=C4)C=C3)cc1)OCc1ccccc1
REMARK SMILES IDX 15 1 14 2 13 3 12 4 11 5 10 6 8 7 9 8 4 9 3 10 1 11 2 12
REMARK SMILES IDX 79 14 80 15 81 16 82 17 86 18 83 19 85 20 84 21 5 22 6 23
REMARK SMILES IDX 7 24 16 25 17 26 18 27 19 28 20 29 21 30 22 31 23 32 24 33
REMARK SMILES IDX 25 34 26 35 78 36 27 37 77 38 28 39 29 40 30 41 71 42 31 43
REMARK SMILES IDX 76 44 70 45 72 46 32 47 75 48 69 49 68 50 33 52 59 53 42 54
REMARK SMILES IDX 58 55 43 56 46 57 57 58 73 59 44 60 45 61 56 63 74 64 47 65
REMARK SMILES IDX 34 66 35 67 40 68 36 69 37 70 39 71 41 72 38 73 60 74 61 75
REMARK SMILES IDX 66 76 62 77 63 78 65 79 67 80 64 81 48 82 49 83 54 84 50 85
REMARK SMILES IDX 51 86 53 87 55 88 52 89
REMARK H PARENT 3 13 72 51 46 62
REMARK Flexibility Score: inf
ROOT
ATOM      1  C   UNL     1       4.218   0.157   3.979  1.00  0.00     0.188 C 
ENDROOT
BRANCH   1   2
ATOM      2  C   UNL     1       5.710   0.297   3.691  1.00  0.00     0.188 C 
BRANCH   2   3
ATOM      3  O   UNL     1       6.422   1.270   4.448  1.00  0.00    -0.376 OA
BRANCH   3   4
ATOM      4  C   UNL     1       6.077   2.642   4.278  1.00  0.00     0.202 C 
BRANCH   4   5
ATOM      5  C   UNL     1       6.343   3.279   2.908  1.00  0.00     0.261 C 
BRANCH   5   6
ATOM      6  O   UNL     1       5.590   2.660   1.851  1.00  0.00    -0.462 OA
BRANCH   6   7
ATOM      7  C   UNL     1       6.312   1.976   0.921  1.00  0.00     0.328 C 
ATOM      8  O   UNL     1       7.536   1.921   0.886  1.00  0.00    -0.250 OA
BRANCH   7   9
ATOM      9  C   UNL     1       5.426   1.353  -0.165  1.00  0.00     0.196 C 
BRANCH   9  10
ATOM     10  N   UNL     1       5.266   2.344  -1.232  1.00  0.00    -0.308 N 
ATOM     11  O   UNL     1       5.023   4.215  -2.364  1.00  0.00    -0.225 OA
ATOM     12  C   UNL     1       4.674   3.562  -1.379  1.00  0.00     0.408 C 
ATOM     13  H   UNL     1       5.704   2.052  -2.065  1.00  0.00     0.168 HD
BRANCH  12  14
ATOM     14  O   UNL     1       3.804   4.110  -0.506  1.00  0.00    -0.445 OA
BRANCH  14  15
ATOM     15  C   UNL     1       2.776   3.558   0.344  1.00  0.00     0.270 C 
BRANCH  15  16
ATOM     16  C   UNL     1       1.738   2.637  -0.266  1.00  0.00    -0.011 A 
ATOM     17  C   UNL     1       0.845   1.989   0.610  1.00  0.00     0.007 A 
ATOM     18  C   UNL     1       1.731   2.270  -1.619  1.00  0.00     0.007 A 
ATOM     19  C   UNL     1       0.065   0.919   0.171  1.00  0.00     0.000 A 
ATOM     20  C   UNL     1       0.980   1.172  -2.046  1.00  0.00     0.000 A 
ATOM     21  C   UNL     1       0.164   0.485  -1.148  1.00  0.00     0.000 A 
ENDBRANCH  15  16
ENDBRANCH  14  15
ENDBRANCH  12  14
ENDBRANCH   9  10
BRANCH   9  22
ATOM     22  C   UNL     1       4.161   0.615   0.257  1.00  0.00     0.048 C 
BRANCH  22  23
ATOM     23  C   UNL     1       4.062  -0.888   0.048  1.00  0.00     0.083 C 
ATOM     24  Br  UNL     1       5.436  -1.918   0.924  1.00  0.00    -0.093 Br
ENDBRANCH  22  23
ENDBRANCH   9  22
ENDBRANCH   7   9
ENDBRANCH   6   7
ENDBRANCH   5   6
ENDBRANCH   4   5
ENDBRANCH   3   4
ENDBRANCH   2   3
ENDBRANCH   1   2
BRANCH   1  25
ATOM     25  O   UNL     1       3.490   1.334   3.637  1.00  0.00    -0.377 OA
BRANCH  25  26
ATOM     26  C   UNL     1       2.615   1.908   4.611  1.00  0.00     0.188 C 
BRANCH  26  27
ATOM     27  C   UNL     1       2.580   1.290   6.013  1.00  0.00     0.188 C 
BRANCH  27  28
ATOM     28  O   UNL     1       2.000  -0.007   6.183  1.00  0.00    -0.376 OA
BRANCH  28  29
ATOM     29  C   UNL     1       1.226  -0.582   5.137  1.00  0.00     0.202 C 
BRANCH  29  30
ATOM     30  C   UNL     1      -0.264  -0.238   5.137  1.00  0.00     0.261 C 
BRANCH  30  31
ATOM     31  O   UNL     1      -0.500   1.173   5.109  1.00  0.00    -0.460 OA
BRANCH  31  32
ATOM     32  C   UNL     1      -0.601   1.744   6.329  1.00  0.00     0.338 C 
ATOM     33  O   UNL     1      -0.558   1.194   7.422  1.00  0.00    -0.246 OA
BRANCH  32  34
ATOM     34  C   UNL     1      -0.644   3.200   6.167  1.00  0.00     0.060 A 
ATOM     35  C   UNL     1       0.227   3.984   6.934  1.00  0.00     0.016 A 
ATOM     36  C   UNL     1      -1.591   3.787   5.325  1.00  0.00     0.016 A 
ATOM     37  C   UNL     1       0.129   5.367   6.892  1.00  0.00     0.010 A 
ATOM     38  C   UNL     1      -1.710   5.173   5.305  1.00  0.00     0.010 A 
ATOM     39  C   UNL     1      -0.878   5.957   6.122  1.00  0.00    -0.014 A 
BRANCH  39  40
ATOM     40  C   UNL     1      -1.203   7.377   6.346  1.00  0.00     0.031 A 
ATOM     41  C   UNL     1      -2.328   7.705   7.282  1.00  0.00     0.074 A 
ATOM     42  C   UNL     1      -0.487   8.338   5.745  1.00  0.00     0.049 A 
ATOM     43  N   UNL     1      -2.836   8.867   7.593  1.00  0.00    -0.248 NA
ATOM     44  C   UNL     1      -2.973   6.564   7.956  1.00  0.00     0.031 C 
ATOM     45  C   UNL     1       0.655   8.113   4.861  1.00  0.00     0.029 A 
ATOM     46  N   UNL     1      -0.628   9.699   5.783  1.00  0.00    -0.354 N 
ATOM     47  C   UNL     1      -3.864   8.599   8.486  1.00  0.00     0.074 A 
ATOM     48  C   UNL     1      -3.929   7.164   8.647  1.00  0.00     0.031 C 
ATOM     49  C   UNL     1       1.103   9.301   4.422  1.00  0.00     0.029 A 
ATOM     50  C   UNL     1       0.255  10.359   4.967  1.00  0.00     0.049 A 
ATOM     51  H   UNL     1      -1.296  10.158   6.341  1.00  0.00     0.167 HD
ATOM     52  C   UNL     1      -4.676   9.477   9.118  1.00  0.00     0.037 A 
ATOM     53  C   UNL     1       0.339  11.670   4.676  1.00  0.00     0.037 A 
ATOM     54  C   UNL     1      -4.598  10.902   8.938  1.00  0.00     0.049 A 
ATOM     55  C   UNL     1      -0.624  12.621   5.333  1.00  0.00     0.074 A 
ATOM     56  C   UNL     1      -5.356  11.891   9.536  1.00  0.00     0.029 A 
ATOM     57  N   UNL     1      -3.710  11.539   8.080  1.00  0.00    -0.354 N 
ATOM     58  N   UNL     1      -1.582  12.368   6.195  1.00  0.00    -0.248 NA
ATOM     59  C   UNL     1      -0.493  14.041   4.981  1.00  0.00     0.031 C 
ATOM     60  C   UNL     1      -4.969  13.121   8.994  1.00  0.00     0.029 A 
ATOM     61  C   UNL     1      -3.924  12.906   8.109  1.00  0.00     0.049 A 
ATOM     62  H   UNL     1      -3.029  11.085   7.533  1.00  0.00     0.167 HD
ATOM     63  C   UNL     1      -2.148  13.596   6.510  1.00  0.00     0.074 A 
ATOM     64  C   UNL     1      -1.415  14.595   5.756  1.00  0.00     0.031 C 
ATOM     65  C   UNL     1      -3.178  13.878   7.346  1.00  0.00     0.037 A 
BRANCH  52  66
ATOM     66  C   UNL     1      -5.737   8.915  10.019  1.00  0.00     0.057 A 
ATOM     67  C   UNL     1      -5.431   8.285  11.233  1.00  0.00     0.134 A 
ATOM     68  C   UNL     1      -7.090   9.012   9.667  1.00  0.00     0.134 A 
ATOM     69  F   UNL     1      -4.155   8.140  11.621  1.00  0.00    -0.206 F 
ATOM     70  C   UNL     1      -6.429   7.749  12.050  1.00  0.00     0.040 A 
ATOM     71  C   UNL     1      -8.098   8.507  10.490  1.00  0.00     0.040 A 
ATOM     72  F   UNL     1      -7.455   9.600   8.518  1.00  0.00    -0.206 F 
ATOM     73  C   UNL     1      -7.768   7.866  11.682  1.00  0.00     0.006 A 
ENDBRANCH  52  66
BRANCH  53  74
ATOM     74  C   UNL     1       1.359  12.148   3.712  1.00  0.00     0.057 A 
ATOM     75  C   UNL     1       2.434  12.942   4.125  1.00  0.00     0.134 A 
ATOM     76  C   UNL     1       1.287  11.818   2.352  1.00  0.00     0.134 A 
ATOM     77  F   UNL     1       2.550  13.305   5.411  1.00  0.00    -0.206 F 
ATOM     78  C   UNL     1       3.392  13.404   3.220  1.00  0.00     0.040 A 
ATOM     79  C   UNL     1       2.251  12.249   1.441  1.00  0.00     0.040 A 
ATOM     80  F   UNL     1       0.284  11.053   1.893  1.00  0.00    -0.206 F 
ATOM     81  C   UNL     1       3.304  13.052   1.874  1.00  0.00     0.006 A 
ENDBRANCH  53  74
BRANCH  65  82
ATOM     82  C   UNL     1      -3.546  15.324   7.517  1.00  0.00     0.057 A 
ATOM     83  C   UNL     1      -4.167  16.058   6.498  1.00  0.00     0.134 A 
ATOM     84  C   UNL     1      -3.310  15.978   8.733  1.00  0.00     0.134 A 
ATOM     85  F   UNL     1      -4.411  15.494   5.305  1.00  0.00    -0.206 F 
ATOM     86  C   UNL     1      -4.512  17.399   6.673  1.00  0.00     0.040 A 
ATOM     87  C   UNL     1      -3.681  17.308   8.931  1.00  0.00     0.040 A 
ATOM     88  F   UNL     1      -2.730  15.329   9.755  1.00  0.00    -0.206 F 
ATOM     89  C   UNL     1      -4.276  18.025   7.896  1.00  0.00     0.006 A 
ENDBRANCH  65  82
ENDBRANCH  39  40
ENDBRANCH  32  34
ENDBRANCH  31  32
ENDBRANCH  30  31
ENDBRANCH  29  30
ENDBRANCH  28  29
ENDBRANCH  27  28
ENDBRANCH  26  27
ENDBRANCH  25  26
ENDBRANCH   1  25
TORSDOF 26
