REMARK SMILES CN(C)S(=O)(=O)c1ccc(-n2c(CCC(=O)OCCOCCOCCOCCOC(=O)c3ccc(-c4c5nc(c(-c6c(F)cccc6F)c6ccc([nH]6)c(-c6c(F)cccc6F)c6nc(c(-c7c(F)cccc7F)c7ccc4[nH]7)C=C6)C=C5)cc3)ccc2-c2ccc(F)cc2)cc1
REMARK SMILES IDX 21 1 20 2 19 3 18 4 17 5 15 6 16 7 14 8 13 9 12 10 11 11
REMARK SMILES IDX 88 12 86 13 87 14 10 15 7 16 8 17 97 18 9 19 96 20 4 21 5 22
REMARK SMILES IDX 6 23 2 24 1 25 3 26 89 27 90 28 95 29 91 30 94 31 92 32
REMARK SMILES IDX 93 33 22 34 23 35 24 36 25 37 26 38 27 39 28 40 29 41 30 42
REMARK SMILES IDX 31 43 32 44 33 45 85 46 34 47 84 48 35 49 36 50 37 51 78 52
REMARK SMILES IDX 38 53 83 54 77 55 79 56 39 57 82 58 76 59 75 60 40 62 66 63
REMARK SMILES IDX 49 64 65 65 50 66 53 67 64 68 80 69 51 70 52 71 63 73 81 74
REMARK SMILES IDX 54 75 41 76 42 77 47 78 43 79 44 80 46 81 48 82 45 83 67 84
REMARK SMILES IDX 68 85 73 86 69 87 70 88 72 89 74 90 71 91 55 92 56 93 61 94
REMARK SMILES IDX 57 95 58 96 60 97 62 98 59 99
REMARK H PARENT 79 61 53 72
REMARK Flexibility Score: inf
ROOT
ATOM      1  C   UNL     1      -1.572   0.664  -4.503  1.00  0.00     0.188 C 
ENDROOT
BRANCH   1   2
ATOM      2  O   UNL     1      -0.080   0.724  -4.886  1.00  0.00    -0.376 OA
BRANCH   2   3
ATOM      3  C   UNL     1       1.527  -0.173  -5.660  1.00  0.00     0.202 C 
BRANCH   3   4
ATOM      4  C   UNL     1       1.717  -1.596  -6.624  1.00  0.00     0.261 C 
BRANCH   4   5
ATOM      5  O   UNL     1       0.763  -1.878  -7.689  1.00  0.00    -0.463 OA
BRANCH   5   6
ATOM      6  C   UNL     1       0.054  -3.037  -7.582  1.00  0.00     0.306 C 
ATOM      7  O   UNL     1       0.473  -4.038  -7.008  1.00  0.00    -0.252 OA
BRANCH   6   8
ATOM      8  C   UNL     1      -1.372  -2.973  -8.138  1.00  0.00     0.129 C 
BRANCH   8   9
ATOM      9  C   UNL     1      -2.231  -1.708  -7.980  1.00  0.00     0.066 C 
BRANCH   9  10
ATOM     10  C   UNL     1      -1.681  -0.509  -8.664  1.00  0.00     0.024 A 
ATOM     11  N   UNL     1      -0.739   0.366  -8.128  1.00  0.00    -0.314 N 
ATOM     12  C   UNL     1      -0.334   1.220  -9.179  1.00  0.00     0.053 A 
ATOM     13  C   UNL     1      -2.050  -0.044  -9.911  1.00  0.00     0.024 A 
ATOM     14  C   UNL     1      -1.216   1.035 -10.230  1.00  0.00     0.029 A 
BRANCH  11  15
ATOM     15  C   UNL     1      -0.232   0.373  -6.780  1.00  0.00     0.046 A 
ATOM     16  C   UNL     1       1.244   0.577  -3.485  1.00  0.00     0.082 A 
ATOM     17  C   UNL     1       1.419   1.929  -4.640  1.00  0.00     0.024 A 
ATOM     18  C   UNL     1       0.380  -0.926  -3.947  1.00  0.00     0.024 A 
ATOM     19  C   UNL     1       0.652   1.858  -6.256  1.00  0.00     0.028 A 
ATOM     20  C   UNL     1      -0.392  -1.033  -5.594  1.00  0.00     0.028 A 
BRANCH  16  21
ATOM     21  S   UNL     1       1.689   0.943  -1.822  1.00  0.00     0.242 S 
ATOM     22  O   UNL     1       1.198   2.287  -1.540  1.00  0.00    -0.207 OA
ATOM     23  O   UNL     1       3.084   0.621  -1.699  1.00  0.00    -0.207 OA
BRANCH  21  24
ATOM     24  N   UNL     1       0.794  -0.127  -0.823  1.00  0.00    -0.204 NA
ATOM     25  C   UNL     1       1.303  -0.120   0.575  1.00  0.00     0.124 C 
ATOM     26  C   UNL     1      -0.676   0.062  -0.819  1.00  0.00     0.124 C 
ENDBRANCH  21  24
ENDBRANCH  16  21
ENDBRANCH  11  15
BRANCH  12  27
ATOM     27  C   UNL     1       0.856   2.085  -9.226  1.00  0.00    -0.001 A 
ATOM     28  C   UNL     1       0.724   3.461  -9.479  1.00  0.00     0.013 A 
ATOM     29  C   UNL     1       2.139   1.553  -9.024  1.00  0.00     0.013 A 
ATOM     30  C   UNL     1       1.845   4.296  -9.457  1.00  0.00     0.040 A 
ATOM     31  C   UNL     1       3.257   2.391  -8.986  1.00  0.00     0.040 A 
ATOM     32  C   UNL     1       3.098   3.755  -9.195  1.00  0.00     0.123 A 
ATOM     33  F   UNL     1       4.168   4.560  -9.143  1.00  0.00    -0.207 F 
ENDBRANCH  12  27
ENDBRANCH   9  10
ENDBRANCH   8   9
ENDBRANCH   6   8
ENDBRANCH   5   6
ENDBRANCH   4   5
ENDBRANCH   3   4
ENDBRANCH   2   3
ENDBRANCH   1   2
BRANCH   1  34
ATOM     34  C   UNL     1      -2.420   1.693  -5.263  1.00  0.00     0.188 C 
BRANCH  34  35
ATOM     35  O   UNL     1      -2.190   3.074  -4.998  1.00  0.00    -0.377 OA
BRANCH  35  36
ATOM     36  C   UNL     1      -1.381   3.441  -3.895  1.00  0.00     0.188 C 
BRANCH  36  37
ATOM     37  C   UNL     1      -2.077   4.040  -2.670  1.00  0.00     0.188 C 
BRANCH  37  38
ATOM     38  O   UNL     1      -3.212   3.414  -2.091  1.00  0.00    -0.376 OA
BRANCH  38  39
ATOM     39  C   UNL     1      -4.364   3.083  -2.854  1.00  0.00     0.202 C 
BRANCH  39  40
ATOM     40  C   UNL     1      -5.081   4.118  -3.721  1.00  0.00     0.261 C 
BRANCH  40  41
ATOM     41  O   UNL     1      -4.298   4.553  -4.821  1.00  0.00    -0.460 OA
BRANCH  41  42
ATOM     42  C   UNL     1      -3.692   5.734  -4.606  1.00  0.00     0.338 C 
ATOM     43  O   UNL     1      -3.806   6.460  -3.629  1.00  0.00    -0.246 OA
BRANCH  42  44
ATOM     44  C   UNL     1      -2.946   6.140  -5.809  1.00  0.00     0.060 A 
ATOM     45  C   UNL     1      -1.942   7.073  -5.515  1.00  0.00     0.016 A 
ATOM     46  C   UNL     1      -3.850   6.328  -6.856  1.00  0.00     0.016 A 
ATOM     47  C   UNL     1      -2.123   8.359  -5.969  1.00  0.00     0.010 A 
ATOM     48  C   UNL     1      -4.105   7.626  -7.218  1.00  0.00     0.010 A 
ATOM     49  C   UNL     1      -3.262   8.634  -6.734  1.00  0.00    -0.014 A 
BRANCH  49  50
ATOM     50  C   UNL     1      -3.459  10.010  -7.184  1.00  0.00     0.031 A 
ATOM     51  C   UNL     1      -2.661  10.208  -8.485  1.00  0.00     0.074 A 
ATOM     52  C   UNL     1      -4.204  10.800  -6.348  1.00  0.00     0.049 A 
ATOM     53  N   UNL     1      -1.959  11.217  -8.898  1.00  0.00    -0.248 NA
ATOM     54  C   UNL     1      -2.515   9.044  -9.415  1.00  0.00     0.031 C 
ATOM     55  C   UNL     1      -4.910  10.346  -5.119  1.00  0.00     0.029 A 
ATOM     56  N   UNL     1      -4.517  12.139  -6.341  1.00  0.00    -0.354 N 
ATOM     57  C   UNL     1      -1.487  10.889 -10.188  1.00  0.00     0.074 A 
ATOM     58  C   UNL     1      -1.709   9.493 -10.374  1.00  0.00     0.031 C 
ATOM     59  C   UNL     1      -5.475  11.388  -4.465  1.00  0.00     0.029 A 
ATOM     60  C   UNL     1      -5.195  12.615  -5.183  1.00  0.00     0.049 A 
ATOM     61  H   UNL     1      -4.287  12.733  -7.091  1.00  0.00     0.167 HD
ATOM     62  C   UNL     1      -1.123  11.823 -11.110  1.00  0.00     0.037 A 
ATOM     63  C   UNL     1      -5.424  13.916  -4.808  1.00  0.00     0.037 A 
ATOM     64  C   UNL     1      -1.255  13.124 -10.554  1.00  0.00     0.049 A 
ATOM     65  C   UNL     1      -4.817  14.698  -5.893  1.00  0.00     0.074 A 
ATOM     66  C   UNL     1      -0.470  13.910  -9.760  1.00  0.00     0.029 A 
ATOM     67  N   UNL     1      -2.509  13.674 -10.627  1.00  0.00    -0.354 N 
ATOM     68  N   UNL     1      -5.316  14.844  -7.081  1.00  0.00    -0.248 NA
ATOM     69  C   UNL     1      -3.464  15.217  -5.681  1.00  0.00     0.031 C 
ATOM     70  C   UNL     1      -1.381  14.765  -9.098  1.00  0.00     0.029 A 
ATOM     71  C   UNL     1      -2.679  14.488  -9.536  1.00  0.00     0.049 A 
ATOM     72  H   UNL     1      -3.171  13.512 -11.337  1.00  0.00     0.167 HD
ATOM     73  C   UNL     1      -4.219  15.198  -7.833  1.00  0.00     0.074 A 
ATOM     74  C   UNL     1      -3.221  15.677  -6.902  1.00  0.00     0.031 C 
ATOM     75  C   UNL     1      -4.035  14.681  -9.074  1.00  0.00     0.037 A 
BRANCH  62  76
ATOM     76  C   UNL     1      -0.958  11.741 -12.604  1.00  0.00     0.057 A 
ATOM     77  C   UNL     1      -0.311  12.822 -13.247  1.00  0.00     0.134 A 
ATOM     78  C   UNL     1      -1.714  10.906 -13.435  1.00  0.00     0.134 A 
ATOM     79  F   UNL     1       0.500  13.647 -12.565  1.00  0.00    -0.206 F 
ATOM     80  C   UNL     1      -0.546  13.152 -14.583  1.00  0.00     0.040 A 
ATOM     81  C   UNL     1      -1.909  11.195 -14.792  1.00  0.00     0.040 A 
ATOM     82  F   UNL     1      -2.373   9.843 -12.957  1.00  0.00    -0.206 F 
ATOM     83  C   UNL     1      -1.371  12.349 -15.355  1.00  0.00     0.006 A 
ENDBRANCH  62  76
BRANCH  63  84
ATOM     84  C   UNL     1      -5.919  14.701  -3.609  1.00  0.00     0.057 A 
ATOM     85  C   UNL     1      -6.658  14.198  -2.536  1.00  0.00     0.134 A 
ATOM     86  C   UNL     1      -5.610  16.088  -3.483  1.00  0.00     0.134 A 
ATOM     87  F   UNL     1      -7.151  12.954  -2.559  1.00  0.00    -0.206 F 
ATOM     88  C   UNL     1      -6.952  14.973  -1.389  1.00  0.00     0.040 A 
ATOM     89  C   UNL     1      -5.854  16.854  -2.338  1.00  0.00     0.040 A 
ATOM     90  F   UNL     1      -5.050  16.785  -4.481  1.00  0.00    -0.206 F 
ATOM     91  C   UNL     1      -6.515  16.289  -1.268  1.00  0.00     0.006 A 
ENDBRANCH  63  84
BRANCH  75  92
ATOM     92  C   UNL     1      -5.278  14.002  -9.642  1.00  0.00     0.057 A 
ATOM     93  C   UNL     1      -6.406  14.751  -9.984  1.00  0.00     0.134 A 
ATOM     94  C   UNL     1      -5.439  12.608  -9.726  1.00  0.00     0.134 A 
ATOM     95  F   UNL     1      -6.359  16.090  -9.947  1.00  0.00    -0.206 F 
ATOM     96  C   UNL     1      -7.617  14.149 -10.365  1.00  0.00     0.040 A 
ATOM     97  C   UNL     1      -6.636  11.986 -10.105  1.00  0.00     0.040 A 
ATOM     98  F   UNL     1      -4.428  11.793  -9.447  1.00  0.00    -0.206 F 
ATOM     99  C   UNL     1      -7.738  12.762 -10.419  1.00  0.00     0.006 A 
ENDBRANCH  75  92
ENDBRANCH  49  50
ENDBRANCH  42  44
ENDBRANCH  41  42
ENDBRANCH  40  41
ENDBRANCH  39  40
ENDBRANCH  38  39
ENDBRANCH  37  38
ENDBRANCH  36  37
ENDBRANCH  35  36
ENDBRANCH  34  35
ENDBRANCH   1  34
TORSDOF 26
