REMARK SMILES C[C@H]1[C@@H](C(=O)OCCOCCOCCOCCOC(=O)c2ccc(-c3c4nc(c(-c5c(F)cccc5F)c5ccc([nH]5)c(-c5c(F)cccc5F)c5nc(c(-c6c(F)cccc6F)c6ccc3[nH]6)C=C5)C=C4)cc2)CCN1C(=O)c1cc2cc(F)ccc2s1
REMARK SMILES IDX 12 1 11 2 10 3 9 4 8 5 7 6 6 7 4 8 5 9 3 10 1 11 2 12 77 13
REMARK SMILES IDX 75 14 76 15 78 16 79 17 80 18 81 19 89 20 82 21 88 22 83 23
REMARK SMILES IDX 87 24 84 25 86 26 85 27 13 28 14 29 15 30 16 31 17 32 18 33
REMARK SMILES IDX 19 34 20 35 21 36 22 37 74 38 23 39 73 40 24 41 25 42 26 43
REMARK SMILES IDX 67 44 27 45 72 46 66 47 68 48 28 49 71 50 65 51 64 52 29 54
REMARK SMILES IDX 55 55 38 56 54 57 39 58 42 59 53 60 69 61 40 62 41 63 52 65
REMARK SMILES IDX 70 66 43 67 30 68 31 69 36 70 32 71 33 72 35 73 37 74 34 75
REMARK SMILES IDX 56 76 57 77 62 78 58 79 59 80 61 81 63 82 60 83 44 84 45 85
REMARK SMILES IDX 50 86 46 87 47 88 49 89 51 90 48 91
REMARK H PARENT 68 53 42 64
REMARK Flexibility Score: inf
ROOT
ATOM      1  O   UNL     1       0.967  -0.426  -3.179  1.00  0.00    -0.377 OA
ENDROOT
BRANCH   1   2
ATOM      2  C   UNL     1      -0.151   0.258  -2.625  1.00  0.00     0.188 C 
BRANCH   2   3
ATOM      3  C   UNL     1      -0.595   1.670  -3.062  1.00  0.00     0.188 C 
BRANCH   3   4
ATOM      4  O   UNL     1       0.324   2.329  -3.904  1.00  0.00    -0.376 OA
BRANCH   4   5
ATOM      5  C   UNL     1       1.145   3.351  -3.384  1.00  0.00     0.202 C 
BRANCH   5   6
ATOM      6  C   UNL     1       1.962   3.142  -2.099  1.00  0.00     0.261 C 
BRANCH   6   7
ATOM      7  O   UNL     1       1.487   2.164  -1.162  1.00  0.00    -0.463 OA
BRANCH   7   8
ATOM      8  C   UNL     1       0.746   2.606  -0.126  1.00  0.00     0.311 C 
ATOM      9  O   UNL     1       0.352   3.764  -0.025  1.00  0.00    -0.252 OA
BRANCH   8  10
ATOM     10  C   UNL     1       0.347   1.537   0.886  1.00  0.00     0.123 C 
ATOM     11  C   UNL     1       2.321  -0.085   0.251  1.00  0.00     0.032 C 
ATOM     12  C   UNL     1       1.028   0.148   1.022  1.00  0.00     0.096 C 
ATOM     13  N   UNL     1      -0.044  -0.836   0.819  1.00  0.00    -0.334 N 
ATOM     14  C   UNL     1      -1.159   1.270   0.758  1.00  0.00     0.039 C 
ATOM     15  C   UNL     1      -1.341  -0.222   0.648  1.00  0.00     0.121 C 
BRANCH  13  16
ATOM     16  C   UNL     1      -0.061  -2.203   1.058  1.00  0.00     0.264 C 
ATOM     17  O   UNL     1      -1.139  -2.764   1.278  1.00  0.00    -0.268 OA
BRANCH  16  18
ATOM     18  C   UNL     1       1.148  -2.999   0.984  1.00  0.00     0.093 A 
ATOM     19  C   UNL     1       1.641  -3.817   1.994  1.00  0.00     0.034 A 
ATOM     20  S   UNL     1       1.372  -3.868  -0.501  1.00  0.00    -0.130 S 
ATOM     21  C   UNL     1       1.184  -5.165   1.701  1.00  0.00    -0.004 A 
ATOM     22  C   UNL     1       0.881  -5.304   0.339  1.00  0.00     0.035 A 
ATOM     23  C   UNL     1       0.890  -6.244   2.565  1.00  0.00     0.048 A 
ATOM     24  C   UNL     1       0.248  -6.447  -0.179  1.00  0.00     0.022 A 
ATOM     25  C   UNL     1       0.201  -7.347   2.061  1.00  0.00     0.123 A 
ATOM     26  C   UNL     1      -0.134  -7.447   0.718  1.00  0.00     0.041 A 
ATOM     27  F   UNL     1      -0.187  -8.313   2.904  1.00  0.00    -0.207 F 
ENDBRANCH  16  18
ENDBRANCH  13  16
ENDBRANCH   8  10
ENDBRANCH   7   8
ENDBRANCH   6   7
ENDBRANCH   5   6
ENDBRANCH   4   5
ENDBRANCH   3   4
ENDBRANCH   2   3
ENDBRANCH   1   2
BRANCH   1  28
ATOM     28  C   UNL     1       1.514   0.002  -4.412  1.00  0.00     0.188 C 
BRANCH  28  29
ATOM     29  C   UNL     1       0.547   0.090  -5.607  1.00  0.00     0.188 C 
BRANCH  29  30
ATOM     30  O   UNL     1      -0.815  -0.122  -5.259  1.00  0.00    -0.376 OA
BRANCH  30  31
ATOM     31  C   UNL     1      -1.354  -1.410  -5.523  1.00  0.00     0.202 C 
BRANCH  31  32
ATOM     32  C   UNL     1      -0.760  -2.605  -4.755  1.00  0.00     0.261 C 
BRANCH  32  33
ATOM     33  O   UNL     1       0.648  -2.833  -4.925  1.00  0.00    -0.460 OA
BRANCH  33  34
ATOM     34  C   UNL     1       1.095  -3.070  -6.171  1.00  0.00     0.338 C 
ATOM     35  O   UNL     1       0.433  -3.159  -7.195  1.00  0.00    -0.246 OA
BRANCH  34  36
ATOM     36  C   UNL     1       2.568  -3.013  -6.142  1.00  0.00     0.060 A 
ATOM     37  C   UNL     1       3.219  -2.070  -6.948  1.00  0.00     0.016 A 
ATOM     38  C   UNL     1       3.300  -3.886  -5.334  1.00  0.00     0.016 A 
ATOM     39  C   UNL     1       4.609  -2.033  -6.988  1.00  0.00     0.010 A 
ATOM     40  C   UNL     1       4.696  -3.867  -5.396  1.00  0.00     0.010 A 
ATOM     41  C   UNL     1       5.351  -2.973  -6.262  1.00  0.00    -0.014 A 
BRANCH  41  42
ATOM     42  C   UNL     1       6.774  -3.172  -6.622  1.00  0.00     0.031 A 
ATOM     43  C   UNL     1       7.103  -4.263  -7.607  1.00  0.00     0.074 A 
ATOM     44  C   UNL     1       7.737  -2.357  -6.162  1.00  0.00     0.049 A 
ATOM     45  N   UNL     1       8.257  -4.598  -8.124  1.00  0.00    -0.248 NA
ATOM     46  C   UNL     1       5.973  -5.083  -8.075  1.00  0.00     0.031 C 
ATOM     47  C   UNL     1       7.534  -1.240  -5.242  1.00  0.00     0.029 A 
ATOM     48  N   UNL     1       9.084  -2.342  -6.422  1.00  0.00    -0.354 N 
ATOM     49  C   UNL     1       7.990  -5.662  -8.976  1.00  0.00     0.074 A 
ATOM     50  C   UNL     1       6.576  -5.946  -8.876  1.00  0.00     0.031 C 
ATOM     51  C   UNL     1       8.719  -0.647  -5.013  1.00  0.00     0.029 A 
ATOM     52  C   UNL     1       9.763  -1.356  -5.750  1.00  0.00     0.049 A 
ATOM     53  H   UNL     1       9.522  -2.979  -7.031  1.00  0.00     0.167 HD
ATOM     54  C   UNL     1       8.843  -6.335  -9.783  1.00  0.00     0.037 A 
ATOM     55  C   UNL     1      11.080  -1.071  -5.731  1.00  0.00     0.037 A 
ATOM     56  C   UNL     1      10.251  -6.056  -9.876  1.00  0.00     0.049 A 
ATOM     57  C   UNL     1      12.023  -1.884  -6.581  1.00  0.00     0.074 A 
ATOM     58  C   UNL     1      11.203  -6.675 -10.665  1.00  0.00     0.029 A 
ATOM     59  N   UNL     1      10.911  -5.080  -9.143  1.00  0.00    -0.354 N 
ATOM     60  N   UNL     1      11.759  -2.870  -7.405  1.00  0.00    -0.248 NA
ATOM     61  C   UNL     1      13.448  -1.534  -6.506  1.00  0.00     0.031 C 
ATOM     62  C   UNL     1      12.449  -6.114 -10.367  1.00  0.00     0.029 A 
ATOM     63  C   UNL     1      12.263  -5.098  -9.443  1.00  0.00     0.049 A 
ATOM     64  H   UNL     1      10.481  -4.466  -8.504  1.00  0.00     0.167 HD
ATOM     65  C   UNL     1      12.976  -3.233  -7.971  1.00  0.00     0.074 A 
ATOM     66  C   UNL     1      13.975  -2.349  -7.408  1.00  0.00     0.031 C 
ATOM     67  C   UNL     1      13.245  -4.207  -8.877  1.00  0.00     0.037 A 
BRANCH  54  68
ATOM     68  C   UNL     1       8.276  -7.458 -10.602  1.00  0.00     0.057 A 
ATOM     69  C   UNL     1       7.404  -7.231 -11.676  1.00  0.00     0.134 A 
ATOM     70  C   UNL     1       8.618  -8.787 -10.320  1.00  0.00     0.134 A 
ATOM     71  F   UNL     1       7.020  -5.984 -11.988  1.00  0.00    -0.206 F 
ATOM     72  C   UNL     1       6.872  -8.286 -12.421  1.00  0.00     0.040 A 
ATOM     73  C   UNL     1       8.118  -9.847 -11.077  1.00  0.00     0.040 A 
ATOM     74  F   UNL     1       9.447  -9.076  -9.306  1.00  0.00    -0.206 F 
ATOM     75  C   UNL     1       7.236  -9.598 -12.127  1.00  0.00     0.006 A 
ENDBRANCH  54  68
BRANCH  55  76
ATOM     76  C   UNL     1      11.594   0.030  -4.876  1.00  0.00     0.057 A 
ATOM     77  C   UNL     1      12.155   1.186  -5.432  1.00  0.00     0.134 A 
ATOM     78  C   UNL     1      11.570  -0.064  -3.478  1.00  0.00     0.134 A 
ATOM     79  F   UNL     1      12.229   1.327  -6.763  1.00  0.00    -0.206 F 
ATOM     80  C   UNL     1      12.696   2.195  -4.632  1.00  0.00     0.040 A 
ATOM     81  C   UNL     1      12.081   0.950  -2.667  1.00  0.00     0.040 A 
ATOM     82  F   UNL     1      11.046  -1.144  -2.881  1.00  0.00    -0.206 F 
ATOM     83  C   UNL     1      12.655   2.080  -3.244  1.00  0.00     0.006 A 
ENDBRANCH  55  76
BRANCH  67  84
ATOM     84  C   UNL     1      14.665  -4.333  -9.352  1.00  0.00     0.057 A 
ATOM     85  C   UNL     1      15.695  -4.788  -8.517  1.00  0.00     0.134 A 
ATOM     86  C   UNL     1      15.003  -4.014 -10.674  1.00  0.00     0.134 A 
ATOM     87  F   UNL     1      15.444  -5.104  -7.237  1.00  0.00    -0.206 F 
ATOM     88  C   UNL     1      17.013  -4.883  -8.968  1.00  0.00     0.040 A 
ATOM     89  C   UNL     1      16.310  -4.138 -11.146  1.00  0.00     0.040 A 
ATOM     90  F   UNL     1      14.066  -3.587 -11.533  1.00  0.00    -0.206 F 
ATOM     91  C   UNL     1      17.322  -4.562 -10.288  1.00  0.00     0.006 A 
ENDBRANCH  67  84
ENDBRANCH  41  42
ENDBRANCH  34  36
ENDBRANCH  33  34
ENDBRANCH  32  33
ENDBRANCH  31  32
ENDBRANCH  30  31
ENDBRANCH  29  30
ENDBRANCH  28  29
ENDBRANCH   1  28
TORSDOF 22
