REMARK SMILES CCCN(C(=O)NCC(=O)OCCOCCOCCOCCOC(=O)c1ccc(-c2c3nc(c(-c4c(F)cccc4F)c4ccc([nH]4)c(-c4c(F)cccc4F)c4nc(c(-c5c(F)cccc5F)c5ccc2[nH]5)C=C4)C=C3)cc1)C(C)C
REMARK SMILES IDX 16 1 15 2 14 3 13 4 12 5 11 6 9 7 10 8 8 9 7 10 5 11 6 12
REMARK SMILES IDX 4 14 3 15 2 16 1 17 80 18 81 19 82 20 17 21 18 22 19 23
REMARK SMILES IDX 20 24 21 25 22 26 23 27 24 28 25 29 26 30 27 31 79 32 28 33
REMARK SMILES IDX 78 34 29 35 30 36 31 37 72 38 32 39 77 40 71 41 73 42 33 43
REMARK SMILES IDX 76 44 70 45 69 46 34 48 60 49 43 50 59 51 44 52 47 53 58 54
REMARK SMILES IDX 74 55 45 56 46 57 57 59 75 60 48 61 35 62 36 63 41 64 37 65
REMARK SMILES IDX 38 66 40 67 42 68 39 69 61 70 62 71 67 72 63 73 64 74 66 75
REMARK SMILES IDX 68 76 65 77 49 78 50 79 55 80 51 81 52 82 54 83 56 84 53 85
REMARK H PARENT 7 13 73 47 47 58
REMARK Flexibility Score: inf
ROOT
ATOM      1  C   UNL     1      -0.430  -6.560   3.644  1.00  0.00     0.188 C 
ENDROOT
BRANCH   1   2
ATOM      2  C   UNL     1      -0.368  -7.553   2.468  1.00  0.00     0.188 C 
BRANCH   2   3
ATOM      3  O   UNL     1       0.771  -8.377   2.259  1.00  0.00    -0.376 OA
BRANCH   3   4
ATOM      4  C   UNL     1       2.088  -7.880   2.454  1.00  0.00     0.202 C 
BRANCH   4   5
ATOM      5  C   UNL     1       2.542  -6.525   1.878  1.00  0.00     0.261 C 
BRANCH   5   6
ATOM      6  O   UNL     1       1.580  -5.460   1.930  1.00  0.00    -0.462 OA
BRANCH   6   7
ATOM      7  C   UNL     1       0.994  -5.124   0.756  1.00  0.00     0.325 C 
ATOM      8  O   UNL     1       1.295  -5.601  -0.334  1.00  0.00    -0.250 OA
BRANCH   7   9
ATOM      9  C   UNL     1      -0.226  -4.211   0.925  1.00  0.00     0.240 C 
BRANCH   9  10
ATOM     10  N   UNL     1      -0.466  -3.434   2.138  1.00  0.00    -0.327 N 
ATOM     11  C   UNL     1      -0.098  -2.265   2.676  1.00  0.00     0.318 C 
ATOM     12  O   UNL     1      -0.709  -1.983   3.713  1.00  0.00    -0.249 OA
ATOM     13  H   UNL     1      -1.082  -3.912   2.738  1.00  0.00     0.166 HD
BRANCH  11  14
ATOM     14  N   UNL     1       0.857  -1.443   2.138  1.00  0.00    -0.322 N 
BRANCH  14  15
ATOM     15  C   UNL     1       1.577  -1.690   0.889  1.00  0.00     0.121 C 
BRANCH  15  16
ATOM     16  C   UNL     1       0.772  -1.403  -0.384  1.00  0.00     0.018 C 
ATOM     17  C   UNL     1       0.938  -0.003  -0.941  1.00  0.00     0.006 C 
ENDBRANCH  15  16
ENDBRANCH  14  15
BRANCH  14  18
ATOM     18  C   UNL     1       1.152  -0.201   2.902  1.00  0.00     0.080 C 
ATOM     19  C   UNL     1       2.643   0.056   3.132  1.00  0.00     0.031 C 
ATOM     20  C   UNL     1       0.463   1.022   2.303  1.00  0.00     0.031 C 
ENDBRANCH  14  18
ENDBRANCH  11  14
ENDBRANCH   9  10
ENDBRANCH   7   9
ENDBRANCH   6   7
ENDBRANCH   5   6
ENDBRANCH   4   5
ENDBRANCH   3   4
ENDBRANCH   2   3
ENDBRANCH   1   2
BRANCH   1  21
ATOM     21  O   UNL     1       0.784  -6.400   4.346  1.00  0.00    -0.377 OA
BRANCH  21  22
ATOM     22  C   UNL     1       0.906  -7.126   5.561  1.00  0.00     0.188 C 
BRANCH  22  23
ATOM     23  C   UNL     1       0.344  -8.562   5.585  1.00  0.00     0.188 C 
BRANCH  23  24
ATOM     24  O   UNL     1      -1.008  -8.664   5.154  1.00  0.00    -0.376 OA
BRANCH  24  25
ATOM     25  C   UNL     1      -2.042  -8.684   6.127  1.00  0.00     0.202 C 
BRANCH  25  26
ATOM     26  C   UNL     1      -2.265  -7.417   6.971  1.00  0.00     0.261 C 
BRANCH  26  27
ATOM     27  O   UNL     1      -1.148  -6.963   7.750  1.00  0.00    -0.460 OA
BRANCH  27  28
ATOM     28  C   UNL     1      -0.610  -7.817   8.641  1.00  0.00     0.338 C 
ATOM     29  O   UNL     1      -1.013  -8.933   8.930  1.00  0.00    -0.246 OA
BRANCH  28  30
ATOM     30  C   UNL     1       0.691  -7.265   9.072  1.00  0.00     0.060 A 
ATOM     31  C   UNL     1       1.845  -8.036   8.882  1.00  0.00     0.016 A 
ATOM     32  C   UNL     1       0.774  -6.001   9.662  1.00  0.00     0.016 A 
ATOM     33  C   UNL     1       3.080  -7.568   9.328  1.00  0.00     0.010 A 
ATOM     34  C   UNL     1       2.008  -5.543  10.131  1.00  0.00     0.010 A 
ATOM     35  C   UNL     1       3.157  -6.345  10.005  1.00  0.00    -0.014 A 
BRANCH  35  36
ATOM     36  C   UNL     1       4.381  -6.018  10.773  1.00  0.00     0.031 A 
ATOM     37  C   UNL     1       4.391  -6.306  12.250  1.00  0.00     0.074 A 
ATOM     38  C   UNL     1       5.473  -5.512  10.177  1.00  0.00     0.049 A 
ATOM     39  N   UNL     1       5.325  -6.082  13.137  1.00  0.00    -0.248 NA
ATOM     40  C   UNL     1       3.175  -6.927  12.798  1.00  0.00     0.031 C 
ATOM     41  C   UNL     1       5.603  -5.230   8.750  1.00  0.00     0.029 A 
ATOM     42  N   UNL     1       6.681  -5.137  10.709  1.00  0.00    -0.354 N 
ATOM     43  C   UNL     1       4.806  -6.522  14.348  1.00  0.00     0.074 A 
ATOM     44  C   UNL     1       3.463  -6.994  14.088  1.00  0.00     0.031 C 
ATOM     45  C   UNL     1       6.822  -4.710   8.520  1.00  0.00     0.029 A 
ATOM     46  C   UNL     1       7.542  -4.594   9.788  1.00  0.00     0.049 A 
ATOM     47  H   UNL     1       6.908  -5.247  11.661  1.00  0.00     0.167 HD
ATOM     48  C   UNL     1       5.395  -6.539  15.567  1.00  0.00     0.037 A 
ATOM     49  C   UNL     1       8.760  -4.044   9.957  1.00  0.00     0.037 A 
ATOM     50  C   UNL     1       6.729  -6.062  15.822  1.00  0.00     0.049 A 
ATOM     51  C   UNL     1       9.371  -4.005  11.334  1.00  0.00     0.074 A 
ATOM     52  C   UNL     1       7.429  -6.057  17.016  1.00  0.00     0.029 A 
ATOM     53  N   UNL     1       7.558  -5.489  14.869  1.00  0.00    -0.354 N 
ATOM     54  N   UNL     1       8.888  -4.451  12.468  1.00  0.00    -0.248 NA
ATOM     55  C   UNL     1      10.701  -3.390  11.451  1.00  0.00     0.031 C 
ATOM     56  C   UNL     1       8.655  -5.421  16.799  1.00  0.00     0.029 A 
ATOM     57  C   UNL     1       8.750  -5.095  15.455  1.00  0.00     0.049 A 
ATOM     58  H   UNL     1       7.333  -5.380  13.917  1.00  0.00     0.167 HD
ATOM     59  C   UNL     1       9.864  -4.199  13.427  1.00  0.00     0.074 A 
ATOM     60  C   UNL     1      10.971  -3.571  12.736  1.00  0.00     0.031 C 
ATOM     61  C   UNL     1       9.846  -4.468  14.757  1.00  0.00     0.037 A 
BRANCH  48  62
ATOM     62  C   UNL     1       4.576  -7.047  16.720  1.00  0.00     0.057 A 
ATOM     63  C   UNL     1       4.204  -8.393  16.838  1.00  0.00     0.134 A 
ATOM     64  C   UNL     1       4.151  -6.171  17.727  1.00  0.00     0.134 A 
ATOM     65  F   UNL     1       4.563  -9.283  15.901  1.00  0.00    -0.206 F 
ATOM     66  C   UNL     1       3.408  -8.841  17.895  1.00  0.00     0.040 A 
ATOM     67  C   UNL     1       3.383  -6.613  18.805  1.00  0.00     0.040 A 
ATOM     68  F   UNL     1       4.473  -4.869  17.680  1.00  0.00    -0.206 F 
ATOM     69  C   UNL     1       3.000  -7.950  18.885  1.00  0.00     0.006 A 
ENDBRANCH  48  62
BRANCH  49  70
ATOM     70  C   UNL     1       9.478  -3.472   8.789  1.00  0.00     0.057 A 
ATOM     71  C   UNL     1      10.638  -4.068   8.283  1.00  0.00     0.134 A 
ATOM     72  C   UNL     1       9.019  -2.312   8.152  1.00  0.00     0.134 A 
ATOM     73  F   UNL     1      11.142  -5.166   8.866  1.00  0.00    -0.206 F 
ATOM     74  C   UNL     1      11.322  -3.527   7.193  1.00  0.00     0.040 A 
ATOM     75  C   UNL     1       9.677  -1.776   7.044  1.00  0.00     0.040 A 
ATOM     76  F   UNL     1       7.913  -1.692   8.588  1.00  0.00    -0.206 F 
ATOM     77  C   UNL     1      10.836  -2.382   6.564  1.00  0.00     0.006 A 
ENDBRANCH  49  70
BRANCH  61  78
ATOM     78  C   UNL     1      11.075  -4.123  15.550  1.00  0.00     0.057 A 
ATOM     79  C   UNL     1      11.443  -2.798  15.819  1.00  0.00     0.134 A 
ATOM     80  C   UNL     1      11.880  -5.136  16.090  1.00  0.00     0.134 A 
ATOM     81  F   UNL     1      10.723  -1.779  15.325  1.00  0.00    -0.206 F 
ATOM     82  C   UNL     1      12.579  -2.494  16.571  1.00  0.00     0.040 A 
ATOM     83  C   UNL     1      12.999  -4.845  16.871  1.00  0.00     0.040 A 
ATOM     84  F   UNL     1      11.580  -6.428  15.883  1.00  0.00    -0.206 F 
ATOM     85  C   UNL     1      13.357  -3.519  17.106  1.00  0.00     0.006 A 
ENDBRANCH  61  78
ENDBRANCH  35  36
ENDBRANCH  28  30
ENDBRANCH  27  28
ENDBRANCH  26  27
ENDBRANCH  25  26
ENDBRANCH  24  25
ENDBRANCH  23  24
ENDBRANCH  22  23
ENDBRANCH  21  22
ENDBRANCH   1  21
TORSDOF 25
