REMARK SMILES O=C(OCCOCCOCCOCCOC(=O)[C@H]1CC=CC[C@@H]1c1nc2cc(Cl)ccc2o1)c1ccc(-c2c3nc(c(-c4c(F)cccc4F)c4ccc([nH]4)c(-c4c(F)cccc4F)c4nc(c(-c5c(F)cccc5F)c5ccc2[nH]5)C=C4)C=C3)cc1
REMARK SMILES IDX 8 1 7 2 6 3 5 4 4 5 3 6 2 7 1 8 34 9 35 10 87 11 36 12 86 13
REMARK SMILES IDX 37 14 38 15 39 16 80 17 40 18 85 19 79 20 81 21 41 22 84 23
REMARK SMILES IDX 78 24 77 25 42 27 68 28 51 29 67 30 52 31 55 32 66 33 82 34
REMARK SMILES IDX 53 35 54 36 65 38 83 39 56 40 43 41 44 42 49 43 45 44 46 45
REMARK SMILES IDX 48 46 50 47 47 48 69 49 70 50 75 51 71 52 72 53 74 54 76 55
REMARK SMILES IDX 73 56 57 57 58 58 63 59 59 60 60 61 62 62 64 63 61 64 9 65
REMARK SMILES IDX 10 66 11 67 12 68 13 69 14 70 15 71 16 72 17 73 18 74 19 75
REMARK SMILES IDX 23 76 20 77 22 78 21 79 24 80 25 81 33 82 26 83 32 84 27 85
REMARK SMILES IDX 31 86 28 87 30 88 29 89
REMARK H PARENT 81 26 55 37
REMARK Flexibility Score: inf
ROOT
ATOM      1  C   UNL     1       1.119  -1.492  -1.484  1.00  0.00     0.188 C 
ENDROOT
BRANCH   1   2
ATOM      2  C   UNL     1       1.752  -1.266  -0.107  1.00  0.00     0.188 C 
BRANCH   2   3
ATOM      3  O   UNL     1       3.102  -0.820  -0.217  1.00  0.00    -0.376 OA
BRANCH   3   4
ATOM      4  C   UNL     1       4.001  -1.415   0.717  1.00  0.00     0.202 C 
BRANCH   4   5
ATOM      5  C   UNL     1       3.861  -0.832   2.127  1.00  0.00     0.261 C 
BRANCH   5   6
ATOM      6  O   UNL     1       4.314   0.532   2.222  1.00  0.00    -0.460 OA
BRANCH   6   7
ATOM      7  C   UNL     1       3.575   1.423   1.513  1.00  0.00     0.338 C 
ATOM      8  O   UNL     1       2.448   1.790   1.809  1.00  0.00    -0.246 OA
BRANCH   7   9
ATOM      9  C   UNL     1       4.306   1.782   0.270  1.00  0.00     0.060 A 
ATOM     10  C   UNL     1       3.603   2.377  -0.780  1.00  0.00     0.016 A 
ATOM     11  C   UNL     1       5.632   1.352   0.084  1.00  0.00     0.016 A 
ATOM     12  C   UNL     1       4.221   2.501  -2.020  1.00  0.00     0.010 A 
ATOM     13  C   UNL     1       6.215   1.398  -1.171  1.00  0.00     0.010 A 
ATOM     14  C   UNL     1       5.514   1.986  -2.220  1.00  0.00    -0.014 A 
BRANCH  14  15
ATOM     15  C   UNL     1       6.245   2.402  -3.415  1.00  0.00     0.031 A 
ATOM     16  C   UNL     1       6.705   3.800  -3.285  1.00  0.00     0.074 A 
ATOM     17  C   UNL     1       6.682   1.651  -4.446  1.00  0.00     0.049 A 
ATOM     18  N   UNL     1       6.307   4.825  -3.958  1.00  0.00    -0.248 NA
ATOM     19  C   UNL     1       7.633   4.113  -2.181  1.00  0.00     0.031 C 
ATOM     20  C   UNL     1       6.674   0.194  -4.516  1.00  0.00     0.029 A 
ATOM     21  N   UNL     1       7.303   2.022  -5.618  1.00  0.00    -0.354 N 
ATOM     22  C   UNL     1       7.140   5.853  -3.541  1.00  0.00     0.074 A 
ATOM     23  C   UNL     1       7.773   5.429  -2.321  1.00  0.00     0.031 C 
ATOM     24  C   UNL     1       7.358  -0.210  -5.604  1.00  0.00     0.029 A 
ATOM     25  C   UNL     1       7.797   0.954  -6.354  1.00  0.00     0.049 A 
ATOM     26  H   UNL     1       7.389   2.959  -5.907  1.00  0.00     0.167 HD
ATOM     27  C   UNL     1       7.555   6.780  -4.437  1.00  0.00     0.037 A 
ATOM     28  C   UNL     1       8.534   0.952  -7.490  1.00  0.00     0.037 A 
ATOM     29  C   UNL     1       6.704   6.840  -5.593  1.00  0.00     0.049 A 
ATOM     30  C   UNL     1       8.392   2.240  -8.195  1.00  0.00     0.074 A 
ATOM     31  C   UNL     1       5.418   7.253  -5.863  1.00  0.00     0.029 A 
ATOM     32  N   UNL     1       7.106   6.054  -6.636  1.00  0.00    -0.354 N 
ATOM     33  N   UNL     1       7.298   2.618  -8.791  1.00  0.00    -0.248 NA
ATOM     34  C   UNL     1       9.399   3.284  -8.022  1.00  0.00     0.031 C 
ATOM     35  C   UNL     1       5.016   6.584  -7.057  1.00  0.00     0.029 A 
ATOM     36  C   UNL     1       6.066   5.779  -7.486  1.00  0.00     0.049 A 
ATOM     37  H   UNL     1       8.026   5.726  -6.761  1.00  0.00     0.167 HD
ATOM     38  C   UNL     1       7.298   3.988  -8.646  1.00  0.00     0.074 A 
ATOM     39  C   UNL     1       8.675   4.354  -8.361  1.00  0.00     0.031 C 
ATOM     40  C   UNL     1       6.138   4.652  -8.387  1.00  0.00     0.037 A 
BRANCH  27  41
ATOM     41  C   UNL     1       8.991   7.226  -4.493  1.00  0.00     0.057 A 
ATOM     42  C   UNL     1      10.081   6.391  -4.157  1.00  0.00     0.134 A 
ATOM     43  C   UNL     1       9.316   8.403  -5.174  1.00  0.00     0.134 A 
ATOM     44  F   UNL     1       9.909   5.162  -3.653  1.00  0.00    -0.206 F 
ATOM     45  C   UNL     1      11.406   6.732  -4.426  1.00  0.00     0.040 A 
ATOM     46  C   UNL     1      10.638   8.726  -5.504  1.00  0.00     0.040 A 
ATOM     47  F   UNL     1       8.353   9.233  -5.602  1.00  0.00    -0.206 F 
ATOM     48  C   UNL     1      11.687   7.895  -5.122  1.00  0.00     0.006 A 
ENDBRANCH  27  41
BRANCH  28  49
ATOM     49  C   UNL     1       9.444  -0.110  -7.963  1.00  0.00     0.057 A 
ATOM     50  C   UNL     1      10.284  -0.778  -7.055  1.00  0.00     0.134 A 
ATOM     51  C   UNL     1       9.666  -0.367  -9.321  1.00  0.00     0.134 A 
ATOM     52  F   UNL     1      10.188  -0.551  -5.736  1.00  0.00    -0.206 F 
ATOM     53  C   UNL     1      11.291  -1.650  -7.471  1.00  0.00     0.040 A 
ATOM     54  C   UNL     1      10.670  -1.245  -9.751  1.00  0.00     0.040 A 
ATOM     55  F   UNL     1       8.944   0.258 -10.261  1.00  0.00    -0.206 F 
ATOM     56  C   UNL     1      11.491  -1.882  -8.825  1.00  0.00     0.006 A 
ENDBRANCH  28  49
BRANCH  40  57
ATOM     57  C   UNL     1       4.875   4.044  -8.906  1.00  0.00     0.057 A 
ATOM     58  C   UNL     1       4.171   4.734  -9.900  1.00  0.00     0.134 A 
ATOM     59  C   UNL     1       4.327   2.837  -8.452  1.00  0.00     0.134 A 
ATOM     60  F   UNL     1       4.625   5.914 -10.355  1.00  0.00    -0.206 F 
ATOM     61  C   UNL     1       2.981   4.243 -10.436  1.00  0.00     0.040 A 
ATOM     62  C   UNL     1       3.154   2.316  -9.008  1.00  0.00     0.040 A 
ATOM     63  F   UNL     1       4.894   2.150  -7.449  1.00  0.00    -0.206 F 
ATOM     64  C   UNL     1       2.476   3.022 -10.000  1.00  0.00     0.006 A 
ENDBRANCH  40  57
ENDBRANCH  14  15
ENDBRANCH   7   9
ENDBRANCH   6   7
ENDBRANCH   5   6
ENDBRANCH   4   5
ENDBRANCH   3   4
ENDBRANCH   2   3
ENDBRANCH   1   2
BRANCH   1  65
ATOM     65  O   UNL     1       1.766  -2.455  -2.319  1.00  0.00    -0.377 OA
BRANCH  65  66
ATOM     66  C   UNL     1       3.149  -2.255  -2.574  1.00  0.00     0.188 C 
BRANCH  66  67
ATOM     67  C   UNL     1       3.626  -0.914  -3.155  1.00  0.00     0.188 C 
BRANCH  67  68
ATOM     68  O   UNL     1       2.638   0.090  -3.338  1.00  0.00    -0.376 OA
BRANCH  68  69
ATOM     69  C   UNL     1       2.534   0.594  -4.671  1.00  0.00     0.202 C 
BRANCH  69  70
ATOM     70  C   UNL     1       1.717  -0.355  -5.549  1.00  0.00     0.261 C 
BRANCH  70  71
ATOM     71  O   UNL     1       2.399  -1.621  -5.647  1.00  0.00    -0.463 OA
BRANCH  71  72
ATOM     72  C   UNL     1       3.227  -1.794  -6.707  1.00  0.00     0.310 C 
ATOM     73  O   UNL     1       3.216  -1.084  -7.703  1.00  0.00    -0.252 OA
BRANCH  72  74
ATOM     74  C   UNL     1       4.293  -2.848  -6.401  1.00  0.00     0.115 C 
ATOM     75  C   UNL     1       3.744  -4.097  -5.683  1.00  0.00     0.043 C 
ATOM     76  C   UNL     1       5.061  -3.177  -7.692  1.00  0.00     0.094 C 
ATOM     77  C   UNL     1       3.425  -5.266  -6.558  1.00  0.00    -0.030 C 
ATOM     78  C   UNL     1       4.230  -4.101  -8.604  1.00  0.00     0.041 C 
ATOM     79  C   UNL     1       3.623  -5.266  -7.880  1.00  0.00    -0.030 C 
BRANCH  76  80
ATOM     80  C   UNL     1       6.437  -3.746  -7.481  1.00  0.00     0.199 A 
ATOM     81  N   UNL     1       7.265  -4.148  -8.427  1.00  0.00    -0.213 NA
ATOM     82  O   UNL     1       6.970  -3.774  -6.212  1.00  0.00    -0.440 OA
ATOM     83  C   UNL     1       8.410  -4.471  -7.758  1.00  0.00     0.111 A 
ATOM     84  C   UNL     1       8.243  -4.239  -6.402  1.00  0.00     0.154 A 
ATOM     85  C   UNL     1       9.633  -4.949  -8.235  1.00  0.00     0.053 A 
ATOM     86  C   UNL     1       9.233  -4.443  -5.447  1.00  0.00     0.051 A 
ATOM     87  C   UNL     1      10.651  -5.168  -7.302  1.00  0.00     0.043 A 
ATOM     88  C   UNL     1      10.460  -4.920  -5.936  1.00  0.00     0.024 A 
ATOM     89  Cl  UNL     1      12.186  -5.720  -7.856  1.00  0.00    -0.084 Cl
ENDBRANCH  76  80
ENDBRANCH  72  74
ENDBRANCH  71  72
ENDBRANCH  70  71
ENDBRANCH  69  70
ENDBRANCH  68  69
ENDBRANCH  67  68
ENDBRANCH  66  67
ENDBRANCH  65  66
ENDBRANCH   1  65
TORSDOF 21
