REMARK SMILES Cc1ccccc1CNc1ccc(C(=O)OCCOCCOCCOCCOC(=O)c2ccc(-c3c4nc(c(-c5c(F)cccc5F)c5ccc([nH]5)c(-c5c(F)cccc5F)c5nc(c(-c6c(F)cccc6F)c6ccc3[nH]6)C=C5)C=C4)cc2)c(F)c1F
REMARK SMILES IDX 21 1 20 2 19 3 18 4 17 5 16 6 14 7 15 8 13 9 10 10 11 11
REMARK SMILES IDX 87 12 12 13 85 14 88 15 86 16 9 17 8 19 7 20 1 21 2 22 3 23
REMARK SMILES IDX 4 24 6 25 5 26 22 27 23 28 24 29 25 30 26 31 27 32 28 33
REMARK SMILES IDX 29 34 30 35 31 36 32 37 84 38 33 39 83 40 34 41 35 42 36 43
REMARK SMILES IDX 77 44 37 45 82 46 76 47 78 48 38 49 81 50 75 51 74 52 39 54
REMARK SMILES IDX 65 55 48 56 64 57 49 58 52 59 63 60 79 61 50 62 51 63 62 65
REMARK SMILES IDX 80 66 53 67 40 68 41 69 46 70 42 71 43 72 45 73 47 74 44 75
REMARK SMILES IDX 66 76 67 77 72 78 68 79 69 80 71 81 73 82 70 83 54 84 55 85
REMARK SMILES IDX 60 86 56 87 57 88 59 89 61 90 58 91
REMARK H PARENT 9 18 78 53 52 64
REMARK Flexibility Score: inf
ROOT
ATOM      1  C   UNL     1       0.163   7.843  -3.300  1.00  0.00     0.188 C 
ENDROOT
BRANCH   1   2
ATOM      2  C   UNL     1      -1.204   7.997  -3.990  1.00  0.00     0.188 C 
BRANCH   2   3
ATOM      3  O   UNL     1      -2.328   7.622  -3.213  1.00  0.00    -0.376 OA
BRANCH   3   4
ATOM      4  C   UNL     1      -2.735   8.626  -2.295  1.00  0.00     0.202 C 
BRANCH   4   5
ATOM      5  C   UNL     1      -3.743   8.005  -1.361  1.00  0.00     0.261 C 
BRANCH   5   6
ATOM      6  O   UNL     1      -3.076   6.989  -0.623  1.00  0.00    -0.460 OA
BRANCH   6   7
ATOM      7  C   UNL     1      -3.229   5.787  -1.198  1.00  0.00     0.341 C 
ATOM      8  O   UNL     1      -4.276   5.316  -1.616  1.00  0.00    -0.246 OA
BRANCH   7   9
ATOM      9  C   UNL     1      -1.896   5.195  -1.339  1.00  0.00     0.099 A 
ATOM     10  C   UNL     1       0.493   3.798  -1.469  1.00  0.00     0.074 A 
ATOM     11  C   UNL     1       0.375   4.883  -0.595  1.00  0.00     0.030 A 
ATOM     12  C   UNL     1      -0.519   3.561  -2.409  1.00  0.00     0.182 A 
ATOM     13  C   UNL     1      -0.828   5.566  -0.507  1.00  0.00     0.021 A 
ATOM     14  C   UNL     1      -1.710   4.258  -2.346  1.00  0.00     0.175 A 
ATOM     15  F   UNL     1      -0.381   2.569  -3.302  1.00  0.00    -0.201 F 
ATOM     16  F   UNL     1      -2.676   3.984  -3.235  1.00  0.00    -0.203 F 
BRANCH  10  17
ATOM     17  N   UNL     1       1.468   2.817  -1.220  1.00  0.00    -0.379 N 
ATOM     18  H   UNL     1       2.155   2.559  -1.876  1.00  0.00     0.161 HD
BRANCH  17  19
ATOM     19  C   UNL     1       1.360   2.216   0.112  1.00  0.00     0.149 C 
BRANCH  19  20
ATOM     20  C   UNL     1       0.547   0.940   0.061  1.00  0.00    -0.026 A 
ATOM     21  C   UNL     1       2.627  -0.551  -0.083  1.00  0.00     0.044 C 
ATOM     22  C   UNL     1       1.140  -0.333  -0.028  1.00  0.00    -0.046 A 
ATOM     23  C   UNL     1       0.315  -1.472  -0.038  1.00  0.00     0.004 A 
ATOM     24  C   UNL     1      -1.075  -1.360  -0.003  1.00  0.00     0.000 A 
ATOM     25  C   UNL     1      -0.862   1.033   0.088  1.00  0.00     0.006 A 
ATOM     26  C   UNL     1      -1.666  -0.105   0.049  1.00  0.00     0.000 A 
ENDBRANCH  19  20
ENDBRANCH  17  19
ENDBRANCH  10  17
ENDBRANCH   7   9
ENDBRANCH   6   7
ENDBRANCH   5   6
ENDBRANCH   4   5
ENDBRANCH   3   4
ENDBRANCH   2   3
ENDBRANCH   1   2
BRANCH   1  27
ATOM     27  O   UNL     1       0.479   8.599  -2.140  1.00  0.00    -0.377 OA
BRANCH  27  28
ATOM     28  C   UNL     1       0.604  10.014  -2.221  1.00  0.00     0.188 C 
BRANCH  28  29
ATOM     29  C   UNL     1       1.150  10.627  -3.501  1.00  0.00     0.188 C 
BRANCH  29  30
ATOM     30  O   UNL     1       0.087  10.679  -4.449  1.00  0.00    -0.376 OA
BRANCH  30  31
ATOM     31  C   UNL     1       0.477  10.906  -5.798  1.00  0.00     0.202 C 
BRANCH  31  32
ATOM     32  C   UNL     1       1.144  12.268  -6.024  1.00  0.00     0.261 C 
BRANCH  32  33
ATOM     33  O   UNL     1       0.221  13.312  -5.656  1.00  0.00    -0.460 OA
BRANCH  33  34
ATOM     34  C   UNL     1       0.546  14.020  -4.541  1.00  0.00     0.338 C 
ATOM     35  O   UNL     1       1.653  14.460  -4.275  1.00  0.00    -0.246 OA
BRANCH  34  36
ATOM     36  C   UNL     1      -0.558  13.914  -3.544  1.00  0.00     0.060 A 
ATOM     37  C   UNL     1      -0.361  14.368  -2.228  1.00  0.00     0.016 A 
ATOM     38  C   UNL     1      -1.627  13.071  -3.825  1.00  0.00     0.016 A 
ATOM     39  C   UNL     1      -1.125  13.838  -1.176  1.00  0.00     0.010 A 
ATOM     40  C   UNL     1      -2.297  12.474  -2.776  1.00  0.00     0.010 A 
ATOM     41  C   UNL     1      -2.030  12.809  -1.439  1.00  0.00    -0.014 A 
BRANCH  41  42
ATOM     42  C   UNL     1      -2.597  11.884  -0.430  1.00  0.00     0.031 A 
ATOM     43  C   UNL     1      -4.075  11.579  -0.457  1.00  0.00     0.074 A 
ATOM     44  C   UNL     1      -1.717  11.056   0.199  1.00  0.00     0.049 A 
ATOM     45  N   UNL     1      -4.695  10.777   0.345  1.00  0.00    -0.248 NA
ATOM     46  C   UNL     1      -5.003  12.167  -1.430  1.00  0.00     0.031 C 
ATOM     47  C   UNL     1      -1.975   9.723   0.741  1.00  0.00     0.029 A 
ATOM     48  N   UNL     1      -0.352  11.194   0.450  1.00  0.00    -0.354 N 
ATOM     49  C   UNL     1      -5.915  10.441  -0.233  1.00  0.00     0.074 A 
ATOM     50  C   UNL     1      -6.111  11.439  -1.249  1.00  0.00     0.031 C 
ATOM     51  C   UNL     1      -0.870   9.209   1.304  1.00  0.00     0.029 A 
ATOM     52  C   UNL     1       0.016  10.326   1.485  1.00  0.00     0.049 A 
ATOM     53  H   UNL     1       0.256  11.806  -0.025  1.00  0.00     0.167 HD
ATOM     54  C   UNL     1      -6.522   9.253   0.093  1.00  0.00     0.037 A 
ATOM     55  C   UNL     1       0.348  10.766   2.739  1.00  0.00     0.037 A 
ATOM     56  C   UNL     1      -5.831   8.584   1.218  1.00  0.00     0.049 A 
ATOM     57  C   UNL     1      -0.758  10.426   3.748  1.00  0.00     0.074 A 
ATOM     58  C   UNL     1      -5.334   7.308   1.428  1.00  0.00     0.029 A 
ATOM     59  N   UNL     1      -5.380   9.339   2.304  1.00  0.00    -0.354 N 
ATOM     60  N   UNL     1      -2.004  10.198   3.391  1.00  0.00    -0.248 NA
ATOM     61  C   UNL     1      -0.561  10.158   5.172  1.00  0.00     0.031 C 
ATOM     62  C   UNL     1      -4.420   7.366   2.522  1.00  0.00     0.029 A 
ATOM     63  C   UNL     1      -4.466   8.643   3.066  1.00  0.00     0.049 A 
ATOM     64  H   UNL     1      -5.678  10.257   2.501  1.00  0.00     0.167 HD
ATOM     65  C   UNL     1      -2.716   9.670   4.430  1.00  0.00     0.074 A 
ATOM     66  C   UNL     1      -1.781   9.717   5.542  1.00  0.00     0.031 C 
ATOM     67  C   UNL     1      -3.994   9.190   4.333  1.00  0.00     0.037 A 
BRANCH  54  68
ATOM     68  C   UNL     1      -7.597   8.530  -0.746  1.00  0.00     0.057 A 
ATOM     69  C   UNL     1      -8.258   7.388  -0.236  1.00  0.00     0.134 A 
ATOM     70  C   UNL     1      -7.940   8.815  -2.087  1.00  0.00     0.134 A 
ATOM     71  F   UNL     1      -8.072   6.985   1.028  1.00  0.00    -0.206 F 
ATOM     72  C   UNL     1      -9.145   6.596  -0.991  1.00  0.00     0.040 A 
ATOM     73  C   UNL     1      -8.876   8.068  -2.832  1.00  0.00     0.040 A 
ATOM     74  F   UNL     1      -7.353   9.796  -2.782  1.00  0.00    -0.206 F 
ATOM     75  C   UNL     1      -9.470   6.941  -2.292  1.00  0.00     0.006 A 
ENDBRANCH  54  68
BRANCH  55  76
ATOM     76  C   UNL     1       1.360  11.865   2.669  1.00  0.00     0.057 A 
ATOM     77  C   UNL     1       2.595  11.450   2.121  1.00  0.00     0.134 A 
ATOM     78  C   UNL     1       0.958  13.174   2.373  1.00  0.00     0.134 A 
ATOM     79  F   UNL     1       3.083  10.235   2.420  1.00  0.00    -0.206 F 
ATOM     80  C   UNL     1       3.213  12.157   1.083  1.00  0.00     0.040 A 
ATOM     81  C   UNL     1       1.596  13.909   1.358  1.00  0.00     0.040 A 
ATOM     82  F   UNL     1      -0.182  13.665   2.878  1.00  0.00    -0.206 F 
ATOM     83  C   UNL     1       2.672  13.363   0.655  1.00  0.00     0.006 A 
ENDBRANCH  55  76
BRANCH  67  84
ATOM     84  C   UNL     1      -4.977   9.177   5.480  1.00  0.00     0.057 A 
ATOM     85  C   UNL     1      -4.901  10.088   6.541  1.00  0.00     0.134 A 
ATOM     86  C   UNL     1      -6.181   8.433   5.410  1.00  0.00     0.134 A 
ATOM     87  F   UNL     1      -3.869  10.933   6.668  1.00  0.00    -0.206 F 
ATOM     88  C   UNL     1      -5.924  10.223   7.484  1.00  0.00     0.040 A 
ATOM     89  C   UNL     1      -7.231   8.604   6.312  1.00  0.00     0.040 A 
ATOM     90  F   UNL     1      -6.417   7.541   4.438  1.00  0.00    -0.206 F 
ATOM     91  C   UNL     1      -7.100   9.494   7.362  1.00  0.00     0.006 A 
ENDBRANCH  67  84
ENDBRANCH  41  42
ENDBRANCH  34  36
ENDBRANCH  33  34
ENDBRANCH  32  33
ENDBRANCH  31  32
ENDBRANCH  30  31
ENDBRANCH  29  30
ENDBRANCH  28  29
ENDBRANCH  27  28
ENDBRANCH   1  27
TORSDOF 23
