REMARK SMILES CC1=Nc2c(c(C)nn2-c2ccc(F)cc2)[C@H](c2ccc(C(=O)OCCOCCOCCOCCOC(=O)c3ccc(-c4c5nc(c(-c6c(F)cccc6F)c6ccc([nH]6)c(-c6c(F)cccc6F)c6nc(c(-c7c(F)cccc7F)c7ccc4[nH]7)C=C6)C=C5)cc3)cc2)S1
REMARK SMILES IDX 30 1 29 2 28 3 27 4 26 5 25 6 24 7 22 8 23 9 21 10 18 11
REMARK SMILES IDX 19 12 94 13 20 14 93 15 17 16 1 17 2 18 3 19 95 20 4 21 5 22
REMARK SMILES IDX 9 23 6 24 8 25 7 26 10 27 11 28 16 29 12 30 15 31 13 32
REMARK SMILES IDX 14 33 31 34 32 35 33 36 34 37 35 38 36 39 37 40 38 41 39 42
REMARK SMILES IDX 40 43 92 44 41 45 91 46 42 47 43 48 44 49 85 50 45 51 90 52
REMARK SMILES IDX 84 53 86 54 46 55 89 56 83 57 82 58 47 60 73 61 56 62 72 63
REMARK SMILES IDX 57 64 60 65 71 66 87 67 58 68 59 69 70 71 88 72 61 73 48 74
REMARK SMILES IDX 49 75 54 76 50 77 51 78 53 79 55 80 52 81 74 82 75 83 80 84
REMARK SMILES IDX 76 85 77 86 79 87 81 88 78 89 62 90 63 91 68 92 64 93 65 94
REMARK SMILES IDX 67 95 69 96 66 97
REMARK H PARENT 86 59 60 70
REMARK Flexibility Score: inf
ROOT
ATOM      1  O   UNL     1       7.013  -3.464   4.498  1.00  0.00    -0.377 OA
ENDROOT
BRANCH   1   2
ATOM      2  C   UNL     1       5.994  -4.436   4.686  1.00  0.00     0.188 C 
BRANCH   2   3
ATOM      3  C   UNL     1       6.314  -5.944   4.607  1.00  0.00     0.188 C 
BRANCH   3   4
ATOM      4  O   UNL     1       7.691  -6.236   4.432  1.00  0.00    -0.376 OA
BRANCH   4   5
ATOM      5  C   UNL     1       8.080  -6.839   3.214  1.00  0.00     0.202 C 
BRANCH   5   6
ATOM      6  C   UNL     1       7.969  -5.940   1.976  1.00  0.00     0.261 C 
BRANCH   6   7
ATOM      7  O   UNL     1       6.675  -5.348   1.773  1.00  0.00    -0.460 OA
BRANCH   7   8
ATOM      8  C   UNL     1       5.674  -6.190   1.444  1.00  0.00     0.338 C 
ATOM      9  O   UNL     1       5.782  -7.395   1.239  1.00  0.00    -0.246 OA
BRANCH   8  10
ATOM     10  C   UNL     1       4.372  -5.488   1.549  1.00  0.00     0.060 A 
ATOM     11  C   UNL     1       1.809  -4.280   1.652  1.00  0.00    -0.030 A 
ATOM     12  C   UNL     1       2.001  -5.623   2.030  1.00  0.00     0.006 A 
ATOM     13  C   UNL     1       2.955  -3.530   1.320  1.00  0.00     0.006 A 
ATOM     14  C   UNL     1       3.264  -6.220   1.981  1.00  0.00     0.016 A 
ATOM     15  C   UNL     1       4.223  -4.130   1.254  1.00  0.00     0.016 A 
BRANCH  11  16
ATOM     16  C   UNL     1       0.382  -3.760   1.504  1.00  0.00     0.119 C 
ATOM     17  C   UNL     1       0.771   0.023  -0.076  1.00  0.00     0.075 C 
ATOM     18  C   UNL     1       0.283  -1.074   0.833  1.00  0.00     0.074 C 
ATOM     19  N   UNL     1       0.036  -0.777   2.070  1.00  0.00    -0.227 NA
ATOM     20  S   UNL     1       0.137  -2.653   0.073  1.00  0.00    -0.098 SA
ATOM     21  C   UNL     1      -0.275  -1.787   2.917  1.00  0.00     0.161 A 
ATOM     22  C   UNL     1      -0.068  -3.142   2.772  1.00  0.00     0.038 A 
ATOM     23  N   UNL     1      -0.828  -1.603   4.177  1.00  0.00    -0.215 N 
ATOM     24  C   UNL     1      -0.485  -3.702   4.008  1.00  0.00     0.067 A 
ATOM     25  N   UNL     1      -0.822  -2.756   4.895  1.00  0.00    -0.171 NA
ATOM     26  C   UNL     1      -0.586  -5.130   4.401  1.00  0.00     0.069 C 
BRANCH  23  27
ATOM     27  C   UNL     1      -1.404  -0.422   4.711  1.00  0.00     0.067 A 
ATOM     28  C   UNL     1      -2.129   0.449   3.882  1.00  0.00     0.031 A 
ATOM     29  C   UNL     1      -1.258  -0.139   6.076  1.00  0.00     0.031 A 
ATOM     30  C   UNL     1      -2.692   1.608   4.417  1.00  0.00     0.041 A 
ATOM     31  C   UNL     1      -1.780   1.050   6.591  1.00  0.00     0.041 A 
ATOM     32  C   UNL     1      -2.494   1.908   5.761  1.00  0.00     0.123 A 
ATOM     33  F   UNL     1      -3.000   3.042   6.262  1.00  0.00    -0.207 F 
ENDBRANCH  23  27
ENDBRANCH  11  16
ENDBRANCH   8  10
ENDBRANCH   7   8
ENDBRANCH   6   7
ENDBRANCH   5   6
ENDBRANCH   4   5
ENDBRANCH   3   4
ENDBRANCH   2   3
ENDBRANCH   1   2
BRANCH   1  34
ATOM     34  C   UNL     1       8.310  -3.660   5.052  1.00  0.00     0.188 C 
BRANCH  34  35
ATOM     35  C   UNL     1       8.534  -4.452   6.365  1.00  0.00     0.188 C 
BRANCH  35  36
ATOM     36  O   UNL     1       7.373  -5.045   6.928  1.00  0.00    -0.376 OA
BRANCH  36  37
ATOM     37  C   UNL     1       6.860  -4.551   8.149  1.00  0.00     0.202 C 
BRANCH  37  38
ATOM     38  C   UNL     1       6.272  -3.148   8.091  1.00  0.00     0.261 C 
BRANCH  38  39
ATOM     39  O   UNL     1       7.143  -2.188   7.516  1.00  0.00    -0.460 OA
BRANCH  39  40
ATOM     40  C   UNL     1       8.251  -1.932   8.219  1.00  0.00     0.338 C 
ATOM     41  O   UNL     1       8.740  -2.598   9.137  1.00  0.00    -0.246 OA
BRANCH  40  42
ATOM     42  C   UNL     1       8.739  -0.620   7.842  1.00  0.00     0.060 A 
ATOM     43  C   UNL     1      10.028  -0.275   8.248  1.00  0.00     0.016 A 
ATOM     44  C   UNL     1       7.799   0.326   7.403  1.00  0.00     0.016 A 
ATOM     45  C   UNL     1      10.313   1.058   8.404  1.00  0.00     0.010 A 
ATOM     46  C   UNL     1       8.076   1.653   7.586  1.00  0.00     0.010 A 
ATOM     47  C   UNL     1       9.301   1.992   8.152  1.00  0.00    -0.014 A 
BRANCH  47  48
ATOM     48  C   UNL     1       9.591   3.379   8.418  1.00  0.00     0.031 A 
ATOM     49  C   UNL     1      10.440   3.990   7.380  1.00  0.00     0.074 A 
ATOM     50  C   UNL     1       9.039   4.036   9.453  1.00  0.00     0.049 A 
ATOM     51  N   UNL     1      11.637   4.448   7.515  1.00  0.00    -0.248 NA
ATOM     52  C   UNL     1       9.962   3.939   5.988  1.00  0.00     0.031 C 
ATOM     53  C   UNL     1       7.954   3.570  10.322  1.00  0.00     0.029 A 
ATOM     54  N   UNL     1       9.257   5.311   9.876  1.00  0.00    -0.354 N 
ATOM     55  C   UNL     1      11.978   4.945   6.263  1.00  0.00     0.074 A 
ATOM     56  C   UNL     1      11.009   4.435   5.333  1.00  0.00     0.031 C 
ATOM     57  C   UNL     1       7.467   4.620  11.019  1.00  0.00     0.029 A 
ATOM     58  C   UNL     1       8.283   5.790  10.740  1.00  0.00     0.049 A 
ATOM     59  H   UNL     1      10.035   5.845   9.595  1.00  0.00     0.167 HD
ATOM     60  C   UNL     1      12.850   5.979   6.153  1.00  0.00     0.037 A 
ATOM     61  C   UNL     1       8.129   7.075  11.137  1.00  0.00     0.037 A 
ATOM     62  C   UNL     1      13.609   6.146   7.364  1.00  0.00     0.049 A 
ATOM     63  C   UNL     1       9.416   7.775  10.913  1.00  0.00     0.074 A 
ATOM     64  C   UNL     1      14.632   5.473   7.993  1.00  0.00     0.029 A 
ATOM     65  N   UNL     1      13.031   6.976   8.288  1.00  0.00    -0.354 N 
ATOM     66  N   UNL     1      10.505   7.538  11.591  1.00  0.00    -0.248 NA
ATOM     67  C   UNL     1       9.602   8.557   9.694  1.00  0.00     0.031 C 
ATOM     68  C   UNL     1      14.520   5.788   9.377  1.00  0.00     0.029 A 
ATOM     69  C   UNL     1      13.443   6.656   9.554  1.00  0.00     0.049 A 
ATOM     70  H   UNL     1      12.405   7.704   8.071  1.00  0.00     0.167 HD
ATOM     71  C   UNL     1      11.527   7.760  10.689  1.00  0.00     0.074 A 
ATOM     72  C   UNL     1      10.936   8.557   9.624  1.00  0.00     0.031 C 
ATOM     73  C   UNL     1      12.662   7.006  10.722  1.00  0.00     0.037 A 
BRANCH  60  74
ATOM     74  C   UNL     1      12.687   7.111   5.167  1.00  0.00     0.057 A 
ATOM     75  C   UNL     1      11.471   7.460   4.542  1.00  0.00     0.134 A 
ATOM     76  C   UNL     1      13.703   8.078   5.075  1.00  0.00     0.134 A 
ATOM     77  F   UNL     1      10.371   6.703   4.625  1.00  0.00    -0.206 F 
ATOM     78  C   UNL     1      11.279   8.675   3.879  1.00  0.00     0.040 A 
ATOM     79  C   UNL     1      13.504   9.320   4.460  1.00  0.00     0.040 A 
ATOM     80  F   UNL     1      14.898   7.878   5.650  1.00  0.00    -0.206 F 
ATOM     81  C   UNL     1      12.287   9.623   3.861  1.00  0.00     0.006 A 
ENDBRANCH  60  74
BRANCH  61  82
ATOM     82  C   UNL     1       6.892   7.806  11.489  1.00  0.00     0.057 A 
ATOM     83  C   UNL     1       5.638   7.449  10.963  1.00  0.00     0.134 A 
ATOM     84  C   UNL     1       6.956   9.050  12.133  1.00  0.00     0.134 A 
ATOM     85  F   UNL     1       5.470   6.312  10.273  1.00  0.00    -0.206 F 
ATOM     86  C   UNL     1       4.525   8.292  11.043  1.00  0.00     0.040 A 
ATOM     87  C   UNL     1       5.853   9.909  12.209  1.00  0.00     0.040 A 
ATOM     88  F   UNL     1       8.113   9.494  12.646  1.00  0.00    -0.206 F 
ATOM     89  C   UNL     1       4.636   9.537  11.650  1.00  0.00     0.006 A 
ENDBRANCH  61  82
BRANCH  73  90
ATOM     90  C   UNL     1      13.010   6.333  12.015  1.00  0.00     0.057 A 
ATOM     91  C   UNL     1      14.216   6.681  12.636  1.00  0.00     0.134 A 
ATOM     92  C   UNL     1      12.266   5.299  12.598  1.00  0.00     0.134 A 
ATOM     93  F   UNL     1      14.997   7.637  12.107  1.00  0.00    -0.206 F 
ATOM     94  C   UNL     1      14.671   6.027  13.781  1.00  0.00     0.040 A 
ATOM     95  C   UNL     1      12.693   4.662  13.767  1.00  0.00     0.040 A 
ATOM     96  F   UNL     1      11.139   4.849  12.031  1.00  0.00    -0.206 F 
ATOM     97  C   UNL     1      13.903   5.019  14.355  1.00  0.00     0.006 A 
ENDBRANCH  73  90
ENDBRANCH  47  48
ENDBRANCH  40  42
ENDBRANCH  39  40
ENDBRANCH  38  39
ENDBRANCH  37  38
ENDBRANCH  36  37
ENDBRANCH  35  36
ENDBRANCH  34  35
ENDBRANCH   1  34
TORSDOF 22
