REMARK SMILES O=C(NCCC1=CCCCC1)C1=C(C(=O)OCCOCCOCCOCCOC(=O)c2ccc(-c3c4nc(c(-c5c(F)cccc5F)c5ccc([nH]5)c(-c5c(F)cccc5F)c5nc(c(-c6c(F)cccc6F)c6ccc3[nH]6)C=C5)C=C4)cc2)CCCC1
REMARK SMILES IDX 21 1 20 2 19 3 18 4 17 5 16 6 14 7 15 8 13 9 12 10 88 11
REMARK SMILES IDX 85 12 87 13 86 14 2 15 1 16 3 17 4 19 5 20 6 21 7 22 11 23
REMARK SMILES IDX 8 24 10 25 9 26 22 27 23 28 24 29 25 30 26 31 27 32 28 33
REMARK SMILES IDX 29 34 30 35 31 36 32 37 84 38 33 39 83 40 34 41 35 42 36 43
REMARK SMILES IDX 77 44 37 45 82 46 76 47 78 48 38 49 81 50 75 51 74 52 39 54
REMARK SMILES IDX 65 55 48 56 64 57 49 58 52 59 63 60 79 61 50 62 51 63 62 65
REMARK SMILES IDX 80 66 53 67 40 68 41 69 46 70 42 71 43 72 45 73 47 74 44 75
REMARK SMILES IDX 66 76 67 77 72 78 68 79 69 80 71 81 73 82 70 83 54 84 55 85
REMARK SMILES IDX 60 86 56 87 57 88 59 89 61 90 58 91
REMARK H PARENT 3 18 78 53 52 64
REMARK Flexibility Score: inf
ROOT
ATOM      1  C   UNL     1       3.572   3.613  -1.423  1.00  0.00     0.188 C 
ENDROOT
BRANCH   1   2
ATOM      2  C   UNL     1       5.055   3.559  -1.860  1.00  0.00     0.188 C 
BRANCH   2   3
ATOM      3  O   UNL     1       5.281   3.128  -3.185  1.00  0.00    -0.376 OA
BRANCH   3   4
ATOM      4  C   UNL     1       5.573   1.783  -3.497  1.00  0.00     0.202 C 
BRANCH   4   5
ATOM      5  C   UNL     1       4.974   0.592  -2.743  1.00  0.00     0.261 C 
BRANCH   5   6
ATOM      6  O   UNL     1       4.367   0.859  -1.481  1.00  0.00    -0.460 OA
BRANCH   6   7
ATOM      7  C   UNL     1       5.175   0.830  -0.402  1.00  0.00     0.334 C 
ATOM      8  O   UNL     1       6.388   0.690  -0.421  1.00  0.00    -0.247 OA
BRANCH   7   9
ATOM      9  C   UNL     1       4.402   1.053   0.846  1.00  0.00     0.046 C 
ATOM     10  C   UNL     1       3.212   0.476   1.121  1.00  0.00     0.027 C 
ATOM     11  C   UNL     1       2.457   0.754   2.402  1.00  0.00     0.042 C 
ATOM     12  C   UNL     1       5.091   1.976   1.818  1.00  0.00     0.044 C 
ATOM     13  C   UNL     1       3.075   1.835   3.292  1.00  0.00     0.005 C 
ATOM     14  C   UNL     1       4.596   1.794   3.248  1.00  0.00     0.005 C 
BRANCH  10  15
ATOM     15  C   UNL     1       2.474  -0.467   0.228  1.00  0.00     0.247 C 
ATOM     16  O   UNL     1       1.280  -0.293  -0.007  1.00  0.00    -0.270 OA
ATOM     17  N   UNL     1       3.083  -1.600  -0.215  1.00  0.00    -0.352 N 
ATOM     18  H   UNL     1       2.494  -2.240  -0.675  1.00  0.00     0.163 HD
BRANCH  17  19
ATOM     19  C   UNL     1       4.472  -2.005  -0.109  1.00  0.00     0.120 C 
BRANCH  19  20
ATOM     20  C   UNL     1       4.721  -3.489  -0.313  1.00  0.00     0.052 C 
BRANCH  20  21
ATOM     21  C   UNL     1       4.423  -4.071  -1.683  1.00  0.00    -0.072 C 
ATOM     22  C   UNL     1       3.907  -3.410  -2.739  1.00  0.00    -0.028 C 
ATOM     23  C   UNL     1       4.774  -5.539  -1.773  1.00  0.00     0.031 C 
ATOM     24  C   UNL     1       3.535  -4.070  -4.038  1.00  0.00     0.027 C 
ATOM     25  C   UNL     1       4.711  -6.109  -3.188  1.00  0.00     0.005 C 
ATOM     26  C   UNL     1       3.484  -5.592  -3.924  1.00  0.00     0.004 C 
ENDBRANCH  20  21
ENDBRANCH  19  20
ENDBRANCH  17  19
ENDBRANCH  10  15
ENDBRANCH   7   9
ENDBRANCH   6   7
ENDBRANCH   5   6
ENDBRANCH   4   5
ENDBRANCH   3   4
ENDBRANCH   2   3
ENDBRANCH   1   2
BRANCH   1  27
ATOM     27  O   UNL     1       2.589   2.926  -2.177  1.00  0.00    -0.377 OA
BRANCH  27  28
ATOM     28  C   UNL     1       2.481   3.114  -3.581  1.00  0.00     0.188 C 
BRANCH  28  29
ATOM     29  C   UNL     1       3.087   4.345  -4.293  1.00  0.00     0.188 C 
BRANCH  29  30
ATOM     30  O   UNL     1       3.580   5.352  -3.430  1.00  0.00    -0.376 OA
BRANCH  30  31
ATOM     31  C   UNL     1       2.804   6.512  -3.206  1.00  0.00     0.202 C 
BRANCH  31  32
ATOM     32  C   UNL     1       1.377   6.353  -2.664  1.00  0.00     0.261 C 
BRANCH  32  33
ATOM     33  O   UNL     1       0.528   5.426  -3.350  1.00  0.00    -0.460 OA
BRANCH  33  34
ATOM     34  C   UNL     1       0.204   5.700  -4.629  1.00  0.00     0.338 C 
ATOM     35  O   UNL     1       0.559   6.657  -5.298  1.00  0.00    -0.246 OA
BRANCH  34  36
ATOM     36  C   UNL     1      -0.533   4.533  -5.147  1.00  0.00     0.060 A 
ATOM     37  C   UNL     1      -0.002   3.791  -6.212  1.00  0.00     0.016 A 
ATOM     38  C   UNL     1      -1.747   4.170  -4.561  1.00  0.00     0.016 A 
ATOM     39  C   UNL     1      -0.709   2.701  -6.720  1.00  0.00     0.010 A 
ATOM     40  C   UNL     1      -2.465   3.098  -5.087  1.00  0.00     0.010 A 
ATOM     41  C   UNL     1      -1.967   2.385  -6.192  1.00  0.00    -0.014 A 
BRANCH  41  42
ATOM     42  C   UNL     1      -2.884   1.492  -6.937  1.00  0.00     0.031 A 
ATOM     43  C   UNL     1      -3.909   2.138  -7.829  1.00  0.00     0.074 A 
ATOM     44  C   UNL     1      -2.822   0.155  -6.823  1.00  0.00     0.049 A 
ATOM     45  N   UNL     1      -4.911   1.601  -8.473  1.00  0.00    -0.248 NA
ATOM     46  C   UNL     1      -3.787   3.596  -8.009  1.00  0.00     0.031 C 
ATOM     47  C   UNL     1      -1.838  -0.587  -6.039  1.00  0.00     0.029 A 
ATOM     48  N   UNL     1      -3.628  -0.816  -7.362  1.00  0.00    -0.354 N 
ATOM     49  C   UNL     1      -5.539   2.653  -9.128  1.00  0.00     0.074 A 
ATOM     50  C   UNL     1      -4.832   3.863  -8.775  1.00  0.00     0.031 C 
ATOM     51  C   UNL     1      -2.113  -1.901  -6.130  1.00  0.00     0.029 A 
ATOM     52  C   UNL     1      -3.316  -2.086  -6.940  1.00  0.00     0.049 A 
ATOM     53  H   UNL     1      -4.361  -0.622  -7.990  1.00  0.00     0.167 HD
ATOM     54  C   UNL     1      -6.606   2.612  -9.959  1.00  0.00     0.037 A 
ATOM     55  C   UNL     1      -3.956  -3.251  -7.159  1.00  0.00     0.037 A 
ATOM     56  C   UNL     1      -7.315   1.407 -10.294  1.00  0.00     0.049 A 
ATOM     57  C   UNL     1      -5.213  -3.254  -7.995  1.00  0.00     0.074 A 
ATOM     58  C   UNL     1      -8.424   1.256 -11.107  1.00  0.00     0.029 A 
ATOM     59  N   UNL     1      -6.983   0.145  -9.826  1.00  0.00    -0.354 N 
ATOM     60  N   UNL     1      -5.804  -2.259  -8.613  1.00  0.00    -0.248 NA
ATOM     61  C   UNL     1      -5.896  -4.547  -8.163  1.00  0.00     0.031 C 
ATOM     62  C   UNL     1      -8.791  -0.092 -11.094  1.00  0.00     0.029 A 
ATOM     63  C   UNL     1      -7.874  -0.789 -10.324  1.00  0.00     0.049 A 
ATOM     64  H   UNL     1      -6.227  -0.057  -9.229  1.00  0.00     0.167 HD
ATOM     65  C   UNL     1      -6.892  -2.813  -9.279  1.00  0.00     0.074 A 
ATOM     66  C   UNL     1      -6.879  -4.231  -8.993  1.00  0.00     0.031 C 
ATOM     67  C   UNL     1      -7.820  -2.204 -10.059  1.00  0.00     0.037 A 
BRANCH  54  68
ATOM     68  C   UNL     1      -7.076   3.910 -10.546  1.00  0.00     0.057 A 
ATOM     69  C   UNL     1      -6.329   4.594 -11.515  1.00  0.00     0.134 A 
ATOM     70  C   UNL     1      -8.301   4.468 -10.163  1.00  0.00     0.134 A 
ATOM     71  F   UNL     1      -5.137   4.123 -11.912  1.00  0.00    -0.206 F 
ATOM     72  C   UNL     1      -6.775   5.796 -12.066  1.00  0.00     0.040 A 
ATOM     73  C   UNL     1      -8.772   5.654 -10.729  1.00  0.00     0.040 A 
ATOM     74  F   UNL     1      -9.067   3.864  -9.241  1.00  0.00    -0.206 F 
ATOM     75  C   UNL     1      -8.005   6.324 -11.679  1.00  0.00     0.006 A 
ENDBRANCH  54  68
BRANCH  55  76
ATOM     76  C   UNL     1      -3.453  -4.518  -6.564  1.00  0.00     0.057 A 
ATOM     77  C   UNL     1      -2.994  -5.565  -7.373  1.00  0.00     0.134 A 
ATOM     78  C   UNL     1      -3.481  -4.740  -5.182  1.00  0.00     0.134 A 
ATOM     79  F   UNL     1      -2.966  -5.425  -8.706  1.00  0.00    -0.206 F 
ATOM     80  C   UNL     1      -2.617  -6.797  -6.834  1.00  0.00     0.040 A 
ATOM     81  C   UNL     1      -3.076  -5.956  -4.627  1.00  0.00     0.040 A 
ATOM     82  F   UNL     1      -3.911  -3.782  -4.349  1.00  0.00    -0.206 F 
ATOM     83  C   UNL     1      -2.656  -6.994  -5.456  1.00  0.00     0.006 A 
ENDBRANCH  55  76
BRANCH  67  84
ATOM     84  C   UNL     1      -8.847  -3.072 -10.727  1.00  0.00     0.057 A 
ATOM     85  C   UNL     1      -9.886  -3.684 -10.016  1.00  0.00     0.134 A 
ATOM     86  C   UNL     1      -8.827  -3.244 -12.118  1.00  0.00     0.134 A 
ATOM     87  F   UNL     1      -9.959  -3.568  -8.682  1.00  0.00    -0.206 F 
ATOM     88  C   UNL     1     -10.856  -4.453 -10.662  1.00  0.00     0.040 A 
ATOM     89  C   UNL     1      -9.808  -3.984 -12.778  1.00  0.00     0.040 A 
ATOM     90  F   UNL     1      -7.866  -2.674 -12.861  1.00  0.00    -0.206 F 
ATOM     91  C   UNL     1     -10.824  -4.596 -12.049  1.00  0.00     0.006 A 
ENDBRANCH  67  84
ENDBRANCH  41  42
ENDBRANCH  34  36
ENDBRANCH  33  34
ENDBRANCH  32  33
ENDBRANCH  31  32
ENDBRANCH  30  31
ENDBRANCH  29  30
ENDBRANCH  28  29
ENDBRANCH  27  28
ENDBRANCH   1  27
TORSDOF 24
