REMARK SMILES CCSc1nc(CC(=O)N[C@@H](C(=O)OCCOCCOCCOCCOC(=O)c2ccc(-c3c4nc(c(-c5c(F)cccc5F)c5ccc([nH]5)c(-c5c(F)cccc5F)c5nc(c(-c6c(F)cccc6F)c6ccc3[nH]6)C=C5)C=C4)cc2)C2=C(C)N=N[C@@H]2C)cs1
REMARK SMILES IDX 18 1 17 2 16 3 15 4 14 5 12 6 13 7 11 8 10 9 8 10 9 11 7 13
REMARK SMILES IDX 6 14 4 15 5 16 91 17 90 18 3 19 2 20 1 21 83 22 84 23 88 24
REMARK SMILES IDX 85 25 86 26 87 27 89 28 19 29 20 30 21 31 22 32 23 33 24 34
REMARK SMILES IDX 25 35 26 36 27 37 28 38 29 39 30 40 82 41 31 42 81 43 32 44
REMARK SMILES IDX 33 45 34 46 75 47 35 48 80 49 74 50 76 51 36 52 79 53 73 54
REMARK SMILES IDX 72 55 37 57 63 58 46 59 62 60 47 61 50 62 61 63 77 64 48 65
REMARK SMILES IDX 49 66 60 68 78 69 51 70 38 71 39 72 44 73 40 74 41 75 43 76
REMARK SMILES IDX 45 77 42 78 64 79 65 80 70 81 66 82 67 83 69 84 71 85 68 86
REMARK SMILES IDX 52 87 53 88 58 89 54 90 55 91 57 92 59 93 56 94
REMARK H PARENT 10 12 76 56 50 67
REMARK Flexibility Score: inf
ROOT
ATOM      1  C   UNL     1       4.392   2.254  -5.273  1.00  0.00     0.188 C 
ENDROOT
BRANCH   1   2
ATOM      2  O   UNL     1       3.309   3.163  -5.376  1.00  0.00    -0.376 OA
BRANCH   2   3
ATOM      3  C   UNL     1       3.000   3.997  -4.275  1.00  0.00     0.202 C 
BRANCH   3   4
ATOM      4  C   UNL     1       2.877   3.411  -2.854  1.00  0.00     0.261 C 
BRANCH   4   5
ATOM      5  O   UNL     1       3.822   2.394  -2.453  1.00  0.00    -0.461 OA
BRANCH   5   6
ATOM      6  C   UNL     1       3.388   1.102  -2.453  1.00  0.00     0.333 C 
ATOM      7  O   UNL     1       2.248   0.773  -2.767  1.00  0.00    -0.249 OA
BRANCH   6   8
ATOM      8  C   UNL     1       4.486   0.060  -2.009  1.00  0.00     0.223 C 
BRANCH   8   9
ATOM      9  N   UNL     1       5.890   0.451  -1.853  1.00  0.00    -0.339 N 
ATOM     10  C   UNL     1       6.574   0.866  -0.750  1.00  0.00     0.226 C 
ATOM     11  O   UNL     1       7.774   1.121  -0.880  1.00  0.00    -0.275 OA
ATOM     12  H   UNL     1       6.425   0.407  -2.678  1.00  0.00     0.164 HD
BRANCH  10  13
ATOM     13  C   UNL     1       5.905   0.945   0.605  1.00  0.00     0.157 C 
BRANCH  13  14
ATOM     14  C   UNL     1       4.921   2.056   0.674  1.00  0.00     0.062 A 
ATOM     15  C   UNL     1       2.846   2.828   0.698  1.00  0.00     0.150 A 
ATOM     16  N   UNL     1       3.573   1.734   0.691  1.00  0.00    -0.234 NA
ATOM     17  S   UNL     1       3.728   4.298   0.780  1.00  0.00    -0.116 S 
ATOM     18  C   UNL     1       5.193   3.411   0.709  1.00  0.00     0.092 A 
BRANCH  15  19
ATOM     19  S   UNL     1       1.106   2.788   0.534  1.00  0.00    -0.096 SA
BRANCH  19  20
ATOM     20  C   UNL     1       0.694   1.109   1.093  1.00  0.00     0.074 C 
ATOM     21  C   UNL     1       0.983   0.019   0.076  1.00  0.00     0.016 C 
ENDBRANCH  19  20
ENDBRANCH  15  19
ENDBRANCH  13  14
ENDBRANCH  10  13
ENDBRANCH   8   9
BRANCH   8  22
ATOM     22  C   UNL     1       4.489  -1.183  -2.857  1.00  0.00     0.012 C 
ATOM     23  C   UNL     1       4.724  -2.439  -2.461  1.00  0.00     0.064 C 
ATOM     24  C   UNL     1       4.111  -1.316  -4.301  1.00  0.00     0.156 C 
ATOM     25  C   UNL     1       5.240  -2.911  -1.150  1.00  0.00     0.069 C 
ATOM     26  N   UNL     1       4.416  -3.365  -3.424  1.00  0.00    -0.160 NA
ATOM     27  N   UNL     1       3.959  -2.790  -4.449  1.00  0.00    -0.181 NA
ATOM     28  C   UNL     1       5.209  -0.914  -5.294  1.00  0.00     0.040 C 
ENDBRANCH   8  22
ENDBRANCH   6   8
ENDBRANCH   5   6
ENDBRANCH   4   5
ENDBRANCH   3   4
ENDBRANCH   2   3
ENDBRANCH   1   2
BRANCH   1  29
ATOM     29  C   UNL     1       5.668   2.627  -4.486  1.00  0.00     0.188 C 
BRANCH  29  30
ATOM     30  O   UNL     1       5.709   3.967  -4.043  1.00  0.00    -0.377 OA
BRANCH  30  31
ATOM     31  C   UNL     1       6.465   4.835  -4.870  1.00  0.00     0.188 C 
BRANCH  31  32
ATOM     32  C   UNL     1       6.236   4.692  -6.387  1.00  0.00     0.188 C 
BRANCH  32  33
ATOM     33  O   UNL     1       6.463   3.373  -6.873  1.00  0.00    -0.376 OA
BRANCH  33  34
ATOM     34  C   UNL     1       7.705   3.027  -7.464  1.00  0.00     0.202 C 
BRANCH  34  35
ATOM     35  C   UNL     1       8.966   3.012  -6.582  1.00  0.00     0.261 C 
BRANCH  35  36
ATOM     36  O   UNL     1       9.252   4.207  -5.845  1.00  0.00    -0.460 OA
BRANCH  36  37
ATOM     37  C   UNL     1       9.411   5.349  -6.541  1.00  0.00     0.338 C 
ATOM     38  O   UNL     1       9.422   5.474  -7.755  1.00  0.00    -0.246 OA
BRANCH  37  39
ATOM     39  C   UNL     1       9.332   6.475  -5.585  1.00  0.00     0.060 A 
ATOM     40  C   UNL     1       8.386   7.481  -5.822  1.00  0.00     0.016 A 
ATOM     41  C   UNL     1      10.157   6.531  -4.457  1.00  0.00     0.016 A 
ATOM     42  C   UNL     1       8.298   8.572  -4.964  1.00  0.00     0.010 A 
ATOM     43  C   UNL     1      10.093   7.646  -3.615  1.00  0.00     0.010 A 
ATOM     44  C   UNL     1       9.198   8.693  -3.899  1.00  0.00    -0.014 A 
BRANCH  44  45
ATOM     45  C   UNL     1       9.381  10.033  -3.295  1.00  0.00     0.031 A 
ATOM     46  C   UNL     1      10.482  10.900  -3.848  1.00  0.00     0.074 A 
ATOM     47  C   UNL     1       8.541  10.513  -2.363  1.00  0.00     0.049 A 
ATOM     48  N   UNL     1      10.819  12.123  -3.534  1.00  0.00    -0.248 NA
ATOM     49  C   UNL     1      11.314  10.301  -4.907  1.00  0.00     0.031 C 
ATOM     50  C   UNL     1       7.405   9.793  -1.794  1.00  0.00     0.029 A 
ATOM     51  N   UNL     1       8.514  11.735  -1.741  1.00  0.00    -0.354 N 
ATOM     52  C   UNL     1      11.897  12.437  -4.353  1.00  0.00     0.074 A 
ATOM     53  C   UNL     1      12.185  11.266  -5.149  1.00  0.00     0.031 C 
ATOM     54  C   UNL     1       6.790  10.588  -0.900  1.00  0.00     0.029 A 
ATOM     55  C   UNL     1       7.506  11.861  -0.818  1.00  0.00     0.049 A 
ATOM     56  H   UNL     1       9.158  12.454  -1.937  1.00  0.00     0.167 HD
ATOM     57  C   UNL     1      12.577  13.603  -4.448  1.00  0.00     0.037 A 
ATOM     58  C   UNL     1       7.208  12.887   0.004  1.00  0.00     0.037 A 
ATOM     59  C   UNL     1      12.291  14.766  -3.654  1.00  0.00     0.049 A 
ATOM     60  C   UNL     1       8.033  14.147  -0.062  1.00  0.00     0.074 A 
ATOM     61  C   UNL     1      12.919  15.998  -3.671  1.00  0.00     0.029 A 
ATOM     62  N   UNL     1      11.294  14.837  -2.691  1.00  0.00    -0.354 N 
ATOM     63  N   UNL     1       9.039  14.443  -0.852  1.00  0.00    -0.248 NA
ATOM     64  C   UNL     1       7.674  15.222   0.874  1.00  0.00     0.031 C 
ATOM     65  C   UNL     1      12.342  16.795  -2.678  1.00  0.00     0.029 A 
ATOM     66  C   UNL     1      11.308  16.084  -2.089  1.00  0.00     0.049 A 
ATOM     67  H   UNL     1      10.670  14.109  -2.470  1.00  0.00     0.167 HD
ATOM     68  C   UNL     1       9.407  15.745  -0.532  1.00  0.00     0.074 A 
ATOM     69  C   UNL     1       8.506  16.187   0.511  1.00  0.00     0.031 C 
ATOM     70  C   UNL     1      10.399  16.509  -1.055  1.00  0.00     0.037 A 
BRANCH  57  71
ATOM     71  C   UNL     1      13.720  13.656  -5.420  1.00  0.00     0.057 A 
ATOM     72  C   UNL     1      13.520  13.640  -6.807  1.00  0.00     0.134 A 
ATOM     73  C   UNL     1      15.040  13.735  -4.960  1.00  0.00     0.134 A 
ATOM     74  F   UNL     1      12.282  13.543  -7.315  1.00  0.00    -0.206 F 
ATOM     75  C   UNL     1      14.593  13.674  -7.700  1.00  0.00     0.040 A 
ATOM     76  C   UNL     1      16.119  13.800  -5.843  1.00  0.00     0.040 A 
ATOM     77  F   UNL     1      15.303  13.752  -3.645  1.00  0.00    -0.206 F 
ATOM     78  C   UNL     1      15.897  13.762  -7.218  1.00  0.00     0.006 A 
ENDBRANCH  57  71
BRANCH  58  79
ATOM     79  C   UNL     1       6.085  12.770   0.971  1.00  0.00     0.057 A 
ATOM     80  C   UNL     1       4.940  13.567   0.862  1.00  0.00     0.134 A 
ATOM     81  C   UNL     1       6.152  11.886   2.055  1.00  0.00     0.134 A 
ATOM     82  F   UNL     1       4.826  14.452  -0.140  1.00  0.00    -0.206 F 
ATOM     83  C   UNL     1       3.914  13.509   1.808  1.00  0.00     0.040 A 
ATOM     84  C   UNL     1       5.121  11.796   2.992  1.00  0.00     0.040 A 
ATOM     85  F   UNL     1       7.222  11.094   2.220  1.00  0.00    -0.206 F 
ATOM     86  C   UNL     1       4.001  12.617   2.875  1.00  0.00     0.006 A 
ENDBRANCH  58  79
BRANCH  70  87
ATOM     87  C   UNL     1      10.529  17.916  -0.542  1.00  0.00     0.057 A 
ATOM     88  C   UNL     1      10.966  18.199   0.759  1.00  0.00     0.134 A 
ATOM     89  C   UNL     1      10.238  19.006  -1.375  1.00  0.00     0.134 A 
ATOM     90  F   UNL     1      11.254  17.204   1.611  1.00  0.00    -0.206 F 
ATOM     91  C   UNL     1      11.070  19.511   1.224  1.00  0.00     0.040 A 
ATOM     92  C   UNL     1      10.372  20.322  -0.932  1.00  0.00     0.040 A 
ATOM     93  F   UNL     1       9.830  18.809  -2.638  1.00  0.00    -0.206 F 
ATOM     94  C   UNL     1      10.778  20.577   0.376  1.00  0.00     0.006 A 
ENDBRANCH  70  87
ENDBRANCH  44  45
ENDBRANCH  37  39
ENDBRANCH  36  37
ENDBRANCH  35  36
ENDBRANCH  34  35
ENDBRANCH  33  34
ENDBRANCH  32  33
ENDBRANCH  31  32
ENDBRANCH  30  31
ENDBRANCH  29  30
ENDBRANCH   1  29
TORSDOF 26
