REMARK SMILES C[C@@H](C(=O)OCCOCCOCCOCCOC(=O)c1ccc(-c2c3nc(c(-c4c(F)cccc4F)c4ccc([nH]4)c(-c4c(F)cccc4F)c4nc(c(-c5c(F)cccc5F)c5ccc2[nH]5)C=C4)C=C3)cc1)c1ccc(C[C@H]2CCC[C@H]2O)cc1
REMARK SMILES IDX 10 1 9 2 8 3 7 4 6 5 5 6 3 7 4 8 2 9 1 10 74 11 75 12 86 13
REMARK SMILES IDX 76 14 85 15 77 16 78 17 79 18 80 19 83 20 81 21 82 22 84 23
REMARK SMILES IDX 11 25 12 26 13 27 14 28 15 29 16 30 17 31 18 32 19 33 20 34
REMARK SMILES IDX 21 35 73 36 22 37 72 38 23 39 24 40 25 41 66 42 26 43 71 44
REMARK SMILES IDX 65 45 67 46 27 47 70 48 64 49 63 50 28 52 54 53 37 54 53 55
REMARK SMILES IDX 38 56 41 57 52 58 68 59 39 60 40 61 51 63 69 64 42 65 29 66
REMARK SMILES IDX 30 67 35 68 31 69 32 70 34 71 36 72 33 73 55 74 56 75 61 76
REMARK SMILES IDX 57 77 58 78 60 79 62 80 59 81 43 82 44 83 49 84 45 85 46 86
REMARK SMILES IDX 48 87 50 88 47 89
REMARK H PARENT 84 24 67 51 41 62
REMARK Flexibility Score: inf
ROOT
ATOM      1  C   UNL     1       0.736   2.237  -1.614  1.00  0.00     0.188 C 
ENDROOT
BRANCH   1   2
ATOM      2  C   UNL     1       0.245   3.595  -1.095  1.00  0.00     0.188 C 
BRANCH   2   3
ATOM      3  O   UNL     1       1.215   4.620  -1.180  1.00  0.00    -0.376 OA
BRANCH   3   4
ATOM      4  C   UNL     1       1.899   4.991   0.003  1.00  0.00     0.202 C 
BRANCH   4   5
ATOM      5  C   UNL     1       2.474   3.945   0.984  1.00  0.00     0.261 C 
BRANCH   5   6
ATOM      6  O   UNL     1       1.857   2.646   0.996  1.00  0.00    -0.463 OA
BRANCH   6   7
ATOM      7  C   UNL     1       1.073   2.301   2.047  1.00  0.00     0.313 C 
ATOM      8  O   UNL     1       0.812   3.057   2.977  1.00  0.00    -0.252 OA
BRANCH   7   9
ATOM      9  C   UNL     1       0.458   0.893   1.908  1.00  0.00     0.126 C 
ATOM     10  C   UNL     1       1.298  -0.092   1.077  1.00  0.00     0.025 C 
BRANCH   9  11
ATOM     11  C   UNL     1      -1.024   0.887   1.519  1.00  0.00    -0.034 A 
ATOM     12  C   UNL     1      -1.712   2.066   1.219  1.00  0.00     0.005 A 
ATOM     13  C   UNL     1      -1.768  -0.302   1.504  1.00  0.00     0.005 A 
ATOM     14  C   UNL     1      -3.056   2.071   0.873  1.00  0.00     0.004 A 
ATOM     15  C   UNL     1      -3.160  -0.275   1.322  1.00  0.00     0.004 A 
ATOM     16  C   UNL     1      -3.820   0.936   1.083  1.00  0.00    -0.048 A 
BRANCH  16  17
ATOM     17  C   UNL     1      -5.314   1.091   1.228  1.00  0.00     0.041 C 
BRANCH  17  18
ATOM     18  C   UNL     1      -5.792   1.685   2.580  1.00  0.00     0.022 C 
ATOM     19  C   UNL     1      -5.253   0.982   3.840  1.00  0.00     0.007 C 
ATOM     20  C   UNL     1      -5.616   3.193   2.874  1.00  0.00     0.117 C 
ATOM     21  C   UNL     1      -5.171   2.051   4.933  1.00  0.00     0.003 C 
ATOM     22  C   UNL     1      -5.880   3.279   4.373  1.00  0.00     0.032 C 
BRANCH  20  23
ATOM     23  O   UNL     1      -4.328   3.733   2.647  1.00  0.00    -0.393 OA
ATOM     24  H   UNL     1      -3.683   3.277   3.209  1.00  0.00     0.210 HD
ENDBRANCH  20  23
ENDBRANCH  17  18
ENDBRANCH  16  17
ENDBRANCH   9  11
ENDBRANCH   7   9
ENDBRANCH   6   7
ENDBRANCH   5   6
ENDBRANCH   4   5
ENDBRANCH   3   4
ENDBRANCH   2   3
ENDBRANCH   1   2
BRANCH   1  25
ATOM     25  O   UNL     1       2.139   2.090  -1.759  1.00  0.00    -0.377 OA
BRANCH  25  26
ATOM     26  C   UNL     1       2.822   2.942  -2.679  1.00  0.00     0.188 C 
BRANCH  26  27
ATOM     27  C   UNL     1       2.064   3.856  -3.678  1.00  0.00     0.188 C 
BRANCH  27  28
ATOM     28  O   UNL     1       0.726   3.482  -3.957  1.00  0.00    -0.376 OA
BRANCH  28  29
ATOM     29  C   UNL     1       0.464   2.777  -5.159  1.00  0.00     0.202 C 
BRANCH  29  30
ATOM     30  C   UNL     1       1.131   1.405  -5.330  1.00  0.00     0.261 C 
BRANCH  30  31
ATOM     31  O   UNL     1       2.565   1.382  -5.246  1.00  0.00    -0.460 OA
BRANCH  31  32
ATOM     32  C   UNL     1       3.260   2.125  -6.133  1.00  0.00     0.338 C 
ATOM     33  O   UNL     1       2.812   2.790  -7.054  1.00  0.00    -0.246 OA
BRANCH  32  34
ATOM     34  C   UNL     1       4.665   2.167  -5.677  1.00  0.00     0.060 A 
ATOM     35  C   UNL     1       5.240   3.403  -5.349  1.00  0.00     0.016 A 
ATOM     36  C   UNL     1       5.402   0.988  -5.555  1.00  0.00     0.016 A 
ATOM     37  C   UNL     1       6.569   3.466  -4.933  1.00  0.00     0.010 A 
ATOM     38  C   UNL     1       6.742   1.056  -5.166  1.00  0.00     0.010 A 
ATOM     39  C   UNL     1       7.340   2.299  -4.889  1.00  0.00    -0.014 A 
BRANCH  39  40
ATOM     40  C   UNL     1       8.814   2.400  -4.776  1.00  0.00     0.031 A 
ATOM     41  C   UNL     1       9.626   2.338  -6.041  1.00  0.00     0.074 A 
ATOM     42  C   UNL     1       9.422   2.568  -3.589  1.00  0.00     0.049 A 
ATOM     43  N   UNL     1      10.923   2.341  -6.200  1.00  0.00    -0.248 NA
ATOM     44  C   UNL     1       8.864   2.257  -7.300  1.00  0.00     0.031 C 
ATOM     45  C   UNL     1       8.745   2.694  -2.300  1.00  0.00     0.029 A 
ATOM     46  N   UNL     1      10.757   2.651  -3.280  1.00  0.00    -0.354 N 
ATOM     47  C   UNL     1      11.133   2.255  -7.571  1.00  0.00     0.074 A 
ATOM     48  C   UNL     1       9.833   2.168  -8.197  1.00  0.00     0.031 C 
ATOM     49  C   UNL     1       9.672   2.822  -1.334  1.00  0.00     0.029 A 
ATOM     50  C   UNL     1      11.004   2.751  -1.933  1.00  0.00     0.049 A 
ATOM     51  H   UNL     1      11.469   2.640  -3.959  1.00  0.00     0.167 HD
ATOM     52  C   UNL     1      12.305   2.257  -8.248  1.00  0.00     0.037 A 
ATOM     53  C   UNL     1      12.173   2.754  -1.263  1.00  0.00     0.037 A 
ATOM     54  C   UNL     1      13.597   2.339  -7.622  1.00  0.00     0.049 A 
ATOM     55  C   UNL     1      13.467   2.667  -2.034  1.00  0.00     0.074 A 
ATOM     56  C   UNL     1      14.845   2.358  -8.220  1.00  0.00     0.029 A 
ATOM     57  N   UNL     1      13.807   2.405  -6.253  1.00  0.00    -0.354 N 
ATOM     58  N   UNL     1      13.658   2.606  -3.330  1.00  0.00    -0.248 NA
ATOM     59  C   UNL     1      14.709   2.652  -1.246  1.00  0.00     0.031 C 
ATOM     60  C   UNL     1      15.811   2.375  -7.210  1.00  0.00     0.029 A 
ATOM     61  C   UNL     1      15.166   2.436  -5.985  1.00  0.00     0.049 A 
ATOM     62  H   UNL     1      13.096   2.427  -5.572  1.00  0.00     0.167 HD
ATOM     63  C   UNL     1      15.036   2.581  -3.514  1.00  0.00     0.074 A 
ATOM     64  C   UNL     1      15.633   2.647  -2.196  1.00  0.00     0.031 C 
ATOM     65  C   UNL     1      15.745   2.513  -4.668  1.00  0.00     0.037 A 
BRANCH  52  66
ATOM     66  C   UNL     1      12.241   2.134  -9.743  1.00  0.00     0.057 A 
ATOM     67  C   UNL     1      11.756   3.168 -10.555  1.00  0.00     0.134 A 
ATOM     68  C   UNL     1      12.697   0.973 -10.381  1.00  0.00     0.134 A 
ATOM     69  F   UNL     1      11.287   4.300 -10.008  1.00  0.00    -0.206 F 
ATOM     70  C   UNL     1      11.706   3.043 -11.945  1.00  0.00     0.040 A 
ATOM     71  C   UNL     1      12.681   0.849 -11.771  1.00  0.00     0.040 A 
ATOM     72  F   UNL     1      13.176  -0.055  -9.664  1.00  0.00    -0.206 F 
ATOM     73  C   UNL     1      12.178   1.883 -12.556  1.00  0.00     0.006 A 
ENDBRANCH  52  66
BRANCH  53  74
ATOM     74  C   UNL     1      12.185   2.819   0.222  1.00  0.00     0.057 A 
ATOM     75  C   UNL     1      12.705   3.929   0.899  1.00  0.00     0.134 A 
ATOM     76  C   UNL     1      11.713   1.755   1.002  1.00  0.00     0.134 A 
ATOM     77  F   UNL     1      13.197   4.970   0.211  1.00  0.00    -0.206 F 
ATOM     78  C   UNL     1      12.776   3.970   2.293  1.00  0.00     0.040 A 
ATOM     79  C   UNL     1      11.750   1.795   2.396  1.00  0.00     0.040 A 
ATOM     80  F   UNL     1      11.204   0.661   0.417  1.00  0.00    -0.206 F 
ATOM     81  C   UNL     1      12.293   2.902   3.046  1.00  0.00     0.006 A 
ENDBRANCH  53  74
BRANCH  65  82
ATOM     82  C   UNL     1      17.244   2.555  -4.566  1.00  0.00     0.057 A 
ATOM     83  C   UNL     1      17.987   1.487  -4.048  1.00  0.00     0.134 A 
ATOM     84  C   UNL     1      17.956   3.667  -5.038  1.00  0.00     0.134 A 
ATOM     85  F   UNL     1      17.369   0.396  -3.571  1.00  0.00    -0.206 F 
ATOM     86  C   UNL     1      19.381   1.534  -3.979  1.00  0.00     0.040 A 
ATOM     87  C   UNL     1      19.350   3.712  -5.003  1.00  0.00     0.040 A 
ATOM     88  F   UNL     1      17.309   4.720  -5.559  1.00  0.00    -0.206 F 
ATOM     89  C   UNL     1      20.067   2.646  -4.465  1.00  0.00     0.006 A 
ENDBRANCH  65  82
ENDBRANCH  39  40
ENDBRANCH  32  34
ENDBRANCH  31  32
ENDBRANCH  30  31
ENDBRANCH  29  30
ENDBRANCH  28  29
ENDBRANCH  27  28
ENDBRANCH  26  27
ENDBRANCH  25  26
ENDBRANCH   1  25
TORSDOF 24
