REMARK SMILES CCCOC(=O)c1c(NC(=O)[C@@H]2CC=CC[C@H]2C(=O)OCCOCCOCCOCCOC(=O)c2ccc(-c3c4nc(c(-c5c(F)cccc5F)c5ccc([nH]5)c(-c5c(F)cccc5F)c5nc(c(-c6c(F)cccc6F)c6ccc3[nH]6)C=C5)C=C4)cc2)sc2c1CCCC2
REMARK SMILES IDX 24 1 23 2 22 3 21 4 20 5 18 6 19 7 17 8 12 9 13 10 14 11
REMARK SMILES IDX 16 12 15 13 10 14 9 15 11 17 8 18 7 19 91 20 89 21 90 22
REMARK SMILES IDX 92 23 95 24 93 25 94 26 5 27 6 28 4 29 3 30 2 31 1 32 25 33
REMARK SMILES IDX 26 34 27 35 28 36 29 37 30 38 31 39 32 40 33 41 34 42 35 43
REMARK SMILES IDX 36 44 88 45 37 46 87 47 38 48 39 49 40 50 81 51 41 52 86 53
REMARK SMILES IDX 80 54 82 55 42 56 85 57 79 58 78 59 43 61 69 62 52 63 68 64
REMARK SMILES IDX 53 65 56 66 67 67 83 68 54 69 55 70 66 72 84 73 57 74 44 75
REMARK SMILES IDX 45 76 50 77 46 78 47 79 49 80 51 81 48 82 70 83 71 84 76 85
REMARK SMILES IDX 72 86 73 87 75 88 77 89 74 90 58 91 59 92 64 93 60 94 61 95
REMARK SMILES IDX 63 96 65 97 62 98
REMARK H PARENT 9 16 82 60 56 71
REMARK Flexibility Score: inf
ROOT
ATOM      1  C   UNL     1       5.408   0.817  -2.383  1.00  0.00     0.188 C 
ENDROOT
BRANCH   1   2
ATOM      2  O   UNL     1       5.981  -0.220  -3.179  1.00  0.00    -0.376 OA
BRANCH   2   3
ATOM      3  C   UNL     1       5.057  -1.132  -3.780  1.00  0.00     0.202 C 
BRANCH   3   4
ATOM      4  C   UNL     1       4.386  -2.102  -2.805  1.00  0.00     0.261 C 
BRANCH   4   5
ATOM      5  O   UNL     1       3.242  -1.496  -2.155  1.00  0.00    -0.463 OA
BRANCH   5   6
ATOM      6  C   UNL     1       3.365  -1.346  -0.822  1.00  0.00     0.310 C 
ATOM      7  O   UNL     1       4.335  -1.740  -0.176  1.00  0.00    -0.252 OA
BRANCH   6   8
ATOM      8  C   UNL     1       2.225  -0.645  -0.124  1.00  0.00     0.116 C 
ATOM      9  C   UNL     1       1.067   0.105  -0.812  1.00  0.00     0.097 C 
ATOM     10  C   UNL     1       0.381   0.936   0.317  1.00  0.00     0.041 C 
ATOM     11  C   UNL     1       0.049   0.108   1.529  1.00  0.00    -0.030 C 
ATOM     12  C   UNL     1       1.609  -1.699   0.823  1.00  0.00     0.043 C 
ATOM     13  C   UNL     1       0.581  -1.105   1.739  1.00  0.00    -0.030 C 
BRANCH   9  14
ATOM     14  C   UNL     1       1.386   1.072  -1.937  1.00  0.00     0.229 C 
ATOM     15  N   UNL     1       1.158   0.796  -3.254  1.00  0.00    -0.317 N 
ATOM     16  H   UNL     1       1.195   1.575  -3.853  1.00  0.00     0.170 HD
ATOM     17  O   UNL     1       1.869   2.180  -1.670  1.00  0.00    -0.274 OA
BRANCH  15  18
ATOM     18  C   UNL     1       0.884  -0.398  -3.875  1.00  0.00     0.110 A 
ATOM     19  C   UNL     1       0.208  -1.580  -3.639  1.00  0.00     0.098 A 
ATOM     20  C   UNL     1       0.897  -2.646  -4.336  1.00  0.00    -0.017 A 
ATOM     21  S   UNL     1       1.601  -0.446  -5.426  1.00  0.00    -0.122 S 
ATOM     22  C   UNL     1       1.708  -2.135  -5.335  1.00  0.00     0.011 A 
ATOM     23  C   UNL     1       0.763  -4.124  -4.135  1.00  0.00     0.038 C 
ATOM     24  C   UNL     1       2.594  -2.912  -6.250  1.00  0.00     0.047 C 
ATOM     25  C   UNL     1       1.955  -4.881  -4.756  1.00  0.00     0.005 C 
ATOM     26  C   UNL     1       2.264  -4.407  -6.184  1.00  0.00     0.006 C 
BRANCH  19  27
ATOM     27  C   UNL     1      -1.061  -1.685  -2.934  1.00  0.00     0.341 C 
ATOM     28  O   UNL     1      -2.071  -1.147  -3.362  1.00  0.00    -0.246 OA
BRANCH  27  29
ATOM     29  O   UNL     1      -1.019  -2.461  -1.812  1.00  0.00    -0.462 OA
BRANCH  29  30
ATOM     30  C   UNL     1      -2.292  -2.687  -1.177  1.00  0.00     0.233 C 
BRANCH  30  31
ATOM     31  C   UNL     1      -2.671  -1.632  -0.134  1.00  0.00     0.038 C 
ATOM     32  C   UNL     1      -2.894  -0.227  -0.673  1.00  0.00     0.007 C 
ENDBRANCH  30  31
ENDBRANCH  29  30
ENDBRANCH  27  29
ENDBRANCH  19  27
ENDBRANCH  15  18
ENDBRANCH   9  14
ENDBRANCH   6   8
ENDBRANCH   5   6
ENDBRANCH   4   5
ENDBRANCH   3   4
ENDBRANCH   2   3
ENDBRANCH   1   2
BRANCH   1  33
ATOM     33  C   UNL     1       4.971   2.049  -3.165  1.00  0.00     0.188 C 
BRANCH  33  34
ATOM     34  O   UNL     1       3.998   1.715  -4.159  1.00  0.00    -0.377 OA
BRANCH  34  35
ATOM     35  C   UNL     1       4.501   1.889  -5.477  1.00  0.00     0.188 C 
BRANCH  35  36
ATOM     36  C   UNL     1       4.582   3.341  -5.967  1.00  0.00     0.188 C 
BRANCH  36  37
ATOM     37  O   UNL     1       4.324   4.387  -5.040  1.00  0.00    -0.376 OA
BRANCH  37  38
ATOM     38  C   UNL     1       3.030   4.473  -4.439  1.00  0.00     0.202 C 
BRANCH  38  39
ATOM     39  C   UNL     1       1.848   4.736  -5.367  1.00  0.00     0.261 C 
BRANCH  39  40
ATOM     40  O   UNL     1       1.454   3.552  -6.083  1.00  0.00    -0.460 OA
BRANCH  40  41
ATOM     41  C   UNL     1       1.545   3.645  -7.427  1.00  0.00     0.338 C 
ATOM     42  O   UNL     1       2.011   4.555  -8.091  1.00  0.00    -0.246 OA
BRANCH  41  43
ATOM     43  C   UNL     1       0.994   2.437  -8.042  1.00  0.00     0.060 A 
ATOM     44  C   UNL     1       1.854   1.520  -8.658  1.00  0.00     0.016 A 
ATOM     45  C   UNL     1      -0.391   2.331  -8.167  1.00  0.00     0.016 A 
ATOM     46  C   UNL     1       1.320   0.510  -9.458  1.00  0.00     0.010 A 
ATOM     47  C   UNL     1      -0.920   1.329  -8.972  1.00  0.00     0.010 A 
ATOM     48  C   UNL     1      -0.065   0.447  -9.656  1.00  0.00    -0.014 A 
BRANCH  48  49
ATOM     49  C   UNL     1      -0.648  -0.402 -10.718  1.00  0.00     0.031 A 
ATOM     50  C   UNL     1      -0.990   0.239 -12.034  1.00  0.00     0.074 A 
ATOM     51  C   UNL     1      -0.946  -1.689 -10.478  1.00  0.00     0.049 A 
ATOM     52  N   UNL     1      -1.686  -0.236 -13.033  1.00  0.00    -0.248 NA
ATOM     53  C   UNL     1      -0.491   1.609 -12.243  1.00  0.00     0.031 C 
ATOM     54  C   UNL     1      -0.629  -2.416  -9.251  1.00  0.00     0.029 A 
ATOM     55  N   UNL     1      -1.620  -2.599 -11.250  1.00  0.00    -0.354 N 
ATOM     56  C   UNL     1      -1.732   0.783 -13.977  1.00  0.00     0.074 A 
ATOM     57  C   UNL     1      -1.002   1.905 -13.429  1.00  0.00     0.031 C 
ATOM     58  C   UNL     1      -1.137  -3.657  -9.340  1.00  0.00     0.029 A 
ATOM     59  C   UNL     1      -1.854  -3.789 -10.608  1.00  0.00     0.049 A 
ATOM     60  H   UNL     1      -1.909  -2.416 -12.174  1.00  0.00     0.167 HD
ATOM     61  C   UNL     1      -2.336   0.781 -15.188  1.00  0.00     0.037 A 
ATOM     62  C   UNL     1      -2.602  -4.843 -10.989  1.00  0.00     0.037 A 
ATOM     63  C   UNL     1      -3.064  -0.340 -15.718  1.00  0.00     0.049 A 
ATOM     64  C   UNL     1      -3.325  -4.793 -12.310  1.00  0.00     0.074 A 
ATOM     65  C   UNL     1      -3.690  -0.460 -16.945  1.00  0.00     0.029 A 
ATOM     66  N   UNL     1      -3.273  -1.532 -15.040  1.00  0.00    -0.354 N 
ATOM     67  N   UNL     1      -3.340  -3.841 -13.212  1.00  0.00    -0.248 NA
ATOM     68  C   UNL     1      -4.143  -5.963 -12.663  1.00  0.00     0.031 C 
ATOM     69  C   UNL     1      -4.324  -1.706 -16.990  1.00  0.00     0.029 A 
ATOM     70  C   UNL     1      -4.041  -2.384 -15.814  1.00  0.00     0.049 A 
ATOM     71  H   UNL     1      -2.927  -1.741 -14.143  1.00  0.00     0.167 HD
ATOM     72  C   UNL     1      -4.130  -4.313 -14.254  1.00  0.00     0.074 A 
ATOM     73  C   UNL     1      -4.579  -5.635 -13.871  1.00  0.00     0.031 C 
ATOM     74  C   UNL     1      -4.452  -3.709 -15.425  1.00  0.00     0.037 A 
BRANCH  61  75
ATOM     75  C   UNL     1      -2.266   2.038 -16.005  1.00  0.00     0.057 A 
ATOM     76  C   UNL     1      -1.078   2.465 -16.613  1.00  0.00     0.134 A 
ATOM     77  C   UNL     1      -3.414   2.812 -16.218  1.00  0.00     0.134 A 
ATOM     78  F   UNL     1       0.060   1.776 -16.439  1.00  0.00    -0.206 F 
ATOM     79  C   UNL     1      -1.030   3.627 -17.386  1.00  0.00     0.040 A 
ATOM     80  C   UNL     1      -3.385   3.961 -17.010  1.00  0.00     0.040 A 
ATOM     81  F   UNL     1      -4.586   2.459 -15.669  1.00  0.00    -0.206 F 
ATOM     82  C   UNL     1      -2.188   4.374 -17.592  1.00  0.00     0.006 A 
ENDBRANCH  61  75
BRANCH  62  83
ATOM     83  C   UNL     1      -2.722  -6.029 -10.105  1.00  0.00     0.057 A 
ATOM     84  C   UNL     1      -2.155  -7.256 -10.469  1.00  0.00     0.134 A 
ATOM     85  C   UNL     1      -3.421  -5.977  -8.893  1.00  0.00     0.134 A 
ATOM     86  F   UNL     1      -1.491  -7.375 -11.629  1.00  0.00    -0.206 F 
ATOM     87  C   UNL     1      -2.295  -8.393  -9.672  1.00  0.00     0.040 A 
ATOM     88  C   UNL     1      -3.546  -7.099  -8.073  1.00  0.00     0.040 A 
ATOM     89  F   UNL     1      -3.985  -4.831  -8.485  1.00  0.00    -0.206 F 
ATOM     90  C   UNL     1      -2.990  -8.314  -8.466  1.00  0.00     0.006 A 
ENDBRANCH  62  83
BRANCH  74  91
ATOM     91  C   UNL     1      -5.270  -4.492 -16.410  1.00  0.00     0.057 A 
ATOM     92  C   UNL     1      -6.638  -4.721 -16.225  1.00  0.00     0.134 A 
ATOM     93  C   UNL     1      -4.689  -4.955 -17.598  1.00  0.00     0.134 A 
ATOM     94  F   UNL     1      -7.252  -4.314 -15.104  1.00  0.00    -0.206 F 
ATOM     95  C   UNL     1      -7.398  -5.395 -17.184  1.00  0.00     0.040 A 
ATOM     96  C   UNL     1      -5.443  -5.605 -18.575  1.00  0.00     0.040 A 
ATOM     97  F   UNL     1      -3.384  -4.758 -17.840  1.00  0.00    -0.206 F 
ATOM     98  C   UNL     1      -6.802  -5.829 -18.367  1.00  0.00     0.006 A 
ENDBRANCH  74  91
ENDBRANCH  48  49
ENDBRANCH  41  43
ENDBRANCH  40  41
ENDBRANCH  39  40
ENDBRANCH  38  39
ENDBRANCH  37  38
ENDBRANCH  36  37
ENDBRANCH  35  36
ENDBRANCH  34  35
ENDBRANCH  33  34
ENDBRANCH   1  33
TORSDOF 26
