REMARK SMILES COc1cc2c(cc1OC)[C@H](C(=O)OCCOCCOCCOCCOC(=O)c1ccc(-c3c4nc(c(-c5c(F)cccc5F)c5ccc([nH]5)c(-c5c(F)cccc5F)c5nc(c(-c6c(F)cccc6F)c6ccc3[nH]6)C=C5)C=C4)cc1)[C@@H](c1ccc(SC)cc1)N(C)C2=O
REMARK SMILES IDX 20 1 19 2 18 3 17 4 16 5 15 6 14 7 12 8 13 9 11 10 3 11 4 12
REMARK SMILES IDX 8 13 5 14 7 15 6 16 94 17 92 18 95 19 83 20 93 21 2 22 1 23
REMARK SMILES IDX 9 24 10 25 84 26 85 27 91 28 86 29 90 30 87 31 88 32 89 33
REMARK SMILES IDX 21 34 22 35 23 36 24 37 25 38 26 39 27 40 28 41 29 42 30 43
REMARK SMILES IDX 82 44 31 45 81 46 32 47 33 48 34 49 75 50 35 51 80 52 74 53
REMARK SMILES IDX 76 54 36 55 79 56 73 57 72 58 37 60 63 61 46 62 62 63 47 64
REMARK SMILES IDX 50 65 61 66 77 67 48 68 49 69 60 71 78 72 51 73 38 74 39 75
REMARK SMILES IDX 44 76 40 77 41 78 43 79 45 80 42 81 64 82 65 83 70 84 66 85
REMARK SMILES IDX 67 86 69 87 71 88 68 89 52 90 53 91 58 92 54 93 55 94 57 95
REMARK SMILES IDX 59 96 56 97
REMARK H PARENT 76 59 50 70
REMARK Flexibility Score: inf
ROOT
ATOM      1  O   UNL     1      -1.633   3.072   6.612  1.00  0.00    -0.377 OA
ENDROOT
BRANCH   1   2
ATOM      2  C   UNL     1      -0.524   2.918   7.468  1.00  0.00     0.188 C 
BRANCH   2   3
ATOM      3  C   UNL     1      -0.051   4.244   8.103  1.00  0.00     0.188 C 
BRANCH   3   4
ATOM      4  O   UNL     1      -0.942   5.347   8.212  1.00  0.00    -0.376 OA
BRANCH   4   5
ATOM      5  C   UNL     1      -1.501   5.965   7.057  1.00  0.00     0.202 C 
BRANCH   5   6
ATOM      6  C   UNL     1      -0.740   6.078   5.725  1.00  0.00     0.261 C 
BRANCH   6   7
ATOM      7  O   UNL     1       0.060   4.933   5.437  1.00  0.00    -0.463 OA
BRANCH   7   8
ATOM      8  C   UNL     1       1.385   5.094   5.173  1.00  0.00     0.316 C 
ATOM      9  O   UNL     1       1.949   6.171   5.052  1.00  0.00    -0.251 OA
BRANCH   8  10
ATOM     10  C   UNL     1       2.054   3.721   5.090  1.00  0.00     0.157 C 
ATOM     11  C   UNL     1       1.040   1.707   1.383  1.00  0.00     0.161 A 
ATOM     12  C   UNL     1       2.353   1.685   1.886  1.00  0.00     0.064 A 
ATOM     13  C   UNL     1       0.025   2.286   2.144  1.00  0.00     0.161 A 
ATOM     14  C   UNL     1       2.673   2.280   3.119  1.00  0.00     0.048 A 
ATOM     15  C   UNL     1       0.367   2.889   3.360  1.00  0.00     0.056 A 
ATOM     16  C   UNL     1       1.698   2.978   3.820  1.00  0.00    -0.015 A 
ATOM     17  C   UNL     1       4.016   2.041   3.718  1.00  0.00     0.254 C 
ATOM     18  N   UNL     1       4.306   2.644   4.947  1.00  0.00    -0.333 N 
ATOM     19  O   UNL     1       4.788   1.276   3.147  1.00  0.00    -0.269 OA
ATOM     20  C   UNL     1       3.574   3.858   5.371  1.00  0.00     0.134 C 
ATOM     21  C   UNL     1       5.596   2.325   5.546  1.00  0.00     0.147 C 
BRANCH  11  22
ATOM     22  O   UNL     1       0.776   1.236   0.127  1.00  0.00    -0.493 OA
ATOM     23  C   UNL     1       1.152  -0.126  -0.060  1.00  0.00     0.278 C 
ENDBRANCH  11  22
BRANCH  13  24
ATOM     24  O   UNL     1      -1.318   2.353   1.892  1.00  0.00    -0.493 OA
ATOM     25  C   UNL     1      -1.809   1.919   0.634  1.00  0.00     0.278 C 
ENDBRANCH  13  24
BRANCH  20  26
ATOM     26  C   UNL     1       3.880   4.258   6.833  1.00  0.00    -0.024 A 
ATOM     27  C   UNL     1       3.257   3.660   7.939  1.00  0.00     0.007 A 
ATOM     28  C   UNL     1       4.844   5.244   7.100  1.00  0.00     0.007 A 
ATOM     29  C   UNL     1       3.491   4.120   9.245  1.00  0.00     0.015 A 
ATOM     30  C   UNL     1       5.120   5.664   8.413  1.00  0.00     0.015 A 
ATOM     31  C   UNL     1       4.426   5.127   9.497  1.00  0.00     0.007 A 
BRANCH  31  32
ATOM     32  S   UNL     1       4.600   5.680  11.188  1.00  0.00    -0.130 SA
ATOM     33  C   UNL     1       6.329   6.215  11.262  1.00  0.00     0.091 C 
ENDBRANCH  31  32
ENDBRANCH  20  26
ENDBRANCH   8  10
ENDBRANCH   7   8
ENDBRANCH   6   7
ENDBRANCH   5   6
ENDBRANCH   4   5
ENDBRANCH   3   4
ENDBRANCH   2   3
ENDBRANCH   1   2
BRANCH   1  34
ATOM     34  C   UNL     1      -2.906   2.869   7.215  1.00  0.00     0.188 C 
BRANCH  34  35
ATOM     35  C   UNL     1      -3.106   3.188   8.720  1.00  0.00     0.188 C 
BRANCH  35  36
ATOM     36  O   UNL     1      -2.065   2.747   9.584  1.00  0.00    -0.376 OA
BRANCH  36  37
ATOM     37  C   UNL     1      -2.238   1.557  10.338  1.00  0.00     0.202 C 
BRANCH  37  38
ATOM     38  C   UNL     1      -2.314   0.230   9.566  1.00  0.00     0.261 C 
BRANCH  38  39
ATOM     39  O   UNL     1      -3.322   0.157   8.550  1.00  0.00    -0.460 OA
BRANCH  39  40
ATOM     40  C   UNL     1      -4.610   0.270   8.952  1.00  0.00     0.338 C 
ATOM     41  O   UNL     1      -5.021   0.383  10.084  1.00  0.00    -0.246 OA
BRANCH  40  42
ATOM     42  C   UNL     1      -5.431   0.439   7.733  1.00  0.00     0.060 A 
ATOM     43  C   UNL     1      -6.157   1.625   7.567  1.00  0.00     0.016 A 
ATOM     44  C   UNL     1      -5.450  -0.550   6.747  1.00  0.00     0.016 A 
ATOM     45  C   UNL     1      -6.921   1.820   6.418  1.00  0.00     0.010 A 
ATOM     46  C   UNL     1      -6.241  -0.367   5.611  1.00  0.00     0.010 A 
ATOM     47  C   UNL     1      -6.998   0.807   5.455  1.00  0.00    -0.014 A 
BRANCH  47  48
ATOM     48  C   UNL     1      -8.016   0.892   4.382  1.00  0.00     0.031 A 
ATOM     49  C   UNL     1      -9.320   0.174   4.580  1.00  0.00     0.074 A 
ATOM     50  C   UNL     1      -7.793   1.601   3.262  1.00  0.00     0.049 A 
ATOM     51  N   UNL     1     -10.335   0.051   3.765  1.00  0.00    -0.248 NA
ATOM     52  C   UNL     1      -9.501  -0.500   5.877  1.00  0.00     0.031 C 
ATOM     53  C   UNL     1      -6.588   2.376   2.975  1.00  0.00     0.029 A 
ATOM     54  N   UNL     1      -8.579   1.772   2.150  1.00  0.00    -0.354 N 
ATOM     55  C   UNL     1     -11.270  -0.720   4.445  1.00  0.00     0.074 A 
ATOM     56  C   UNL     1     -10.690  -1.061   5.726  1.00  0.00     0.031 C 
ATOM     57  C   UNL     1      -6.708   2.928   1.755  1.00  0.00     0.029 A 
ATOM     58  C   UNL     1      -7.980   2.514   1.163  1.00  0.00     0.049 A 
ATOM     59  H   UNL     1      -9.486   1.397   2.068  1.00  0.00     0.167 HD
ATOM     60  C   UNL     1     -12.502  -1.104   4.039  1.00  0.00     0.037 A 
ATOM     61  C   UNL     1      -8.401   2.800  -0.085  1.00  0.00     0.037 A 
ATOM     62  C   UNL     1     -13.070  -0.770   2.760  1.00  0.00     0.049 A 
ATOM     63  C   UNL     1      -9.740   2.286  -0.548  1.00  0.00     0.074 A 
ATOM     64  C   UNL     1     -14.319  -1.093   2.261  1.00  0.00     0.029 A 
ATOM     65  N   UNL     1     -12.417  -0.050   1.771  1.00  0.00    -0.354 N 
ATOM     66  N   UNL     1     -10.633   1.584   0.110  1.00  0.00    -0.248 NA
ATOM     67  C   UNL     1     -10.131   2.603  -1.930  1.00  0.00     0.031 C 
ATOM     68  C   UNL     1     -14.397  -0.624   0.946  1.00  0.00     0.029 A 
ATOM     69  C   UNL     1     -13.223   0.049   0.648  1.00  0.00     0.049 A 
ATOM     70  H   UNL     1     -11.514   0.335   1.854  1.00  0.00     0.167 HD
ATOM     71  C   UNL     1     -11.696   1.398  -0.766  1.00  0.00     0.074 A 
ATOM     72  C   UNL     1     -11.345   2.076  -1.996  1.00  0.00     0.031 C 
ATOM     73  C   UNL     1     -12.858   0.726  -0.571  1.00  0.00     0.037 A 
BRANCH  60  74
ATOM     74  C   UNL     1     -13.302  -1.963   4.976  1.00  0.00     0.057 A 
ATOM     75  C   UNL     1     -13.832  -1.466   6.174  1.00  0.00     0.134 A 
ATOM     76  C   UNL     1     -13.561  -3.304   4.664  1.00  0.00     0.134 A 
ATOM     77  F   UNL     1     -13.607  -0.195   6.542  1.00  0.00    -0.206 F 
ATOM     78  C   UNL     1     -14.567  -2.277   7.040  1.00  0.00     0.040 A 
ATOM     79  C   UNL     1     -14.320  -4.117   5.507  1.00  0.00     0.040 A 
ATOM     80  F   UNL     1     -13.085  -3.844   3.532  1.00  0.00    -0.206 F 
ATOM     81  C   UNL     1     -14.820  -3.606   6.702  1.00  0.00     0.006 A 
ENDBRANCH  60  74
BRANCH  61  82
ATOM     82  C   UNL     1      -7.538   3.594  -0.998  1.00  0.00     0.057 A 
ATOM     83  C   UNL     1      -7.910   4.876  -1.417  1.00  0.00     0.134 A 
ATOM     84  C   UNL     1      -6.331   3.081  -1.491  1.00  0.00     0.134 A 
ATOM     85  F   UNL     1      -9.067   5.413  -1.001  1.00  0.00    -0.206 F 
ATOM     86  C   UNL     1      -7.125   5.612  -2.306  1.00  0.00     0.040 A 
ATOM     87  C   UNL     1      -5.522   3.817  -2.358  1.00  0.00     0.040 A 
ATOM     88  F   UNL     1      -5.915   1.858  -1.129  1.00  0.00    -0.206 F 
ATOM     89  C   UNL     1      -5.923   5.084  -2.774  1.00  0.00     0.006 A 
ENDBRANCH  61  82
BRANCH  73  90
ATOM     90  C   UNL     1     -13.849   0.711  -1.702  1.00  0.00     0.057 A 
ATOM     91  C   UNL     1     -13.622  -0.017  -2.877  1.00  0.00     0.134 A 
ATOM     92  C   UNL     1     -15.066   1.398  -1.595  1.00  0.00     0.134 A 
ATOM     93  F   UNL     1     -12.473  -0.689  -3.050  1.00  0.00    -0.206 F 
ATOM     94  C   UNL     1     -14.558  -0.042  -3.913  1.00  0.00     0.040 A 
ATOM     95  C   UNL     1     -16.023   1.355  -2.610  1.00  0.00     0.040 A 
ATOM     96  F   UNL     1     -15.354   2.106  -0.492  1.00  0.00    -0.206 F 
ATOM     97  C   UNL     1     -15.766   0.639  -3.777  1.00  0.00     0.006 A 
ENDBRANCH  73  90
ENDBRANCH  47  48
ENDBRANCH  40  42
ENDBRANCH  39  40
ENDBRANCH  38  39
ENDBRANCH  37  38
ENDBRANCH  36  37
ENDBRANCH  35  36
ENDBRANCH  34  35
ENDBRANCH   1  34
TORSDOF 24
