REMARK SMILES Cc1cccc([C@@H](CC(=O)OCCOCCOCCOCCOC(=O)c2ccc(-c3c4nc(c(-c5c(F)cccc5F)c5ccc([nH]5)c(-c5c(F)cccc5F)c5nc(c(-c6c(F)cccc6F)c6ccc3[nH]6)C=C5)C=C4)cc2)NC(=O)OC(C)(C)C)c1
REMARK SMILES IDX 16 1 15 2 14 3 13 4 12 5 11 6 9 7 10 8 8 9 7 10 6 11 1 12
REMARK SMILES IDX 2 13 3 14 88 15 4 16 5 17 80 18 81 19 82 21 83 22 84 23
REMARK SMILES IDX 85 24 86 25 87 26 17 27 18 28 19 29 20 30 21 31 22 32 23 33
REMARK SMILES IDX 24 34 25 35 26 36 27 37 79 38 28 39 78 40 29 41 30 42 31 43
REMARK SMILES IDX 72 44 32 45 77 46 71 47 73 48 33 49 76 50 70 51 69 52 34 54
REMARK SMILES IDX 60 55 43 56 59 57 44 58 47 59 58 60 74 61 45 62 46 63 57 65
REMARK SMILES IDX 75 66 48 67 35 68 36 69 41 70 37 71 38 72 40 73 42 74 39 75
REMARK SMILES IDX 61 76 62 77 67 78 63 79 64 80 66 81 68 82 65 83 49 84 50 85
REMARK SMILES IDX 55 86 51 87 52 88 54 89 56 90 53 91
REMARK H PARENT 80 20 73 53 47 64
REMARK Flexibility Score: inf
ROOT
ATOM      1  C   UNL     1      -5.172   3.780   1.594  1.00  0.00     0.188 C 
ENDROOT
BRANCH   1   2
ATOM      2  C   UNL     1      -6.172   4.197   0.516  1.00  0.00     0.188 C 
BRANCH   2   3
ATOM      3  O   UNL     1      -6.985   3.172  -0.042  1.00  0.00    -0.376 OA
BRANCH   3   4
ATOM      4  C   UNL     1      -6.417   2.381  -1.089  1.00  0.00     0.202 C 
BRANCH   4   5
ATOM      5  C   UNL     1      -5.251   2.964  -1.900  1.00  0.00     0.261 C 
BRANCH   5   6
ATOM      6  O   UNL     1      -3.988   2.627  -1.240  1.00  0.00    -0.463 OA
BRANCH   6   7
ATOM      7  C   UNL     1      -3.049   3.566  -1.011  1.00  0.00     0.308 C 
ATOM      8  O   UNL     1      -3.207   4.742  -1.331  1.00  0.00    -0.252 OA
BRANCH   7   9
ATOM      9  C   UNL     1      -1.687   3.039  -0.505  1.00  0.00     0.152 C 
BRANCH   9  10
ATOM     10  C   UNL     1      -1.316   2.159   0.754  1.00  0.00     0.127 C 
BRANCH  10  11
ATOM     11  C   UNL     1      -1.037   0.631   0.571  1.00  0.00    -0.025 A 
ATOM     12  C   UNL     1       2.640  -1.314  -0.703  1.00  0.00     0.044 C 
ATOM     13  C   UNL     1       1.124  -1.204  -0.797  1.00  0.00    -0.051 A 
ATOM     14  C   UNL     1       0.050  -2.665  -0.651  1.00  0.00     0.003 A 
ATOM     15  C   UNL     1       0.534   0.418  -0.311  1.00  0.00     0.009 A 
ATOM     16  C   UNL     1      -1.643  -2.491   0.076  1.00  0.00     0.001 A 
ATOM     17  C   UNL     1      -2.082  -0.874   0.891  1.00  0.00     0.006 A 
ENDBRANCH  10  11
BRANCH  10  18
ATOM     18  N   UNL     1      -1.884   2.457   2.028  1.00  0.00    -0.314 N 
ATOM     19  C   UNL     1      -1.924   3.614   2.744  1.00  0.00     0.408 C 
ATOM     20  H   UNL     1      -2.323   1.692   2.466  1.00  0.00     0.167 HD
ATOM     21  O   UNL     1      -2.552   3.646   3.797  1.00  0.00    -0.225 OA
BRANCH  19  22
ATOM     22  O   UNL     1      -1.204   4.648   2.239  1.00  0.00    -0.444 OA
BRANCH  22  23
ATOM     23  C   UNL     1      -1.088   5.858   3.052  1.00  0.00     0.106 C 
ATOM     24  C   UNL     1      -2.410   6.640   3.073  1.00  0.00     0.056 C 
ATOM     25  C   UNL     1      -0.593   5.545   4.477  1.00  0.00     0.056 C 
ATOM     26  C   UNL     1      -0.020   6.739   2.384  1.00  0.00     0.056 C 
ENDBRANCH  22  23
ENDBRANCH  19  22
ENDBRANCH  10  18
ENDBRANCH   9  10
ENDBRANCH   7   9
ENDBRANCH   6   7
ENDBRANCH   5   6
ENDBRANCH   4   5
ENDBRANCH   3   4
ENDBRANCH   2   3
ENDBRANCH   1   2
BRANCH   1  27
ATOM     27  O   UNL     1      -4.394   2.646   1.255  1.00  0.00    -0.377 OA
BRANCH  27  28
ATOM     28  C   UNL     1      -4.938   1.437   1.733  1.00  0.00     0.188 C 
BRANCH  28  29
ATOM     29  C   UNL     1      -4.674   1.179   3.186  1.00  0.00     0.188 C 
BRANCH  29  30
ATOM     30  O   UNL     1      -5.864   1.543   3.857  1.00  0.00    -0.376 OA
BRANCH  30  31
ATOM     31  C   UNL     1      -5.704   1.544   5.264  1.00  0.00     0.202 C 
BRANCH  31  32
ATOM     32  C   UNL     1      -5.423   0.134   5.792  1.00  0.00     0.261 C 
BRANCH  32  33
ATOM     33  O   UNL     1      -6.350  -0.775   5.151  1.00  0.00    -0.460 OA
BRANCH  33  34
ATOM     34  C   UNL     1      -5.796  -1.917   4.660  1.00  0.00     0.338 C 
ATOM     35  O   UNL     1      -5.010  -2.624   5.270  1.00  0.00    -0.246 OA
BRANCH  34  36
ATOM     36  C   UNL     1      -6.041  -2.031   3.182  1.00  0.00     0.060 A 
ATOM     37  C   UNL     1      -5.190  -2.835   2.409  1.00  0.00     0.016 A 
ATOM     38  C   UNL     1      -6.912  -1.166   2.522  1.00  0.00     0.016 A 
ATOM     39  C   UNL     1      -5.094  -2.648   1.012  1.00  0.00     0.010 A 
ATOM     40  C   UNL     1      -6.786  -0.971   1.141  1.00  0.00     0.010 A 
ATOM     41  C   UNL     1      -5.817  -1.637   0.372  1.00  0.00    -0.014 A 
BRANCH  41  42
ATOM     42  C   UNL     1      -5.558  -1.182  -1.032  1.00  0.00     0.031 A 
ATOM     43  C   UNL     1      -6.658  -1.159  -2.015  1.00  0.00     0.074 A 
ATOM     44  C   UNL     1      -4.465  -0.450  -1.397  1.00  0.00     0.049 A 
ATOM     45  N   UNL     1      -6.493  -0.915  -3.265  1.00  0.00    -0.248 NA
ATOM     46  C   UNL     1      -8.063  -1.215  -1.660  1.00  0.00     0.031 C 
ATOM     47  C   UNL     1      -4.016   0.229  -2.598  1.00  0.00     0.029 A 
ATOM     48  N   UNL     1      -3.424  -0.050  -0.624  1.00  0.00    -0.354 N 
ATOM     49  C   UNL     1      -7.611  -0.245  -3.707  1.00  0.00     0.074 A 
ATOM     50  C   UNL     1      -8.608  -0.618  -2.726  1.00  0.00     0.031 C 
ATOM     51  C   UNL     1      -2.683   0.488  -2.579  1.00  0.00     0.029 A 
ATOM     52  C   UNL     1      -2.197  -0.104  -1.344  1.00  0.00     0.049 A 
ATOM     53  H   UNL     1      -3.506   0.241   0.313  1.00  0.00     0.167 HD
ATOM     54  C   UNL     1      -7.455   0.662  -4.732  1.00  0.00     0.037 A 
ATOM     55  C   UNL     1      -1.008  -0.861  -0.948  1.00  0.00     0.037 A 
ATOM     56  C   UNL     1      -6.037   0.636  -5.285  1.00  0.00     0.049 A 
ATOM     57  C   UNL     1      -1.196  -1.707  -2.574  1.00  0.00     0.074 A 
ATOM     58  C   UNL     1      -5.060   1.566  -5.636  1.00  0.00     0.029 A 
ATOM     59  N   UNL     1      -5.328  -0.596  -5.317  1.00  0.00    -0.354 N 
ATOM     60  N   UNL     1      -2.345  -1.733  -3.279  1.00  0.00    -0.248 NA
ATOM     61  C   UNL     1      -0.198  -2.378  -3.437  1.00  0.00     0.031 C 
ATOM     62  C   UNL     1      -3.796   0.891  -5.809  1.00  0.00     0.029 A 
ATOM     63  C   UNL     1      -3.954  -0.460  -5.512  1.00  0.00     0.049 A 
ATOM     64  H   UNL     1      -5.769  -1.469  -5.211  1.00  0.00     0.167 HD
ATOM     65  C   UNL     1      -2.188  -2.016  -4.630  1.00  0.00     0.074 A 
ATOM     66  C   UNL     1      -0.871  -2.637  -4.587  1.00  0.00     0.031 C 
ATOM     67  C   UNL     1      -3.072  -1.653  -5.666  1.00  0.00     0.037 A 
BRANCH  54  68
ATOM     68  C   UNL     1      -8.526   1.730  -5.102  1.00  0.00     0.057 A 
ATOM     69  C   UNL     1      -8.255   2.802  -5.980  1.00  0.00     0.134 A 
ATOM     70  C   UNL     1      -9.858   1.775  -4.623  1.00  0.00     0.134 A 
ATOM     71  F   UNL     1      -7.085   2.920  -6.614  1.00  0.00    -0.206 F 
ATOM     72  C   UNL     1      -9.181   3.822  -6.300  1.00  0.00     0.040 A 
ATOM     73  C   UNL     1     -10.792   2.787  -4.926  1.00  0.00     0.040 A 
ATOM     74  F   UNL     1     -10.388   0.818  -3.868  1.00  0.00    -0.206 F 
ATOM     75  C   UNL     1     -10.457   3.823  -5.768  1.00  0.00     0.006 A 
ENDBRANCH  54  68
BRANCH  55  76
ATOM     76  C   UNL     1      -0.109  -1.326   0.942  1.00  0.00     0.057 A 
ATOM     77  C   UNL     1       0.502  -0.444   2.019  1.00  0.00     0.134 A 
ATOM     78  C   UNL     1      -0.392  -2.531   1.932  1.00  0.00     0.134 A 
ATOM     79  F   UNL     1       1.533   0.389   1.762  1.00  0.00    -0.206 F 
ATOM     80  C   UNL     1       0.113  -0.364   3.405  1.00  0.00     0.040 A 
ATOM     81  C   UNL     1      -0.871  -2.449   3.276  1.00  0.00     0.040 A 
ATOM     82  F   UNL     1      -0.380  -3.821   1.510  1.00  0.00    -0.206 F 
ATOM     83  C   UNL     1      -0.734  -1.284   3.981  1.00  0.00     0.006 A 
ENDBRANCH  55  76
BRANCH  67  84
ATOM     84  C   UNL     1      -3.245  -2.285  -7.080  1.00  0.00     0.057 A 
ATOM     85  C   UNL     1      -2.408  -3.225  -7.674  1.00  0.00     0.134 A 
ATOM     86  C   UNL     1      -4.400  -1.995  -7.887  1.00  0.00     0.134 A 
ATOM     87  F   UNL     1      -1.213  -3.528  -7.169  1.00  0.00    -0.206 F 
ATOM     88  C   UNL     1      -2.737  -3.893  -8.872  1.00  0.00     0.040 A 
ATOM     89  C   UNL     1      -4.752  -2.669  -9.057  1.00  0.00     0.040 A 
ATOM     90  F   UNL     1      -5.275  -1.020  -7.619  1.00  0.00    -0.206 F 
ATOM     91  C   UNL     1      -3.925  -3.647  -9.547  1.00  0.00     0.006 A 
ENDBRANCH  67  84
ENDBRANCH  41  42
ENDBRANCH  34  36
ENDBRANCH  33  34
ENDBRANCH  32  33
ENDBRANCH  31  32
ENDBRANCH  30  31
ENDBRANCH  29  30
ENDBRANCH  28  29
ENDBRANCH  27  28
ENDBRANCH   1  27
TORSDOF 25
