REMARK SMILES Cc1cc(C)cc(C(=O)N2CC[C@H](C(=O)OCCOCCOCCOCCOC(=O)c3ccc(-c4c5nc(c(-c6c(F)cccc6F)c6ccc([nH]6)c(-c6c(F)cccc6F)c6nc(c(-c7c(F)cccc7F)c7ccc4[nH]7)C=C6)C=C5)cc3)[C@@H]2C)c1
REMARK SMILES IDX 22 1 21 2 20 3 19 4 18 5 17 6 16 7 14 8 15 9 13 10 10 11
REMARK SMILES IDX 11 12 85 13 12 14 86 15 8 16 9 17 7 18 1 19 2 20 3 21 87 22
REMARK SMILES IDX 4 23 5 24 6 25 23 26 24 27 25 28 26 29 27 30 28 31 29 32
REMARK SMILES IDX 30 33 31 34 32 35 84 36 33 37 83 38 34 39 35 40 36 41 77 42
REMARK SMILES IDX 37 43 82 44 76 45 78 46 38 47 81 48 75 49 74 50 39 52 65 53
REMARK SMILES IDX 48 54 64 55 49 56 52 57 63 58 79 59 50 60 51 61 62 63 80 64
REMARK SMILES IDX 53 65 40 66 41 67 46 68 42 69 43 70 45 71 47 72 44 73 66 74
REMARK SMILES IDX 67 75 72 76 68 77 69 78 71 79 73 80 70 81 54 82 55 83 60 84
REMARK SMILES IDX 56 85 57 86 59 87 61 88 58 89
REMARK H PARENT 78 51 52 62
REMARK Flexibility Score: inf
ROOT
ATOM      1  O   UNL     1       3.615  -6.636   4.212  1.00  0.00    -0.377 OA
ENDROOT
BRANCH   1   2
ATOM      2  C   UNL     1       2.789  -6.276   3.136  1.00  0.00     0.188 C 
BRANCH   2   3
ATOM      3  C   UNL     1       2.168  -7.450   2.383  1.00  0.00     0.188 C 
BRANCH   3   4
ATOM      4  O   UNL     1       2.980  -8.568   2.038  1.00  0.00    -0.376 OA
BRANCH   4   5
ATOM      5  C   UNL     1       4.363  -8.535   2.337  1.00  0.00     0.202 C 
BRANCH   5   6
ATOM      6  C   UNL     1       5.249  -7.657   1.430  1.00  0.00     0.261 C 
BRANCH   6   7
ATOM      7  O   UNL     1       4.812  -6.311   1.109  1.00  0.00    -0.463 OA
BRANCH   7   8
ATOM      8  C   UNL     1       3.885  -6.186   0.112  1.00  0.00     0.311 C 
ATOM      9  O   UNL     1       3.400  -7.147  -0.472  1.00  0.00    -0.252 OA
BRANCH   8  10
ATOM     10  C   UNL     1       3.659  -4.721  -0.312  1.00  0.00     0.123 C 
ATOM     11  N   UNL     1       1.454  -3.822  -0.789  1.00  0.00    -0.335 N 
ATOM     12  C   UNL     1       1.749  -4.862  -1.747  1.00  0.00     0.121 C 
ATOM     13  C   UNL     1       2.550  -3.727   0.193  1.00  0.00     0.096 C 
ATOM     14  C   UNL     1       3.271  -4.799  -1.810  1.00  0.00     0.039 C 
ATOM     15  C   UNL     1       1.978  -3.745   1.595  1.00  0.00     0.032 C 
BRANCH  11  16
ATOM     16  C   UNL     1       0.276  -3.092  -0.926  1.00  0.00     0.254 C 
ATOM     17  O   UNL     1      -0.712  -3.576  -1.478  1.00  0.00    -0.269 OA
BRANCH  16  18
ATOM     18  C   UNL     1       0.194  -1.663  -0.490  1.00  0.00     0.040 A 
ATOM     19  C   UNL     1       2.455   1.374  -0.086  1.00  0.00     0.044 C 
ATOM     20  C   UNL     1       1.223   0.521  -0.136  1.00  0.00    -0.050 A 
ATOM     21  C   UNL     1      -0.038   1.076   0.094  1.00  0.00     0.006 A 
ATOM     22  C   UNL     1       1.316  -0.830  -0.491  1.00  0.00     0.017 A 
ATOM     23  C   UNL     1      -1.192   0.285   0.016  1.00  0.00    -0.050 A 
ATOM     24  C   UNL     1      -2.539   0.939   0.126  1.00  0.00     0.044 C 
ATOM     25  C   UNL     1      -1.066  -1.089  -0.249  1.00  0.00     0.017 A 
ENDBRANCH  16  18
ENDBRANCH  11  16
ENDBRANCH   8  10
ENDBRANCH   7   8
ENDBRANCH   6   7
ENDBRANCH   5   6
ENDBRANCH   4   5
ENDBRANCH   3   4
ENDBRANCH   2   3
ENDBRANCH   1   2
BRANCH   1  26
ATOM     26  C   UNL     1       3.039  -6.375   5.472  1.00  0.00     0.188 C 
BRANCH  26  27
ATOM     27  C   UNL     1       1.704  -7.091   5.717  1.00  0.00     0.188 C 
BRANCH  27  28
ATOM     28  O   UNL     1       0.517  -6.606   5.095  1.00  0.00    -0.376 OA
BRANCH  28  29
ATOM     29  C   UNL     1       0.119  -5.241   5.097  1.00  0.00     0.202 C 
BRANCH  29  30
ATOM     30  C   UNL     1       0.124  -4.398   6.371  1.00  0.00     0.261 C 
BRANCH  30  31
ATOM     31  O   UNL     1       1.411  -4.305   6.989  1.00  0.00    -0.460 OA
BRANCH  31  32
ATOM     32  C   UNL     1       1.534  -4.996   8.151  1.00  0.00     0.338 C 
ATOM     33  O   UNL     1       0.684  -5.639   8.723  1.00  0.00    -0.246 OA
BRANCH  32  34
ATOM     34  C   UNL     1       2.962  -5.032   8.521  1.00  0.00     0.060 A 
ATOM     35  C   UNL     1       3.556  -6.286   8.717  1.00  0.00     0.016 A 
ATOM     36  C   UNL     1       3.699  -3.857   8.671  1.00  0.00     0.016 A 
ATOM     37  C   UNL     1       4.899  -6.374   9.065  1.00  0.00     0.010 A 
ATOM     38  C   UNL     1       5.031  -3.943   9.072  1.00  0.00     0.010 A 
ATOM     39  C   UNL     1       5.623  -5.200   9.292  1.00  0.00    -0.014 A 
BRANCH  39  40
ATOM     40  C   UNL     1       6.926  -5.279   9.979  1.00  0.00     0.031 A 
ATOM     41  C   UNL     1       6.934  -5.142  11.473  1.00  0.00     0.074 A 
ATOM     42  C   UNL     1       8.064  -5.466   9.292  1.00  0.00     0.049 A 
ATOM     43  N   UNL     1       7.946  -5.075  12.296  1.00  0.00    -0.248 NA
ATOM     44  C   UNL     1       5.616  -5.062  12.128  1.00  0.00     0.031 C 
ATOM     45  C   UNL     1       8.157  -5.672   7.848  1.00  0.00     0.029 A 
ATOM     46  N   UNL     1       9.363  -5.495   9.725  1.00  0.00    -0.354 N 
ATOM     47  C   UNL     1       7.390  -4.935  13.560  1.00  0.00     0.074 A 
ATOM     48  C   UNL     1       5.954  -4.902  13.397  1.00  0.00     0.031 C 
ATOM     49  C   UNL     1       9.453  -5.784   7.510  1.00  0.00     0.029 A 
ATOM     50  C   UNL     1      10.275  -5.617   8.707  1.00  0.00     0.049 A 
ATOM     51  H   UNL     1       9.618  -5.435  10.674  1.00  0.00     0.167 HD
ATOM     52  C   UNL     1       8.025  -4.841  14.750  1.00  0.00     0.037 A 
ATOM     53  C   UNL     1      11.620  -5.563   8.745  1.00  0.00     0.037 A 
ATOM     54  C   UNL     1       9.455  -4.866  14.893  1.00  0.00     0.049 A 
ATOM     55  C   UNL     1      12.305  -5.353  10.072  1.00  0.00     0.074 A 
ATOM     56  C   UNL     1      10.206  -4.803  16.052  1.00  0.00     0.029 A 
ATOM     57  N   UNL     1      10.350  -4.944  13.836  1.00  0.00    -0.354 N 
ATOM     58  N   UNL     1      11.778  -5.252  11.269  1.00  0.00    -0.248 NA
ATOM     59  C   UNL     1      13.770  -5.238  10.051  1.00  0.00     0.031 C 
ATOM     60  C   UNL     1      11.557  -4.777  15.691  1.00  0.00     0.029 A 
ATOM     61  C   UNL     1      11.648  -4.885  14.312  1.00  0.00     0.049 A 
ATOM     62  H   UNL     1      10.099  -5.028  12.888  1.00  0.00     0.167 HD
ATOM     63  C   UNL     1      12.844  -5.085  12.144  1.00  0.00     0.074 A 
ATOM     64  C   UNL     1      14.050  -5.117  11.341  1.00  0.00     0.031 C 
ATOM     65  C   UNL     1      12.832  -4.918  13.490  1.00  0.00     0.037 A 
BRANCH  52  66
ATOM     66  C   UNL     1       7.179  -4.660  15.975  1.00  0.00     0.057 A 
ATOM     67  C   UNL     1       6.369  -5.686  16.480  1.00  0.00     0.134 A 
ATOM     68  C   UNL     1       7.188  -3.444  16.669  1.00  0.00     0.134 A 
ATOM     69  F   UNL     1       6.298  -6.869  15.850  1.00  0.00    -0.206 F 
ATOM     70  C   UNL     1       5.582  -5.501  17.618  1.00  0.00     0.040 A 
ATOM     71  C   UNL     1       6.428  -3.256  17.824  1.00  0.00     0.040 A 
ATOM     72  F   UNL     1       7.939  -2.419  16.238  1.00  0.00    -0.206 F 
ATOM     73  C   UNL     1       5.617  -4.285  18.298  1.00  0.00     0.006 A 
ENDBRANCH  52  66
BRANCH  53  74
ATOM     74  C   UNL     1      12.410  -5.677   7.493  1.00  0.00     0.057 A 
ATOM     75  C   UNL     1      13.245  -6.776   7.262  1.00  0.00     0.134 A 
ATOM     76  C   UNL     1      12.371  -4.681   6.508  1.00  0.00     0.134 A 
ATOM     77  F   UNL     1      13.345  -7.751   8.177  1.00  0.00    -0.206 F 
ATOM     78  C   UNL     1      14.026  -6.873   6.108  1.00  0.00     0.040 A 
ATOM     79  C   UNL     1      13.125  -4.779   5.337  1.00  0.00     0.040 A 
ATOM     80  F   UNL     1      11.592  -3.601   6.667  1.00  0.00    -0.206 F 
ATOM     81  C   UNL     1      13.962  -5.874   5.139  1.00  0.00     0.006 A 
ENDBRANCH  53  74
BRANCH  65  82
ATOM     82  C   UNL     1      14.157  -4.774  14.181  1.00  0.00     0.057 A 
ATOM     83  C   UNL     1      14.926  -3.610  14.062  1.00  0.00     0.134 A 
ATOM     84  C   UNL     1      14.636  -5.784  15.025  1.00  0.00     0.134 A 
ATOM     85  F   UNL     1      14.529  -2.610  13.260  1.00  0.00    -0.206 F 
ATOM     86  C   UNL     1      16.134  -3.463  14.746  1.00  0.00     0.040 A 
ATOM     87  C   UNL     1      15.827  -5.636  15.737  1.00  0.00     0.040 A 
ATOM     88  F   UNL     1      13.942  -6.920  15.192  1.00  0.00    -0.206 F 
ATOM     89  C   UNL     1      16.582  -4.474  15.594  1.00  0.00     0.006 A 
ENDBRANCH  65  82
ENDBRANCH  39  40
ENDBRANCH  32  34
ENDBRANCH  31  32
ENDBRANCH  30  31
ENDBRANCH  29  30
ENDBRANCH  28  29
ENDBRANCH  27  28
ENDBRANCH  26  27
ENDBRANCH   1  26
TORSDOF 22
