REMARK SMILES O=C(OCCOCCOCCOCCOC(=O)[C@H]1C[C@H]1c1ccc(C2CC2)cc1)c1ccc(-c2c3nc(c(-c4c(F)cccc4F)c4ccc([nH]4)c(-c4c(F)cccc4F)c4nc(c(-c5c(F)cccc5F)c5ccc2[nH]5)C=C4)C=C3)cc1
REMARK SMILES IDX 9 1 8 2 7 3 6 4 5 5 4 6 3 7 2 8 1 9 30 10 31 11 83 12 32 13
REMARK SMILES IDX 82 14 33 15 34 16 35 17 76 18 36 19 81 20 75 21 77 22 37 23
REMARK SMILES IDX 80 24 74 25 73 26 38 28 64 29 47 30 63 31 48 32 51 33 62 34
REMARK SMILES IDX 78 35 49 36 50 37 61 39 79 40 52 41 39 42 40 43 45 44 41 45
REMARK SMILES IDX 42 46 44 47 46 48 43 49 65 50 66 51 71 52 67 53 68 54 70 55
REMARK SMILES IDX 72 56 69 57 53 58 54 59 59 60 55 61 56 62 58 63 60 64 57 65
REMARK SMILES IDX 10 66 11 67 12 68 13 69 14 70 15 71 16 72 17 73 18 74 19 75
REMARK SMILES IDX 20 76 21 77 22 78 29 79 23 80 28 81 24 82 25 83 26 84 27 85
REMARK H PARENT 77 27 51 38
REMARK Flexibility Score: inf
ROOT
ATOM      1  O   UNL     1       4.421   0.842   7.925  1.00  0.00    -0.377 OA
ENDROOT
BRANCH   1   2
ATOM      2  C   UNL     1       4.338   1.182   9.308  1.00  0.00     0.188 C 
BRANCH   2   3
ATOM      3  C   UNL     1       3.243   2.194   9.626  1.00  0.00     0.188 C 
BRANCH   3   4
ATOM      4  O   UNL     1       1.976   1.631   9.293  1.00  0.00    -0.376 OA
BRANCH   4   5
ATOM      5  C   UNL     1       1.068   2.533   8.668  1.00  0.00     0.202 C 
BRANCH   5   6
ATOM      6  C   UNL     1       0.197   3.290   9.669  1.00  0.00     0.261 C 
BRANCH   6   7
ATOM      7  O   UNL     1       0.891   3.546  10.900  1.00  0.00    -0.460 OA
BRANCH   7   8
ATOM      8  C   UNL     1       0.821   2.823  12.045  1.00  0.00     0.338 C 
ATOM      9  O   UNL     1       1.374   3.264  13.052  1.00  0.00    -0.246 OA
BRANCH   8  10
ATOM     10  C   UNL     1       0.083   1.526  12.174  1.00  0.00     0.060 A 
ATOM     11  C   UNL     1      -0.085   0.591  11.152  1.00  0.00     0.016 A 
ATOM     12  C   UNL     1      -0.387   1.183  13.454  1.00  0.00     0.016 A 
ATOM     13  C   UNL     1      -0.716  -0.627  11.366  1.00  0.00     0.010 A 
ATOM     14  C   UNL     1      -1.009  -0.049  13.687  1.00  0.00     0.010 A 
ATOM     15  C   UNL     1      -1.179  -0.954  12.634  1.00  0.00    -0.014 A 
BRANCH  15  16
ATOM     16  C   UNL     1      -1.944  -2.202  12.785  1.00  0.00     0.031 A 
ATOM     17  C   UNL     1      -3.436  -2.108  12.844  1.00  0.00     0.074 A 
ATOM     18  C   UNL     1      -1.312  -3.388  12.733  1.00  0.00     0.049 A 
ATOM     19  N   UNL     1      -4.316  -3.046  13.056  1.00  0.00    -0.248 NA
ATOM     20  C   UNL     1      -4.017  -0.773  12.612  1.00  0.00     0.031 C 
ATOM     21  C   UNL     1       0.127  -3.570  12.527  1.00  0.00     0.029 A 
ATOM     22  N   UNL     1      -1.799  -4.664  12.826  1.00  0.00    -0.354 N 
ATOM     23  C   UNL     1      -5.550  -2.411  13.025  1.00  0.00     0.074 A 
ATOM     24  C   UNL     1      -5.311  -1.013  12.752  1.00  0.00     0.031 C 
ATOM     25  C   UNL     1       0.404  -4.884  12.507  1.00  0.00     0.029 A 
ATOM     26  C   UNL     1      -0.822  -5.629  12.770  1.00  0.00     0.049 A 
ATOM     27  H   UNL     1      -2.757  -4.870  12.923  1.00  0.00     0.167 HD
ATOM     28  C   UNL     1      -6.769  -2.958  13.229  1.00  0.00     0.037 A 
ATOM     29  C   UNL     1      -0.915  -6.957  12.966  1.00  0.00     0.037 A 
ATOM     30  C   UNL     1      -6.970  -4.355  13.491  1.00  0.00     0.049 A 
ATOM     31  C   UNL     1      -2.271  -7.524  13.295  1.00  0.00     0.074 A 
ATOM     32  C   UNL     1      -8.145  -5.026  13.767  1.00  0.00     0.029 A 
ATOM     33  N   UNL     1      -5.950  -5.297  13.506  1.00  0.00    -0.354 N 
ATOM     34  N   UNL     1      -3.433  -6.913  13.337  1.00  0.00    -0.248 NA
ATOM     35  C   UNL     1      -2.329  -8.951  13.636  1.00  0.00     0.031 C 
ATOM     36  C   UNL     1      -7.829  -6.371  13.990  1.00  0.00     0.029 A 
ATOM     37  C   UNL     1      -6.463  -6.542  13.816  1.00  0.00     0.049 A 
ATOM     38  H   UNL     1      -5.001  -5.107  13.323  1.00  0.00     0.167 HD
ATOM     39  C   UNL     1      -4.358  -7.877  13.712  1.00  0.00     0.074 A 
ATOM     40  C   UNL     1      -3.626  -9.121  13.852  1.00  0.00     0.031 C 
ATOM     41  C   UNL     1      -5.689  -7.751  13.939  1.00  0.00     0.037 A 
BRANCH  28  42
ATOM     42  C   UNL     1      -7.938  -2.025  13.259  1.00  0.00     0.057 A 
ATOM     43  C   UNL     1      -8.486  -1.472  12.096  1.00  0.00     0.134 A 
ATOM     44  C   UNL     1      -8.506  -1.653  14.485  1.00  0.00     0.134 A 
ATOM     45  F   UNL     1      -7.966  -1.761  10.894  1.00  0.00    -0.206 F 
ATOM     46  C   UNL     1      -9.551  -0.569  12.152  1.00  0.00     0.040 A 
ATOM     47  C   UNL     1      -9.581  -0.766  14.552  1.00  0.00     0.040 A 
ATOM     48  F   UNL     1      -8.016  -2.137  15.636  1.00  0.00    -0.206 F 
ATOM     49  C   UNL     1     -10.103  -0.217  13.383  1.00  0.00     0.006 A 
ENDBRANCH  28  42
BRANCH  29  50
ATOM     50  C   UNL     1       0.298  -7.816  12.959  1.00  0.00     0.057 A 
ATOM     51  C   UNL     1       0.471  -8.837  12.017  1.00  0.00     0.134 A 
ATOM     52  C   UNL     1       1.302  -7.664  13.926  1.00  0.00     0.134 A 
ATOM     53  F   UNL     1      -0.463  -9.056  11.079  1.00  0.00    -0.206 F 
ATOM     54  C   UNL     1       1.583  -9.684  12.048  1.00  0.00     0.040 A 
ATOM     55  C   UNL     1       2.432  -8.483  13.951  1.00  0.00     0.040 A 
ATOM     56  F   UNL     1       1.200  -6.711  14.864  1.00  0.00    -0.206 F 
ATOM     57  C   UNL     1       2.570  -9.504  13.015  1.00  0.00     0.006 A 
ENDBRANCH  29  50
BRANCH  41  58
ATOM     58  C   UNL     1      -6.419  -8.988  14.356  1.00  0.00     0.057 A 
ATOM     59  C   UNL     1      -6.317  -9.489  15.659  1.00  0.00     0.134 A 
ATOM     60  C   UNL     1      -7.274  -9.646  13.465  1.00  0.00     0.134 A 
ATOM     61  F   UNL     1      -5.502  -8.906  16.550  1.00  0.00    -0.206 F 
ATOM     62  C   UNL     1      -7.035 -10.615  16.059  1.00  0.00     0.040 A 
ATOM     63  C   UNL     1      -8.015 -10.759  13.861  1.00  0.00     0.040 A 
ATOM     64  F   UNL     1      -7.418  -9.205  12.206  1.00  0.00    -0.206 F 
ATOM     65  C   UNL     1      -7.893 -11.247  15.161  1.00  0.00     0.006 A 
ENDBRANCH  41  58
ENDBRANCH  15  16
ENDBRANCH   8  10
ENDBRANCH   7   8
ENDBRANCH   6   7
ENDBRANCH   5   6
ENDBRANCH   4   5
ENDBRANCH   3   4
ENDBRANCH   2   3
ENDBRANCH   1   2
BRANCH   1  66
ATOM     66  C   UNL     1       3.302   0.190   7.332  1.00  0.00     0.188 C 
BRANCH  66  67
ATOM     67  C   UNL     1       2.858  -1.193   7.838  1.00  0.00     0.188 C 
BRANCH  67  68
ATOM     68  O   UNL     1       3.430  -1.636   9.062  1.00  0.00    -0.376 OA
BRANCH  68  69
ATOM     69  C   UNL     1       4.398  -2.678   8.909  1.00  0.00     0.202 C 
BRANCH  69  70
ATOM     70  C   UNL     1       5.783  -2.181   8.483  1.00  0.00     0.261 C 
BRANCH  70  71
ATOM     71  O   UNL     1       5.744  -1.446   7.249  1.00  0.00    -0.463 OA
BRANCH  71  72
ATOM     72  C   UNL     1       5.984  -2.107   6.099  1.00  0.00     0.309 C 
ATOM     73  O   UNL     1       6.254  -3.297   6.004  1.00  0.00    -0.252 OA
BRANCH  72  74
ATOM     74  C   UNL     1       5.792  -1.266   4.889  1.00  0.00     0.107 C 
ATOM     75  C   UNL     1       5.608   0.230   4.894  1.00  0.00     0.025 C 
ATOM     76  C   UNL     1       6.882  -0.357   4.351  1.00  0.00     0.034 C 
BRANCH  76  77
ATOM     77  C   UNL     1       8.145  -0.005   5.095  1.00  0.00    -0.044 A 
ATOM     78  C   UNL     1       8.497   1.337   5.309  1.00  0.00     0.004 A 
ATOM     79  C   UNL     1       9.028  -0.979   5.565  1.00  0.00     0.004 A 
ATOM     80  C   UNL     1       9.689   1.687   5.948  1.00  0.00     0.004 A 
ATOM     81  C   UNL     1      10.217  -0.626   6.213  1.00  0.00     0.004 A 
ATOM     82  C   UNL     1      10.590   0.713   6.401  1.00  0.00    -0.045 A 
BRANCH  82  83
ATOM     83  C   UNL     1      11.908   1.144   7.008  1.00  0.00     0.019 C 
ATOM     84  C   UNL     1      12.961   0.190   7.511  1.00  0.00     0.009 C 
ATOM     85  C   UNL     1      13.159   0.885   6.197  1.00  0.00     0.009 C 
ENDBRANCH  82  83
ENDBRANCH  76  77
ENDBRANCH  72  74
ENDBRANCH  71  72
ENDBRANCH  70  71
ENDBRANCH  69  70
ENDBRANCH  68  69
ENDBRANCH  67  68
ENDBRANCH  66  67
ENDBRANCH   1  66
TORSDOF 22
