REMARK SMILES Cc1ccc([C@H](CC(=O)OCCOCCOCCOCCOC(=O)c2ccc(-c3c4nc(c(-c5c(F)cccc5F)c5ccc([nH]5)c(-c5c(F)cccc5F)c5nc(c(-c6c(F)cccc6F)c6ccc3[nH]6)C=C5)C=C4)cc2)NC(=O)C(F)(F)F)cc1
REMARK SMILES IDX 15 1 14 2 13 3 12 4 11 5 10 6 8 7 9 8 7 9 6 10 5 11 1 12
REMARK SMILES IDX 2 13 3 14 87 15 4 16 86 17 79 18 80 19 81 21 82 22 83 23
REMARK SMILES IDX 84 24 85 25 16 26 17 27 18 28 19 29 20 30 21 31 22 32 23 33
REMARK SMILES IDX 24 34 25 35 26 36 78 37 27 38 77 39 28 40 29 41 30 42 71 43
REMARK SMILES IDX 31 44 76 45 70 46 72 47 32 48 75 49 69 50 68 51 33 53 59 54
REMARK SMILES IDX 42 55 58 56 43 57 46 58 57 59 73 60 44 61 45 62 56 64 74 65
REMARK SMILES IDX 47 66 34 67 35 68 40 69 36 70 37 71 39 72 41 73 38 74 60 75
REMARK SMILES IDX 61 76 66 77 62 78 63 79 65 80 67 81 64 82 48 83 49 84 54 85
REMARK SMILES IDX 50 86 51 87 53 88 55 89 52 90
REMARK H PARENT 79 20 72 52 46 63
REMARK Flexibility Score: inf
ROOT
ATOM      1  C   UNL     1      -3.051   0.125   2.836  1.00  0.00     0.188 C 
ENDROOT
BRANCH   1   2
ATOM      2  C   UNL     1      -2.225  -0.406   4.010  1.00  0.00     0.188 C 
BRANCH   2   3
ATOM      3  O   UNL     1      -0.905  -0.813   3.656  1.00  0.00    -0.376 OA
BRANCH   3   4
ATOM      4  C   UNL     1      -0.093   0.226   3.135  1.00  0.00     0.202 C 
BRANCH   4   5
ATOM      5  C   UNL     1       0.535  -0.240   1.836  1.00  0.00     0.261 C 
BRANCH   5   6
ATOM      6  O   UNL     1      -0.421  -0.382   0.774  1.00  0.00    -0.463 OA
BRANCH   6   7
ATOM      7  C   UNL     1      -0.924  -1.621   0.601  1.00  0.00     0.308 C 
ATOM      8  O   UNL     1      -0.706  -2.597   1.306  1.00  0.00    -0.252 OA
BRANCH   7   9
ATOM      9  C   UNL     1      -1.757  -1.693  -0.638  1.00  0.00     0.152 C 
BRANCH   9  10
ATOM     10  C   UNL     1      -3.219  -1.215  -0.531  1.00  0.00     0.123 C 
BRANCH  10  11
ATOM     11  C   UNL     1      -3.865  -1.613  -1.845  1.00  0.00    -0.025 A 
ATOM     12  C   UNL     1      -4.954  -2.896  -5.791  1.00  0.00     0.044 C 
ATOM     13  C   UNL     1      -4.654  -2.450  -4.394  1.00  0.00    -0.051 A 
ATOM     14  C   UNL     1      -4.636  -1.086  -4.070  1.00  0.00     0.004 A 
ATOM     15  C   UNL     1      -4.362  -3.396  -3.413  1.00  0.00     0.004 A 
ATOM     16  C   UNL     1      -4.230  -0.665  -2.804  1.00  0.00     0.006 A 
ATOM     17  C   UNL     1      -3.993  -2.981  -2.144  1.00  0.00     0.006 A 
ENDBRANCH  10  11
BRANCH  10  18
ATOM     18  N   UNL     1      -3.989  -1.822   0.554  1.00  0.00    -0.341 N 
ATOM     19  C   UNL     1      -5.258  -1.501   0.988  1.00  0.00     0.326 C 
ATOM     20  H   UNL     1      -3.544  -2.554   1.038  1.00  0.00     0.164 HD
ATOM     21  O   UNL     1      -5.700  -2.180   1.927  1.00  0.00    -0.265 OA
BRANCH  19  22
ATOM     22  C   UNL     1      -6.093  -0.348   0.367  1.00  0.00     0.471 C 
ATOM     23  F   UNL     1      -7.105  -0.797  -0.423  1.00  0.00    -0.162 F 
ATOM     24  F   UNL     1      -5.381   0.542  -0.376  1.00  0.00    -0.162 F 
ATOM     25  F   UNL     1      -6.695   0.408   1.335  1.00  0.00    -0.162 F 
ENDBRANCH  19  22
ENDBRANCH  10  18
ENDBRANCH   9  10
ENDBRANCH   7   9
ENDBRANCH   6   7
ENDBRANCH   5   6
ENDBRANCH   4   5
ENDBRANCH   3   4
ENDBRANCH   2   3
ENDBRANCH   1   2
BRANCH   1  26
ATOM     26  O   UNL     1      -3.005   1.544   2.761  1.00  0.00    -0.377 OA
BRANCH  26  27
ATOM     27  C   UNL     1      -4.259   2.159   2.478  1.00  0.00     0.188 C 
BRANCH  27  28
ATOM     28  C   UNL     1      -5.296   1.975   3.586  1.00  0.00     0.188 C 
BRANCH  28  29
ATOM     29  O   UNL     1      -4.678   1.371   4.715  1.00  0.00    -0.376 OA
BRANCH  29  30
ATOM     30  C   UNL     1      -5.559   0.884   5.711  1.00  0.00     0.202 C 
BRANCH  30  31
ATOM     31  C   UNL     1      -6.263   2.022   6.452  1.00  0.00     0.261 C 
BRANCH  31  32
ATOM     32  O   UNL     1      -5.269   2.969   6.898  1.00  0.00    -0.460 OA
BRANCH  32  33
ATOM     33  C   UNL     1      -5.290   4.175   6.263  1.00  0.00     0.338 C 
ATOM     34  O   UNL     1      -6.291   4.820   6.010  1.00  0.00    -0.246 OA
BRANCH  33  35
ATOM     35  C   UNL     1      -3.953   4.466   5.657  1.00  0.00     0.060 A 
ATOM     36  C   UNL     1      -3.820   5.518   4.729  1.00  0.00     0.016 A 
ATOM     37  C   UNL     1      -2.936   3.526   5.765  1.00  0.00     0.016 A 
ATOM     38  C   UNL     1      -2.748   5.543   3.813  1.00  0.00     0.010 A 
ATOM     39  C   UNL     1      -1.931   3.516   4.813  1.00  0.00     0.010 A 
ATOM     40  C   UNL     1      -1.832   4.492   3.801  1.00  0.00    -0.014 A 
BRANCH  40  41
ATOM     41  C   UNL     1      -0.853   4.175   2.728  1.00  0.00     0.031 A 
ATOM     42  C   UNL     1       0.558   3.792   3.099  1.00  0.00     0.074 A 
ATOM     43  C   UNL     1      -1.321   3.770   1.520  1.00  0.00     0.049 A 
ATOM     44  N   UNL     1       1.471   3.342   2.298  1.00  0.00    -0.248 NA
ATOM     45  C   UNL     1       1.044   3.885   4.468  1.00  0.00     0.031 C 
ATOM     46  C   UNL     1      -0.711   2.738   0.688  1.00  0.00     0.029 A 
ATOM     47  N   UNL     1      -2.451   4.102   0.780  1.00  0.00    -0.354 N 
ATOM     48  C   UNL     1       2.501   2.789   3.043  1.00  0.00     0.074 A 
ATOM     49  C   UNL     1       2.200   3.223   4.389  1.00  0.00     0.031 C 
ATOM     50  C   UNL     1      -1.388   2.583  -0.452  1.00  0.00     0.029 A 
ATOM     51  C   UNL     1      -2.239   3.731  -0.558  1.00  0.00     0.049 A 
ATOM     52  H   UNL     1      -3.265   4.527   1.135  1.00  0.00     0.167 HD
ATOM     53  C   UNL     1       3.404   1.933   2.450  1.00  0.00     0.037 A 
ATOM     54  C   UNL     1      -2.143   4.622  -1.590  1.00  0.00     0.037 A 
ATOM     55  C   UNL     1       3.215   1.843   0.965  1.00  0.00     0.049 A 
ATOM     56  C   UNL     1      -0.720   4.731  -2.154  1.00  0.00     0.074 A 
ATOM     57  C   UNL     1       3.114   0.826   0.018  1.00  0.00     0.029 A 
ATOM     58  N   UNL     1       2.915   2.998   0.241  1.00  0.00    -0.354 N 
ATOM     59  N   UNL     1       0.279   3.945  -1.822  1.00  0.00    -0.248 NA
ATOM     60  C   UNL     1      -0.283   5.776  -3.076  1.00  0.00     0.031 C 
ATOM     61  C   UNL     1       2.786   1.386  -1.253  1.00  0.00     0.029 A 
ATOM     62  C   UNL     1       2.725   2.754  -1.104  1.00  0.00     0.049 A 
ATOM     63  H   UNL     1       2.845   3.893   0.648  1.00  0.00     0.167 HD
ATOM     64  C   UNL     1       1.460   4.416  -2.337  1.00  0.00     0.074 A 
ATOM     65  C   UNL     1       1.044   5.555  -3.139  1.00  0.00     0.031 C 
ATOM     66  C   UNL     1       2.685   3.881  -2.024  1.00  0.00     0.037 A 
BRANCH  53  67
ATOM     67  C   UNL     1       4.353   0.979   3.234  1.00  0.00     0.057 A 
ATOM     68  C   UNL     1       5.032  -0.089   2.603  1.00  0.00     0.134 A 
ATOM     69  C   UNL     1       4.613   1.010   4.621  1.00  0.00     0.134 A 
ATOM     70  F   UNL     1       5.102  -0.199   1.273  1.00  0.00    -0.206 F 
ATOM     71  C   UNL     1       5.740  -1.096   3.291  1.00  0.00     0.040 A 
ATOM     72  C   UNL     1       5.304   0.007   5.329  1.00  0.00     0.040 A 
ATOM     73  F   UNL     1       4.311   2.059   5.383  1.00  0.00    -0.206 F 
ATOM     74  C   UNL     1       5.851  -1.072   4.668  1.00  0.00     0.006 A 
ENDBRANCH  53  67
BRANCH  54  75
ATOM     75  C   UNL     1      -3.241   5.630  -1.520  1.00  0.00     0.057 A 
ATOM     76  C   UNL     1      -4.526   5.082  -1.728  1.00  0.00     0.134 A 
ATOM     77  C   UNL     1      -3.145   6.701  -0.622  1.00  0.00     0.134 A 
ATOM     78  F   UNL     1      -4.696   4.095  -2.622  1.00  0.00    -0.206 F 
ATOM     79  C   UNL     1      -5.586   5.368  -0.865  1.00  0.00     0.040 A 
ATOM     80  C   UNL     1      -4.210   7.004   0.240  1.00  0.00     0.040 A 
ATOM     81  F   UNL     1      -1.960   7.283  -0.389  1.00  0.00    -0.206 F 
ATOM     82  C   UNL     1      -5.406   6.286   0.165  1.00  0.00     0.006 A 
ENDBRANCH  54  75
BRANCH  66  83
ATOM     83  C   UNL     1       4.028   4.410  -2.493  1.00  0.00     0.057 A 
ATOM     84  C   UNL     1       4.250   4.979  -3.750  1.00  0.00     0.134 A 
ATOM     85  C   UNL     1       5.192   4.284  -1.690  1.00  0.00     0.134 A 
ATOM     86  F   UNL     1       3.292   4.988  -4.686  1.00  0.00    -0.206 F 
ATOM     87  C   UNL     1       5.490   5.523  -4.117  1.00  0.00     0.040 A 
ATOM     88  C   UNL     1       6.443   4.778  -2.064  1.00  0.00     0.040 A 
ATOM     89  F   UNL     1       5.184   3.679  -0.496  1.00  0.00    -0.206 F 
ATOM     90  C   UNL     1       6.588   5.439  -3.267  1.00  0.00     0.006 A 
ENDBRANCH  66  83
ENDBRANCH  40  41
ENDBRANCH  33  35
ENDBRANCH  32  33
ENDBRANCH  31  32
ENDBRANCH  30  31
ENDBRANCH  29  30
ENDBRANCH  28  29
ENDBRANCH  27  28
ENDBRANCH  26  27
ENDBRANCH   1  26
TORSDOF 24
