REMARK SMILES COc1ccc(C(F)(F)F)cc1-c1cccnc1C(=O)OCCOCCOCCOCCOC(=O)c1ccc(-c2c3nc(c(-c4c(F)cccc4F)c4ccc([nH]4)c(-c4c(F)cccc4F)c4nc(c(-c5c(F)cccc5F)c5ccc2[nH]5)C=C4)C=C3)cc1
REMARK SMILES IDX 27 1 26 2 25 3 24 4 23 5 22 6 21 7 19 8 20 9 18 10 13 11
REMARK SMILES IDX 14 12 15 13 17 14 16 15 12 16 3 17 4 18 5 19 11 20 6 21 2 22
REMARK SMILES IDX 1 23 7 24 8 25 9 26 10 27 28 28 29 29 30 30 31 31 32 32
REMARK SMILES IDX 33 33 34 34 35 35 36 36 37 37 89 38 38 39 88 40 39 41 40 42
REMARK SMILES IDX 41 43 82 44 42 45 87 46 81 47 83 48 43 49 86 50 80 51 79 52
REMARK SMILES IDX 44 54 70 55 53 56 69 57 54 58 57 59 68 60 84 61 55 62 56 63
REMARK SMILES IDX 67 65 85 66 58 67 45 68 46 69 51 70 47 71 48 72 50 73 52 74
REMARK SMILES IDX 49 75 71 76 72 77 77 78 73 79 74 80 76 81 78 82 75 83 59 84
REMARK SMILES IDX 60 85 65 86 61 87 62 88 64 89 66 90 63 91
REMARK H PARENT 83 53 57 64
REMARK Flexibility Score: inf
ROOT
ATOM      1  O   UNL     1       1.171   2.529   2.348  1.00  0.00    -0.377 OA
ENDROOT
BRANCH   1   2
ATOM      2  C   UNL     1       2.217   1.725   2.872  1.00  0.00     0.188 C 
BRANCH   2   3
ATOM      3  C   UNL     1       3.287   2.440   3.723  1.00  0.00     0.188 C 
BRANCH   3   4
ATOM      4  O   UNL     1       2.859   3.663   4.288  1.00  0.00    -0.376 OA
BRANCH   4   5
ATOM      5  C   UNL     1       3.077   4.896   3.627  1.00  0.00     0.202 C 
BRANCH   5   6
ATOM      6  C   UNL     1       3.192   5.055   2.103  1.00  0.00     0.261 C 
BRANCH   6   7
ATOM      7  O   UNL     1       3.336   3.855   1.347  1.00  0.00    -0.458 OA
BRANCH   7   8
ATOM      8  C   UNL     1       4.569   3.530   0.898  1.00  0.00     0.357 C 
ATOM      9  O   UNL     1       5.590   4.162   1.113  1.00  0.00    -0.244 OA
BRANCH   8  10
ATOM     10  C   UNL     1       4.514   2.212   0.174  1.00  0.00     0.156 A 
ATOM     11  C   UNL     1       3.582   1.899  -0.842  1.00  0.00     0.019 A 
ATOM     12  C   UNL     1       3.758   0.639  -1.444  1.00  0.00     0.013 A 
ATOM     13  C   UNL     1       4.715  -0.262  -0.978  1.00  0.00     0.021 A 
ATOM     14  N   UNL     1       5.463   1.341   0.637  1.00  0.00    -0.249 NA
ATOM     15  C   UNL     1       5.522   0.123   0.071  1.00  0.00     0.112 A 
BRANCH  11  16
ATOM     16  C   UNL     1       2.425   2.756  -1.217  1.00  0.00     0.027 A 
ATOM     17  C   UNL     1       1.104   2.263  -1.326  1.00  0.00     0.126 A 
ATOM     18  C   UNL     1       0.013   3.129  -1.482  1.00  0.00     0.048 A 
ATOM     19  C   UNL     1       0.208   4.508  -1.498  1.00  0.00     0.017 A 
ATOM     20  C   UNL     1       2.594   4.147  -1.369  1.00  0.00     0.025 A 
ATOM     21  C   UNL     1       1.503   5.032  -1.437  1.00  0.00     0.056 A 
BRANCH  17  22
ATOM     22  O   UNL     1       0.827   0.921  -1.427  1.00  0.00    -0.496 OA
ATOM     23  C   UNL     1       0.621   0.305  -0.158  1.00  0.00     0.278 C 
ENDBRANCH  17  22
BRANCH  21  24
ATOM     24  C   UNL     1       1.727   6.523  -1.391  1.00  0.00     0.416 C 
ATOM     25  F   UNL     1       1.494   7.130  -2.586  1.00  0.00    -0.166 F 
ATOM     26  F   UNL     1       0.913   7.143  -0.489  1.00  0.00    -0.166 F 
ATOM     27  F   UNL     1       2.996   6.869  -1.032  1.00  0.00    -0.166 F 
ENDBRANCH  21  24
ENDBRANCH  11  16
ENDBRANCH   8  10
ENDBRANCH   7   8
ENDBRANCH   6   7
ENDBRANCH   5   6
ENDBRANCH   4   5
ENDBRANCH   3   4
ENDBRANCH   2   3
ENDBRANCH   1   2
BRANCH   1  28
ATOM     28  C   UNL     1       0.194   3.088   3.224  1.00  0.00     0.188 C 
BRANCH  28  29
ATOM     29  C   UNL     1       0.222   2.871   4.755  1.00  0.00     0.188 C 
BRANCH  29  30
ATOM     30  O   UNL     1       0.872   1.683   5.170  1.00  0.00    -0.376 OA
BRANCH  30  31
ATOM     31  C   UNL     1       0.079   0.598   5.613  1.00  0.00     0.202 C 
BRANCH  31  32
ATOM     32  C   UNL     1      -0.854  -0.045   4.578  1.00  0.00     0.261 C 
BRANCH  32  33
ATOM     33  O   UNL     1      -1.782   0.840   3.932  1.00  0.00    -0.460 OA
BRANCH  33  34
ATOM     34  C   UNL     1      -2.730   1.416   4.701  1.00  0.00     0.338 C 
ATOM     35  O   UNL     1      -2.903   1.266   5.899  1.00  0.00    -0.246 OA
BRANCH  34  36
ATOM     36  C   UNL     1      -3.433   2.408   3.865  1.00  0.00     0.060 A 
ATOM     37  C   UNL     1      -3.351   3.767   4.195  1.00  0.00     0.016 A 
ATOM     38  C   UNL     1      -4.158   1.992   2.747  1.00  0.00     0.016 A 
ATOM     39  C   UNL     1      -4.013   4.715   3.413  1.00  0.00     0.010 A 
ATOM     40  C   UNL     1      -4.835   2.940   1.977  1.00  0.00     0.010 A 
ATOM     41  C   UNL     1      -4.785   4.303   2.319  1.00  0.00    -0.014 A 
BRANCH  41  42
ATOM     42  C   UNL     1      -5.661   5.269   1.613  1.00  0.00     0.031 A 
ATOM     43  C   UNL     1      -7.125   5.298   1.952  1.00  0.00     0.074 A 
ATOM     44  C   UNL     1      -5.166   6.101   0.680  1.00  0.00     0.049 A 
ATOM     45  N   UNL     1      -8.091   5.991   1.409  1.00  0.00    -0.248 NA
ATOM     46  C   UNL     1      -7.555   4.419   3.051  1.00  0.00     0.031 C 
ATOM     47  C   UNL     1      -3.760   6.200   0.293  1.00  0.00     0.029 A 
ATOM     48  N   UNL     1      -5.804   7.013  -0.124  1.00  0.00    -0.354 N 
ATOM     49  C   UNL     1      -9.245   5.626   2.090  1.00  0.00     0.074 A 
ATOM     50  C   UNL     1      -8.863   4.629   3.067  1.00  0.00     0.031 C 
ATOM     51  C   UNL     1      -3.644   7.111  -0.688  1.00  0.00     0.029 A 
ATOM     52  C   UNL     1      -4.970   7.626  -1.026  1.00  0.00     0.049 A 
ATOM     53  H   UNL     1      -6.767   7.208  -0.060  1.00  0.00     0.167 HD
ATOM     54  C   UNL     1     -10.508   6.084   1.920  1.00  0.00     0.037 A 
ATOM     55  C   UNL     1      -5.252   8.481  -2.030  1.00  0.00     0.037 A 
ATOM     56  C   UNL     1     -10.884   7.072   0.943  1.00  0.00     0.049 A 
ATOM     57  C   UNL     1      -6.678   8.911  -2.258  1.00  0.00     0.074 A 
ATOM     58  C   UNL     1     -12.132   7.625   0.713  1.00  0.00     0.029 A 
ATOM     59  N   UNL     1     -10.018   7.643   0.023  1.00  0.00    -0.354 N 
ATOM     60  N   UNL     1      -7.759   8.589  -1.587  1.00  0.00    -0.248 NA
ATOM     61  C   UNL     1      -6.926   9.822  -3.385  1.00  0.00     0.031 C 
ATOM     62  C   UNL     1     -12.034   8.479  -0.390  1.00  0.00     0.029 A 
ATOM     63  C   UNL     1     -10.712   8.509  -0.805  1.00  0.00     0.049 A 
ATOM     64  H   UNL     1      -9.053   7.459  -0.034  1.00  0.00     0.167 HD
ATOM     65  C   UNL     1      -8.806   9.274  -2.194  1.00  0.00     0.074 A 
ATOM     66  C   UNL     1      -8.228  10.043  -3.276  1.00  0.00     0.031 C 
ATOM     67  C   UNL     1     -10.126   9.267  -1.883  1.00  0.00     0.037 A 
BRANCH  54  68
ATOM     68  C   UNL     1     -11.583   5.489   2.785  1.00  0.00     0.057 A 
ATOM     69  C   UNL     1     -11.658   5.742   4.161  1.00  0.00     0.134 A 
ATOM     70  C   UNL     1     -12.571   4.669   2.226  1.00  0.00     0.134 A 
ATOM     71  F   UNL     1     -10.735   6.508   4.764  1.00  0.00    -0.206 F 
ATOM     72  C   UNL     1     -12.660   5.179   4.954  1.00  0.00     0.040 A 
ATOM     73  C   UNL     1     -13.596   4.125   3.002  1.00  0.00     0.040 A 
ATOM     74  F   UNL     1     -12.563   4.389   0.914  1.00  0.00    -0.206 F 
ATOM     75  C   UNL     1     -13.637   4.373   4.372  1.00  0.00     0.006 A 
ENDBRANCH  54  68
BRANCH  55  76
ATOM     76  C   UNL     1      -4.163   8.967  -2.916  1.00  0.00     0.057 A 
ATOM     77  C   UNL     1      -3.771  10.311  -2.916  1.00  0.00     0.134 A 
ATOM     78  C   UNL     1      -3.498   8.103  -3.795  1.00  0.00     0.134 A 
ATOM     79  F   UNL     1      -4.386  11.193  -2.115  1.00  0.00    -0.206 F 
ATOM     80  C   UNL     1      -2.767  10.780  -3.766  1.00  0.00     0.040 A 
ATOM     81  C   UNL     1      -2.474   8.553  -4.630  1.00  0.00     0.040 A 
ATOM     82  F   UNL     1      -3.824   6.803  -3.844  1.00  0.00    -0.206 F 
ATOM     83  C   UNL     1      -2.111   9.898  -4.622  1.00  0.00     0.006 A 
ENDBRANCH  55  76
BRANCH  67  84
ATOM     84  C   UNL     1     -11.038  10.131  -2.708  1.00  0.00     0.057 A 
ATOM     85  C   UNL     1     -11.354   9.819  -4.036  1.00  0.00     0.134 A 
ATOM     86  C   UNL     1     -11.649  11.262  -2.149  1.00  0.00     0.134 A 
ATOM     87  F   UNL     1     -10.796   8.757  -4.636  1.00  0.00    -0.206 F 
ATOM     88  C   UNL     1     -12.227  10.611  -4.785  1.00  0.00     0.040 A 
ATOM     89  C   UNL     1     -12.547  12.044  -2.877  1.00  0.00     0.040 A 
ATOM     90  F   UNL     1     -11.401  11.613  -0.878  1.00  0.00    -0.206 F 
ATOM     91  C   UNL     1     -12.833  11.723  -4.202  1.00  0.00     0.006 A 
ENDBRANCH  67  84
ENDBRANCH  41  42
ENDBRANCH  34  36
ENDBRANCH  33  34
ENDBRANCH  32  33
ENDBRANCH  31  32
ENDBRANCH  30  31
ENDBRANCH  29  30
ENDBRANCH  28  29
ENDBRANCH   1  28
TORSDOF 23
