REMARK SMILES C[C@@H](C(=O)OCCOCCOCCOCCOC(=O)c1ccc(-c2c3nc(c(-c4c(F)cccc4F)c4ccc([nH]4)c(-c4c(F)cccc4F)c4nc(c(-c5c(F)cccc5F)c5ccc2[nH]5)C=C4)C=C3)cc1)c1ccc2c3cc(Cl)ccc3n(C(=O)c3cocn3)c2c1
REMARK SMILES IDX 10 1 9 2 8 3 7 4 6 5 5 6 3 7 4 8 2 9 1 10 74 11 75 12 94 13
REMARK SMILES IDX 76 14 93 15 77 16 85 17 78 18 84 19 79 20 83 21 80 22 82 23
REMARK SMILES IDX 81 24 86 25 87 26 88 27 89 28 92 29 90 30 91 31 11 32 12 33
REMARK SMILES IDX 13 34 14 35 15 36 16 37 17 38 18 39 19 40 20 41 21 42 73 43
REMARK SMILES IDX 22 44 72 45 23 46 24 47 25 48 66 49 26 50 71 51 65 52 67 53
REMARK SMILES IDX 27 54 70 55 64 56 63 57 28 59 54 60 37 61 53 62 38 63 41 64
REMARK SMILES IDX 52 65 68 66 39 67 40 68 51 70 69 71 42 72 29 73 30 74 35 75
REMARK SMILES IDX 31 76 32 77 34 78 36 79 33 80 55 81 56 82 61 83 57 84 58 85
REMARK SMILES IDX 60 86 62 87 59 88 43 89 44 90 49 91 45 92 46 93 48 94 50 95
REMARK SMILES IDX 47 96
REMARK H PARENT 67 58 41 69
REMARK Flexibility Score: inf
ROOT
ATOM      1  C   UNL     1       1.088  -1.968  -1.821  1.00  0.00     0.188 C 
ENDROOT
BRANCH   1   2
ATOM      2  C   UNL     1       0.189  -1.659  -3.032  1.00  0.00     0.188 C 
BRANCH   2   3
ATOM      3  O   UNL     1       0.731  -1.671  -4.344  1.00  0.00    -0.376 OA
BRANCH   3   4
ATOM      4  C   UNL     1       1.973  -1.039  -4.617  1.00  0.00     0.202 C 
BRANCH   4   5
ATOM      5  C   UNL     1       2.383   0.314  -3.999  1.00  0.00     0.261 C 
BRANCH   5   6
ATOM      6  O   UNL     1       1.993   0.567  -2.638  1.00  0.00    -0.463 OA
BRANCH   6   7
ATOM      7  C   UNL     1       1.018   1.489  -2.455  1.00  0.00     0.313 C 
ATOM      8  O   UNL     1       0.512   2.126  -3.376  1.00  0.00    -0.252 OA
BRANCH   7   9
ATOM      9  C   UNL     1       0.571   1.666  -0.986  1.00  0.00     0.126 C 
ATOM     10  C   UNL     1       1.382   0.983   0.123  1.00  0.00     0.025 C 
BRANCH   9  11
ATOM     11  C   UNL     1      -0.949   1.487  -0.895  1.00  0.00    -0.032 A 
ATOM     12  C   UNL     1      -1.736   2.574  -1.281  1.00  0.00     0.005 A 
ATOM     13  C   UNL     1      -1.582   0.261  -0.596  1.00  0.00     0.032 A 
ATOM     14  C   UNL     1      -3.111   2.446  -1.446  1.00  0.00     0.011 A 
ATOM     15  C   UNL     1      -2.987   0.130  -0.746  1.00  0.00     0.058 A 
ATOM     16  C   UNL     1      -3.737   1.210  -1.201  1.00  0.00     0.008 A 
ATOM     17  N   UNL     1      -3.866  -0.968  -0.569  1.00  0.00    -0.274 N 
ATOM     18  C   UNL     1      -5.088   0.800  -1.283  1.00  0.00     0.009 A 
ATOM     19  C   UNL     1      -5.181  -0.491  -0.750  1.00  0.00     0.057 A 
ATOM     20  C   UNL     1      -6.247   1.494  -1.692  1.00  0.00     0.031 A 
ATOM     21  C   UNL     1      -6.453  -1.027  -0.457  1.00  0.00     0.029 A 
ATOM     22  C   UNL     1      -7.494   0.936  -1.450  1.00  0.00     0.041 A 
ATOM     23  C   UNL     1      -7.598  -0.291  -0.809  1.00  0.00     0.023 A 
ATOM     24  Cl  UNL     1      -8.907   1.810  -1.895  1.00  0.00    -0.084 Cl
BRANCH  17  25
ATOM     25  C   UNL     1      -3.438  -2.292  -0.232  1.00  0.00     0.284 C 
ATOM     26  O   UNL     1      -2.290  -2.386   0.202  1.00  0.00    -0.266 OA
BRANCH  25  27
ATOM     27  C   UNL     1      -4.206  -3.533  -0.389  1.00  0.00     0.167 A 
ATOM     28  C   UNL     1      -5.191  -3.869  -1.293  1.00  0.00     0.231 A 
ATOM     29  N   UNL     1      -3.882  -4.678   0.339  1.00  0.00    -0.211 NA
ATOM     30  O   UNL     1      -5.499  -5.191  -1.133  1.00  0.00    -0.451 OA
ATOM     31  C   UNL     1      -4.660  -5.612  -0.150  1.00  0.00     0.308 A 
ENDBRANCH  25  27
ENDBRANCH  17  25
ENDBRANCH   9  11
ENDBRANCH   7   9
ENDBRANCH   6   7
ENDBRANCH   5   6
ENDBRANCH   4   5
ENDBRANCH   3   4
ENDBRANCH   2   3
ENDBRANCH   1   2
BRANCH   1  32
ATOM     32  O   UNL     1       2.470  -2.034  -2.113  1.00  0.00    -0.377 OA
BRANCH  32  33
ATOM     33  C   UNL     1       3.009  -3.326  -2.335  1.00  0.00     0.188 C 
BRANCH  33  34
ATOM     34  C   UNL     1       2.139  -4.369  -3.064  1.00  0.00     0.188 C 
BRANCH  34  35
ATOM     35  O   UNL     1       0.823  -4.505  -2.543  1.00  0.00    -0.376 OA
BRANCH  35  36
ATOM     36  C   UNL     1       0.550  -5.560  -1.631  1.00  0.00     0.202 C 
BRANCH  36  37
ATOM     37  C   UNL     1       1.195  -5.485  -0.237  1.00  0.00     0.261 C 
BRANCH  37  38
ATOM     38  O   UNL     1       2.630  -5.420  -0.202  1.00  0.00    -0.460 OA
BRANCH  38  39
ATOM     39  C   UNL     1       3.325  -6.429  -0.764  1.00  0.00     0.338 C 
ATOM     40  O   UNL     1       2.876  -7.452  -1.255  1.00  0.00    -0.246 OA
BRANCH  39  41
ATOM     41  C   UNL     1       4.735  -5.998  -0.874  1.00  0.00     0.060 A 
ATOM     42  C   UNL     1       5.325  -5.934  -2.143  1.00  0.00     0.016 A 
ATOM     43  C   UNL     1       5.465  -5.641   0.263  1.00  0.00     0.016 A 
ATOM     44  C   UNL     1       6.658  -5.545  -2.277  1.00  0.00     0.010 A 
ATOM     45  C   UNL     1       6.809  -5.279   0.130  1.00  0.00     0.010 A 
ATOM     46  C   UNL     1       7.420  -5.263  -1.137  1.00  0.00    -0.014 A 
BRANCH  46  47
ATOM     47  C   UNL     1       8.896  -5.169  -1.249  1.00  0.00     0.031 A 
ATOM     48  C   UNL     1       9.709  -6.395  -0.933  1.00  0.00     0.074 A 
ATOM     49  C   UNL     1       9.504  -4.038  -1.646  1.00  0.00     0.049 A 
ATOM     50  N   UNL     1      11.007  -6.553  -0.910  1.00  0.00    -0.248 NA
ATOM     51  C   UNL     1       8.949  -7.610  -0.595  1.00  0.00     0.031 C 
ATOM     52  C   UNL     1       8.828  -2.802  -2.030  1.00  0.00     0.029 A 
ATOM     53  N   UNL     1      10.840  -3.751  -1.785  1.00  0.00    -0.354 N 
ATOM     54  C   UNL     1      11.218  -7.877  -0.546  1.00  0.00     0.074 A 
ATOM     55  C   UNL     1       9.918  -8.471  -0.328  1.00  0.00     0.031 C 
ATOM     56  C   UNL     1       9.755  -1.881  -2.350  1.00  0.00     0.029 A 
ATOM     57  C   UNL     1      11.087  -2.453  -2.160  1.00  0.00     0.049 A 
ATOM     58  H   UNL     1      11.552  -4.412  -1.631  1.00  0.00     0.167 HD
ATOM     59  C   UNL     1      12.391  -8.540  -0.410  1.00  0.00     0.037 A 
ATOM     60  C   UNL     1      12.257  -1.799  -2.306  1.00  0.00     0.037 A 
ATOM     61  C   UNL     1      13.682  -7.944  -0.624  1.00  0.00     0.049 A 
ATOM     62  C   UNL     1      13.550  -2.535  -2.064  1.00  0.00     0.074 A 
ATOM     63  C   UNL     1      14.930  -8.535  -0.529  1.00  0.00     0.029 A 
ATOM     64  N   UNL     1      13.893  -6.615  -0.963  1.00  0.00    -0.354 N 
ATOM     65  N   UNL     1      13.743  -3.793  -1.744  1.00  0.00    -0.248 NA
ATOM     66  C   UNL     1      14.792  -1.759  -2.205  1.00  0.00     0.031 C 
ATOM     67  C   UNL     1      15.897  -7.549  -0.748  1.00  0.00     0.029 A 
ATOM     68  C   UNL     1      15.251  -6.360  -1.048  1.00  0.00     0.049 A 
ATOM     69  H   UNL     1      13.182  -5.953  -1.119  1.00  0.00     0.167 HD
ATOM     70  C   UNL     1      15.121  -3.966  -1.682  1.00  0.00     0.074 A 
ATOM     71  C   UNL     1      15.717  -2.688  -2.008  1.00  0.00     0.031 C 
ATOM     72  C   UNL     1      15.830  -5.084  -1.385  1.00  0.00     0.037 A 
BRANCH  59  73
ATOM     73  C   UNL     1      12.327  -9.975   0.026  1.00  0.00     0.057 A 
ATOM     74  C   UNL     1      11.836 -10.987  -0.809  1.00  0.00     0.134 A 
ATOM     75  C   UNL     1      12.788 -10.352   1.294  1.00  0.00     0.134 A 
ATOM     76  F   UNL     1      11.363 -10.693  -2.030  1.00  0.00    -0.206 F 
ATOM     77  C   UNL     1      11.781 -12.318  -0.389  1.00  0.00     0.040 A 
ATOM     78  C   UNL     1      12.767 -11.683   1.714  1.00  0.00     0.040 A 
ATOM     79  F   UNL     1      13.274  -9.434   2.143  1.00  0.00    -0.206 F 
ATOM     80  C   UNL     1      12.255 -12.669   0.874  1.00  0.00     0.006 A 
ENDBRANCH  59  73
BRANCH  60  81
ATOM     81  C   UNL     1      12.269  -0.361  -2.684  1.00  0.00     0.057 A 
ATOM     82  C   UNL     1      12.784   0.062  -3.915  1.00  0.00     0.134 A 
ATOM     83  C   UNL     1      11.801   0.628  -1.810  1.00  0.00     0.134 A 
ATOM     84  F   UNL     1      13.273  -0.833  -4.786  1.00  0.00    -0.206 F 
ATOM     85  C   UNL     1      12.853   1.415  -4.255  1.00  0.00     0.040 A 
ATOM     86  C   UNL     1      11.837   1.982  -2.148  1.00  0.00     0.040 A 
ATOM     87  F   UNL     1      11.298   0.291  -0.613  1.00  0.00    -0.206 F 
ATOM     88  C   UNL     1      12.373   2.379  -3.371  1.00  0.00     0.006 A 
ENDBRANCH  60  81
BRANCH  72  89
ATOM     89  C   UNL     1      17.329  -4.992  -1.446  1.00  0.00     0.057 A 
ATOM     90  C   UNL     1      18.072  -4.271  -0.503  1.00  0.00     0.134 A 
ATOM     91  C   UNL     1      18.042  -5.676  -2.441  1.00  0.00     0.134 A 
ATOM     92  F   UNL     1      17.453  -3.585   0.470  1.00  0.00    -0.206 F 
ATOM     93  C   UNL     1      19.466  -4.212  -0.562  1.00  0.00     0.040 A 
ATOM     94  C   UNL     1      19.436  -5.651  -2.491  1.00  0.00     0.040 A 
ATOM     95  F   UNL     1      17.395  -6.396  -3.370  1.00  0.00    -0.206 F 
ATOM     96  C   UNL     1      20.152  -4.910  -1.554  1.00  0.00     0.006 A 
ENDBRANCH  72  89
ENDBRANCH  46  47
ENDBRANCH  39  41
ENDBRANCH  38  39
ENDBRANCH  37  38
ENDBRANCH  36  37
ENDBRANCH  35  36
ENDBRANCH  34  35
ENDBRANCH  33  34
ENDBRANCH  32  33
ENDBRANCH   1  32
TORSDOF 23
