REMARK SMILES CC(=O)c1cc2c(cc1NC(=O)/C=C/C(=O)OCCOCCOCCOCCOC(=O)c1ccc(-c3c4nc(c(-c5c(F)cccc5F)c5ccc([nH]5)c(-c5c(F)cccc5F)c5nc(c(-c6c(F)cccc6F)c6ccc3[nH]6)C=C5)C=C4)cc1)OCO2
REMARK SMILES IDX 22 1 21 2 20 3 19 4 18 5 17 6 15 7 16 8 14 9 13 10 11 11
REMARK SMILES IDX 10 12 12 14 9 15 4 16 5 17 6 18 8 19 7 20 88 21 86 22 87 23
REMARK SMILES IDX 2 24 1 25 3 26 23 27 24 28 25 29 26 30 27 31 28 32 29 33
REMARK SMILES IDX 30 34 31 35 32 36 33 37 85 38 34 39 84 40 35 41 36 42 37 43
REMARK SMILES IDX 78 44 38 45 83 46 77 47 79 48 39 49 82 50 76 51 75 52 40 54
REMARK SMILES IDX 66 55 49 56 65 57 50 58 53 59 64 60 80 61 51 62 52 63 63 65
REMARK SMILES IDX 81 66 54 67 41 68 42 69 47 70 43 71 44 72 46 73 48 74 45 75
REMARK SMILES IDX 67 76 68 77 73 78 69 79 70 80 72 81 74 82 71 83 55 84 56 85
REMARK SMILES IDX 61 86 57 87 58 88 60 89 62 90 59 91
REMARK H PARENT 10 13 79 53 53 64
REMARK Flexibility Score: inf
ROOT
ATOM      1  C   UNL     1      -1.210  -5.817   4.420  1.00  0.00     0.188 C 
ENDROOT
BRANCH   1   2
ATOM      2  C   UNL     1       0.063  -5.841   5.302  1.00  0.00     0.188 C 
BRANCH   2   3
ATOM      3  O   UNL     1       0.033  -6.760   6.378  1.00  0.00    -0.376 OA
BRANCH   3   4
ATOM      4  C   UNL     1       0.010  -6.220   7.686  1.00  0.00     0.202 C 
BRANCH   4   5
ATOM      5  C   UNL     1      -1.236  -5.402   8.056  1.00  0.00     0.261 C 
BRANCH   5   6
ATOM      6  O   UNL     1      -1.557  -4.330   7.147  1.00  0.00    -0.460 OA
BRANCH   6   7
ATOM      7  C   UNL     1      -0.891  -3.164   7.313  1.00  0.00     0.331 C 
ATOM      8  O   UNL     1      -0.033  -2.949   8.155  1.00  0.00    -0.247 OA
BRANCH   7   9
ATOM      9  C   UNL     1      -1.218  -2.181   6.251  1.00  0.00     0.099 C 
ATOM     10  C   UNL     1      -2.163  -2.351   5.312  1.00  0.00     0.079 C 
BRANCH  10  11
ATOM     11  C   UNL     1      -2.368  -1.411   4.182  1.00  0.00     0.248 C 
ATOM     12  N   UNL     1      -1.359  -1.034   3.333  1.00  0.00    -0.322 N 
ATOM     13  H   UNL     1      -1.625  -0.315   2.716  1.00  0.00     0.170 HD
ATOM     14  O   UNL     1      -3.506  -0.975   4.006  1.00  0.00    -0.270 OA
BRANCH  12  15
ATOM     15  C   UNL     1      -0.017  -1.452   3.149  1.00  0.00     0.056 A 
ATOM     16  C   UNL     1       0.878  -0.694   2.348  1.00  0.00     0.045 A 
ATOM     17  C   UNL     1       2.260  -0.973   2.331  1.00  0.00     0.064 A 
ATOM     18  C   UNL     1       2.706  -2.058   3.048  1.00  0.00     0.166 A 
ATOM     19  C   UNL     1       0.476  -2.616   3.725  1.00  0.00     0.077 A 
ATOM     20  C   UNL     1       1.827  -2.879   3.695  1.00  0.00     0.167 A 
ATOM     21  O   UNL     1       3.991  -2.476   3.179  1.00  0.00    -0.454 OA
ATOM     22  O   UNL     1       2.436  -3.933   4.294  1.00  0.00    -0.454 OA
ATOM     23  C   UNL     1       3.820  -3.632   4.031  1.00  0.00     0.468 C 
BRANCH  16  24
ATOM     24  C   UNL     1       0.359   0.358   1.438  1.00  0.00     0.162 C 
ATOM     25  C   UNL     1       0.869   0.351   0.017  1.00  0.00     0.093 C 
ATOM     26  O   UNL     1      -0.534   1.108   1.817  1.00  0.00    -0.294 OA
ENDBRANCH  16  24
ENDBRANCH  12  15
ENDBRANCH  10  11
ENDBRANCH   7   9
ENDBRANCH   6   7
ENDBRANCH   5   6
ENDBRANCH   4   5
ENDBRANCH   3   4
ENDBRANCH   2   3
ENDBRANCH   1   2
BRANCH   1  27
ATOM     27  O   UNL     1      -2.312  -6.679   4.661  1.00  0.00    -0.377 OA
BRANCH  27  28
ATOM     28  C   UNL     1      -2.084  -7.933   5.282  1.00  0.00     0.188 C 
BRANCH  28  29
ATOM     29  C   UNL     1      -0.930  -8.817   4.762  1.00  0.00     0.188 C 
BRANCH  29  30
ATOM     30  O   UNL     1      -0.136  -8.191   3.766  1.00  0.00    -0.376 OA
BRANCH  30  31
ATOM     31  C   UNL     1      -0.273  -8.653   2.434  1.00  0.00     0.202 C 
BRANCH  31  32
ATOM     32  C   UNL     1      -1.644  -8.514   1.752  1.00  0.00     0.261 C 
BRANCH  32  33
ATOM     33  O   UNL     1      -2.787  -8.944   2.506  1.00  0.00    -0.460 OA
BRANCH  33  34
ATOM     34  C   UNL     1      -2.941 -10.268   2.714  1.00  0.00     0.338 C 
ATOM     35  O   UNL     1      -2.204 -11.165   2.336  1.00  0.00    -0.246 OA
BRANCH  34  36
ATOM     36  C   UNL     1      -4.064 -10.441   3.659  1.00  0.00     0.060 A 
ATOM     37  C   UNL     1      -3.824 -11.038   4.906  1.00  0.00     0.016 A 
ATOM     38  C   UNL     1      -5.341  -9.981   3.330  1.00  0.00     0.016 A 
ATOM     39  C   UNL     1      -4.868 -11.197   5.817  1.00  0.00     0.010 A 
ATOM     40  C   UNL     1      -6.393 -10.171   4.230  1.00  0.00     0.010 A 
ATOM     41  C   UNL     1      -6.167 -10.809   5.463  1.00  0.00    -0.014 A 
BRANCH  41  42
ATOM     42  C   UNL     1      -7.317 -11.277   6.274  1.00  0.00     0.031 A 
ATOM     43  C   UNL     1      -8.034 -12.520   5.821  1.00  0.00     0.074 A 
ATOM     44  C   UNL     1      -7.707 -10.637   7.389  1.00  0.00     0.049 A 
ATOM     45  N   UNL     1      -9.091 -13.103   6.324  1.00  0.00    -0.248 NA
ATOM     46  C   UNL     1      -7.483 -13.195   4.633  1.00  0.00     0.031 C 
ATOM     47  C   UNL     1      -7.067  -9.452   7.957  1.00  0.00     0.029 A 
ATOM     48  N   UNL     1      -8.751 -10.897   8.242  1.00  0.00    -0.354 N 
ATOM     49  C   UNL     1      -9.338 -14.200   5.508  1.00  0.00     0.074 A 
ATOM     50  C   UNL     1      -8.339 -14.190   4.463  1.00  0.00     0.031 C 
ATOM     51  C   UNL     1      -7.738  -9.083   9.063  1.00  0.00     0.029 A 
ATOM     52  C   UNL     1      -8.875  -9.982   9.259  1.00  0.00     0.049 A 
ATOM     53  H   UNL     1      -9.354 -11.668   8.136  1.00  0.00     0.167 HD
ATOM     54  C   UNL     1     -10.310 -15.135   5.621  1.00  0.00     0.037 A 
ATOM     55  C   UNL     1      -9.813  -9.875  10.220  1.00  0.00     0.037 A 
ATOM     56  C   UNL     1     -11.300 -15.145   6.665  1.00  0.00     0.049 A 
ATOM     57  C   UNL     1     -10.932 -10.886  10.276  1.00  0.00     0.074 A 
ATOM     58  C   UNL     1     -12.309 -16.066   6.884  1.00  0.00     0.029 A 
ATOM     59  N   UNL     1     -11.413 -14.182   7.655  1.00  0.00    -0.354 N 
ATOM     60  N   UNL     1     -11.137 -11.941   9.524  1.00  0.00    -0.248 NA
ATOM     61  C   UNL     1     -11.950 -10.691  11.319  1.00  0.00     0.031 C 
ATOM     62  C   UNL     1     -13.072 -15.626   7.969  1.00  0.00     0.029 A 
ATOM     63  C   UNL     1     -12.496 -14.469   8.469  1.00  0.00     0.049 A 
ATOM     64  H   UNL     1     -10.813 -13.409   7.763  1.00  0.00     0.167 HD
ATOM     65  C   UNL     1     -12.277 -12.557  10.030  1.00  0.00     0.074 A 
ATOM     66  C   UNL     1     -12.714 -11.762  11.159  1.00  0.00     0.031 C 
ATOM     67  C   UNL     1     -12.905 -13.680   9.603  1.00  0.00     0.037 A 
BRANCH  54  68
ATOM     68  C   UNL     1     -10.374 -16.204   4.570  1.00  0.00     0.057 A 
ATOM     69  C   UNL     1      -9.414 -17.220   4.479  1.00  0.00     0.134 A 
ATOM     70  C   UNL     1     -11.438 -16.237   3.659  1.00  0.00     0.134 A 
ATOM     71  F   UNL     1      -8.360 -17.237   5.308  1.00  0.00    -0.206 F 
ATOM     72  C   UNL     1      -9.501 -18.220   3.509  1.00  0.00     0.040 A 
ATOM     73  C   UNL     1     -11.552 -17.248   2.705  1.00  0.00     0.040 A 
ATOM     74  F   UNL     1     -12.392 -15.294   3.692  1.00  0.00    -0.206 F 
ATOM     75  C   UNL     1     -10.578 -18.241   2.624  1.00  0.00     0.006 A 
ENDBRANCH  54  68
BRANCH  55  76
ATOM     76  C   UNL     1      -9.761  -8.766  11.211  1.00  0.00     0.057 A 
ATOM     77  C   UNL     1      -9.552  -9.020  12.572  1.00  0.00     0.134 A 
ATOM     78  C   UNL     1      -9.978  -7.436  10.832  1.00  0.00     0.134 A 
ATOM     79  F   UNL     1      -9.364 -10.276  13.004  1.00  0.00    -0.206 F 
ATOM     80  C   UNL     1      -9.592  -7.998  13.523  1.00  0.00     0.040 A 
ATOM     81  C   UNL     1      -9.990  -6.400  11.768  1.00  0.00     0.040 A 
ATOM     82  F   UNL     1     -10.188  -7.123   9.545  1.00  0.00    -0.206 F 
ATOM     83  C   UNL     1      -9.808  -6.682  13.120  1.00  0.00     0.006 A 
ENDBRANCH  55  76
BRANCH  67  84
ATOM     84  C   UNL     1     -14.091 -14.157  10.393  1.00  0.00     0.057 A 
ATOM     85  C   UNL     1     -15.313 -13.473  10.396  1.00  0.00     0.134 A 
ATOM     86  C   UNL     1     -14.017 -15.348  11.131  1.00  0.00     0.134 A 
ATOM     87  F   UNL     1     -15.451 -12.323   9.720  1.00  0.00    -0.206 F 
ATOM     88  C   UNL     1     -16.408 -13.939  11.128  1.00  0.00     0.040 A 
ATOM     89  C   UNL     1     -15.114 -15.840  11.838  1.00  0.00     0.040 A 
ATOM     90  F   UNL     1     -12.882 -16.061  11.161  1.00  0.00    -0.206 F 
ATOM     91  C   UNL     1     -16.312 -15.130  11.845  1.00  0.00     0.006 A 
ENDBRANCH  67  84
ENDBRANCH  41  42
ENDBRANCH  34  36
ENDBRANCH  33  34
ENDBRANCH  32  33
ENDBRANCH  31  32
ENDBRANCH  30  31
ENDBRANCH  29  30
ENDBRANCH  28  29
ENDBRANCH  27  28
ENDBRANCH   1  27
TORSDOF 23
