REMARK SMILES CCCOCCO[C@H]1CC[C@@]([NH3+])(C(=O)OCCOCCOCCOCCOC(=O)c2ccc(-c3c4nc(c(-c5c(F)cccc5F)c5ccc([nH]5)c(-c5c(F)cccc5F)c5nc(c(-c6c(F)cccc6F)c6ccc3[nH]6)C=C5)C=C4)cc2)C1
REMARK SMILES IDX 19 1 18 2 17 3 16 4 15 5 13 6 14 7 11 8 8 9 9 10 84 11 10 12
REMARK SMILES IDX 7 13 6 14 5 15 4 16 3 17 2 18 1 19 12 20 20 24 21 25 22 26
REMARK SMILES IDX 23 27 24 28 25 29 26 30 27 31 28 32 29 33 30 34 31 35 83 36
REMARK SMILES IDX 32 37 82 38 33 39 34 40 35 41 76 42 36 43 81 44 75 45 77 46
REMARK SMILES IDX 37 47 80 48 74 49 73 50 38 52 64 53 47 54 63 55 48 56 51 57
REMARK SMILES IDX 62 58 78 59 49 60 50 61 61 63 79 64 52 65 39 66 40 67 45 68
REMARK SMILES IDX 41 69 42 70 44 71 46 72 43 73 65 74 66 75 71 76 67 77 68 78
REMARK SMILES IDX 70 79 72 80 69 81 53 82 54 83 59 84 55 85 56 86 58 87 60 88
REMARK SMILES IDX 57 89
REMARK H PARENT 12 21 12 22 12 23 77 51 51 62
REMARK Flexibility Score: inf
ROOT
ATOM      1  C   UNL     1      -0.552  -2.415   5.225  1.00  0.00     0.188 C 
ENDROOT
BRANCH   1   2
ATOM      2  O   UNL     1      -1.119  -3.711   5.340  1.00  0.00    -0.376 OA
BRANCH   2   3
ATOM      3  C   UNL     1      -0.191  -4.755   5.613  1.00  0.00     0.202 C 
BRANCH   3   4
ATOM      4  C   UNL     1       0.824  -5.134   4.502  1.00  0.00     0.261 C 
BRANCH   4   5
ATOM      5  O   UNL     1       1.978  -4.268   4.197  1.00  0.00    -0.459 OA
BRANCH   5   6
ATOM      6  C   UNL     1       2.058  -3.864   2.888  1.00  0.00     0.368 C 
ATOM      7  O   UNL     1       1.061  -3.904   2.159  1.00  0.00    -0.245 OA
BRANCH   6   8
ATOM      8  C   UNL     1       3.510  -3.625   2.222  1.00  0.00     0.195 C 
ATOM      9  C   UNL     1       3.805  -1.388   1.109  1.00  0.00     0.125 C 
ATOM     10  C   UNL     1       5.025  -1.614   2.003  1.00  0.00     0.039 C 
ATOM     11  C   UNL     1       3.268  -2.809   0.911  1.00  0.00     0.113 C 
ATOM     12  C   UNL     1       4.754  -2.916   2.813  1.00  0.00     0.084 C 
BRANCH   9  13
ATOM     13  O   UNL     1       3.003  -0.432   1.783  1.00  0.00    -0.376 OA
BRANCH  13  14
ATOM     14  C   UNL     1       1.679  -0.149   1.349  1.00  0.00     0.189 C 
BRANCH  14  15
ATOM     15  C   UNL     1       0.758  -0.405   2.544  1.00  0.00     0.188 C 
BRANCH  15  16
ATOM     16  O   UNL     1       0.774   0.503   3.655  1.00  0.00    -0.379 OA
BRANCH  16  17
ATOM     17  C   UNL     1       1.990   1.109   4.080  1.00  0.00     0.160 C 
BRANCH  17  18
ATOM     18  C   UNL     1       2.868   0.344   5.080  1.00  0.00     0.025 C 
ATOM     19  C   UNL     1       3.092  -1.094   4.740  1.00  0.00     0.006 C 
ENDBRANCH  17  18
ENDBRANCH  16  17
ENDBRANCH  15  16
ENDBRANCH  14  15
ENDBRANCH  13  14
ENDBRANCH   9  13
BRANCH   8  20
ATOM     20  N   UNL     1       3.991  -5.003   1.905  1.00  0.00    -0.343 N 
ATOM     21  H   UNL     1       4.143  -5.519   2.772  1.00  0.00     0.345 HD
ATOM     22  H   UNL     1       4.866  -4.947   1.385  1.00  0.00     0.345 HD
ATOM     23  H   UNL     1       3.291  -5.485   1.341  1.00  0.00     0.345 HD
ENDBRANCH   8  20
ENDBRANCH   6   8
ENDBRANCH   5   6
ENDBRANCH   4   5
ENDBRANCH   3   4
ENDBRANCH   2   3
ENDBRANCH   1   2
BRANCH   1  24
ATOM     24  C   UNL     1       0.557  -2.084   6.234  1.00  0.00     0.188 C 
BRANCH  24  25
ATOM     25  O   UNL     1       0.303  -2.197   7.625  1.00  0.00    -0.377 OA
BRANCH  25  26
ATOM     26  C   UNL     1      -0.987  -1.795   8.035  1.00  0.00     0.188 C 
BRANCH  26  27
ATOM     27  C   UNL     1      -1.421  -0.346   7.741  1.00  0.00     0.188 C 
BRANCH  27  28
ATOM     28  O   UNL     1      -0.665   0.321   6.736  1.00  0.00    -0.376 OA
BRANCH  28  29
ATOM     29  C   UNL     1      -0.671   1.743   6.852  1.00  0.00     0.202 C 
BRANCH  29  30
ATOM     30  C   UNL     1       0.600   2.291   7.526  1.00  0.00     0.261 C 
BRANCH  30  31
ATOM     31  O   UNL     1       1.061   1.493   8.625  1.00  0.00    -0.460 OA
BRANCH  31  32
ATOM     32  C   UNL     1       0.370   1.657   9.776  1.00  0.00     0.338 C 
ATOM     33  O   UNL     1      -0.501   2.467   9.998  1.00  0.00    -0.246 OA
BRANCH  32  34
ATOM     34  C   UNL     1       0.673   0.507  10.652  1.00  0.00     0.060 A 
ATOM     35  C   UNL     1      -0.419  -0.230  11.124  1.00  0.00     0.016 A 
ATOM     36  C   UNL     1       1.978   0.159  11.010  1.00  0.00     0.016 A 
ATOM     37  C   UNL     1      -0.217  -1.323  11.952  1.00  0.00     0.010 A 
ATOM     38  C   UNL     1       2.180  -0.902  11.898  1.00  0.00     0.010 A 
ATOM     39  C   UNL     1       1.076  -1.618  12.395  1.00  0.00    -0.014 A 
BRANCH  39  40
ATOM     40  C   UNL     1       1.179  -2.436  13.620  1.00  0.00     0.031 A 
ATOM     41  C   UNL     1       1.091  -1.705  14.931  1.00  0.00     0.074 A 
ATOM     42  C   UNL     1       1.208  -3.777  13.572  1.00  0.00     0.049 A 
ATOM     43  N   UNL     1       1.049  -2.177  16.148  1.00  0.00    -0.248 NA
ATOM     44  C   UNL     1       1.021  -0.234  14.853  1.00  0.00     0.031 C 
ATOM     45  C   UNL     1       1.210  -4.583  12.354  1.00  0.00     0.029 A 
ATOM     46  N   UNL     1       1.219  -4.696  14.589  1.00  0.00    -0.354 N 
ATOM     47  C   UNL     1       0.951  -1.064  16.974  1.00  0.00     0.074 A 
ATOM     48  C   UNL     1       0.965   0.106  16.128  1.00  0.00     0.031 C 
ATOM     49  C   UNL     1       1.223  -5.885  12.696  1.00  0.00     0.029 A 
ATOM     50  C   UNL     1       1.253  -5.997  14.154  1.00  0.00     0.049 A 
ATOM     51  H   UNL     1       1.204  -4.446  15.541  1.00  0.00     0.167 HD
ATOM     52  C   UNL     1       0.852  -1.024  18.322  1.00  0.00     0.037 A 
ATOM     53  C   UNL     1       1.313  -7.140  14.864  1.00  0.00     0.037 A 
ATOM     54  C   UNL     1       0.851  -2.195  19.153  1.00  0.00     0.049 A 
ATOM     55  C   UNL     1       1.307  -7.062  16.370  1.00  0.00     0.074 A 
ATOM     56  C   UNL     1       0.753  -2.275  20.529  1.00  0.00     0.029 A 
ATOM     57  N   UNL     1       0.973  -3.494  18.680  1.00  0.00    -0.354 N 
ATOM     58  N   UNL     1       1.192  -6.011  17.148  1.00  0.00    -0.248 NA
ATOM     59  C   UNL     1       1.437  -8.332  17.098  1.00  0.00     0.031 C 
ATOM     60  C   UNL     1       0.888  -3.617  20.894  1.00  0.00     0.029 A 
ATOM     61  C   UNL     1       0.994  -4.381  19.741  1.00  0.00     0.049 A 
ATOM     62  H   UNL     1       1.036  -3.746  17.730  1.00  0.00     0.167 HD
ATOM     63  C   UNL     1       1.197  -6.495  18.451  1.00  0.00     0.074 A 
ATOM     64  C   UNL     1       1.317  -7.935  18.357  1.00  0.00     0.031 C 
ATOM     65  C   UNL     1       1.106  -5.813  19.621  1.00  0.00     0.037 A 
BRANCH  52  66
ATOM     66  C   UNL     1       0.805   0.330  18.968  1.00  0.00     0.057 A 
ATOM     67  C   UNL     1      -0.298   1.185  18.843  1.00  0.00     0.134 A 
ATOM     68  C   UNL     1       1.891   0.785  19.726  1.00  0.00     0.134 A 
ATOM     69  F   UNL     1      -1.362   0.821  18.110  1.00  0.00    -0.206 F 
ATOM     70  C   UNL     1      -0.307   2.454  19.425  1.00  0.00     0.040 A 
ATOM     71  C   UNL     1       1.881   2.038  20.339  1.00  0.00     0.040 A 
ATOM     72  F   UNL     1       2.982   0.020  19.883  1.00  0.00    -0.206 F 
ATOM     73  C   UNL     1       0.782   2.881  20.182  1.00  0.00     0.006 A 
ENDBRANCH  52  66
BRANCH  53  74
ATOM     74  C   UNL     1       1.393  -8.451  14.170  1.00  0.00     0.057 A 
ATOM     75  C   UNL     1       0.359  -9.390  14.264  1.00  0.00     0.134 A 
ATOM     76  C   UNL     1       2.521  -8.812  13.423  1.00  0.00     0.134 A 
ATOM     77  F   UNL     1      -0.739  -9.117  14.985  1.00  0.00    -0.206 F 
ATOM     78  C   UNL     1       0.451 -10.645  13.657  1.00  0.00     0.040 A 
ATOM     79  C   UNL     1       2.615 -10.052  12.787  1.00  0.00     0.040 A 
ATOM     80  F   UNL     1       3.550  -7.962  13.296  1.00  0.00    -0.206 F 
ATOM     81  C   UNL     1       1.581 -10.976  12.912  1.00  0.00     0.006 A 
ENDBRANCH  53  74
BRANCH  65  82
ATOM     82  C   UNL     1       1.086  -6.617  20.890  1.00  0.00     0.057 A 
ATOM     83  C   UNL     1       2.218  -7.290  21.365  1.00  0.00     0.134 A 
ATOM     84  C   UNL     1      -0.075  -6.671  21.674  1.00  0.00     0.134 A 
ATOM     85  F   UNL     1       3.359  -7.284  20.659  1.00  0.00    -0.206 F 
ATOM     86  C   UNL     1       2.189  -8.012  22.559  1.00  0.00     0.040 A 
ATOM     87  C   UNL     1      -0.106  -7.360  22.887  1.00  0.00     0.040 A 
ATOM     88  F   UNL     1      -1.191  -6.036  21.286  1.00  0.00    -0.206 F 
ATOM     89  C   UNL     1       1.027  -8.041  23.328  1.00  0.00     0.006 A 
ENDBRANCH  65  82
ENDBRANCH  39  40
ENDBRANCH  32  34
ENDBRANCH  31  32
ENDBRANCH  30  31
ENDBRANCH  29  30
ENDBRANCH  28  29
ENDBRANCH  27  28
ENDBRANCH  26  27
ENDBRANCH  25  26
ENDBRANCH  24  25
ENDBRANCH   1  24
TORSDOF 27
