REMARK SMILES Cc1c(Cl)cc2c(c1C)O[C@H](C(F)(F)F)C(C(=O)OCCOCCOCCOCCOC(=O)c1ccc(-c3c4nc(c(-c5c(F)cccc5F)c5ccc([nH]5)c(-c5c(F)cccc5F)c5nc(c(-c6c(F)cccc6F)c6ccc3[nH]6)C=C5)C=C4)cc1)=C2
REMARK SMILES IDX 26 1 25 2 24 3 23 4 22 5 21 6 20 7 19 8 17 9 18 10 16 11
REMARK SMILES IDX 1 12 2 13 3 14 8 15 4 16 5 17 7 18 9 19 6 20 10 21 88 22
REMARK SMILES IDX 11 23 12 24 13 25 14 26 15 27 27 28 28 29 29 30 30 31 31 32
REMARK SMILES IDX 32 33 33 34 34 35 35 36 87 37 36 38 86 39 37 40 38 41 39 42
REMARK SMILES IDX 80 43 40 44 85 45 79 46 81 47 41 48 84 49 78 50 77 51 42 53
REMARK SMILES IDX 68 54 51 55 67 56 52 57 55 58 66 59 82 60 53 61 54 62 65 64
REMARK SMILES IDX 83 65 56 66 43 67 44 68 49 69 45 70 46 71 48 72 50 73 47 74
REMARK SMILES IDX 69 75 70 76 75 77 71 78 72 79 74 80 76 81 73 82 57 83 58 84
REMARK SMILES IDX 63 85 59 86 60 87 62 88 64 89 61 90
REMARK H PARENT 81 52 55 63
REMARK Flexibility Score: inf
ROOT
ATOM      1  C   UNL     1      -0.576   7.088   7.498  1.00  0.00     0.188 C 
ENDROOT
BRANCH   1   2
ATOM      2  O   UNL     1      -0.891   6.318   6.335  1.00  0.00    -0.377 OA
BRANCH   2   3
ATOM      3  C   UNL     1       0.024   6.343   5.250  1.00  0.00     0.188 C 
BRANCH   3   4
ATOM      4  C   UNL     1      -0.088   7.615   4.386  1.00  0.00     0.188 C 
BRANCH   4   5
ATOM      5  O   UNL     1      -0.777   8.667   5.045  1.00  0.00    -0.376 OA
BRANCH   5   6
ATOM      6  C   UNL     1      -2.156   8.882   4.796  1.00  0.00     0.202 C 
BRANCH   6   7
ATOM      7  C   UNL     1      -3.185   7.738   4.843  1.00  0.00     0.261 C 
BRANCH   7   8
ATOM      8  O   UNL     1      -2.773   6.474   4.315  1.00  0.00    -0.460 OA
BRANCH   8   9
ATOM      9  C   UNL     1      -2.707   6.345   2.978  1.00  0.00     0.338 C 
ATOM     10  O   UNL     1      -2.998   7.186   2.147  1.00  0.00    -0.246 OA
BRANCH   9  11
ATOM     11  C   UNL     1      -2.050   5.051   2.686  1.00  0.00     0.087 C 
ATOM     12  C   UNL     1       1.152   0.021   0.047  1.00  0.00     0.046 C 
ATOM     13  C   UNL     1       0.645   1.319   0.625  1.00  0.00    -0.026 A 
ATOM     14  C   UNL     1       1.119   2.537   0.093  1.00  0.00     0.045 A 
ATOM     15  C   UNL     1      -0.361   1.364   1.624  1.00  0.00    -0.004 A 
ATOM     16  Cl  UNL     1       2.328   2.590  -1.146  1.00  0.00    -0.084 Cl
ATOM     17  C   UNL     1       0.600   3.763   0.513  1.00  0.00     0.032 A 
ATOM     18  C   UNL     1      -0.853   2.618   2.058  1.00  0.00     0.131 A 
ATOM     19  C   UNL     1      -0.946   0.125   2.262  1.00  0.00     0.049 C 
ATOM     20  C   UNL     1      -0.413   3.804   1.468  1.00  0.00     0.019 A 
ATOM     21  O   UNL     1      -1.786   2.598   3.058  1.00  0.00    -0.475 OA
ATOM     22  C   UNL     1      -1.064   5.064   1.781  1.00  0.00     0.027 C 
ATOM     23  C   UNL     1      -2.450   3.825   3.463  1.00  0.00     0.316 C 
BRANCH  23  24
ATOM     24  C   UNL     1      -3.963   3.572   3.421  1.00  0.00     0.430 C 
ATOM     25  F   UNL     1      -4.289   2.426   4.066  1.00  0.00    -0.167 F 
ATOM     26  F   UNL     1      -4.665   4.564   4.017  1.00  0.00    -0.167 F 
ATOM     27  F   UNL     1      -4.417   3.465   2.151  1.00  0.00    -0.167 F 
ENDBRANCH  23  24
ENDBRANCH   9  11
ENDBRANCH   8   9
ENDBRANCH   7   8
ENDBRANCH   6   7
ENDBRANCH   5   6
ENDBRANCH   4   5
ENDBRANCH   3   4
ENDBRANCH   2   3
ENDBRANCH   1   2
BRANCH   1  28
ATOM     28  C   UNL     1       0.483   8.220   7.485  1.00  0.00     0.188 C 
BRANCH  28  29
ATOM     29  O   UNL     1       1.630   7.942   6.692  1.00  0.00    -0.376 OA
BRANCH  29  30
ATOM     30  C   UNL     1       2.844   7.650   7.363  1.00  0.00     0.202 C 
BRANCH  30  31
ATOM     31  C   UNL     1       2.894   6.292   8.074  1.00  0.00     0.261 C 
BRANCH  31  32
ATOM     32  O   UNL     1       1.884   6.078   9.072  1.00  0.00    -0.460 OA
BRANCH  32  33
ATOM     33  C   UNL     1       1.886   6.896  10.145  1.00  0.00     0.338 C 
ATOM     34  O   UNL     1       2.679   7.787  10.396  1.00  0.00    -0.246 OA
BRANCH  33  35
ATOM     35  C   UNL     1       0.631   6.654  10.885  1.00  0.00     0.060 A 
ATOM     36  C   UNL     1      -0.276   7.709  11.054  1.00  0.00     0.016 A 
ATOM     37  C   UNL     1       0.344   5.384  11.390  1.00  0.00     0.016 A 
ATOM     38  C   UNL     1      -1.463   7.500  11.755  1.00  0.00     0.010 A 
ATOM     39  C   UNL     1      -0.832   5.183  12.114  1.00  0.00     0.010 A 
ATOM     40  C   UNL     1      -1.724   6.248  12.327  1.00  0.00    -0.014 A 
BRANCH  40  41
ATOM     41  C   UNL     1      -2.809   6.113  13.327  1.00  0.00     0.031 A 
ATOM     42  C   UNL     1      -2.450   6.252  14.781  1.00  0.00     0.074 A 
ATOM     43  C   UNL     1      -4.086   5.905  12.961  1.00  0.00     0.049 A 
ATOM     44  N   UNL     1      -3.209   6.146  15.839  1.00  0.00    -0.248 NA
ATOM     45  C   UNL     1      -1.039   6.556  15.079  1.00  0.00     0.031 C 
ATOM     46  C   UNL     1      -4.568   5.807  11.586  1.00  0.00     0.029 A 
ATOM     47  N   UNL     1      -5.214   5.742  13.728  1.00  0.00    -0.354 N 
ATOM     48  C   UNL     1      -2.374   6.377  16.924  1.00  0.00     0.074 A 
ATOM     49  C   UNL     1      -1.042   6.589  16.402  1.00  0.00     0.031 C 
ATOM     50  C   UNL     1      -5.896   5.597  11.606  1.00  0.00     0.029 A 
ATOM     51  C   UNL     1      -6.352   5.515  12.993  1.00  0.00     0.049 A 
ATOM     52  H   UNL     1      -5.207   5.782  14.711  1.00  0.00     0.167 HD
ATOM     53  C   UNL     1      -2.691   6.425  18.238  1.00  0.00     0.037 A 
ATOM     54  C   UNL     1      -7.611   5.256  13.399  1.00  0.00     0.037 A 
ATOM     55  C   UNL     1      -4.013   6.206  18.757  1.00  0.00     0.049 A 
ATOM     56  C   UNL     1      -7.919   5.209  14.875  1.00  0.00     0.074 A 
ATOM     57  C   UNL     1      -4.434   6.229  20.075  1.00  0.00     0.029 A 
ATOM     58  N   UNL     1      -5.127   5.918  17.984  1.00  0.00    -0.354 N 
ATOM     59  N   UNL     1      -7.126   5.440  15.894  1.00  0.00    -0.248 NA
ATOM     60  C   UNL     1      -9.296   4.862  15.258  1.00  0.00     0.031 C 
ATOM     61  C   UNL     1      -5.792   5.903  20.104  1.00  0.00     0.029 A 
ATOM     62  C   UNL     1      -6.230   5.734  18.800  1.00  0.00     0.049 A 
ATOM     63  H   UNL     1      -5.133   5.855  17.002  1.00  0.00     0.167 HD
ATOM     64  C   UNL     1      -7.912   5.294  17.032  1.00  0.00     0.074 A 
ATOM     65  C   UNL     1      -9.247   4.967  16.579  1.00  0.00     0.031 C 
ATOM     66  C   UNL     1      -7.557   5.419  18.335  1.00  0.00     0.037 A 
BRANCH  53  67
ATOM     67  C   UNL     1      -1.587   6.716  19.210  1.00  0.00     0.057 A 
ATOM     68  C   UNL     1      -1.018   7.992  19.317  1.00  0.00     0.134 A 
ATOM     69  C   UNL     1      -1.125   5.725  20.085  1.00  0.00     0.134 A 
ATOM     70  F   UNL     1      -1.403   8.979  18.495  1.00  0.00    -0.206 F 
ATOM     71  C   UNL     1      -0.023   8.269  20.255  1.00  0.00     0.040 A 
ATOM     72  C   UNL     1      -0.149   5.997  21.045  1.00  0.00     0.040 A 
ATOM     73  F   UNL     1      -1.628   4.482  20.034  1.00  0.00    -0.206 F 
ATOM     74  C   UNL     1       0.406   7.272  21.130  1.00  0.00     0.006 A 
ENDBRANCH  53  67
BRANCH  54  75
ATOM     75  C   UNL     1      -8.683   5.021  12.397  1.00  0.00     0.057 A 
ATOM     76  C   UNL     1      -9.733   5.932  12.233  1.00  0.00     0.134 A 
ATOM     77  C   UNL     1      -8.691   3.878  11.588  1.00  0.00     0.134 A 
ATOM     78  F   UNL     1      -9.797   7.032  12.997  1.00  0.00    -0.206 F 
ATOM     79  C   UNL     1     -10.756   5.712  11.309  1.00  0.00     0.040 A 
ATOM     80  C   UNL     1      -9.693   3.658  10.641  1.00  0.00     0.040 A 
ATOM     81  F   UNL     1      -7.717   2.963  11.698  1.00  0.00    -0.206 F 
ATOM     82  C   UNL     1     -10.733   4.574  10.503  1.00  0.00     0.006 A 
ENDBRANCH  54  75
BRANCH  66  83
ATOM     83  C   UNL     1      -8.623   5.227  19.375  1.00  0.00     0.057 A 
ATOM     84  C   UNL     1      -9.141   3.962  19.676  1.00  0.00     0.134 A 
ATOM     85  C   UNL     1      -9.068   6.308  20.149  1.00  0.00     0.134 A 
ATOM     86  F   UNL     1      -8.763   2.887  18.968  1.00  0.00    -0.206 F 
ATOM     87  C   UNL     1     -10.071   3.780  20.702  1.00  0.00     0.040 A 
ATOM     88  C   UNL     1      -9.975   6.134  21.195  1.00  0.00     0.040 A 
ATOM     89  F   UNL     1      -8.601   7.546  19.923  1.00  0.00    -0.206 F 
ATOM     90  C   UNL     1     -10.480   4.866  21.472  1.00  0.00     0.006 A 
ENDBRANCH  66  83
ENDBRANCH  40  41
ENDBRANCH  33  35
ENDBRANCH  32  33
ENDBRANCH  31  32
ENDBRANCH  30  31
ENDBRANCH  29  30
ENDBRANCH  28  29
ENDBRANCH   1  28
TORSDOF 21
