REMARK SMILES Cc1ccc(F)c(-c2ncccc2C(=O)OCCOCCOCCOCCOC(=O)c2ccc(-c3c4nc(c(-c5c(F)cccc5F)c5ccc([nH]5)c(-c5c(F)cccc5F)c5nc(c(-c6c(F)cccc6F)c6ccc3[nH]6)C=C5)C=C4)cc2)c1
REMARK SMILES IDX 23 1 22 2 21 3 20 4 19 5 18 6 17 7 16 8 14 9 15 10 13 11
REMARK SMILES IDX 8 12 9 13 10 14 12 15 11 16 7 17 1 18 2 19 3 20 85 21 4 22
REMARK SMILES IDX 5 23 6 24 24 25 25 26 26 27 27 28 28 29 29 30 30 31 31 32
REMARK SMILES IDX 32 33 84 34 33 35 83 36 34 37 35 38 36 39 77 40 37 41 82 42
REMARK SMILES IDX 76 43 78 44 38 45 81 46 75 47 74 48 39 50 65 51 48 52 64 53
REMARK SMILES IDX 49 54 52 55 63 56 79 57 50 58 51 59 62 61 80 62 53 63 40 64
REMARK SMILES IDX 41 65 46 66 42 67 43 68 45 69 47 70 44 71 66 72 67 73 72 74
REMARK SMILES IDX 68 75 69 76 71 77 73 78 70 79 54 80 55 81 60 82 56 83 57 84
REMARK SMILES IDX 59 85 61 86 58 87
REMARK H PARENT 78 49 52 60
REMARK Flexibility Score: inf
ROOT
ATOM      1  C   UNL     1       3.110  -5.064   2.895  1.00  0.00     0.188 C 
ENDROOT
BRANCH   1   2
ATOM      2  O   UNL     1       2.092  -5.106   1.908  1.00  0.00    -0.377 OA
BRANCH   2   3
ATOM      3  C   UNL     1       1.542  -3.879   1.442  1.00  0.00     0.188 C 
BRANCH   3   4
ATOM      4  C   UNL     1       1.741  -2.554   2.215  1.00  0.00     0.188 C 
BRANCH   4   5
ATOM      5  O   UNL     1       2.007  -2.720   3.599  1.00  0.00    -0.376 OA
BRANCH   5   6
ATOM      6  C   UNL     1       1.032  -2.195   4.481  1.00  0.00     0.202 C 
BRANCH   6   7
ATOM      7  C   UNL     1      -0.238  -3.046   4.567  1.00  0.00     0.261 C 
BRANCH   7   8
ATOM      8  O   UNL     1      -0.861  -3.352   3.306  1.00  0.00    -0.460 OA
BRANCH   8   9
ATOM      9  C   UNL     1      -1.494  -2.353   2.639  1.00  0.00     0.340 C 
ATOM     10  O   UNL     1      -1.599  -1.202   3.015  1.00  0.00    -0.246 OA
BRANCH   9  11
ATOM     11  C   UNL     1      -1.933  -2.898   1.326  1.00  0.00     0.086 A 
ATOM     12  C   UNL     1      -1.705  -2.232   0.112  1.00  0.00     0.088 A 
ATOM     13  N   UNL     1      -2.035  -2.792  -1.088  1.00  0.00    -0.255 NA
ATOM     14  C   UNL     1      -2.605  -4.018  -1.085  1.00  0.00     0.112 A 
ATOM     15  C   UNL     1      -2.500  -4.182   1.284  1.00  0.00     0.019 A 
ATOM     16  C   UNL     1      -2.842  -4.751   0.063  1.00  0.00     0.021 A 
BRANCH  12  17
ATOM     17  C   UNL     1      -0.958  -0.977  -0.023  1.00  0.00     0.037 A 
ATOM     18  C   UNL     1       2.676   0.116  -0.524  1.00  0.00     0.044 C 
ATOM     19  C   UNL     1       1.185   0.176  -0.347  1.00  0.00    -0.050 A 
ATOM     20  C   UNL     1       0.559   1.397  -0.083  1.00  0.00     0.006 A 
ATOM     21  C   UNL     1       0.407  -0.991  -0.376  1.00  0.00     0.016 A 
ATOM     22  C   UNL     1      -0.812   1.442   0.171  1.00  0.00     0.040 A 
ATOM     23  C   UNL     1      -1.554   0.262   0.213  1.00  0.00     0.132 A 
ATOM     24  F   UNL     1      -2.863   0.335   0.498  1.00  0.00    -0.206 F 
ENDBRANCH  12  17
ENDBRANCH   9  11
ENDBRANCH   8   9
ENDBRANCH   7   8
ENDBRANCH   6   7
ENDBRANCH   5   6
ENDBRANCH   4   5
ENDBRANCH   3   4
ENDBRANCH   2   3
ENDBRANCH   1   2
BRANCH   1  25
ATOM     25  C   UNL     1       4.330  -4.169   2.595  1.00  0.00     0.188 C 
BRANCH  25  26
ATOM     26  O   UNL     1       4.250  -3.499   1.344  1.00  0.00    -0.376 OA
BRANCH  26  27
ATOM     27  C   UNL     1       5.001  -4.019   0.261  1.00  0.00     0.202 C 
BRANCH  27  28
ATOM     28  C   UNL     1       4.681  -5.441  -0.222  1.00  0.00     0.261 C 
BRANCH  28  29
ATOM     29  O   UNL     1       4.701  -6.476   0.772  1.00  0.00    -0.460 OA
BRANCH  29  30
ATOM     30  C   UNL     1       5.865  -6.732   1.403  1.00  0.00     0.338 C 
ATOM     31  O   UNL     1       6.944  -6.199   1.217  1.00  0.00    -0.246 OA
BRANCH  30  32
ATOM     32  C   UNL     1       5.551  -7.646   2.523  1.00  0.00     0.060 A 
ATOM     33  C   UNL     1       5.820  -7.237   3.837  1.00  0.00     0.016 A 
ATOM     34  C   UNL     1       4.931  -8.873   2.274  1.00  0.00     0.016 A 
ATOM     35  C   UNL     1       5.488  -8.069   4.907  1.00  0.00     0.010 A 
ATOM     36  C   UNL     1       4.629  -9.718   3.342  1.00  0.00     0.010 A 
ATOM     37  C   UNL     1       4.936  -9.332   4.659  1.00  0.00    -0.014 A 
BRANCH  37  38
ATOM     38  C   UNL     1       4.905 -10.341   5.742  1.00  0.00     0.031 A 
ATOM     39  C   UNL     1       6.054 -11.307   5.827  1.00  0.00     0.074 A 
ATOM     40  C   UNL     1       3.900 -10.395   6.633  1.00  0.00     0.049 A 
ATOM     41  N   UNL     1       6.239 -12.313   6.641  1.00  0.00    -0.248 NA
ATOM     42  C   UNL     1       7.143 -11.109   4.855  1.00  0.00     0.031 C 
ATOM     43  C   UNL     1       2.756  -9.487   6.679  1.00  0.00     0.029 A 
ATOM     44  N   UNL     1       3.682 -11.267   7.670  1.00  0.00    -0.354 N 
ATOM     45  C   UNL     1       7.459 -12.868   6.276  1.00  0.00     0.074 A 
ATOM     46  C   UNL     1       7.954 -12.112   5.148  1.00  0.00     0.031 C 
ATOM     47  C   UNL     1       1.947  -9.859   7.687  1.00  0.00     0.029 A 
ATOM     48  C   UNL     1       2.500 -11.048   8.334  1.00  0.00     0.049 A 
ATOM     49  H   UNL     1       4.314 -11.982   7.915  1.00  0.00     0.167 HD
ATOM     50  C   UNL     1       8.113 -13.911   6.837  1.00  0.00     0.037 A 
ATOM     51  C   UNL     1       1.926 -11.747   9.333  1.00  0.00     0.037 A 
ATOM     52  C   UNL     1       7.611 -14.667   7.952  1.00  0.00     0.049 A 
ATOM     53  C   UNL     1       2.635 -12.957   9.887  1.00  0.00     0.074 A 
ATOM     54  C   UNL     1       8.197 -15.740   8.599  1.00  0.00     0.029 A 
ATOM     55  N   UNL     1       6.396 -14.433   8.579  1.00  0.00    -0.354 N 
ATOM     56  N   UNL     1       3.798 -13.464   9.553  1.00  0.00    -0.248 NA
ATOM     57  C   UNL     1       1.952 -13.691  10.963  1.00  0.00     0.031 C 
ATOM     58  C   UNL     1       7.311 -16.190   9.583  1.00  0.00     0.029 A 
ATOM     59  C   UNL     1       6.203 -15.357   9.591  1.00  0.00     0.049 A 
ATOM     60  H   UNL     1       5.765 -13.717   8.339  1.00  0.00     0.167 HD
ATOM     61  C   UNL     1       4.002 -14.548  10.400  1.00  0.00     0.074 A 
ATOM     62  C   UNL     1       2.846 -14.620  11.269  1.00  0.00     0.031 C 
ATOM     63  C   UNL     1       5.053 -15.403  10.458  1.00  0.00     0.037 A 
BRANCH  50  64
ATOM     64  C   UNL     1       9.425 -14.309   6.229  1.00  0.00     0.057 A 
ATOM     65  C   UNL     1      10.571 -13.511   6.347  1.00  0.00     0.134 A 
ATOM     66  C   UNL     1       9.549 -15.517   5.531  1.00  0.00     0.134 A 
ATOM     67  F   UNL     1      10.515 -12.332   6.985  1.00  0.00    -0.206 F 
ATOM     68  C   UNL     1      11.786 -13.889   5.773  1.00  0.00     0.040 A 
ATOM     69  C   UNL     1      10.766 -15.920   4.978  1.00  0.00     0.040 A 
ATOM     70  F   UNL     1       8.492 -16.329   5.380  1.00  0.00    -0.206 F 
ATOM     71  C   UNL     1      11.887 -15.101   5.093  1.00  0.00     0.006 A 
ENDBRANCH  50  64
BRANCH  51  72
ATOM     72  C   UNL     1       0.604 -11.336   9.872  1.00  0.00     0.057 A 
ATOM     73  C   UNL     1       0.470 -10.855  11.180  1.00  0.00     0.134 A 
ATOM     74  C   UNL     1      -0.564 -11.449   9.107  1.00  0.00     0.134 A 
ATOM     75  F   UNL     1       1.546 -10.747  11.973  1.00  0.00    -0.206 F 
ATOM     76  C   UNL     1      -0.777 -10.524  11.716  1.00  0.00     0.040 A 
ATOM     77  C   UNL     1      -1.813 -11.095   9.620  1.00  0.00     0.040 A 
ATOM     78  F   UNL     1      -0.506 -11.904   7.847  1.00  0.00    -0.206 F 
ATOM     79  C   UNL     1      -1.923 -10.640  10.932  1.00  0.00     0.006 A 
ENDBRANCH  51  72
BRANCH  63  80
ATOM     80  C   UNL     1       5.033 -16.455  11.531  1.00  0.00     0.057 A 
ATOM     81  C   UNL     1       4.162 -17.550  11.486  1.00  0.00     0.134 A 
ATOM     82  C   UNL     1       5.938 -16.393  12.599  1.00  0.00     0.134 A 
ATOM     83  F   UNL     1       3.264 -17.666  10.496  1.00  0.00    -0.206 F 
ATOM     84  C   UNL     1       4.173 -18.532  12.479  1.00  0.00     0.040 A 
ATOM     85  C   UNL     1       5.980 -17.383  13.581  1.00  0.00     0.040 A 
ATOM     86  F   UNL     1       6.809 -15.377  12.696  1.00  0.00    -0.206 F 
ATOM     87  C   UNL     1       5.090 -18.453  13.526  1.00  0.00     0.006 A 
ENDBRANCH  63  80
ENDBRANCH  37  38
ENDBRANCH  30  32
ENDBRANCH  29  30
ENDBRANCH  28  29
ENDBRANCH  27  28
ENDBRANCH  26  27
ENDBRANCH  25  26
ENDBRANCH   1  25
TORSDOF 21
