REMARK SMILES Cc1nsc(NC(=O)c2ccc(N)cc2)c1C(=O)OCCOCCOCCOCCOC(=O)c1ccc(-c2c3nc(c(-c4c(F)cccc4F)c4ccc([nH]4)c(-c4c(F)cccc4F)c4nc(c(-c5c(F)cccc5F)c5ccc2[nH]5)C=C4)C=C3)cc1
REMARK SMILES IDX 24 1 23 2 22 3 21 4 20 5 19 6 17 7 18 8 16 9 1 10 2 11 3 12
REMARK SMILES IDX 4 13 5 14 6 15 7 16 8 18 9 19 10 20 15 21 11 22 14 23 12 24
REMARK SMILES IDX 13 25 25 28 26 29 27 30 28 31 29 32 30 33 31 34 32 35 33 36
REMARK SMILES IDX 34 37 35 38 87 39 36 40 86 41 37 42 38 43 39 44 80 45 40 46
REMARK SMILES IDX 85 47 79 48 81 49 41 50 84 51 78 52 77 53 42 55 68 56 51 57
REMARK SMILES IDX 67 58 52 59 55 60 66 61 82 62 53 63 54 64 65 66 83 67 56 68
REMARK SMILES IDX 43 69 44 70 49 71 45 72 46 73 48 74 50 75 47 76 69 77 70 78
REMARK SMILES IDX 75 79 71 80 72 81 74 82 76 83 73 84 57 85 58 86 63 87 59 88
REMARK SMILES IDX 60 89 62 90 64 91 61 92
REMARK H PARENT 6 17 13 26 13 27 81 54 55 65
REMARK Flexibility Score: inf
ROOT
ATOM      1  C   UNL     1       2.405   2.852  -2.295  1.00  0.00     0.188 C 
ENDROOT
BRANCH   1   2
ATOM      2  C   UNL     1       1.326   3.829  -2.804  1.00  0.00     0.188 C 
BRANCH   2   3
ATOM      3  O   UNL     1       1.182   5.079  -2.163  1.00  0.00    -0.376 OA
BRANCH   3   4
ATOM      4  C   UNL     1       0.606   5.255  -0.885  1.00  0.00     0.202 C 
BRANCH   4   5
ATOM      5  C   UNL     1      -0.067   4.178  -0.015  1.00  0.00     0.261 C 
BRANCH   5   6
ATOM      6  O   UNL     1       0.055   2.818  -0.415  1.00  0.00    -0.460 OA
BRANCH   6   7
ATOM      7  C   UNL     1      -0.923   2.321  -1.214  1.00  0.00     0.343 C 
ATOM      8  O   UNL     1      -1.927   2.940  -1.557  1.00  0.00    -0.246 OA
BRANCH   7   9
ATOM      9  C   UNL     1      -0.513   1.067  -1.821  1.00  0.00     0.117 A 
ATOM     10  C   UNL     1       0.699  -0.060   0.228  1.00  0.00     0.069 C 
ATOM     11  C   UNL     1       0.243   0.008  -1.190  1.00  0.00     0.068 A 
ATOM     12  N   UNL     1       0.627  -0.986  -1.991  1.00  0.00    -0.195 NA
ATOM     13  S   UNL     1       0.205  -0.620  -3.538  1.00  0.00    -0.017 S 
ATOM     14  C   UNL     1      -0.635   0.819  -3.185  1.00  0.00     0.131 A 
BRANCH  14  15
ATOM     15  N   UNL     1      -1.144   1.668  -4.164  1.00  0.00    -0.312 N 
ATOM     16  C   UNL     1      -1.241   1.505  -5.530  1.00  0.00     0.256 C 
ATOM     17  H   UNL     1      -1.490   2.526  -3.826  1.00  0.00     0.171 HD
ATOM     18  O   UNL     1      -1.247   2.486  -6.271  1.00  0.00    -0.269 OA
BRANCH  16  19
ATOM     19  C   UNL     1      -1.427   0.167  -6.120  1.00  0.00     0.040 A 
ATOM     20  C   UNL     1      -2.310  -0.738  -5.525  1.00  0.00     0.016 A 
ATOM     21  C   UNL     1      -0.718  -0.191  -7.268  1.00  0.00     0.016 A 
ATOM     22  C   UNL     1      -2.367  -2.049  -5.990  1.00  0.00     0.026 A 
ATOM     23  C   UNL     1      -0.810  -1.502  -7.745  1.00  0.00     0.026 A 
ATOM     24  C   UNL     1      -1.582  -2.454  -7.071  1.00  0.00     0.031 A 
BRANCH  24  25
ATOM     25  N   UNL     1      -1.667  -3.755  -7.538  1.00  0.00    -0.399 N 
ATOM     26  H   UNL     1      -2.214  -4.417  -7.055  1.00  0.00     0.156 HD
ATOM     27  H   UNL     1      -1.181  -4.019  -8.352  1.00  0.00     0.156 HD
ENDBRANCH  24  25
ENDBRANCH  16  19
ENDBRANCH  14  15
ENDBRANCH   7   9
ENDBRANCH   6   7
ENDBRANCH   5   6
ENDBRANCH   4   5
ENDBRANCH   3   4
ENDBRANCH   2   3
ENDBRANCH   1   2
BRANCH   1  28
ATOM     28  O   UNL     1       2.858   3.092  -0.979  1.00  0.00    -0.377 OA
BRANCH  28  29
ATOM     29  C   UNL     1       3.771   4.167  -0.775  1.00  0.00     0.188 C 
BRANCH  29  30
ATOM     30  C   UNL     1       4.066   5.259  -1.849  1.00  0.00     0.188 C 
BRANCH  30  31
ATOM     31  O   UNL     1       3.685   4.951  -3.179  1.00  0.00    -0.376 OA
BRANCH  31  32
ATOM     32  C   UNL     1       4.575   4.713  -4.253  1.00  0.00     0.202 C 
BRANCH  32  33
ATOM     33  C   UNL     1       5.489   3.492  -4.181  1.00  0.00     0.261 C 
BRANCH  33  34
ATOM     34  O   UNL     1       5.929   3.231  -2.868  1.00  0.00    -0.460 OA
BRANCH  34  35
ATOM     35  C   UNL     1       6.782   4.157  -2.393  1.00  0.00     0.338 C 
ATOM     36  O   UNL     1       7.183   5.156  -2.963  1.00  0.00    -0.246 OA
BRANCH  35  37
ATOM     37  C   UNL     1       7.213   3.725  -1.058  1.00  0.00     0.060 A 
ATOM     38  C   UNL     1       8.123   4.587  -0.451  1.00  0.00     0.016 A 
ATOM     39  C   UNL     1       7.178   2.346  -0.812  1.00  0.00     0.016 A 
ATOM     40  C   UNL     1       9.277   4.017   0.008  1.00  0.00     0.010 A 
ATOM     41  C   UNL     1       8.341   1.779  -0.392  1.00  0.00     0.010 A 
ATOM     42  C   UNL     1       9.407   2.633  -0.126  1.00  0.00    -0.014 A 
BRANCH  42  43
ATOM     43  C   UNL     1      10.719   2.063   0.002  1.00  0.00     0.031 A 
ATOM     44  C   UNL     1      11.047   1.788   1.408  1.00  0.00     0.074 A 
ATOM     45  C   UNL     1      11.446   1.743  -1.082  1.00  0.00     0.049 A 
ATOM     46  N   UNL     1      11.825   2.472   2.177  1.00  0.00    -0.248 NA
ATOM     47  C   UNL     1      10.197   0.814   2.112  1.00  0.00     0.031 C 
ATOM     48  C   UNL     1      11.047   1.727  -2.493  1.00  0.00     0.029 A 
ATOM     49  N   UNL     1      12.707   1.246  -1.113  1.00  0.00    -0.354 N 
ATOM     50  C   UNL     1      11.726   1.850   3.415  1.00  0.00     0.074 A 
ATOM     51  C   UNL     1      10.522   1.072   3.377  1.00  0.00     0.031 C 
ATOM     52  C   UNL     1      11.960   1.023  -3.204  1.00  0.00     0.029 A 
ATOM     53  C   UNL     1      13.055   0.657  -2.325  1.00  0.00     0.049 A 
ATOM     54  H   UNL     1      13.322   1.297  -0.346  1.00  0.00     0.167 HD
ATOM     55  C   UNL     1      12.804   1.758   4.237  1.00  0.00     0.037 A 
ATOM     56  C   UNL     1      14.120  -0.168  -2.483  1.00  0.00     0.037 A 
ATOM     57  C   UNL     1      13.830   2.689   3.834  1.00  0.00     0.049 A 
ATOM     58  C   UNL     1      15.024   0.064  -1.318  1.00  0.00     0.074 A 
ATOM     59  C   UNL     1      13.903   4.065   3.728  1.00  0.00     0.029 A 
ATOM     60  N   UNL     1      14.870   2.195   3.080  1.00  0.00    -0.354 N 
ATOM     61  N   UNL     1      15.669   1.183  -1.117  1.00  0.00    -0.248 NA
ATOM     62  C   UNL     1      14.799  -0.745  -0.125  1.00  0.00     0.031 C 
ATOM     63  C   UNL     1      14.687   4.307   2.562  1.00  0.00     0.029 A 
ATOM     64  C   UNL     1      15.105   3.075   2.056  1.00  0.00     0.049 A 
ATOM     65  H   UNL     1      15.358   1.356   3.247  1.00  0.00     0.167 HD
ATOM     66  C   UNL     1      15.568   1.417   0.250  1.00  0.00     0.074 A 
ATOM     67  C   UNL     1      15.067   0.166   0.816  1.00  0.00     0.031 C 
ATOM     68  C   UNL     1      15.608   2.684   0.759  1.00  0.00     0.037 A 
BRANCH  55  69
ATOM     69  C   UNL     1      13.097   0.560   5.110  1.00  0.00     0.057 A 
ATOM     70  C   UNL     1      14.222   0.614   5.950  1.00  0.00     0.134 A 
ATOM     71  C   UNL     1      12.522  -0.723   4.973  1.00  0.00     0.134 A 
ATOM     72  F   UNL     1      14.855   1.775   6.181  1.00  0.00    -0.206 F 
ATOM     73  C   UNL     1      14.793  -0.531   6.515  1.00  0.00     0.040 A 
ATOM     74  C   UNL     1      13.054  -1.864   5.574  1.00  0.00     0.040 A 
ATOM     75  F   UNL     1      11.475  -0.982   4.184  1.00  0.00    -0.206 F 
ATOM     76  C   UNL     1      14.217  -1.778   6.316  1.00  0.00     0.006 A 
ENDBRANCH  55  69
BRANCH  56  77
ATOM     77  C   UNL     1      14.201  -1.385  -3.324  1.00  0.00     0.057 A 
ATOM     78  C   UNL     1      15.434  -1.970  -3.640  1.00  0.00     0.134 A 
ATOM     79  C   UNL     1      13.061  -2.155  -3.617  1.00  0.00     0.134 A 
ATOM     80  F   UNL     1      16.580  -1.335  -3.354  1.00  0.00    -0.206 F 
ATOM     81  C   UNL     1      15.529  -3.252  -4.202  1.00  0.00     0.040 A 
ATOM     82  C   UNL     1      13.141  -3.432  -4.183  1.00  0.00     0.040 A 
ATOM     83  F   UNL     1      11.833  -1.733  -3.282  1.00  0.00    -0.206 F 
ATOM     84  C   UNL     1      14.380  -3.990  -4.467  1.00  0.00     0.006 A 
ENDBRANCH  56  77
BRANCH  68  85
ATOM     85  C   UNL     1      15.979   3.808  -0.170  1.00  0.00     0.057 A 
ATOM     86  C   UNL     1      15.177   4.230  -1.241  1.00  0.00     0.134 A 
ATOM     87  C   UNL     1      17.073   4.613   0.159  1.00  0.00     0.134 A 
ATOM     88  F   UNL     1      14.056   3.574  -1.567  1.00  0.00    -0.206 F 
ATOM     89  C   UNL     1      15.467   5.391  -1.966  1.00  0.00     0.040 A 
ATOM     90  C   UNL     1      17.355   5.791  -0.535  1.00  0.00     0.040 A 
ATOM     91  F   UNL     1      17.849   4.300   1.209  1.00  0.00    -0.206 F 
ATOM     92  C   UNL     1      16.554   6.182  -1.604  1.00  0.00     0.006 A 
ENDBRANCH  68  85
ENDBRANCH  42  43
ENDBRANCH  35  37
ENDBRANCH  34  35
ENDBRANCH  33  34
ENDBRANCH  32  33
ENDBRANCH  31  32
ENDBRANCH  30  31
ENDBRANCH  29  30
ENDBRANCH  28  29
ENDBRANCH   1  28
TORSDOF 23
