REMARK SMILES O=C(Nc1ccsc1C(=O)OCCOCCOCCOCCOC(=O)c1ccc(-c2c3nc(c(-c4c(F)cccc4F)c4ccc([nH]4)c(-c4c(F)cccc4F)c4nc(c(-c5c(F)cccc5F)c5ccc2[nH]5)C=C4)C=C3)cc1)c1ccc(Br)nc1
REMARK SMILES IDX 17 1 16 2 15 3 14 4 13 5 12 6 11 7 9 8 10 9 8 10 4 11 5 12
REMARK SMILES IDX 6 13 7 14 3 15 1 16 2 17 80 19 81 20 86 21 82 22 85 23 83 24
REMARK SMILES IDX 84 25 18 26 19 27 20 28 21 29 22 30 23 31 24 32 25 33 26 34
REMARK SMILES IDX 27 35 79 36 28 37 78 38 29 39 30 40 31 41 72 42 32 43 77 44
REMARK SMILES IDX 71 45 73 46 33 47 76 48 70 49 69 50 34 52 60 53 43 54 59 55
REMARK SMILES IDX 44 56 47 57 58 58 74 59 45 60 46 61 57 63 75 64 48 65 35 66
REMARK SMILES IDX 36 67 41 68 37 69 38 70 40 71 42 72 39 73 61 74 62 75 67 76
REMARK SMILES IDX 63 77 64 78 66 79 68 80 65 81 49 82 50 83 55 84 51 85 52 86
REMARK SMILES IDX 54 87 56 88 53 89
REMARK H PARENT 3 18 73 51 47 62
REMARK Flexibility Score: inf
ROOT
ATOM      1  O   UNL     1       3.323  -1.904   3.345  1.00  0.00    -0.377 OA
ENDROOT
BRANCH   1   2
ATOM      2  C   UNL     1       4.738  -1.847   3.250  1.00  0.00     0.188 C 
BRANCH   2   3
ATOM      3  C   UNL     1       5.402  -1.389   4.557  1.00  0.00     0.188 C 
BRANCH   3   4
ATOM      4  O   UNL     1       4.496  -1.348   5.660  1.00  0.00    -0.376 OA
BRANCH   4   5
ATOM      5  C   UNL     1       4.057  -0.055   6.066  1.00  0.00     0.202 C 
BRANCH   5   6
ATOM      6  C   UNL     1       3.017   0.615   5.153  1.00  0.00     0.261 C 
BRANCH   6   7
ATOM      7  O   UNL     1       3.464   0.893   3.814  1.00  0.00    -0.459 OA
BRANCH   7   8
ATOM      8  C   UNL     1       4.494   1.766   3.658  1.00  0.00     0.350 C 
ATOM      9  O   UNL     1       4.967   2.429   4.575  1.00  0.00    -0.245 OA
BRANCH   8  10
ATOM     10  C   UNL     1       4.989   1.690   2.291  1.00  0.00     0.136 A 
ATOM     11  C   UNL     1       4.394   1.212   1.123  1.00  0.00     0.067 A 
ATOM     12  C   UNL     1       5.303   1.292   0.021  1.00  0.00     0.039 A 
ATOM     13  C   UNL     1       6.550   1.752   0.380  1.00  0.00     0.068 A 
ATOM     14  S   UNL     1       6.617   2.176   2.024  1.00  0.00    -0.135 S 
BRANCH  11  15
ATOM     15  N   UNL     1       3.071   0.767   1.096  1.00  0.00    -0.320 N 
ATOM     16  O   UNL     1       1.103   0.152   0.159  1.00  0.00    -0.269 OA
ATOM     17  C   UNL     1       2.332   0.169   0.103  1.00  0.00     0.257 C 
ATOM     18  H   UNL     1       2.579   0.907   1.938  1.00  0.00     0.170 HD
BRANCH  17  19
ATOM     19  C   UNL     1       2.974  -0.529  -1.016  1.00  0.00     0.058 A 
ATOM     20  C   UNL     1       2.634  -0.225  -2.334  1.00  0.00     0.018 A 
ATOM     21  C   UNL     1       3.869  -1.563  -0.784  1.00  0.00     0.126 A 
ATOM     22  C   UNL     1       3.253  -0.924  -3.370  1.00  0.00     0.037 A 
ATOM     23  N   UNL     1       4.492  -2.250  -1.772  1.00  0.00    -0.249 NA
ATOM     24  C   UNL     1       4.173  -1.913  -3.044  1.00  0.00     0.106 A 
ATOM     25  Br  UNL     1       5.045  -2.849  -4.444  1.00  0.00    -0.029 Br
ENDBRANCH  17  19
ENDBRANCH  11  15
ENDBRANCH   8  10
ENDBRANCH   7   8
ENDBRANCH   6   7
ENDBRANCH   5   6
ENDBRANCH   4   5
ENDBRANCH   3   4
ENDBRANCH   2   3
ENDBRANCH   1   2
BRANCH   1  26
ATOM     26  C   UNL     1       2.754  -3.138   3.787  1.00  0.00     0.188 C 
BRANCH  26  27
ATOM     27  C   UNL     1       3.526  -4.044   4.769  1.00  0.00     0.188 C 
BRANCH  27  28
ATOM     28  O   UNL     1       4.809  -4.441   4.283  1.00  0.00    -0.376 OA
BRANCH  28  29
ATOM     29  C   UNL     1       4.926  -5.791   3.840  1.00  0.00     0.202 C 
BRANCH  29  30
ATOM     30  C   UNL     1       4.348  -6.029   2.438  1.00  0.00     0.261 C 
BRANCH  30  31
ATOM     31  O   UNL     1       2.920  -5.888   2.351  1.00  0.00    -0.460 OA
BRANCH  31  32
ATOM     32  C   UNL     1       2.174  -6.709   3.121  1.00  0.00     0.338 C 
ATOM     33  O   UNL     1       2.566  -7.621   3.826  1.00  0.00    -0.246 OA
BRANCH  32  34
ATOM     34  C   UNL     1       0.789  -6.202   3.117  1.00  0.00     0.060 A 
ATOM     35  C   UNL     1       0.159  -5.965   4.345  1.00  0.00     0.016 A 
ATOM     36  C   UNL     1       0.112  -5.983   1.915  1.00  0.00     0.016 A 
ATOM     37  C   UNL     1      -1.174  -5.555   4.373  1.00  0.00     0.010 A 
ATOM     38  C   UNL     1      -1.225  -5.588   1.944  1.00  0.00     0.010 A 
ATOM     39  C   UNL     1      -1.883  -5.408   3.173  1.00  0.00    -0.014 A 
BRANCH  39  40
ATOM     40  C   UNL     1      -3.356  -5.262   3.199  1.00  0.00     0.031 A 
ATOM     41  C   UNL     1      -4.198  -6.502   3.085  1.00  0.00     0.074 A 
ATOM     42  C   UNL     1      -3.937  -4.057   3.318  1.00  0.00     0.049 A 
ATOM     43  N   UNL     1      -5.500  -6.622   3.038  1.00  0.00    -0.248 NA
ATOM     44  C   UNL     1      -3.471  -7.780   3.012  1.00  0.00     0.031 C 
ATOM     45  C   UNL     1      -3.231  -2.786   3.458  1.00  0.00     0.029 A 
ATOM     46  N   UNL     1      -5.265  -3.711   3.327  1.00  0.00    -0.354 N 
ATOM     47  C   UNL     1      -5.747  -7.984   2.933  1.00  0.00     0.074 A 
ATOM     48  C   UNL     1      -4.463  -8.649   2.893  1.00  0.00     0.031 C 
ATOM     49  C   UNL     1      -4.135  -1.792   3.524  1.00  0.00     0.029 A 
ATOM     50  C   UNL     1      -5.479  -2.357   3.406  1.00  0.00     0.049 A 
ATOM     51  H   UNL     1      -5.994  -4.370   3.280  1.00  0.00     0.167 HD
ATOM     52  C   UNL     1      -6.937  -8.627   2.884  1.00  0.00     0.037 A 
ATOM     53  C   UNL     1      -6.629  -1.658   3.368  1.00  0.00     0.037 A 
ATOM     54  C   UNL     1      -8.215  -7.968   2.906  1.00  0.00     0.049 A 
ATOM     55  C   UNL     1      -7.940  -2.390   3.241  1.00  0.00     0.074 A 
ATOM     56  C   UNL     1      -9.478  -8.532   2.863  1.00  0.00     0.029 A 
ATOM     57  N   UNL     1      -8.390  -6.594   2.968  1.00  0.00    -0.354 N 
ATOM     58  N   UNL     1      -8.165  -3.679   3.170  1.00  0.00    -0.248 NA
ATOM     59  C   UNL     1      -9.157  -1.566   3.190  1.00  0.00     0.031 C 
ATOM     60  C   UNL     1     -10.418  -7.495   2.861  1.00  0.00     0.029 A 
ATOM     61  C   UNL     1      -9.740  -6.290   2.945  1.00  0.00     0.049 A 
ATOM     62  H   UNL     1      -7.662  -5.934   3.020  1.00  0.00     0.167 HD
ATOM     63  C   UNL     1      -9.545  -3.822   3.091  1.00  0.00     0.074 A 
ATOM     64  C   UNL     1     -10.107  -2.489   3.132  1.00  0.00     0.031 C 
ATOM     65  C   UNL     1     -10.282  -4.956   2.995  1.00  0.00     0.037 A 
BRANCH  52  66
ATOM     66  C   UNL     1      -6.903 -10.121   2.783  1.00  0.00     0.057 A 
ATOM     67  C   UNL     1      -6.553 -10.923   3.878  1.00  0.00     0.134 A 
ATOM     68  C   UNL     1      -7.233 -10.765   1.585  1.00  0.00     0.134 A 
ATOM     69  F   UNL     1      -6.208 -10.363   5.048  1.00  0.00    -0.206 F 
ATOM     70  C   UNL     1      -6.515 -12.314   3.778  1.00  0.00     0.040 A 
ATOM     71  C   UNL     1      -7.218 -12.157   1.480  1.00  0.00     0.040 A 
ATOM     72  F   UNL     1      -7.574 -10.054   0.501  1.00  0.00    -0.206 F 
ATOM     73  C   UNL     1      -6.853 -12.935   2.577  1.00  0.00     0.006 A 
ENDBRANCH  52  66
BRANCH  53  74
ATOM     74  C   UNL     1      -6.600  -0.177   3.438  1.00  0.00     0.057 A 
ATOM     75  C   UNL     1      -7.057   0.503   4.572  1.00  0.00     0.134 A 
ATOM     76  C   UNL     1      -6.138   0.593   2.364  1.00  0.00     0.134 A 
ATOM     77  F   UNL     1      -7.536  -0.180   5.622  1.00  0.00    -0.206 F 
ATOM     78  C   UNL     1      -7.069   1.898   4.632  1.00  0.00     0.040 A 
ATOM     79  C   UNL     1      -6.124   1.988   2.418  1.00  0.00     0.040 A 
ATOM     80  F   UNL     1      -5.693  -0.001   1.248  1.00  0.00    -0.206 F 
ATOM     81  C   UNL     1      -6.597   2.644   3.553  1.00  0.00     0.006 A 
ENDBRANCH  53  74
BRANCH  65  82
ATOM     82  C   UNL     1     -11.774  -4.809   2.960  1.00  0.00     0.057 A 
ATOM     83  C   UNL     1     -12.444  -4.353   1.818  1.00  0.00     0.134 A 
ATOM     84  C   UNL     1     -12.551  -5.176   4.066  1.00  0.00     0.134 A 
ATOM     85  F   UNL     1     -11.755  -3.976   0.731  1.00  0.00    -0.206 F 
ATOM     86  C   UNL     1     -13.835  -4.251   1.784  1.00  0.00     0.040 A 
ATOM     87  C   UNL     1     -13.944  -5.099   4.035  1.00  0.00     0.040 A 
ATOM     88  F   UNL     1     -11.970  -5.629   5.187  1.00  0.00    -0.206 F 
ATOM     89  C   UNL     1     -14.590  -4.632   2.892  1.00  0.00     0.006 A 
ENDBRANCH  65  82
ENDBRANCH  39  40
ENDBRANCH  32  34
ENDBRANCH  31  32
ENDBRANCH  30  31
ENDBRANCH  29  30
ENDBRANCH  28  29
ENDBRANCH  27  28
ENDBRANCH  26  27
ENDBRANCH   1  26
TORSDOF 22
