REMARK SMILES C/C(=C(\C#N)C(=O)OCCOCCOCCOCCOC(=O)c1ccc(-c2c3nc(c(-c4c(F)cccc4F)c4ccc([nH]4)c(-c4c(F)cccc4F)c4nc(c(-c5c(F)cccc5F)c5ccc2[nH]5)C=C4)C=C3)cc1)c1cccc2ccccc12
REMARK SMILES IDX 15 1 14 2 13 3 12 4 11 5 10 6 9 7 8 8 6 9 7 10 3 11 1 12
REMARK SMILES IDX 2 13 77 14 78 15 86 16 79 17 81 18 85 19 80 20 82 21 84 22
REMARK SMILES IDX 83 23 4 24 5 25 16 26 17 27 18 28 19 29 20 30 21 31 22 32
REMARK SMILES IDX 23 33 24 34 76 35 25 36 75 37 26 38 27 39 28 40 69 41 29 42
REMARK SMILES IDX 74 43 68 44 70 45 30 46 73 47 67 48 66 49 31 51 57 52 40 53
REMARK SMILES IDX 56 54 41 55 44 56 55 57 71 58 42 59 43 60 54 62 72 63 45 64
REMARK SMILES IDX 32 65 33 66 38 67 34 68 35 69 37 70 39 71 36 72 58 73 59 74
REMARK SMILES IDX 64 75 60 76 61 77 63 78 65 79 62 80 46 81 47 82 52 83 48 84
REMARK SMILES IDX 49 85 51 86 53 87 50 88
REMARK H PARENT 70 50 44 61
REMARK Flexibility Score: inf
ROOT
ATOM      1  C   UNL     1      -4.776   1.669  -3.925  1.00  0.00     0.188 C 
ENDROOT
BRANCH   1   2
ATOM      2  O   UNL     1      -3.849   1.076  -3.029  1.00  0.00    -0.377 OA
BRANCH   2   3
ATOM      3  C   UNL     1      -2.824   1.911  -2.539  1.00  0.00     0.188 C 
BRANCH   3   4
ATOM      4  C   UNL     1      -2.063   2.808  -3.548  1.00  0.00     0.188 C 
BRANCH   4   5
ATOM      5  O   UNL     1      -2.511   2.670  -4.886  1.00  0.00    -0.376 OA
BRANCH   5   6
ATOM      6  C   UNL     1      -1.598   2.109  -5.808  1.00  0.00     0.202 C 
BRANCH   6   7
ATOM      7  C   UNL     1      -1.147   0.658  -5.573  1.00  0.00     0.261 C 
BRANCH   7   8
ATOM      8  O   UNL     1      -1.122   0.231  -4.204  1.00  0.00    -0.459 OA
BRANCH   8   9
ATOM      9  C   UNL     1      -0.011   0.529  -3.492  1.00  0.00     0.349 C 
ATOM     10  O   UNL     1       0.996   1.051  -3.944  1.00  0.00    -0.245 OA
BRANCH   9  11
ATOM     11  C   UNL     1      -0.217   0.136  -2.063  1.00  0.00     0.140 C 
ATOM     12  C   UNL     1       0.856   0.145   0.242  1.00  0.00     0.047 C 
ATOM     13  C   UNL     1       0.489   0.799  -1.070  1.00  0.00    -0.018 C 
BRANCH  13  14
ATOM     14  C   UNL     1       0.942   2.246  -1.171  1.00  0.00    -0.013 A 
ATOM     15  C   UNL     1      -0.090   3.188  -1.185  1.00  0.00     0.009 A 
ATOM     16  C   UNL     1       2.265   2.789  -1.234  1.00  0.00    -0.011 A 
ATOM     17  C   UNL     1       0.095   4.468  -1.703  1.00  0.00     0.001 A 
ATOM     18  C   UNL     1       2.438   4.054  -1.870  1.00  0.00    -0.018 A 
ATOM     19  C   UNL     1       3.423   2.272  -0.602  1.00  0.00     0.009 A 
ATOM     20  C   UNL     1       1.335   4.835  -2.192  1.00  0.00     0.009 A 
ATOM     21  C   UNL     1       3.704   4.617  -2.069  1.00  0.00     0.009 A 
ATOM     22  C   UNL     1       4.646   2.967  -0.615  1.00  0.00     0.001 A 
ATOM     23  C   UNL     1       4.802   4.104  -1.397  1.00  0.00     0.001 A 
ENDBRANCH  13  14
BRANCH  11  24
ATOM     24  C   UNL     1      -0.585  -1.328  -1.883  1.00  0.00     0.107 C 
ATOM     25  N   UNL     1      -0.889  -2.542  -1.734  1.00  0.00    -0.192 NA
ENDBRANCH  11  24
ENDBRANCH   9  11
ENDBRANCH   8   9
ENDBRANCH   7   8
ENDBRANCH   6   7
ENDBRANCH   5   6
ENDBRANCH   4   5
ENDBRANCH   3   4
ENDBRANCH   2   3
ENDBRANCH   1   2
BRANCH   1  26
ATOM     26  C   UNL     1      -5.095   3.185  -3.800  1.00  0.00     0.188 C 
BRANCH  26  27
ATOM     27  O   UNL     1      -4.532   3.856  -2.681  1.00  0.00    -0.376 OA
BRANCH  27  28
ATOM     28  C   UNL     1      -5.326   4.072  -1.526  1.00  0.00     0.202 C 
BRANCH  28  29
ATOM     29  C   UNL     1      -5.933   2.858  -0.806  1.00  0.00     0.261 C 
BRANCH  29  30
ATOM     30  O   UNL     1      -6.668   1.936  -1.620  1.00  0.00    -0.460 OA
BRANCH  30  31
ATOM     31  C   UNL     1      -7.760   2.406  -2.270  1.00  0.00     0.338 C 
ATOM     32  O   UNL     1      -8.220   3.521  -2.226  1.00  0.00    -0.246 OA
BRANCH  31  33
ATOM     33  C   UNL     1      -8.161   1.352  -3.231  1.00  0.00     0.060 A 
ATOM     34  C   UNL     1      -8.131   1.631  -4.607  1.00  0.00     0.016 A 
ATOM     35  C   UNL     1      -8.480   0.073  -2.773  1.00  0.00     0.016 A 
ATOM     36  C   UNL     1      -8.426   0.629  -5.529  1.00  0.00     0.010 A 
ATOM     37  C   UNL     1      -8.826  -0.914  -3.694  1.00  0.00     0.010 A 
ATOM     38  C   UNL     1      -8.827  -0.630  -5.071  1.00  0.00    -0.014 A 
BRANCH  38  39
ATOM     39  C   UNL     1      -9.502  -1.561  -6.001  1.00  0.00     0.031 A 
ATOM     40  C   UNL     1     -11.003  -1.510  -6.054  1.00  0.00     0.074 A 
ATOM     41  C   UNL     1      -8.816  -2.417  -6.775  1.00  0.00     0.049 A 
ATOM     42  N   UNL     1     -11.841  -2.278  -6.698  1.00  0.00    -0.248 NA
ATOM     43  C   UNL     1     -11.646  -0.444  -5.263  1.00  0.00     0.031 C 
ATOM     44  C   UNL     1      -7.361  -2.515  -6.853  1.00  0.00     0.029 A 
ATOM     45  N   UNL     1      -9.269  -3.384  -7.637  1.00  0.00    -0.354 N 
ATOM     46  C   UNL     1     -13.105  -1.795  -6.385  1.00  0.00     0.074 A 
ATOM     47  C   UNL     1     -12.929  -0.690  -5.470  1.00  0.00     0.031 C 
ATOM     48  C   UNL     1      -7.039  -3.506  -7.704  1.00  0.00     0.029 A 
ATOM     49  C   UNL     1      -8.264  -4.135  -8.196  1.00  0.00     0.049 A 
ATOM     50  H   UNL     1     -10.223  -3.526  -7.836  1.00  0.00     0.167 HD
ATOM     51  C   UNL     1     -14.306  -2.231  -6.826  1.00  0.00     0.037 A 
ATOM     52  C   UNL     1      -8.337  -5.224  -8.986  1.00  0.00     0.037 A 
ATOM     53  C   UNL     1     -14.474  -3.341  -7.724  1.00  0.00     0.049 A 
ATOM     54  C   UNL     1      -9.693  -5.758  -9.380  1.00  0.00     0.074 A 
ATOM     55  C   UNL     1     -15.647  -3.869  -8.230  1.00  0.00     0.029 A 
ATOM     56  N   UNL     1     -13.434  -4.099  -8.241  1.00  0.00    -0.354 N 
ATOM     57  N   UNL     1     -10.885  -5.292  -9.093  1.00  0.00    -0.248 NA
ATOM     58  C   UNL     1      -9.712  -6.973 -10.208  1.00  0.00     0.031 C 
ATOM     59  C   UNL     1     -15.321  -4.981  -9.011  1.00  0.00     0.029 A 
ATOM     60  C   UNL     1     -13.941  -5.106  -9.043  1.00  0.00     0.049 A 
ATOM     61  H   UNL     1     -12.478  -3.943  -8.065  1.00  0.00     0.167 HD
ATOM     62  C   UNL     1     -11.790  -6.130  -9.736  1.00  0.00     0.074 A 
ATOM     63  C   UNL     1     -11.009  -7.128 -10.434  1.00  0.00     0.031 C 
ATOM     64  C   UNL     1     -13.145  -6.078  -9.750  1.00  0.00     0.037 A 
BRANCH  51  65
ATOM     65  C   UNL     1     -15.527  -1.525  -6.317  1.00  0.00     0.057 A 
ATOM     66  C   UNL     1     -15.843  -0.217  -6.706  1.00  0.00     0.134 A 
ATOM     67  C   UNL     1     -16.410  -2.170  -5.442  1.00  0.00     0.134 A 
ATOM     68  F   UNL     1     -15.028   0.465  -7.525  1.00  0.00    -0.206 F 
ATOM     69  C   UNL     1     -16.983   0.431  -6.228  1.00  0.00     0.040 A 
ATOM     70  C   UNL     1     -17.568  -1.544  -4.980  1.00  0.00     0.040 A 
ATOM     71  F   UNL     1     -16.165  -3.423  -5.027  1.00  0.00    -0.206 F 
ATOM     72  C   UNL     1     -17.854  -0.237  -5.369  1.00  0.00     0.006 A 
ENDBRANCH  51  65
BRANCH  52  73
ATOM     73  C   UNL     1      -7.099  -5.907  -9.445  1.00  0.00     0.057 A 
ATOM     74  C   UNL     1      -6.748  -5.937 -10.800  1.00  0.00     0.134 A 
ATOM     75  C   UNL     1      -6.265  -6.588  -8.550  1.00  0.00     0.134 A 
ATOM     76  F   UNL     1      -7.519  -5.326 -11.711  1.00  0.00    -0.206 F 
ATOM     77  C   UNL     1      -5.629  -6.640 -11.252  1.00  0.00     0.040 A 
ATOM     78  C   UNL     1      -5.126  -7.269  -8.984  1.00  0.00     0.040 A 
ATOM     79  F   UNL     1      -6.546  -6.603  -7.239  1.00  0.00    -0.206 F 
ATOM     80  C   UNL     1      -4.812  -7.306 -10.340  1.00  0.00     0.006 A 
ENDBRANCH  52  73
BRANCH  64  81
ATOM     81  C   UNL     1     -13.872  -7.087 -10.592  1.00  0.00     0.057 A 
ATOM     82  C   UNL     1     -13.947  -8.439 -10.237  1.00  0.00     0.134 A 
ATOM     83  C   UNL     1     -14.559  -6.683 -11.745  1.00  0.00     0.134 A 
ATOM     84  F   UNL     1     -13.304  -8.894  -9.150  1.00  0.00    -0.206 F 
ATOM     85  C   UNL     1     -14.659  -9.357 -11.011  1.00  0.00     0.040 A 
ATOM     86  C   UNL     1     -15.300  -7.585 -12.509  1.00  0.00     0.040 A 
ATOM     87  F   UNL     1     -14.540  -5.399 -12.135  1.00  0.00    -0.206 F 
ATOM     88  C   UNL     1     -15.347  -8.928 -12.145  1.00  0.00     0.006 A 
ENDBRANCH  64  81
ENDBRANCH  38  39
ENDBRANCH  31  33
ENDBRANCH  30  31
ENDBRANCH  29  30
ENDBRANCH  28  29
ENDBRANCH  27  28
ENDBRANCH  26  27
ENDBRANCH   1  26
TORSDOF 22
