REMARK SMILES O=C(CC[NH2+]C[C@H](O)Cn1c2ccccc2c2ccccc21)OCCOCCOCCOCCOC(=O)c1ccc(-c2c3nc(c(-c4c(F)cccc4F)c4ccc([nH]4)c(-c4c(F)cccc4F)c4nc(c(-c5c(F)cccc5F)c5ccc2[nH]5)C=C4)C=C3)cc1
REMARK SMILES IDX 27 1 26 2 25 3 24 4 23 5 2 6 1 7 3 8 4 9 5 10 6 13 7 14 9 15
REMARK SMILES IDX 10 16 11 17 22 18 12 19 16 20 17 21 21 22 13 23 15 24 18 25
REMARK SMILES IDX 20 26 14 27 19 28 8 29 28 31 29 32 30 33 31 34 32 35 33 36
REMARK SMILES IDX 34 37 35 38 36 39 37 40 38 41 39 42 91 43 40 44 90 45 41 46
REMARK SMILES IDX 42 47 43 48 84 49 44 50 89 51 83 52 85 53 45 54 88 55 82 56
REMARK SMILES IDX 81 57 46 59 72 60 55 61 71 62 56 63 59 64 70 65 86 66 57 67
REMARK SMILES IDX 58 68 69 70 87 71 60 72 47 73 48 74 53 75 49 76 50 77 52 78
REMARK SMILES IDX 54 79 51 80 73 81 74 82 79 83 75 84 76 85 78 86 80 87 77 88
REMARK SMILES IDX 61 89 62 90 67 91 63 92 64 93 66 94 68 95 65 96
REMARK H PARENT 5 11 5 12 8 30 85 58 59 69
REMARK Flexibility Score: inf
ROOT
ATOM      1  C   UNL     1       6.125  -4.288  -1.729  1.00  0.00     0.188 C 
ENDROOT
BRANCH   1   2
ATOM      2  O   UNL     1       5.152  -4.462  -0.704  1.00  0.00    -0.376 OA
BRANCH   2   3
ATOM      3  C   UNL     1       4.248  -3.460  -0.257  1.00  0.00     0.202 C 
BRANCH   3   4
ATOM      4  C   UNL     1       4.755  -2.029  -0.139  1.00  0.00     0.261 C 
BRANCH   4   5
ATOM      5  O   UNL     1       5.696  -1.986   0.940  1.00  0.00    -0.463 OA
BRANCH   5   6
ATOM      6  C   UNL     1       6.997  -2.206   0.611  1.00  0.00     0.311 C 
ATOM      7  O   UNL     1       7.543  -1.677  -0.349  1.00  0.00    -0.252 OA
BRANCH   6   8
ATOM      8  C   UNL     1       7.584  -3.374   1.393  1.00  0.00     0.184 C 
BRANCH   8   9
ATOM      9  C   UNL     1       7.081  -3.595   2.830  1.00  0.00     0.272 C 
BRANCH   9  10
ATOM     10  N   UNL     1       5.628  -3.786   2.891  1.00  0.00    -0.344 N 
ATOM     11  H   UNL     1       5.454  -4.789   2.952  1.00  0.00     0.346 HD
ATOM     12  H   UNL     1       5.271  -3.331   2.051  1.00  0.00     0.346 HD
BRANCH  10  13
ATOM     13  C   UNL     1       4.907  -3.147   3.996  1.00  0.00     0.294 C 
BRANCH  13  14
ATOM     14  C   UNL     1       5.203  -1.664   4.355  1.00  0.00     0.189 C 
BRANCH  14  15
ATOM     15  C   UNL     1       5.914  -1.624   5.710  1.00  0.00     0.160 C 
BRANCH  15  16
ATOM     16  N   UNL     1       6.629  -0.408   6.047  1.00  0.00    -0.338 N 
ATOM     17  C   UNL     1       7.929  -0.399   6.529  1.00  0.00     0.049 A 
ATOM     18  C   UNL     1       6.114   0.873   6.013  1.00  0.00     0.049 A 
ATOM     19  C   UNL     1       8.808  -1.449   6.854  1.00  0.00     0.027 A 
ATOM     20  C   UNL     1       8.296   0.938   6.673  1.00  0.00     0.007 A 
ATOM     21  C   UNL     1       7.175   1.738   6.294  1.00  0.00     0.007 A 
ATOM     22  C   UNL     1       4.822   1.357   5.751  1.00  0.00     0.027 A 
ATOM     23  C   UNL     1      10.067  -1.126   7.364  1.00  0.00     0.002 A 
ATOM     24  C   UNL     1       9.584   1.238   7.167  1.00  0.00     0.011 A 
ATOM     25  C   UNL     1       6.959   3.131   6.221  1.00  0.00     0.011 A 
ATOM     26  C   UNL     1       4.625   2.740   5.735  1.00  0.00     0.002 A 
ATOM     27  C   UNL     1      10.452   0.199   7.523  1.00  0.00     0.001 A 
ATOM     28  C   UNL     1       5.683   3.619   5.933  1.00  0.00     0.001 A 
ENDBRANCH  15  16
ENDBRANCH  14  15
BRANCH  14  29
ATOM     29  O   UNL     1       5.973  -1.011   3.348  1.00  0.00    -0.385 OA
ATOM     30  H   UNL     1       6.828  -1.459   3.254  1.00  0.00     0.211 HD
ENDBRANCH  14  29
ENDBRANCH  13  14
ENDBRANCH  10  13
ENDBRANCH   9  10
ENDBRANCH   8   9
ENDBRANCH   6   8
ENDBRANCH   5   6
ENDBRANCH   4   5
ENDBRANCH   3   4
ENDBRANCH   2   3
ENDBRANCH   1   2
BRANCH   1  31
ATOM     31  C   UNL     1       5.788  -3.563  -3.023  1.00  0.00     0.188 C 
BRANCH  31  32
ATOM     32  O   UNL     1       4.867  -4.277  -3.819  1.00  0.00    -0.377 OA
BRANCH  32  33
ATOM     33  C   UNL     1       3.544  -4.259  -3.323  1.00  0.00     0.188 C 
BRANCH  33  34
ATOM     34  C   UNL     1       3.098  -5.591  -2.680  1.00  0.00     0.188 C 
BRANCH  34  35
ATOM     35  O   UNL     1       3.423  -6.833  -3.299  1.00  0.00    -0.376 OA
BRANCH  35  36
ATOM     36  C   UNL     1       3.719  -6.835  -4.685  1.00  0.00     0.202 C 
BRANCH  36  37
ATOM     37  C   UNL     1       2.544  -6.546  -5.639  1.00  0.00     0.261 C 
BRANCH  37  38
ATOM     38  O   UNL     1       1.750  -5.418  -5.234  1.00  0.00    -0.460 OA
BRANCH  38  39
ATOM     39  C   UNL     1       0.421  -5.623  -5.008  1.00  0.00     0.338 C 
ATOM     40  O   UNL     1      -0.257  -6.526  -5.410  1.00  0.00    -0.246 OA
BRANCH  39  41
ATOM     41  C   UNL     1       0.037  -4.701  -3.896  1.00  0.00     0.060 A 
ATOM     42  C   UNL     1       0.415  -3.356  -3.876  1.00  0.00     0.016 A 
ATOM     43  C   UNL     1      -0.480  -5.302  -2.738  1.00  0.00     0.016 A 
ATOM     44  C   UNL     1       0.388  -2.659  -2.666  1.00  0.00     0.010 A 
ATOM     45  C   UNL     1      -0.502  -4.602  -1.528  1.00  0.00     0.010 A 
ATOM     46  C   UNL     1      -0.029  -3.289  -1.475  1.00  0.00    -0.014 A 
BRANCH  46  47
ATOM     47  C   UNL     1      -0.142  -2.446  -0.269  1.00  0.00     0.031 A 
ATOM     48  C   UNL     1      -1.100  -1.312  -0.438  1.00  0.00     0.074 A 
ATOM     49  C   UNL     1       0.348  -2.680   0.970  1.00  0.00     0.049 A 
ATOM     50  N   UNL     1      -0.909  -0.040  -0.289  1.00  0.00    -0.248 NA
ATOM     51  C   UNL     1      -2.444  -1.673  -0.921  1.00  0.00     0.031 C 
ATOM     52  C   UNL     1       0.949  -3.913   1.480  1.00  0.00     0.029 A 
ATOM     53  N   UNL     1       0.314  -1.870   2.080  1.00  0.00    -0.354 N 
ATOM     54  C   UNL     1      -2.158   0.546  -0.501  1.00  0.00     0.074 A 
ATOM     55  C   UNL     1      -3.025  -0.481  -1.011  1.00  0.00     0.031 C 
ATOM     56  C   UNL     1       1.048  -3.836   2.827  1.00  0.00     0.029 A 
ATOM     57  C   UNL     1       0.625  -2.516   3.271  1.00  0.00     0.049 A 
ATOM     58  H   UNL     1       0.089  -0.912   2.036  1.00  0.00     0.167 HD
ATOM     59  C   UNL     1      -2.478   1.783  -0.041  1.00  0.00     0.037 A 
ATOM     60  C   UNL     1       0.493  -2.036   4.536  1.00  0.00     0.037 A 
ATOM     61  C   UNL     1      -1.323   2.596   0.198  1.00  0.00     0.049 A 
ATOM     62  C   UNL     1       0.321  -0.562   4.467  1.00  0.00     0.074 A 
ATOM     63  C   UNL     1      -0.287   3.082  -0.572  1.00  0.00     0.029 A 
ATOM     64  N   UNL     1      -0.981   2.848   1.499  1.00  0.00    -0.354 N 
ATOM     65  N   UNL     1       1.242   0.306   4.147  1.00  0.00    -0.248 NA
ATOM     66  C   UNL     1      -1.041  -0.049   4.502  1.00  0.00     0.031 C 
ATOM     67  C   UNL     1       0.813   3.212   0.319  1.00  0.00     0.029 A 
ATOM     68  C   UNL     1       0.381   2.791   1.579  1.00  0.00     0.049 A 
ATOM     69  H   UNL     1      -1.601   3.035   2.240  1.00  0.00     0.167 HD
ATOM     70  C   UNL     1       0.547   1.376   3.600  1.00  0.00     0.074 A 
ATOM     71  C   UNL     1      -0.849   1.145   3.944  1.00  0.00     0.031 C 
ATOM     72  C   UNL     1       1.109   2.224   2.693  1.00  0.00     0.037 A 
BRANCH  59  73
ATOM     73  C   UNL     1      -3.829   2.119   0.545  1.00  0.00     0.057 A 
ATOM     74  C   UNL     1      -4.696   1.159   1.106  1.00  0.00     0.134 A 
ATOM     75  C   UNL     1      -4.139   3.457   0.848  1.00  0.00     0.134 A 
ATOM     76  F   UNL     1      -4.482  -0.157   0.988  1.00  0.00    -0.206 F 
ATOM     77  C   UNL     1      -5.780   1.501   1.918  1.00  0.00     0.040 A 
ATOM     78  C   UNL     1      -5.187   3.806   1.707  1.00  0.00     0.040 A 
ATOM     79  F   UNL     1      -3.372   4.461   0.396  1.00  0.00    -0.206 F 
ATOM     80  C   UNL     1      -6.009   2.826   2.250  1.00  0.00     0.006 A 
ENDBRANCH  59  73
BRANCH  60  81
ATOM     81  C   UNL     1       0.296  -2.778   5.813  1.00  0.00     0.057 A 
ATOM     82  C   UNL     1      -0.347  -4.029   5.859  1.00  0.00     0.134 A 
ATOM     83  C   UNL     1       0.535  -2.178   7.061  1.00  0.00     0.134 A 
ATOM     84  F   UNL     1      -0.725  -4.652   4.735  1.00  0.00    -0.206 F 
ATOM     85  C   UNL     1      -0.701  -4.655   7.061  1.00  0.00     0.040 A 
ATOM     86  C   UNL     1       0.168  -2.785   8.273  1.00  0.00     0.040 A 
ATOM     87  F   UNL     1       1.091  -0.960   7.134  1.00  0.00    -0.206 F 
ATOM     88  C   UNL     1      -0.451  -4.030   8.275  1.00  0.00     0.006 A 
ENDBRANCH  60  81
BRANCH  72  89
ATOM     89  C   UNL     1       2.594   2.381   2.619  1.00  0.00     0.057 A 
ATOM     90  C   UNL     1       3.099   3.685   2.757  1.00  0.00     0.134 A 
ATOM     91  C   UNL     1       3.479   1.390   2.186  1.00  0.00     0.134 A 
ATOM     92  F   UNL     1       2.289   4.686   3.141  1.00  0.00    -0.206 F 
ATOM     93  C   UNL     1       4.424   4.000   2.462  1.00  0.00     0.040 A 
ATOM     94  C   UNL     1       4.814   1.696   1.901  1.00  0.00     0.040 A 
ATOM     95  F   UNL     1       3.065   0.133   1.962  1.00  0.00    -0.206 F 
ATOM     96  C   UNL     1       5.288   3.000   2.035  1.00  0.00     0.006 A 
ENDBRANCH  72  89
ENDBRANCH  46  47
ENDBRANCH  39  41
ENDBRANCH  38  39
ENDBRANCH  37  38
ENDBRANCH  36  37
ENDBRANCH  35  36
ENDBRANCH  34  35
ENDBRANCH  33  34
ENDBRANCH  32  33
ENDBRANCH  31  32
ENDBRANCH   1  31
TORSDOF 27
