REMARK SMILES CCc1sc(NC(=O)[C@H]2CC(C)=C(C)C[C@H]2C(=O)OCCOCCOCCOCCOC(=O)c2ccc(-c3c4nc(c(-c5c(F)cccc5F)c5ccc([nH]5)c(-c5c(F)cccc5F)c5nc(c(-c6c(F)cccc6F)c6ccc3[nH]6)C=C5)C=C4)cc2)nc1-c1ccccc1
REMARK SMILES IDX 24 1 23 2 22 3 21 4 20 5 19 6 17 7 18 8 16 9 9 10 10 11
REMARK SMILES IDX 11 12 15 13 12 14 13 15 14 16 7 17 6 18 8 20 5 21 3 22 4 23
REMARK SMILES IDX 89 24 88 25 2 26 1 27 90 28 91 29 95 30 92 31 94 32 93 33
REMARK SMILES IDX 25 34 26 35 27 36 28 37 29 38 30 39 31 40 32 41 33 42 34 43
REMARK SMILES IDX 35 44 87 45 36 46 86 47 37 48 38 49 39 50 80 51 40 52 85 53
REMARK SMILES IDX 79 54 81 55 41 56 84 57 78 58 77 59 42 61 68 62 51 63 67 64
REMARK SMILES IDX 52 65 55 66 66 67 82 68 53 69 54 70 65 72 83 73 56 74 43 75
REMARK SMILES IDX 44 76 49 77 45 78 46 79 48 80 50 81 47 82 69 83 70 84 75 85
REMARK SMILES IDX 71 86 72 87 74 88 76 89 73 90 57 91 58 92 63 93 59 94 60 95
REMARK SMILES IDX 62 96 64 97 61 98
REMARK H PARENT 6 19 81 60 55 71
REMARK Flexibility Score: inf
ROOT
ATOM      1  C   UNL     1       2.364   5.347   5.824  1.00  0.00     0.188 C 
ENDROOT
BRANCH   1   2
ATOM      2  C   UNL     1       2.540   5.748   4.339  1.00  0.00     0.188 C 
BRANCH   2   3
ATOM      3  O   UNL     1       1.306   5.696   3.623  1.00  0.00    -0.376 OA
BRANCH   3   4
ATOM      4  C   UNL     1       1.205   4.915   2.430  1.00  0.00     0.202 C 
BRANCH   4   5
ATOM      5  C   UNL     1       0.503   3.515   2.623  1.00  0.00     0.261 C 
BRANCH   5   6
ATOM      6  O   UNL     1       1.270   2.012   2.344  1.00  0.00    -0.463 OA
BRANCH   6   7
ATOM      7  C   UNL     1       2.932   1.046   2.027  1.00  0.00     0.310 C 
ATOM      8  O   UNL     1       3.227   0.442   0.951  1.00  0.00    -0.252 OA
BRANCH   7   9
ATOM      9  C   UNL     1       4.278   0.873   3.140  1.00  0.00     0.116 C 
ATOM     10  C   UNL     1       4.553   1.191   4.631  1.00  0.00     0.097 C 
ATOM     11  C   UNL     1       3.895   0.266   5.672  1.00  0.00     0.045 C 
ATOM     12  C   UNL     1       3.676  -1.145   5.189  1.00  0.00    -0.074 C 
ATOM     13  C   UNL     1       4.791  -0.588   3.011  1.00  0.00     0.046 C 
ATOM     14  C   UNL     1       2.891  -2.002   6.152  1.00  0.00     0.039 C 
ATOM     15  C   UNL     1       4.100  -1.542   3.968  1.00  0.00    -0.073 C 
ATOM     16  C   UNL     1       3.880  -2.929   3.439  1.00  0.00     0.039 C 
BRANCH  10  17
ATOM     17  C   UNL     1       4.240   2.601   4.985  1.00  0.00     0.230 C 
ATOM     18  N   UNL     1       2.990   2.957   4.602  1.00  0.00    -0.302 N 
ATOM     19  H   UNL     1       2.416   3.526   5.164  1.00  0.00     0.172 HD
ATOM     20  O   UNL     1       4.935   3.259   5.751  1.00  0.00    -0.274 OA
BRANCH  18  21
ATOM     21  C   UNL     1       2.580   2.486   3.407  1.00  0.00     0.190 A 
ATOM     22  C   UNL     1       0.974   0.449   1.402  1.00  0.00     0.034 A 
ATOM     23  S   UNL     1       1.366   0.521   3.661  1.00  0.00    -0.101 S 
ATOM     24  C   UNL     1       1.592   1.898   0.578  1.00  0.00     0.087 A 
ATOM     25  N   UNL     1       2.667   2.937   1.772  1.00  0.00    -0.220 NA
BRANCH  22  26
ATOM     26  C   UNL     1       0.414  -0.846   0.906  1.00  0.00     0.046 C 
ATOM     27  C   UNL     1       0.884  -1.150  -0.512  1.00  0.00     0.010 C 
ENDBRANCH  22  26
BRANCH  24  28
ATOM     28  C   UNL     1       0.637   2.472  -0.416  1.00  0.00     0.001 A 
ATOM     29  C   UNL     1      -0.722   2.061  -0.335  1.00  0.00     0.010 A 
ATOM     30  C   UNL     1       0.959   3.419  -1.377  1.00  0.00     0.010 A 
ATOM     31  C   UNL     1      -1.708   2.506  -1.210  1.00  0.00     0.001 A 
ATOM     32  C   UNL     1      -0.041   3.881  -2.262  1.00  0.00     0.001 A 
ATOM     33  C   UNL     1      -1.361   3.416  -2.189  1.00  0.00     0.000 A 
ENDBRANCH  24  28
ENDBRANCH  18  21
ENDBRANCH  10  17
ENDBRANCH   7   9
ENDBRANCH   6   7
ENDBRANCH   5   6
ENDBRANCH   4   5
ENDBRANCH   3   4
ENDBRANCH   2   3
ENDBRANCH   1   2
BRANCH   1  34
ATOM     34  O   UNL     1       1.223   4.535   6.108  1.00  0.00    -0.377 OA
BRANCH  34  35
ATOM     35  C   UNL     1      -0.063   5.088   5.803  1.00  0.00     0.188 C 
BRANCH  35  36
ATOM     36  C   UNL     1      -0.287   6.617   5.687  1.00  0.00     0.188 C 
BRANCH  36  37
ATOM     37  O   UNL     1       0.756   7.430   6.180  1.00  0.00    -0.376 OA
BRANCH  37  38
ATOM     38  C   UNL     1       0.682   7.849   7.534  1.00  0.00     0.202 C 
BRANCH  38  39
ATOM     39  C   UNL     1       0.495   6.796   8.644  1.00  0.00     0.261 C 
BRANCH  39  40
ATOM     40  O   UNL     1      -0.595   5.866   8.501  1.00  0.00    -0.460 OA
BRANCH  40  41
ATOM     41  C   UNL     1      -1.851   6.358   8.430  1.00  0.00     0.338 C 
ATOM     42  O   UNL     1      -2.187   7.522   8.549  1.00  0.00    -0.246 OA
BRANCH  41  43
ATOM     43  C   UNL     1      -2.747   5.276   7.946  1.00  0.00     0.060 A 
ATOM     44  C   UNL     1      -3.445   5.462   6.741  1.00  0.00     0.016 A 
ATOM     45  C   UNL     1      -2.886   4.082   8.658  1.00  0.00     0.016 A 
ATOM     46  C   UNL     1      -4.331   4.489   6.279  1.00  0.00     0.010 A 
ATOM     47  C   UNL     1      -3.811   3.126   8.220  1.00  0.00     0.010 A 
ATOM     48  C   UNL     1      -4.577   3.356   7.061  1.00  0.00    -0.014 A 
BRANCH  48  49
ATOM     49  C   UNL     1      -5.846   2.616   6.856  1.00  0.00     0.031 A 
ATOM     50  C   UNL     1      -7.036   3.050   7.671  1.00  0.00     0.074 A 
ATOM     51  C   UNL     1      -5.974   1.633   5.949  1.00  0.00     0.049 A 
ATOM     52  N   UNL     1      -8.247   2.559   7.715  1.00  0.00    -0.248 NA
ATOM     53  C   UNL     1      -6.821   4.202   8.563  1.00  0.00     0.031 C 
ATOM     54  C   UNL     1      -4.929   1.172   5.041  1.00  0.00     0.029 A 
ATOM     55  N   UNL     1      -7.058   0.846   5.651  1.00  0.00    -0.354 N 
ATOM     56  C   UNL     1      -8.932   3.336   8.643  1.00  0.00     0.074 A 
ATOM     57  C   UNL     1      -7.992   4.302   9.166  1.00  0.00     0.031 C 
ATOM     58  C   UNL     1      -5.423   0.173   4.286  1.00  0.00     0.029 A 
ATOM     59  C   UNL     1      -6.805  -0.096   4.685  1.00  0.00     0.049 A 
ATOM     60  H   UNL     1      -7.935   0.947   6.088  1.00  0.00     0.167 HD
ATOM     61  C   UNL     1     -10.229   3.261   9.023  1.00  0.00     0.037 A 
ATOM     62  C   UNL     1      -7.596  -1.072   4.198  1.00  0.00     0.037 A 
ATOM     63  C   UNL     1     -11.158   2.286   8.518  1.00  0.00     0.049 A 
ATOM     64  C   UNL     1      -9.001  -1.222   4.724  1.00  0.00     0.074 A 
ATOM     65  C   UNL     1     -12.492   2.118   8.839  1.00  0.00     0.029 A 
ATOM     66  N   UNL     1     -10.839   1.299   7.596  1.00  0.00    -0.354 N 
ATOM     67  N   UNL     1      -9.646  -0.483   5.595  1.00  0.00    -0.248 NA
ATOM     68  C   UNL     1      -9.788  -2.348   4.197  1.00  0.00     0.031 C 
ATOM     69  C   UNL     1     -12.963   0.988   8.161  1.00  0.00     0.029 A 
ATOM     70  C   UNL     1     -11.943   0.495   7.363  1.00  0.00     0.049 A 
ATOM     71  H   UNL     1      -9.959   1.187   7.170  1.00  0.00     0.167 HD
ATOM     72  C   UNL     1     -10.922  -1.029   5.693  1.00  0.00     0.074 A 
ATOM     73  C   UNL     1     -10.960  -2.159   4.787  1.00  0.00     0.031 C 
ATOM     74  C   UNL     1     -11.969  -0.627   6.457  1.00  0.00     0.037 A 
BRANCH  61  75
ATOM     75  C   UNL     1     -10.685   4.230  10.077  1.00  0.00     0.057 A 
ATOM     76  C   UNL     1     -10.768   5.609   9.840  1.00  0.00     0.134 A 
ATOM     77  C   UNL     1     -11.012   3.778  11.362  1.00  0.00     0.134 A 
ATOM     78  F   UNL     1     -10.450   6.113   8.637  1.00  0.00    -0.206 F 
ATOM     79  C   UNL     1     -11.110   6.507  10.853  1.00  0.00     0.040 A 
ATOM     80  C   UNL     1     -11.391   4.662  12.374  1.00  0.00     0.040 A 
ATOM     81  F   UNL     1     -10.958   2.471  11.660  1.00  0.00    -0.206 F 
ATOM     82  C   UNL     1     -11.426   6.032  12.124  1.00  0.00     0.006 A 
ENDBRANCH  61  75
BRANCH  62  83
ATOM     83  C   UNL     1      -7.082  -1.987   3.147  1.00  0.00     0.057 A 
ATOM     84  C   UNL     1      -7.593  -1.948   1.845  1.00  0.00     0.134 A 
ATOM     85  C   UNL     1      -6.076  -2.924   3.417  1.00  0.00     0.134 A 
ATOM     86  F   UNL     1      -8.575  -1.091   1.532  1.00  0.00    -0.206 F 
ATOM     87  C   UNL     1      -7.129  -2.811   0.851  1.00  0.00     0.040 A 
ATOM     88  C   UNL     1      -5.585  -3.776   2.426  1.00  0.00     0.040 A 
ATOM     89  F   UNL     1      -5.547  -3.016   4.646  1.00  0.00    -0.206 F 
ATOM     90  C   UNL     1      -6.116  -3.724   1.139  1.00  0.00     0.006 A 
ENDBRANCH  62  83
BRANCH  74  91
ATOM     91  C   UNL     1     -13.262  -1.383   6.319  1.00  0.00     0.057 A 
ATOM     92  C   UNL     1     -13.416  -2.692   6.792  1.00  0.00     0.134 A 
ATOM     93  C   UNL     1     -14.384  -0.770   5.743  1.00  0.00     0.134 A 
ATOM     94  F   UNL     1     -12.381  -3.342   7.345  1.00  0.00    -0.206 F 
ATOM     95  C   UNL     1     -14.630  -3.373   6.673  1.00  0.00     0.040 A 
ATOM     96  C   UNL     1     -15.611  -1.429   5.649  1.00  0.00     0.040 A 
ATOM     97  F   UNL     1     -14.312   0.487   5.280  1.00  0.00    -0.206 F 
ATOM     98  C   UNL     1     -15.734  -2.738   6.108  1.00  0.00     0.006 A 
ENDBRANCH  74  91
ENDBRANCH  48  49
ENDBRANCH  41  43
ENDBRANCH  40  41
ENDBRANCH  39  40
ENDBRANCH  38  39
ENDBRANCH  37  38
ENDBRANCH  36  37
ENDBRANCH  35  36
ENDBRANCH  34  35
ENDBRANCH   1  34
TORSDOF 24
