REMARK SMILES Cc1ccc(-c2cc(C(=O)OCCOCCOCCOCCOC(=O)c3ccc(-c4c5nc(c(-c6c(F)cccc6F)c6ccc([nH]6)c(-c6c(F)cccc6F)c6nc(c(-c7c(F)cccc7F)c7ccc4[nH]7)C=C6)C=C5)cc3)c3c(-c4cccc([N+](=O)[O-])c4)[nH]nc3n2)cc1
REMARK SMILES IDX 17 1 16 2 15 3 14 4 13 5 12 6 11 7 9 8 10 9 8 10 6 11 7 12
REMARK SMILES IDX 94 13 93 14 80 15 92 16 81 17 91 18 5 20 1 21 2 22 3 23
REMARK SMILES IDX 96 24 4 25 95 26 82 27 83 28 90 29 84 30 86 31 85 32 87 33
REMARK SMILES IDX 88 34 89 35 18 36 19 37 20 38 21 39 22 40 23 41 24 42 25 43
REMARK SMILES IDX 26 44 27 45 79 46 28 47 78 48 29 49 30 50 31 51 72 52 32 53
REMARK SMILES IDX 77 54 71 55 73 56 33 57 76 58 70 59 69 60 34 62 60 63 43 64
REMARK SMILES IDX 59 65 44 66 47 67 58 68 74 69 45 70 46 71 57 73 75 74 48 75
REMARK SMILES IDX 35 76 36 77 41 78 37 79 38 80 40 81 42 82 39 83 61 84 62 85
REMARK SMILES IDX 67 86 63 87 64 88 66 89 68 90 65 91 49 92 50 93 55 94 51 95
REMARK SMILES IDX 52 96 54 97 56 98 53 99
REMARK H PARENT 91 19 73 61 47 72
REMARK Flexibility Score: inf
ROOT
ATOM      1  O   UNL     1      -5.434  -1.133  -3.509  1.00  0.00    -0.377 OA
ENDROOT
BRANCH   1   2
ATOM      2  C   UNL     1      -6.852  -1.165  -3.362  1.00  0.00     0.188 C 
BRANCH   2   3
ATOM      3  C   UNL     1      -8.138  -0.459  -4.196  1.00  0.00     0.188 C 
BRANCH   3   4
ATOM      4  O   UNL     1      -8.511   1.095  -5.095  1.00  0.00    -0.376 OA
BRANCH   4   5
ATOM      5  C   UNL     1      -7.892   2.748  -5.071  1.00  0.00     0.202 C 
BRANCH   5   6
ATOM      6  C   UNL     1      -6.884   3.544  -3.708  1.00  0.00     0.261 C 
BRANCH   6   7
ATOM      7  O   UNL     1      -6.573   2.776  -2.073  1.00  0.00    -0.460 OA
BRANCH   7   8
ATOM      8  C   UNL     1      -6.979   1.767  -1.036  1.00  0.00     0.339 C 
ATOM      9  O   UNL     1      -8.150   1.601  -0.702  1.00  0.00    -0.246 OA
BRANCH   8  10
ATOM     10  C   UNL     1      -6.097   0.743  -0.192  1.00  0.00     0.075 A 
ATOM     11  C   UNL     1      -3.930  -0.294   0.764  1.00  0.00     0.074 A 
ATOM     12  C   UNL     1      -4.703   0.437  -0.181  1.00  0.00     0.045 A 
ATOM     13  N   UNL     1      -4.474  -0.985   1.770  1.00  0.00    -0.226 NA
ATOM     14  C   UNL     1      -5.829  -0.991   1.701  1.00  0.00     0.182 A 
ATOM     15  C   UNL     1      -6.617  -0.198   0.751  1.00  0.00     0.061 A 
ATOM     16  N   UNL     1      -6.590  -1.765   2.468  1.00  0.00    -0.154 NA
ATOM     17  C   UNL     1      -7.899  -0.732   0.902  1.00  0.00     0.076 A 
ATOM     18  N   UNL     1      -7.814  -1.577   1.981  1.00  0.00    -0.275 N 
ATOM     19  H   UNL     1      -8.606  -2.014   2.369  1.00  0.00     0.190 HD
BRANCH  11  20
ATOM     20  C   UNL     1      -2.444  -0.301   0.634  1.00  0.00     0.000 A 
ATOM     21  C   UNL     1       1.877  -0.193   0.031  1.00  0.00     0.044 C 
ATOM     22  C   UNL     1       0.387  -0.224   0.226  1.00  0.00    -0.051 A 
ATOM     23  C   UNL     1      -0.325  -1.425   0.123  1.00  0.00     0.004 A 
ATOM     24  C   UNL     1      -0.318   0.937   0.552  1.00  0.00     0.004 A 
ATOM     25  C   UNL     1      -1.719  -1.462   0.324  1.00  0.00     0.010 A 
ATOM     26  C   UNL     1      -1.709   0.897   0.747  1.00  0.00     0.010 A 
ENDBRANCH  11  20
BRANCH  17  27
ATOM     27  C   UNL     1      -9.178  -0.657   0.199  1.00  0.00     0.007 A 
ATOM     28  C   UNL     1     -10.160   0.230   0.654  1.00  0.00     0.011 A 
ATOM     29  C   UNL     1      -9.447  -1.459  -0.919  1.00  0.00     0.096 A 
ATOM     30  C   UNL     1     -11.361   0.381  -0.040  1.00  0.00     0.008 A 
ATOM     31  C   UNL     1     -10.657  -1.292  -1.618  1.00  0.00     0.270 A 
ATOM     32  C   UNL     1     -11.609  -0.362  -1.190  1.00  0.00     0.085 A 
BRANCH  31  33
ATOM     33  N   UNL     1     -10.874  -2.002  -2.886  1.00  0.00     0.062 N 
ATOM     34  O   UNL     1     -11.719  -1.546  -3.671  1.00  0.00    -0.258 OA
ATOM     35  O   UNL     1     -10.159  -2.987  -3.123  1.00  0.00    -0.258 OA
ENDBRANCH  31  33
ENDBRANCH  17  27
ENDBRANCH   8  10
ENDBRANCH   7   8
ENDBRANCH   6   7
ENDBRANCH   5   6
ENDBRANCH   4   5
ENDBRANCH   3   4
ENDBRANCH   2   3
ENDBRANCH   1   2
BRANCH   1  36
ATOM     36  C   UNL     1      -4.676  -1.678  -4.566  1.00  0.00     0.188 C 
BRANCH  36  37
ATOM     37  C   UNL     1      -5.162  -2.855  -5.363  1.00  0.00     0.188 C 
BRANCH  37  38
ATOM     38  O   UNL     1      -6.569  -2.925  -5.361  1.00  0.00    -0.376 OA
BRANCH  38  39
ATOM     39  C   UNL     1      -7.066  -4.173  -5.815  1.00  0.00     0.202 C 
BRANCH  39  40
ATOM     40  C   UNL     1      -6.654  -4.475  -7.268  1.00  0.00     0.261 C 
BRANCH  40  41
ATOM     41  O   UNL     1      -6.996  -3.367  -8.139  1.00  0.00    -0.460 OA
BRANCH  41  42
ATOM     42  C   UNL     1      -6.000  -2.562  -8.617  1.00  0.00     0.338 C 
ATOM     43  O   UNL     1      -4.888  -2.956  -9.013  1.00  0.00    -0.246 OA
BRANCH  42  44
ATOM     44  C   UNL     1      -6.290  -1.141  -8.264  1.00  0.00     0.060 A 
ATOM     45  C   UNL     1      -5.319  -0.180  -7.922  1.00  0.00     0.016 A 
ATOM     46  C   UNL     1      -7.526  -0.919  -7.780  1.00  0.00     0.016 A 
ATOM     47  C   UNL     1      -5.450   0.691  -6.760  1.00  0.00     0.010 A 
ATOM     48  C   UNL     1      -7.557  -0.170  -6.617  1.00  0.00     0.010 A 
ATOM     49  C   UNL     1      -6.494   0.557  -5.851  1.00  0.00    -0.014 A 
BRANCH  49  50
ATOM     50  C   UNL     1      -6.540   1.235  -4.095  1.00  0.00     0.031 A 
ATOM     51  C   UNL     1      -8.287   1.703  -3.182  1.00  0.00     0.074 A 
ATOM     52  C   UNL     1      -5.174   1.507  -3.665  1.00  0.00     0.049 A 
ATOM     53  N   UNL     1      -8.626   2.915  -2.650  1.00  0.00    -0.248 NA
ATOM     54  C   UNL     1      -9.880   1.289  -3.428  1.00  0.00     0.031 C 
ATOM     55  C   UNL     1      -4.529   2.024  -2.408  1.00  0.00     0.029 A 
ATOM     56  N   UNL     1      -3.961   1.489  -4.412  1.00  0.00    -0.354 N 
ATOM     57  C   UNL     1      -9.900   3.174  -2.244  1.00  0.00     0.074 A 
ATOM     58  C   UNL     1     -10.673   2.252  -2.969  1.00  0.00     0.031 C 
ATOM     59  C   UNL     1      -3.221   2.236  -2.413  1.00  0.00     0.029 A 
ATOM     60  C   UNL     1      -2.975   2.304  -3.777  1.00  0.00     0.049 A 
ATOM     61  H   UNL     1      -3.822   0.986  -5.247  1.00  0.00     0.167 HD
ATOM     62  C   UNL     1     -10.159   4.084  -1.257  1.00  0.00     0.037 A 
ATOM     63  C   UNL     1      -2.532   3.494  -4.244  1.00  0.00     0.037 A 
ATOM     64  C   UNL     1      -8.905   4.622  -0.678  1.00  0.00     0.049 A 
ATOM     65  C   UNL     1      -3.167   4.704  -3.451  1.00  0.00     0.074 A 
ATOM     66  C   UNL     1      -8.178   4.253   0.446  1.00  0.00     0.029 A 
ATOM     67  N   UNL     1      -8.029   5.422  -1.425  1.00  0.00    -0.354 N 
ATOM     68  N   UNL     1      -4.395   4.777  -2.944  1.00  0.00    -0.248 NA
ATOM     69  C   UNL     1      -2.331   5.777  -2.912  1.00  0.00     0.031 C 
ATOM     70  C   UNL     1      -6.822   4.674   0.271  1.00  0.00     0.029 A 
ATOM     71  C   UNL     1      -6.717   5.393  -0.920  1.00  0.00     0.049 A 
ATOM     72  H   UNL     1      -8.302   5.945  -2.214  1.00  0.00     0.167 HD
ATOM     73  C   UNL     1      -4.537   5.875  -2.095  1.00  0.00     0.074 A 
ATOM     74  C   UNL     1      -3.185   6.433  -2.102  1.00  0.00     0.031 C 
ATOM     75  C   UNL     1      -5.658   6.312  -1.391  1.00  0.00     0.037 A 
BRANCH  62  76
ATOM     76  C   UNL     1     -11.535   4.066  -0.590  1.00  0.00     0.057 A 
ATOM     77  C   UNL     1     -11.687   4.245   0.794  1.00  0.00     0.134 A 
ATOM     78  C   UNL     1     -12.742   3.747  -1.253  1.00  0.00     0.134 A 
ATOM     79  F   UNL     1     -10.687   4.711   1.552  1.00  0.00    -0.206 F 
ATOM     80  C   UNL     1     -12.882   3.949   1.477  1.00  0.00     0.040 A 
ATOM     81  C   UNL     1     -13.920   3.374  -0.582  1.00  0.00     0.040 A 
ATOM     82  F   UNL     1     -12.845   3.819  -2.588  1.00  0.00    -0.206 F 
ATOM     83  C   UNL     1     -13.985   3.452   0.798  1.00  0.00     0.006 A 
ENDBRANCH  62  76
BRANCH  63  84
ATOM     84  C   UNL     1      -2.008   3.175  -5.601  1.00  0.00     0.057 A 
ATOM     85  C   UNL     1      -1.115   2.049  -5.647  1.00  0.00     0.134 A 
ATOM     86  C   UNL     1      -2.757   3.415  -6.744  1.00  0.00     0.134 A 
ATOM     87  F   UNL     1      -0.374   1.734  -4.568  1.00  0.00    -0.206 F 
ATOM     88  C   UNL     1      -1.189   1.078  -6.649  1.00  0.00     0.040 A 
ATOM     89  C   UNL     1      -2.752   2.493  -7.807  1.00  0.00     0.040 A 
ATOM     90  F   UNL     1      -3.651   4.411  -6.768  1.00  0.00    -0.206 F 
ATOM     91  C   UNL     1      -2.032   1.292  -7.726  1.00  0.00     0.006 A 
ENDBRANCH  63  84
BRANCH  75  92
ATOM     92  C   UNL     1      -5.882   7.775  -0.950  1.00  0.00     0.057 A 
ATOM     93  C   UNL     1      -5.237   8.874  -1.532  1.00  0.00     0.134 A 
ATOM     94  C   UNL     1      -6.954   8.134  -0.081  1.00  0.00     0.134 A 
ATOM     95  F   UNL     1      -4.261   8.726  -2.435  1.00  0.00    -0.206 F 
ATOM     96  C   UNL     1      -5.609  10.201  -1.267  1.00  0.00     0.040 A 
ATOM     97  C   UNL     1      -7.385   9.447   0.122  1.00  0.00     0.040 A 
ATOM     98  F   UNL     1      -7.675   7.234   0.598  1.00  0.00    -0.206 F 
ATOM     99  C   UNL     1      -6.704  10.492  -0.467  1.00  0.00     0.006 A 
ENDBRANCH  75  92
ENDBRANCH  49  50
ENDBRANCH  42  44
ENDBRANCH  41  42
ENDBRANCH  40  41
ENDBRANCH  39  40
ENDBRANCH  38  39
ENDBRANCH  37  38
ENDBRANCH  36  37
ENDBRANCH   1  36
TORSDOF 23
