REMARK SMILES C[C@H](C[N@H+](C)[C@H]1CC[C@H]([NH3+])CC1)C(=O)OCCOCCOCCOCCOC(=O)c1ccc(-c2c3nc(c(-c4c(F)cccc4F)c4ccc([nH]4)c(-c4c(F)cccc4F)c4nc(c(-c5c(F)cccc5F)c5ccc2[nH]5)C=C4)C=C3)cc1
REMARK SMILES IDX 20 1 19 2 18 3 17 4 16 5 15 6 13 7 14 8 2 9 1 10 3 11 4 12
REMARK SMILES IDX 5 13 6 15 7 16 12 17 8 18 11 19 9 20 10 21 21 25 22 26 23 27
REMARK SMILES IDX 24 28 25 29 26 30 27 31 28 32 29 33 30 34 31 35 83 36 32 37
REMARK SMILES IDX 82 38 33 39 34 40 35 41 76 42 36 43 81 44 75 45 77 46 37 47
REMARK SMILES IDX 80 48 74 49 73 50 38 52 64 53 47 54 63 55 48 56 51 57 62 58
REMARK SMILES IDX 78 59 49 60 50 61 61 63 79 64 52 65 39 66 40 67 45 68 41 69
REMARK SMILES IDX 42 70 44 71 46 72 43 73 65 74 66 75 71 76 67 77 68 78 70 79
REMARK SMILES IDX 72 80 69 81 53 82 54 83 59 84 55 85 56 86 58 87 60 88 57 89
REMARK H PARENT 4 14 10 22 10 23 10 24 77 51 51 62
REMARK Flexibility Score: inf
ROOT
ATOM      1  C   UNL     1      -1.455  -0.325  -1.435  1.00  0.00     0.188 C 
ENDROOT
BRANCH   1   2
ATOM      2  C   UNL     1      -2.181  -1.671  -1.508  1.00  0.00     0.188 C 
BRANCH   2   3
ATOM      3  O   UNL     1      -3.477  -1.818  -0.964  1.00  0.00    -0.376 OA
BRANCH   3   4
ATOM      4  C   UNL     1      -3.781  -1.379   0.350  1.00  0.00     0.202 C 
BRANCH   4   5
ATOM      5  C   UNL     1      -2.817  -1.486   1.553  1.00  0.00     0.261 C 
BRANCH   5   6
ATOM      6  O   UNL     1      -1.416  -1.208   1.348  1.00  0.00    -0.463 OA
BRANCH   6   7
ATOM      7  C   UNL     1      -0.617  -2.296   1.312  1.00  0.00     0.314 C 
ATOM      8  O   UNL     1      -1.040  -3.446   1.417  1.00  0.00    -0.252 OA
BRANCH   7   9
ATOM      9  C   UNL     1       0.875  -2.035   1.157  1.00  0.00     0.151 C 
ATOM     10  C   UNL     1       1.536  -2.416   2.483  1.00  0.00     0.026 C 
BRANCH   9  11
ATOM     11  C   UNL     1       1.424  -0.670   0.674  1.00  0.00     0.277 C 
BRANCH  11  12
ATOM     12  N   UNL     1       2.662  -0.843  -0.134  1.00  0.00    -0.334 N 
ATOM     13  C   UNL     1       3.510   0.346  -0.103  1.00  0.00     0.332 C 
ATOM     14  H   UNL     1       3.176  -1.584   0.342  1.00  0.00     0.348 HD
BRANCH  12  15
ATOM     15  C   UNL     1       2.474  -1.418  -1.492  1.00  0.00     0.184 C 
ATOM     16  C   UNL     1       3.699  -2.305  -1.821  1.00  0.00     0.071 C 
ATOM     17  C   UNL     1       2.222  -0.425  -2.650  1.00  0.00     0.071 C 
ATOM     18  C   UNL     1       3.577  -2.999  -3.180  1.00  0.00     0.071 C 
ATOM     19  C   UNL     1       2.075  -1.152  -3.995  1.00  0.00     0.071 C 
ATOM     20  C   UNL     1       3.321  -1.990  -4.302  1.00  0.00     0.181 C 
BRANCH  20  21
ATOM     21  N   UNL     1       3.172  -2.671  -5.587  1.00  0.00    -0.355 N 
ATOM     22  H   UNL     1       2.369  -3.299  -5.547  1.00  0.00     0.344 HD
ATOM     23  H   UNL     1       4.015  -3.209  -5.787  1.00  0.00     0.344 HD
ATOM     24  H   UNL     1       3.026  -1.980  -6.323  1.00  0.00     0.344 HD
ENDBRANCH  20  21
ENDBRANCH  12  15
ENDBRANCH  11  12
ENDBRANCH   9  11
ENDBRANCH   7   9
ENDBRANCH   6   7
ENDBRANCH   5   6
ENDBRANCH   4   5
ENDBRANCH   3   4
ENDBRANCH   2   3
ENDBRANCH   1   2
BRANCH   1  25
ATOM     25  O   UNL     1      -1.950   0.592  -0.480  1.00  0.00    -0.377 OA
BRANCH  25  26
ATOM     26  C   UNL     1      -2.904   1.555  -0.914  1.00  0.00     0.188 C 
BRANCH  26  27
ATOM     27  C   UNL     1      -3.780   1.236  -2.140  1.00  0.00     0.188 C 
BRANCH  27  28
ATOM     28  O   UNL     1      -3.062   0.751  -3.264  1.00  0.00    -0.376 OA
BRANCH  28  29
ATOM     29  C   UNL     1      -2.621   1.672  -4.252  1.00  0.00     0.202 C 
BRANCH  29  30
ATOM     30  C   UNL     1      -1.632   2.773  -3.828  1.00  0.00     0.261 C 
BRANCH  30  31
ATOM     31  O   UNL     1      -2.099   3.704  -2.837  1.00  0.00    -0.460 OA
BRANCH  31  32
ATOM     32  C   UNL     1      -3.233   4.381  -3.094  1.00  0.00     0.338 C 
ATOM     33  O   UNL     1      -3.880   4.368  -4.132  1.00  0.00    -0.246 OA
BRANCH  32  34
ATOM     34  C   UNL     1      -3.705   4.999  -1.839  1.00  0.00     0.060 A 
ATOM     35  C   UNL     1      -4.985   4.669  -1.377  1.00  0.00     0.016 A 
ATOM     36  C   UNL     1      -2.917   5.918  -1.140  1.00  0.00     0.016 A 
ATOM     37  C   UNL     1      -5.503   5.298  -0.248  1.00  0.00     0.010 A 
ATOM     38  C   UNL     1      -3.447   6.563  -0.015  1.00  0.00     0.010 A 
ATOM     39  C   UNL     1      -4.759   6.288   0.409  1.00  0.00    -0.014 A 
BRANCH  39  40
ATOM     40  C   UNL     1      -5.444   7.141   1.412  1.00  0.00     0.031 A 
ATOM     41  C   UNL     1      -5.943   8.498   0.991  1.00  0.00     0.074 A 
ATOM     42  C   UNL     1      -5.706   6.681   2.648  1.00  0.00     0.049 A 
ATOM     43  N   UNL     1      -6.624   9.383   1.674  1.00  0.00    -0.248 NA
ATOM     44  C   UNL     1      -5.637   8.911  -0.389  1.00  0.00     0.031 C 
ATOM     45  C   UNL     1      -5.306   5.374   3.166  1.00  0.00     0.029 A 
ATOM     46  N   UNL     1      -6.383   7.264   3.690  1.00  0.00    -0.354 N 
ATOM     47  C   UNL     1      -6.840  10.446   0.806  1.00  0.00     0.074 A 
ATOM     48  C   UNL     1      -6.174  10.120  -0.436  1.00  0.00     0.031 C 
ATOM     49  C   UNL     1      -5.743   5.255   4.431  1.00  0.00     0.029 A 
ATOM     50  C   UNL     1      -6.433   6.484   4.819  1.00  0.00     0.049 A 
ATOM     51  H   UNL     1      -6.794   8.157   3.633  1.00  0.00     0.167 HD
ATOM     52  C   UNL     1      -7.545  11.584   1.016  1.00  0.00     0.037 A 
ATOM     53  C   UNL     1      -6.964   6.740   6.031  1.00  0.00     0.037 A 
ATOM     54  C   UNL     1      -8.197  11.916   2.256  1.00  0.00     0.049 A 
ATOM     55  C   UNL     1      -7.682   8.045   6.262  1.00  0.00     0.074 A 
ATOM     56  C   UNL     1      -8.930  13.047   2.570  1.00  0.00     0.029 A 
ATOM     57  N   UNL     1      -8.189  11.118   3.391  1.00  0.00    -0.354 N 
ATOM     58  N   UNL     1      -7.899   9.033   5.426  1.00  0.00    -0.248 NA
ATOM     59  C   UNL     1      -8.242   8.263   7.603  1.00  0.00     0.031 C 
ATOM     60  C   UNL     1      -9.320  12.959   3.911  1.00  0.00     0.029 A 
ATOM     61  C   UNL     1      -8.886  11.743   4.413  1.00  0.00     0.049 A 
ATOM     62  H   UNL     1      -7.753  10.238   3.460  1.00  0.00     0.167 HD
ATOM     63  C   UNL     1      -8.638   9.975   6.132  1.00  0.00     0.074 A 
ATOM     64  C   UNL     1      -8.858   9.426   7.453  1.00  0.00     0.031 C 
ATOM     65  C   UNL     1      -9.091  11.188   5.727  1.00  0.00     0.037 A 
BRANCH  52  66
ATOM     66  C   UNL     1      -7.636  12.561  -0.121  1.00  0.00     0.057 A 
ATOM     67  C   UNL     1      -8.391  12.291  -1.271  1.00  0.00     0.134 A 
ATOM     68  C   UNL     1      -6.992  13.803  -0.051  1.00  0.00     0.134 A 
ATOM     69  F   UNL     1      -9.020  11.114  -1.410  1.00  0.00    -0.206 F 
ATOM     70  C   UNL     1      -8.485  13.211  -2.317  1.00  0.00     0.040 A 
ATOM     71  C   UNL     1      -7.102  14.743  -1.078  1.00  0.00     0.040 A 
ATOM     72  F   UNL     1      -6.254  14.129   1.021  1.00  0.00    -0.206 F 
ATOM     73  C   UNL     1      -7.846  14.445  -2.217  1.00  0.00     0.006 A 
ENDBRANCH  52  66
BRANCH  53  74
ATOM     74  C   UNL     1      -6.821   5.753   7.133  1.00  0.00     0.057 A 
ATOM     75  C   UNL     1      -7.929   5.093   7.678  1.00  0.00     0.134 A 
ATOM     76  C   UNL     1      -5.569   5.479   7.698  1.00  0.00     0.134 A 
ATOM     77  F   UNL     1      -9.159   5.329   7.199  1.00  0.00    -0.206 F 
ATOM     78  C   UNL     1      -7.801   4.219   8.761  1.00  0.00     0.040 A 
ATOM     79  C   UNL     1      -5.422   4.584   8.758  1.00  0.00     0.040 A 
ATOM     80  F   UNL     1      -4.466   6.076   7.222  1.00  0.00    -0.206 F 
ATOM     81  C   UNL     1      -6.543   3.960   9.300  1.00  0.00     0.006 A 
ENDBRANCH  53  74
BRANCH  65  82
ATOM     82  C   UNL     1      -9.893  11.985   6.720  1.00  0.00     0.057 A 
ATOM     83  C   UNL     1      -9.315  12.534   7.873  1.00  0.00     0.134 A 
ATOM     84  C   UNL     1     -11.262  12.207   6.519  1.00  0.00     0.134 A 
ATOM     85  F   UNL     1      -8.011  12.353   8.132  1.00  0.00    -0.206 F 
ATOM     86  C   UNL     1     -10.078  13.233   8.811  1.00  0.00     0.040 A 
ATOM     87  C   UNL     1     -12.027  12.934   7.432  1.00  0.00     0.040 A 
ATOM     88  F   UNL     1     -11.879  11.724   5.429  1.00  0.00    -0.206 F 
ATOM     89  C   UNL     1     -11.438  13.437   8.589  1.00  0.00     0.006 A 
ENDBRANCH  65  82
ENDBRANCH  39  40
ENDBRANCH  32  34
ENDBRANCH  31  32
ENDBRANCH  30  31
ENDBRANCH  29  30
ENDBRANCH  28  29
ENDBRANCH  27  28
ENDBRANCH  26  27
ENDBRANCH  25  26
ENDBRANCH   1  25
TORSDOF 24
