REMARK SMILES O=C(OCCOCCOCCOCCOC(=O)c1cc(N2CCN(c3ccc(F)cc3)CC2)ccc1NC(=O)C1CCCC1)c1ccc(-c2c3nc(c(-c4c(F)cccc4F)c4ccc([nH]4)c(-c4c(F)cccc4F)c4nc(c(-c5c(F)cccc5F)c5ccc2[nH]5)C=C4)C=C3)cc1
REMARK SMILES IDX 9 1 8 2 7 3 6 4 5 5 4 6 3 7 2 8 1 9 45 10 46 11 98 12 47 13
REMARK SMILES IDX 97 14 48 15 49 16 50 17 91 18 51 19 96 20 90 21 92 22 52 23
REMARK SMILES IDX 95 24 89 25 88 26 53 28 79 29 62 30 78 31 63 32 66 33 77 34
REMARK SMILES IDX 93 35 64 36 65 37 76 39 94 40 67 41 54 42 55 43 60 44 56 45
REMARK SMILES IDX 57 46 59 47 61 48 58 49 80 50 81 51 86 52 82 53 83 54 85 55
REMARK SMILES IDX 87 56 84 57 68 58 69 59 74 60 70 61 71 62 73 63 75 64 72 65
REMARK SMILES IDX 10 66 11 67 12 68 13 69 14 70 15 71 16 72 17 73 18 74 19 75
REMARK SMILES IDX 36 76 20 77 35 78 34 79 37 80 38 81 39 83 40 84 41 85 44 86
REMARK SMILES IDX 42 87 43 88 21 89 22 90 33 91 23 92 32 93 24 94 25 95 26 96
REMARK SMILES IDX 31 97 27 98 30 99 28 100 29 101
REMARK H PARENT 92 27 66 38 37 82
REMARK Flexibility Score: inf
ROOT
ATOM      1  O   UNL     1       2.675  -0.005   3.971  1.00  0.00    -0.377 OA
ENDROOT
BRANCH   1   2
ATOM      2  C   UNL     1       1.903  -0.260   2.797  1.00  0.00     0.188 C 
BRANCH   2   3
ATOM      3  C   UNL     1       2.252   0.620   1.595  1.00  0.00     0.188 C 
BRANCH   3   4
ATOM      4  O   UNL     1       3.572   0.319   1.131  1.00  0.00    -0.376 OA
BRANCH   4   5
ATOM      5  C   UNL     1       4.336   1.447   0.708  1.00  0.00     0.202 C 
BRANCH   5   6
ATOM      6  C   UNL     1       4.195   1.747  -0.783  1.00  0.00     0.261 C 
BRANCH   6   7
ATOM      7  O   UNL     1       2.852   1.536  -1.240  1.00  0.00    -0.460 OA
BRANCH   7   8
ATOM      8  C   UNL     1       2.329   0.406  -1.774  1.00  0.00     0.338 C 
ATOM      9  O   UNL     1       1.151   0.428  -2.131  1.00  0.00    -0.246 OA
BRANCH   8  10
ATOM     10  C   UNL     1       3.093  -0.867  -1.993  1.00  0.00     0.060 A 
ATOM     11  C   UNL     1       4.216  -1.287  -1.274  1.00  0.00     0.016 A 
ATOM     12  C   UNL     1       2.579  -1.747  -2.963  1.00  0.00     0.016 A 
ATOM     13  C   UNL     1       4.834  -2.506  -1.524  1.00  0.00     0.010 A 
ATOM     14  C   UNL     1       3.181  -2.985  -3.212  1.00  0.00     0.010 A 
ATOM     15  C   UNL     1       4.323  -3.357  -2.498  1.00  0.00    -0.014 A 
BRANCH  15  16
ATOM     16  C   UNL     1       5.087  -4.571  -2.830  1.00  0.00     0.031 A 
ATOM     17  C   UNL     1       5.964  -4.540  -4.043  1.00  0.00     0.074 A 
ATOM     18  C   UNL     1       5.076  -5.622  -1.992  1.00  0.00     0.049 A 
ATOM     19  N   UNL     1       6.677  -5.494  -4.574  1.00  0.00    -0.248 NA
ATOM     20  C   UNL     1       6.065  -3.247  -4.744  1.00  0.00     0.031 C 
ATOM     21  C   UNL     1       4.350  -5.682  -0.721  1.00  0.00     0.029 A 
ATOM     22  N   UNL     1       5.706  -6.835  -2.074  1.00  0.00    -0.354 N 
ATOM     23  C   UNL     1       7.285  -4.928  -5.686  1.00  0.00     0.074 A 
ATOM     24  C   UNL     1       6.870  -3.546  -5.751  1.00  0.00     0.031 C 
ATOM     25  C   UNL     1       4.576  -6.874  -0.144  1.00  0.00     0.029 A 
ATOM     26  C   UNL     1       5.407  -7.680  -1.032  1.00  0.00     0.049 A 
ATOM     27  H   UNL     1       6.315  -7.078  -2.808  1.00  0.00     0.167 HD
ATOM     28  C   UNL     1       8.105  -5.526  -6.578  1.00  0.00     0.037 A 
ATOM     29  C   UNL     1       5.736  -8.973  -0.854  1.00  0.00     0.037 A 
ATOM     30  C   UNL     1       8.500  -6.904  -6.485  1.00  0.00     0.049 A 
ATOM     31  C   UNL     1       6.567  -9.641  -1.918  1.00  0.00     0.074 A 
ATOM     32  C   UNL     1       9.289  -7.640  -7.349  1.00  0.00     0.029 A 
ATOM     33  N   UNL     1       8.123  -7.754  -5.454  1.00  0.00    -0.354 N 
ATOM     34  N   UNL     1       7.103  -9.120  -2.998  1.00  0.00    -0.248 NA
ATOM     35  C   UNL     1       6.820 -11.079  -1.757  1.00  0.00     0.031 C 
ATOM     36  C   UNL     1       9.352  -8.950  -6.862  1.00  0.00     0.029 A 
ATOM     37  C   UNL     1       8.639  -9.018  -5.673  1.00  0.00     0.049 A 
ATOM     38  H   UNL     1       7.570  -7.496  -4.682  1.00  0.00     0.167 HD
ATOM     39  C   UNL     1       7.758 -10.160  -3.640  1.00  0.00     0.074 A 
ATOM     40  C   UNL     1       7.579 -11.337  -2.813  1.00  0.00     0.031 C 
ATOM     41  C   UNL     1       8.438 -10.156  -4.814  1.00  0.00     0.037 A 
BRANCH  28  42
ATOM     42  C   UNL     1       8.552  -4.712  -7.753  1.00  0.00     0.057 A 
ATOM     43  C   UNL     1       9.528  -3.715  -7.645  1.00  0.00     0.134 A 
ATOM     44  C   UNL     1       7.981  -4.926  -9.014  1.00  0.00     0.134 A 
ATOM     45  F   UNL     1      10.092  -3.440  -6.459  1.00  0.00    -0.206 F 
ATOM     46  C   UNL     1       9.912  -2.949  -8.748  1.00  0.00     0.040 A 
ATOM     47  C   UNL     1       8.368  -4.179 -10.127  1.00  0.00     0.040 A 
ATOM     48  F   UNL     1       7.031  -5.859  -9.181  1.00  0.00    -0.206 F 
ATOM     49  C   UNL     1       9.334  -3.184  -9.995  1.00  0.00     0.006 A 
ENDBRANCH  28  42
BRANCH  29  50
ATOM     50  C   UNL     1       5.221  -9.738   0.312  1.00  0.00     0.057 A 
ATOM     51  C   UNL     1       6.081 -10.280   1.274  1.00  0.00     0.134 A 
ATOM     52  C   UNL     1       3.850  -9.989   0.468  1.00  0.00     0.134 A 
ATOM     53  F   UNL     1       7.407 -10.100   1.173  1.00  0.00    -0.206 F 
ATOM     54  C   UNL     1       5.603 -11.061   2.330  1.00  0.00     0.040 A 
ATOM     55  C   UNL     1       3.356 -10.742   1.534  1.00  0.00     0.040 A 
ATOM     56  F   UNL     1       2.967  -9.505  -0.418  1.00  0.00    -0.206 F 
ATOM     57  C   UNL     1       4.235 -11.290   2.464  1.00  0.00     0.006 A 
ENDBRANCH  29  50
BRANCH  41  58
ATOM     58  C   UNL     1       9.037 -11.456  -5.251  1.00  0.00     0.057 A 
ATOM     59  C   UNL     1       8.247 -12.487  -5.773  1.00  0.00     0.134 A 
ATOM     60  C   UNL     1      10.422 -11.655  -5.201  1.00  0.00     0.134 A 
ATOM     61  F   UNL     1       6.913 -12.358  -5.832  1.00  0.00    -0.206 F 
ATOM     62  C   UNL     1       8.814 -13.681  -6.217  1.00  0.00     0.040 A 
ATOM     63  C   UNL     1      11.002 -12.834  -5.666  1.00  0.00     0.040 A 
ATOM     64  F   UNL     1      11.231 -10.698  -4.720  1.00  0.00    -0.206 F 
ATOM     65  C   UNL     1      10.197 -13.852  -6.172  1.00  0.00     0.006 A 
ENDBRANCH  41  58
ENDBRANCH  15  16
ENDBRANCH   8  10
ENDBRANCH   7   8
ENDBRANCH   6   7
ENDBRANCH   5   6
ENDBRANCH   4   5
ENDBRANCH   3   4
ENDBRANCH   2   3
ENDBRANCH   1   2
BRANCH   1  66
ATOM     66  C   UNL     1       4.089  -0.014   3.816  1.00  0.00     0.188 C 
BRANCH  66  67
ATOM     67  C   UNL     1       4.781  -1.305   3.333  1.00  0.00     0.188 C 
BRANCH  67  68
ATOM     68  O   UNL     1       3.912  -2.405   3.089  1.00  0.00    -0.376 OA
BRANCH  68  69
ATOM     69  C   UNL     1       3.994  -3.468   4.036  1.00  0.00     0.202 C 
BRANCH  69  70
ATOM     70  C   UNL     1       3.238  -3.192   5.338  1.00  0.00     0.261 C 
BRANCH  70  71
ATOM     71  O   UNL     1       3.733  -2.058   6.069  1.00  0.00    -0.460 OA
BRANCH  71  72
ATOM     72  C   UNL     1       4.978  -2.103   6.602  1.00  0.00     0.340 C 
ATOM     73  O   UNL     1       5.729  -3.062   6.615  1.00  0.00    -0.246 OA
BRANCH  72  74
ATOM     74  C   UNL     1       5.356  -0.702   6.941  1.00  0.00     0.085 A 
ATOM     75  C   UNL     1       6.644  -0.281   6.564  1.00  0.00     0.043 A 
ATOM     76  C   UNL     1       4.435   0.226   7.463  1.00  0.00     0.055 A 
ATOM     77  C   UNL     1       6.998   1.076   6.574  1.00  0.00     0.038 A 
ATOM     78  C   UNL     1       4.785   1.576   7.463  1.00  0.00     0.029 A 
ATOM     79  C   UNL     1       6.043   1.995   7.010  1.00  0.00     0.028 A 
BRANCH  76  80
ATOM     80  N   UNL     1       3.158  -0.206   7.856  1.00  0.00    -0.325 N 
ATOM     81  C   UNL     1       2.355   0.085   8.911  1.00  0.00     0.227 C 
ATOM     82  H   UNL     1       2.761  -0.858   7.234  1.00  0.00     0.169 HD
ATOM     83  O   UNL     1       1.227  -0.424   8.911  1.00  0.00    -0.274 OA
BRANCH  81  84
ATOM     84  C   UNL     1       2.765   0.953  10.094  1.00  0.00     0.079 C 
ATOM     85  C   UNL     1       4.197   0.849  10.606  1.00  0.00     0.013 C 
ATOM     86  C   UNL     1       2.439   2.421   9.867  1.00  0.00     0.013 C 
ATOM     87  C   UNL     1       4.708   2.267  10.809  1.00  0.00     0.001 C 
ATOM     88  C   UNL     1       3.587   3.229  10.446  1.00  0.00     0.001 C 
ENDBRANCH  81  84
ENDBRANCH  76  80
BRANCH  77  89
ATOM     89  N   UNL     1       8.250   1.457   6.139  1.00  0.00    -0.368 N 
ATOM     90  C   UNL     1       8.457   2.555   5.172  1.00  0.00     0.138 C 
ATOM     91  C   UNL     1       9.390   1.178   7.034  1.00  0.00     0.138 C 
ATOM     92  C   UNL     1       9.033   3.842   5.819  1.00  0.00     0.138 C 
ATOM     93  C   UNL     1       9.875   2.476   7.717  1.00  0.00     0.138 C 
ATOM     94  N   UNL     1      10.152   3.527   6.724  1.00  0.00    -0.368 N 
BRANCH  94  95
ATOM     95  C   UNL     1      11.439   3.921   6.419  1.00  0.00     0.037 A 
ATOM     96  C   UNL     1      11.733   5.274   6.186  1.00  0.00     0.029 A 
ATOM     97  C   UNL     1      12.504   3.009   6.362  1.00  0.00     0.029 A 
ATOM     98  C   UNL     1      13.040   5.704   5.931  1.00  0.00     0.041 A 
ATOM     99  C   UNL     1      13.811   3.427   6.090  1.00  0.00     0.041 A 
ATOM    100  C   UNL     1      14.067   4.774   5.885  1.00  0.00     0.123 A 
ATOM    101  F   UNL     1      15.321   5.180   5.645  1.00  0.00    -0.207 F 
ENDBRANCH  94  95
ENDBRANCH  77  89
ENDBRANCH  72  74
ENDBRANCH  71  72
ENDBRANCH  70  71
ENDBRANCH  69  70
ENDBRANCH  68  69
ENDBRANCH  67  68
ENDBRANCH  66  67
ENDBRANCH   1  66
TORSDOF 24
