REMARK SMILES Cc1nc(NC(=O)[C@@H]2CCC[C@@H](C(=O)OCCOCCOCCOCCOC(=O)c3ccc(-c4c5nc(c(-c6c(F)cccc6F)c6ccc([nH]6)c(-c6c(F)cccc6F)c6nc(c(-c7c(F)cccc7F)c7ccc4[nH]7)C=C6)C=C5)cc3)C2)ccc1Br
REMARK SMILES IDX 21 1 20 2 19 3 18 4 17 5 16 6 15 7 13 8 14 9 12 10 8 11 9 12
REMARK SMILES IDX 84 13 10 14 11 15 6 16 5 17 7 19 4 20 1 21 2 22 3 23 87 24
REMARK SMILES IDX 86 25 88 26 85 27 22 28 23 29 24 30 25 31 26 32 27 33 28 34
REMARK SMILES IDX 29 35 30 36 31 37 83 38 32 39 82 40 33 41 34 42 35 43 76 44
REMARK SMILES IDX 36 45 81 46 75 47 77 48 37 49 80 50 74 51 73 52 38 54 64 55
REMARK SMILES IDX 47 56 63 57 48 58 51 59 62 60 78 61 49 62 50 63 61 65 79 66
REMARK SMILES IDX 52 67 39 68 40 69 45 70 41 71 42 72 44 73 46 74 43 75 65 76
REMARK SMILES IDX 66 77 71 78 67 79 68 80 70 81 72 82 69 83 53 84 54 85 59 86
REMARK SMILES IDX 55 87 56 88 58 89 60 90 57 91
REMARK H PARENT 5 18 77 53 51 64
REMARK Flexibility Score: inf
ROOT
ATOM      1  O   UNL     1       2.902   8.296  -3.425  1.00  0.00    -0.377 OA
ENDROOT
BRANCH   1   2
ATOM      2  C   UNL     1       1.792   7.414  -3.463  1.00  0.00     0.188 C 
BRANCH   2   3
ATOM      3  C   UNL     1       2.226   5.976  -3.769  1.00  0.00     0.188 C 
BRANCH   3   4
ATOM      4  O   UNL     1       3.568   5.771  -4.158  1.00  0.00    -0.376 OA
BRANCH   4   5
ATOM      5  C   UNL     1       4.121   6.483  -5.256  1.00  0.00     0.202 C 
BRANCH   5   6
ATOM      6  C   UNL     1       3.288   7.340  -6.234  1.00  0.00     0.261 C 
BRANCH   6   7
ATOM      7  O   UNL     1       1.883   7.063  -6.353  1.00  0.00    -0.463 OA
BRANCH   7   8
ATOM      8  C   UNL     1       1.534   5.902  -6.949  1.00  0.00     0.309 C 
ATOM      9  O   UNL     1       2.344   5.119  -7.426  1.00  0.00    -0.252 OA
BRANCH   8  10
ATOM     10  C   UNL     1       0.008   5.708  -7.010  1.00  0.00     0.100 C 
ATOM     11  C   UNL     1      -0.471   3.679  -5.522  1.00  0.00     0.080 C 
ATOM     12  C   UNL     1      -1.680   4.392  -4.917  1.00  0.00     0.013 C 
ATOM     13  C   UNL     1      -0.325   4.204  -6.963  1.00  0.00     0.028 C 
ATOM     14  C   UNL     1      -1.342   5.869  -4.746  1.00  0.00     0.002 C 
ATOM     15  C   UNL     1      -0.893   6.537  -6.056  1.00  0.00     0.015 C 
BRANCH  11  16
ATOM     16  C   UNL     1      -0.573   2.164  -5.465  1.00  0.00     0.228 C 
ATOM     17  N   UNL     1      -0.271   1.454  -4.343  1.00  0.00    -0.310 N 
ATOM     18  H   UNL     1      -0.252   0.487  -4.526  1.00  0.00     0.171 HD
ATOM     19  O   UNL     1      -0.910   1.526  -6.469  1.00  0.00    -0.274 OA
BRANCH  17  20
ATOM     20  C   UNL     1       0.019   1.723  -3.005  1.00  0.00     0.132 A 
ATOM     21  C   UNL     1       0.806  -0.579  -0.234  1.00  0.00     0.068 C 
ATOM     22  C   UNL     1       0.460   0.700  -0.938  1.00  0.00     0.054 A 
ATOM     23  N   UNL     1       0.256   0.603  -2.284  1.00  0.00    -0.235 NA
ATOM     24  C   UNL     1       0.395   1.917  -0.269  1.00  0.00     0.039 A 
ATOM     25  C   UNL     1       0.160   3.059  -1.018  1.00  0.00     0.021 A 
ATOM     26  Br  UNL     1       0.613   2.099   1.602  1.00  0.00    -0.049 Br
ATOM     27  C   UNL     1       0.009   2.965  -2.402  1.00  0.00     0.048 A 
ENDBRANCH  17  20
ENDBRANCH  11  16
ENDBRANCH   8  10
ENDBRANCH   7   8
ENDBRANCH   6   7
ENDBRANCH   5   6
ENDBRANCH   4   5
ENDBRANCH   3   4
ENDBRANCH   2   3
ENDBRANCH   1   2
BRANCH   1  28
ATOM     28  C   UNL     1       3.337   8.606  -2.112  1.00  0.00     0.188 C 
BRANCH  28  29
ATOM     29  C   UNL     1       3.724   7.420  -1.211  1.00  0.00     0.188 C 
BRANCH  29  30
ATOM     30  O   UNL     1       2.656   6.491  -1.013  1.00  0.00    -0.376 OA
BRANCH  30  31
ATOM     31  C   UNL     1       2.078   6.421   0.282  1.00  0.00     0.202 C 
BRANCH  31  32
ATOM     32  C   UNL     1       0.849   7.327   0.424  1.00  0.00     0.261 C 
BRANCH  32  33
ATOM     33  O   UNL     1       1.129   8.720   0.239  1.00  0.00    -0.460 OA
BRANCH  33  34
ATOM     34  C   UNL     1       1.985   9.279   1.122  1.00  0.00     0.338 C 
ATOM     35  O   UNL     1       2.490   8.759   2.101  1.00  0.00    -0.246 OA
BRANCH  34  36
ATOM     36  C   UNL     1       2.387  10.578   0.562  1.00  0.00     0.060 A 
ATOM     37  C   UNL     1       3.737  10.771   0.245  1.00  0.00     0.016 A 
ATOM     38  C   UNL     1       1.432  11.557   0.276  1.00  0.00     0.016 A 
ATOM     39  C   UNL     1       4.138  11.948  -0.377  1.00  0.00     0.010 A 
ATOM     40  C   UNL     1       1.844  12.764  -0.287  1.00  0.00     0.010 A 
ATOM     41  C   UNL     1       3.200  12.969  -0.589  1.00  0.00    -0.014 A 
BRANCH  41  42
ATOM     42  C   UNL     1       3.701  14.338  -0.822  1.00  0.00     0.031 A 
ATOM     43  C   UNL     1       4.162  15.103   0.387  1.00  0.00     0.074 A 
ATOM     44  C   UNL     1       3.768  14.873  -2.051  1.00  0.00     0.049 A 
ATOM     45  N   UNL     1       4.671  16.303   0.469  1.00  0.00    -0.248 NA
ATOM     46  C   UNL     1       4.043  14.408   1.682  1.00  0.00     0.031 C 
ATOM     47  C   UNL     1       3.391  14.205  -3.295  1.00  0.00     0.029 A 
ATOM     48  N   UNL     1       4.180  16.119  -2.447  1.00  0.00    -0.354 N 
ATOM     49  C   UNL     1       4.965  16.488   1.813  1.00  0.00     0.074 A 
ATOM     50  C   UNL     1       4.547  15.299   2.518  1.00  0.00     0.031 C 
ATOM     51  C   UNL     1       3.573  15.060  -4.319  1.00  0.00     0.029 A 
ATOM     52  C   UNL     1       4.058  16.336  -3.797  1.00  0.00     0.049 A 
ATOM     53  H   UNL     1       4.531  16.794  -1.822  1.00  0.00     0.167 HD
ATOM     54  C   UNL     1       5.536  17.557   2.412  1.00  0.00     0.037 A 
ATOM     55  C   UNL     1       4.297  17.452  -4.511  1.00  0.00     0.037 A 
ATOM     56  C   UNL     1       5.878  18.767   1.721  1.00  0.00     0.049 A 
ATOM     57  C   UNL     1       4.801  18.682  -3.798  1.00  0.00     0.074 A 
ATOM     58  C   UNL     1       6.422  19.930   2.231  1.00  0.00     0.029 A 
ATOM     59  N   UNL     1       5.676  18.975   0.364  1.00  0.00    -0.354 N 
ATOM     60  N   UNL     1       5.109  18.841  -2.532  1.00  0.00    -0.248 NA
ATOM     61  C   UNL     1       4.991  19.889  -4.616  1.00  0.00     0.031 C 
ATOM     62  C   UNL     1       6.500  20.862   1.190  1.00  0.00     0.029 A 
ATOM     63  C   UNL     1       6.058  20.259   0.023  1.00  0.00     0.049 A 
ATOM     64  H   UNL     1       5.314  18.307  -0.262  1.00  0.00     0.167 HD
ATOM     65  C   UNL     1       5.556  20.152  -2.408  1.00  0.00     0.074 A 
ATOM     66  C   UNL     1       5.492  20.739  -3.731  1.00  0.00     0.031 C 
ATOM     67  C   UNL     1       5.983  20.815  -1.304  1.00  0.00     0.037 A 
BRANCH  54  68
ATOM     68  C   UNL     1       5.770  17.459   3.888  1.00  0.00     0.057 A 
ATOM     69  C   UNL     1       4.979  18.183   4.788  1.00  0.00     0.134 A 
ATOM     70  C   UNL     1       6.760  16.621   4.422  1.00  0.00     0.134 A 
ATOM     71  F   UNL     1       4.007  18.991   4.342  1.00  0.00    -0.206 F 
ATOM     72  C   UNL     1       5.165  18.078   6.167  1.00  0.00     0.040 A 
ATOM     73  C   UNL     1       6.938  16.490   5.800  1.00  0.00     0.040 A 
ATOM     74  F   UNL     1       7.529  15.876   3.613  1.00  0.00    -0.206 F 
ATOM     75  C   UNL     1       6.142  17.225   6.676  1.00  0.00     0.006 A 
ENDBRANCH  54  68
BRANCH  55  76
ATOM     76  C   UNL     1       4.044  17.484  -5.975  1.00  0.00     0.057 A 
ATOM     77  C   UNL     1       2.743  17.436  -6.490  1.00  0.00     0.134 A 
ATOM     78  C   UNL     1       5.093  17.627  -6.891  1.00  0.00     0.134 A 
ATOM     79  F   UNL     1       1.692  17.304  -5.667  1.00  0.00    -0.206 F 
ATOM     80  C   UNL     1       2.494  17.530  -7.861  1.00  0.00     0.040 A 
ATOM     81  C   UNL     1       4.857  17.747  -8.262  1.00  0.00     0.040 A 
ATOM     82  F   UNL     1       6.360  17.707  -6.459  1.00  0.00    -0.206 F 
ATOM     83  C   UNL     1       3.553  17.697  -8.751  1.00  0.00     0.006 A 
ENDBRANCH  55  76
BRANCH  67  84
ATOM     84  C   UNL     1       6.445  22.230  -1.492  1.00  0.00     0.057 A 
ATOM     85  C   UNL     1       7.802  22.556  -1.370  1.00  0.00     0.134 A 
ATOM     86  C   UNL     1       5.550  23.273  -1.756  1.00  0.00     0.134 A 
ATOM     87  F   UNL     1       8.711  21.605  -1.105  1.00  0.00    -0.206 F 
ATOM     88  C   UNL     1       8.252  23.869  -1.503  1.00  0.00     0.040 A 
ATOM     89  C   UNL     1       5.991  24.587  -1.921  1.00  0.00     0.040 A 
ATOM     90  F   UNL     1       4.238  23.026  -1.895  1.00  0.00    -0.206 F 
ATOM     91  C   UNL     1       7.345  24.888  -1.787  1.00  0.00     0.006 A 
ENDBRANCH  67  84
ENDBRANCH  41  42
ENDBRANCH  34  36
ENDBRANCH  33  34
ENDBRANCH  32  33
ENDBRANCH  31  32
ENDBRANCH  30  31
ENDBRANCH  29  30
ENDBRANCH  28  29
ENDBRANCH   1  28
TORSDOF 22
