REMARK SMILES O=C(OCCOCCOCCOCCOC(=O)c1ccc(-c2c3nc(c(-c4c(F)cccc4F)c4ccc([nH]4)c(-c4c(F)cccc4F)c4nc(c(-c5c(F)cccc5F)c5ccc2[nH]5)C=C4)C=C3)cc1)c1ccc(/[NH+]=C2\S[C@@H](Cc3ccc(F)cc3)C(=O)N2Cc2ccccc2)cc1
REMARK SMILES IDX 8 1 7 2 6 3 5 4 4 5 3 6 2 7 1 8 72 9 73 10 99 11 74 12 98 13
REMARK SMILES IDX 75 14 76 15 77 16 78 18 90 19 79 20 88 21 89 22 91 23 92 24
REMARK SMILES IDX 93 25 97 26 94 27 96 28 95 29 80 30 81 31 82 32 87 33 83 34
REMARK SMILES IDX 86 35 84 36 85 37 9 38 10 39 11 40 12 41 13 42 14 43 15 44
REMARK SMILES IDX 16 45 17 46 18 47 19 48 71 49 20 50 70 51 21 52 22 53 23 54
REMARK SMILES IDX 64 55 24 56 69 57 63 58 65 59 25 60 68 61 62 62 61 63 26 65
REMARK SMILES IDX 52 66 35 67 51 68 36 69 39 70 50 71 66 72 37 73 38 74 49 76
REMARK SMILES IDX 67 77 40 78 27 79 28 80 33 81 29 82 30 83 32 84 34 85 31 86
REMARK SMILES IDX 53 87 54 88 59 89 55 90 56 91 58 92 60 93 57 94 41 95 42 96
REMARK SMILES IDX 47 97 43 98 44 99 46 100 48 101 45 102
REMARK H PARENT 76 17 65 64 39 75
REMARK Flexibility Score: inf
ROOT
ATOM      1  C   UNL     1       1.970  -2.592  -0.816  1.00  0.00     0.188 C 
ENDROOT
BRANCH   1   2
ATOM      2  C   UNL     1       2.480  -1.437   0.049  1.00  0.00     0.188 C 
BRANCH   2   3
ATOM      3  O   UNL     1       3.759  -0.966  -0.378  1.00  0.00    -0.376 OA
BRANCH   3   4
ATOM      4  C   UNL     1       4.733  -0.688   0.624  1.00  0.00     0.202 C 
BRANCH   4   5
ATOM      5  C   UNL     1       4.443   0.489   1.551  1.00  0.00     0.261 C 
BRANCH   5   6
ATOM      6  O   UNL     1       3.063   0.864   1.616  1.00  0.00    -0.460 OA
BRANCH   6   7
ATOM      7  C   UNL     1       2.337   1.631   0.773  1.00  0.00     0.338 C 
ATOM      8  O   UNL     1       1.143   1.792   1.028  1.00  0.00    -0.246 OA
BRANCH   7   9
ATOM      9  C   UNL     1       2.864   2.308  -0.450  1.00  0.00     0.060 A 
ATOM     10  C   UNL     1       3.869   1.832  -1.292  1.00  0.00     0.020 A 
ATOM     11  C   UNL     1       2.181   3.472  -0.845  1.00  0.00     0.020 A 
ATOM     12  C   UNL     1       4.205   2.495  -2.466  1.00  0.00     0.052 A 
ATOM     13  C   UNL     1       2.531   4.160  -2.009  1.00  0.00     0.052 A 
ATOM     14  C   UNL     1       3.576   3.689  -2.797  1.00  0.00     0.125 A 
BRANCH  14  15
ATOM     15  N   UNL     1       4.115   4.447  -3.836  1.00  0.00    -0.235 N 
ATOM     16  C   UNL     1       5.108   5.217  -3.534  1.00  0.00     0.320 C 
ATOM     17  H   UNL     1       3.757   4.398  -4.752  1.00  0.00     0.313 HD
ATOM     18  S   UNL     1       5.736   5.527  -1.927  1.00  0.00    -0.022 SA
ATOM     19  N   UNL     1       5.838   5.892  -4.466  1.00  0.00    -0.186 N 
ATOM     20  C   UNL     1       6.507   7.057  -2.483  1.00  0.00     0.178 C 
ATOM     21  C   UNL     1       6.711   6.846  -3.980  1.00  0.00     0.324 C 
ATOM     22  O   UNL     1       7.476   7.504  -4.675  1.00  0.00    -0.245 OA
BRANCH  19  23
ATOM     23  C   UNL     1       5.734   5.602  -5.889  1.00  0.00     0.283 C 
BRANCH  23  24
ATOM     24  C   UNL     1       6.555   4.398  -6.320  1.00  0.00    -0.006 A 
ATOM     25  C   UNL     1       7.715   4.560  -7.089  1.00  0.00     0.008 A 
ATOM     26  C   UNL     1       6.154   3.092  -5.993  1.00  0.00     0.008 A 
ATOM     27  C   UNL     1       8.446   3.448  -7.521  1.00  0.00     0.000 A 
ATOM     28  C   UNL     1       6.897   1.983  -6.401  1.00  0.00     0.000 A 
ATOM     29  C   UNL     1       8.041   2.161  -7.172  1.00  0.00     0.000 A 
ENDBRANCH  23  24
ENDBRANCH  19  23
BRANCH  20  30
ATOM     30  C   UNL     1       7.764   7.338  -1.669  1.00  0.00     0.063 C 
BRANCH  30  31
ATOM     31  C   UNL     1       8.251   8.748  -1.895  1.00  0.00    -0.046 A 
ATOM     32  C   UNL     1       9.454   8.969  -2.577  1.00  0.00     0.007 A 
ATOM     33  C   UNL     1       7.467   9.845  -1.499  1.00  0.00     0.007 A 
ATOM     34  C   UNL     1       9.845  10.266  -2.901  1.00  0.00     0.039 A 
ATOM     35  C   UNL     1       7.857  11.139  -1.833  1.00  0.00     0.039 A 
ATOM     36  C   UNL     1       9.038  11.337  -2.539  1.00  0.00     0.123 A 
ATOM     37  F   UNL     1       9.398  12.579  -2.884  1.00  0.00    -0.207 F 
ENDBRANCH  30  31
ENDBRANCH  20  30
ENDBRANCH  14  15
ENDBRANCH   7   9
ENDBRANCH   6   7
ENDBRANCH   5   6
ENDBRANCH   4   5
ENDBRANCH   3   4
ENDBRANCH   2   3
ENDBRANCH   1   2
BRANCH   1  38
ATOM     38  O   UNL     1       2.683  -3.822  -0.698  1.00  0.00    -0.377 OA
BRANCH  38  39
ATOM     39  C   UNL     1       4.102  -3.729  -0.684  1.00  0.00     0.188 C 
BRANCH  39  40
ATOM     40  C   UNL     1       4.815  -3.128  -1.918  1.00  0.00     0.188 C 
BRANCH  40  41
ATOM     41  O   UNL     1       3.954  -2.433  -2.804  1.00  0.00    -0.376 OA
BRANCH  41  42
ATOM     42  C   UNL     1       3.631  -3.087  -4.025  1.00  0.00     0.202 C 
BRANCH  42  43
ATOM     43  C   UNL     1       2.943  -4.467  -3.982  1.00  0.00     0.261 C 
BRANCH  43  44
ATOM     44  O   UNL     1       3.449  -5.413  -3.025  1.00  0.00    -0.460 OA
BRANCH  44  45
ATOM     45  C   UNL     1       4.609  -6.043  -3.303  1.00  0.00     0.338 C 
ATOM     46  O   UNL     1       5.268  -5.944  -4.325  1.00  0.00    -0.246 OA
BRANCH  45  47
ATOM     47  C   UNL     1       5.099  -6.673  -2.048  1.00  0.00     0.060 A 
ATOM     48  C   UNL     1       6.399  -6.360  -1.624  1.00  0.00     0.016 A 
ATOM     49  C   UNL     1       4.273  -7.463  -1.237  1.00  0.00     0.016 A 
ATOM     50  C   UNL     1       6.885  -6.862  -0.416  1.00  0.00     0.010 A 
ATOM     51  C   UNL     1       4.772  -7.987  -0.036  1.00  0.00     0.010 A 
ATOM     52  C   UNL     1       6.094  -7.720   0.361  1.00  0.00    -0.014 A 
BRANCH  52  53
ATOM     53  C   UNL     1       6.757  -8.511   1.430  1.00  0.00     0.031 A 
ATOM     54  C   UNL     1       7.253  -9.888   1.074  1.00  0.00     0.074 A 
ATOM     55  C   UNL     1       7.012  -8.000   2.648  1.00  0.00     0.049 A 
ATOM     56  N   UNL     1       7.940 -10.740   1.791  1.00  0.00    -0.248 NA
ATOM     57  C   UNL     1       6.936 -10.363  -0.284  1.00  0.00     0.031 C 
ATOM     58  C   UNL     1       6.615  -6.672   3.112  1.00  0.00     0.029 A 
ATOM     59  N   UNL     1       7.682  -8.544   3.718  1.00  0.00    -0.354 N 
ATOM     60  C   UNL     1       8.154 -11.838   0.966  1.00  0.00     0.074 A 
ATOM     61  C   UNL     1       7.481 -11.569  -0.285  1.00  0.00     0.031 C 
ATOM     62  C   UNL     1       7.046  -6.506   4.377  1.00  0.00     0.029 A 
ATOM     63  C   UNL     1       7.734  -7.720   4.816  1.00  0.00     0.049 A 
ATOM     64  H   UNL     1       8.086  -9.441   3.699  1.00  0.00     0.167 HD
ATOM     65  C   UNL     1       8.865 -12.962   1.216  1.00  0.00     0.037 A 
ATOM     66  C   UNL     1       8.269  -7.929   6.037  1.00  0.00     0.037 A 
ATOM     67  C   UNL     1       9.518 -13.245   2.465  1.00  0.00     0.049 A 
ATOM     68  C   UNL     1       8.991  -9.224   6.318  1.00  0.00     0.074 A 
ATOM     69  C   UNL     1      10.250 -14.364   2.822  1.00  0.00     0.029 A 
ATOM     70  N   UNL     1       9.509 -12.404   3.568  1.00  0.00    -0.354 N 
ATOM     71  N   UNL     1       9.211 -10.242   5.521  1.00  0.00    -0.248 NA
ATOM     72  C   UNL     1       9.551  -9.391   7.667  1.00  0.00     0.031 C 
ATOM     73  C   UNL     1      10.642 -14.222   4.157  1.00  0.00     0.029 A 
ATOM     74  C   UNL     1      10.206 -12.988   4.613  1.00  0.00     0.049 A 
ATOM     75  H   UNL     1       9.071 -11.523   3.603  1.00  0.00     0.167 HD
ATOM     76  C   UNL     1       9.953 -11.156   6.262  1.00  0.00     0.074 A 
ATOM     77  C   UNL     1      10.170 -10.558   7.562  1.00  0.00     0.031 C 
ATOM     78  C   UNL     1      10.411 -12.382   5.904  1.00  0.00     0.037 A 
BRANCH  65  79
ATOM     79  C   UNL     1       8.955 -13.976   0.113  1.00  0.00     0.057 A 
ATOM     80  C   UNL     1       9.708 -13.741  -1.046  1.00  0.00     0.134 A 
ATOM     81  C   UNL     1       8.301 -15.209   0.219  1.00  0.00     0.134 A 
ATOM     82  F   UNL     1      10.342 -12.571  -1.220  1.00  0.00    -0.206 F 
ATOM     83  C   UNL     1       9.791 -14.689  -2.067  1.00  0.00     0.040 A 
ATOM     84  C   UNL     1       8.400 -16.176  -0.783  1.00  0.00     0.040 A 
ATOM     85  F   UNL     1       7.562 -15.498   1.300  1.00  0.00    -0.206 F 
ATOM     86  C   UNL     1       9.143 -15.915  -1.933  1.00  0.00     0.006 A 
ENDBRANCH  65  79
BRANCH  66  87
ATOM     87  C   UNL     1       8.131  -6.900   7.104  1.00  0.00     0.057 A 
ATOM     88  C   UNL     1       9.242  -6.221   7.621  1.00  0.00     0.134 A 
ATOM     89  C   UNL     1       6.883  -6.612   7.670  1.00  0.00     0.134 A 
ATOM     90  F   UNL     1      10.469  -6.471   7.143  1.00  0.00    -0.206 F 
ATOM     91  C   UNL     1       9.120  -5.315   8.677  1.00  0.00     0.040 A 
ATOM     92  C   UNL     1       6.743  -5.686   8.705  1.00  0.00     0.040 A 
ATOM     93  F   UNL     1       5.779  -7.229   7.225  1.00  0.00    -0.206 F 
ATOM     94  C   UNL     1       7.866  -5.042   9.219  1.00  0.00     0.006 A 
ENDBRANCH  66  87
BRANCH  78  95
ATOM     95  C   UNL     1      11.216 -13.140   6.923  1.00  0.00     0.057 A 
ATOM     96  C   UNL     1      10.639 -13.658   8.090  1.00  0.00     0.134 A 
ATOM     97  C   UNL     1      12.585 -13.363   6.729  1.00  0.00     0.134 A 
ATOM     98  F   UNL     1       9.334 -13.474   8.343  1.00  0.00    -0.206 F 
ATOM     99  C   UNL     1      11.402 -14.331   9.046  1.00  0.00     0.040 A 
ATOM    100  C   UNL     1      13.352 -14.063   7.661  1.00  0.00     0.040 A 
ATOM    101  F   UNL     1      13.201 -12.909   5.626  1.00  0.00    -0.206 F 
ATOM    102  C   UNL     1      12.763 -14.538   8.831  1.00  0.00     0.006 A 
ENDBRANCH  78  95
ENDBRANCH  52  53
ENDBRANCH  45  47
ENDBRANCH  44  45
ENDBRANCH  43  44
ENDBRANCH  42  43
ENDBRANCH  41  42
ENDBRANCH  40  41
ENDBRANCH  39  40
ENDBRANCH  38  39
ENDBRANCH   1  38
TORSDOF 25
