REMARK SMILES CN(C)C(=O)CCNC(=O)NC[C@H]1CC[C@@H](C(=O)OCCOCCOCCOCCOC(=O)c2ccc(-c3c4nc(c(-c5c(F)cccc5F)c5ccc([nH]5)c(-c5c(F)cccc5F)c5nc(c(-c6c(F)cccc6F)c6ccc3[nH]6)C=C5)C=C4)cc2)CC1
REMARK SMILES IDX 23 1 22 2 21 3 20 4 19 5 17 6 18 7 16 8 13 9 14 10 89 11
REMARK SMILES IDX 15 12 88 13 12 14 11 15 8 16 9 17 10 19 7 21 6 22 4 23 1 24
REMARK SMILES IDX 2 25 3 26 5 27 24 28 25 29 26 30 27 31 28 32 29 33 30 34
REMARK SMILES IDX 31 35 32 36 33 37 34 38 35 39 87 40 36 41 86 42 37 43 38 44
REMARK SMILES IDX 39 45 80 46 40 47 85 48 79 49 81 50 41 51 84 52 78 53 77 54
REMARK SMILES IDX 42 56 68 57 51 58 67 59 52 60 55 61 66 62 82 63 53 64 54 65
REMARK SMILES IDX 65 67 83 68 56 69 43 70 44 71 49 72 45 73 46 74 48 75 50 76
REMARK SMILES IDX 47 77 69 78 70 79 75 80 71 81 72 82 74 83 76 84 73 85 57 86
REMARK SMILES IDX 58 87 63 88 59 89 60 90 62 91 64 92 61 93
REMARK H PARENT 8 18 11 20 81 55 55 66
REMARK Flexibility Score: inf
ROOT
ATOM      1  C   UNL     1       6.144   2.439  -7.326  1.00  0.00     0.188 C 
ENDROOT
BRANCH   1   2
ATOM      2  O   UNL     1       6.557   2.987  -6.090  1.00  0.00    -0.376 OA
BRANCH   2   3
ATOM      3  C   UNL     1       5.617   3.610  -5.230  1.00  0.00     0.202 C 
BRANCH   3   4
ATOM      4  C   UNL     1       4.342   4.335  -5.710  1.00  0.00     0.261 C 
BRANCH   4   5
ATOM      5  O   UNL     1       3.551   3.753  -6.771  1.00  0.00    -0.463 OA
BRANCH   5   6
ATOM      6  C   UNL     1       3.543   4.433  -7.943  1.00  0.00     0.309 C 
ATOM      7  O   UNL     1       4.248   5.417  -8.155  1.00  0.00    -0.252 OA
BRANCH   6   8
ATOM      8  C   UNL     1       2.508   3.982  -8.981  1.00  0.00     0.099 C 
ATOM      9  C   UNL     1      -0.087   3.026  -7.818  1.00  0.00     0.008 C 
ATOM     10  C   UNL     1       0.349   4.502  -7.758  1.00  0.00     0.006 C 
ATOM     11  C   UNL     1       1.101   2.069  -8.016  1.00  0.00     0.006 C 
ATOM     12  C   UNL     1       1.288   4.899  -8.891  1.00  0.00     0.015 C 
ATOM     13  C   UNL     1       2.037   2.532  -9.119  1.00  0.00     0.015 C 
BRANCH   9  14
ATOM     14  C   UNL     1      -0.985   2.725  -6.600  1.00  0.00     0.121 C 
BRANCH  14  15
ATOM     15  N   UNL     1      -0.961   1.358  -6.144  1.00  0.00    -0.338 N 
ATOM     16  N   UNL     1       0.902   1.273  -4.698  1.00  0.00    -0.338 N 
ATOM     17  C   UNL     1      -0.113   0.691  -5.352  1.00  0.00     0.314 C 
ATOM     18  H   UNL     1       1.435   0.619  -4.191  1.00  0.00     0.165 HD
ATOM     19  O   UNL     1      -0.281  -0.521  -5.203  1.00  0.00    -0.249 OA
ATOM     20  H   UNL     1      -1.709   0.812  -6.478  1.00  0.00     0.165 HD
BRANCH  16  21
ATOM     21  C   UNL     1       1.417   2.630  -4.544  1.00  0.00     0.127 C 
BRANCH  21  22
ATOM     22  C   UNL     1       0.667   3.581  -3.613  1.00  0.00     0.121 C 
BRANCH  22  23
ATOM     23  C   UNL     1       1.137   3.357  -2.201  1.00  0.00     0.223 C 
ATOM     24  C   UNL     1       1.447   1.731  -0.418  1.00  0.00     0.146 C 
ATOM     25  N   UNL     1       0.760   2.167  -1.621  1.00  0.00    -0.349 N 
ATOM     26  C   UNL     1      -0.381   1.403  -2.076  1.00  0.00     0.146 C 
ATOM     27  O   UNL     1       1.880   4.167  -1.649  1.00  0.00    -0.275 OA
ENDBRANCH  22  23
ENDBRANCH  21  22
ENDBRANCH  16  21
ENDBRANCH  14  15
ENDBRANCH   9  14
ENDBRANCH   6   8
ENDBRANCH   5   6
ENDBRANCH   4   5
ENDBRANCH   3   4
ENDBRANCH   2   3
ENDBRANCH   1   2
BRANCH   1  28
ATOM     28  C   UNL     1       5.067   1.349  -7.332  1.00  0.00     0.188 C 
BRANCH  28  29
ATOM     29  O   UNL     1       4.298   1.240  -6.151  1.00  0.00    -0.377 OA
BRANCH  29  30
ATOM     30  C   UNL     1       4.759   0.383  -5.115  1.00  0.00     0.188 C 
BRANCH  30  31
ATOM     31  C   UNL     1       6.237  -0.043  -5.054  1.00  0.00     0.188 C 
BRANCH  31  32
ATOM     32  O   UNL     1       6.794  -0.435  -6.301  1.00  0.00    -0.376 OA
BRANCH  32  33
ATOM     33  C   UNL     1       6.814  -1.820  -6.621  1.00  0.00     0.202 C 
BRANCH  33  34
ATOM     34  C   UNL     1       5.453  -2.500  -6.848  1.00  0.00     0.261 C 
BRANCH  34  35
ATOM     35  O   UNL     1       4.568  -2.567  -5.713  1.00  0.00    -0.460 OA
BRANCH  35  36
ATOM     36  C   UNL     1       5.011  -3.163  -4.596  1.00  0.00     0.338 C 
ATOM     37  O   UNL     1       6.110  -3.694  -4.426  1.00  0.00    -0.246 OA
BRANCH  36  38
ATOM     38  C   UNL     1       4.024  -2.984  -3.517  1.00  0.00     0.060 A 
ATOM     39  C   UNL     1       4.377  -2.249  -2.379  1.00  0.00     0.016 A 
ATOM     40  C   UNL     1       2.781  -3.621  -3.582  1.00  0.00     0.016 A 
ATOM     41  C   UNL     1       3.510  -2.204  -1.282  1.00  0.00     0.010 A 
ATOM     42  C   UNL     1       1.926  -3.595  -2.470  1.00  0.00     0.010 A 
ATOM     43  C   UNL     1       2.301  -2.922  -1.297  1.00  0.00    -0.014 A 
BRANCH  43  44
ATOM     44  C   UNL     1       1.549  -3.080  -0.022  1.00  0.00     0.031 A 
ATOM     45  C   UNL     1       1.832  -4.235   0.872  1.00  0.00     0.074 A 
ATOM     46  C   UNL     1       0.516  -2.297   0.327  1.00  0.00     0.049 A 
ATOM     47  N   UNL     1       1.259  -4.527   2.008  1.00  0.00    -0.248 NA
ATOM     48  C   UNL     1       2.756  -5.253   0.363  1.00  0.00     0.031 C 
ATOM     49  C   UNL     1      -0.192  -1.458  -0.608  1.00  0.00     0.029 A 
ATOM     50  N   UNL     1      -0.142  -2.090   1.522  1.00  0.00    -0.354 N 
ATOM     51  C   UNL     1       1.654  -5.817   2.296  1.00  0.00     0.074 A 
ATOM     52  C   UNL     1       2.568  -6.224   1.245  1.00  0.00     0.031 C 
ATOM     53  C   UNL     1      -1.072  -0.711   0.073  1.00  0.00     0.029 A 
ATOM     54  C   UNL     1      -0.977  -0.991   1.485  1.00  0.00     0.049 A 
ATOM     55  H   UNL     1      -0.028  -2.663   2.314  1.00  0.00     0.167 HD
ATOM     56  C   UNL     1       1.222  -6.602   3.309  1.00  0.00     0.037 A 
ATOM     57  C   UNL     1      -1.584  -0.289   2.465  1.00  0.00     0.037 A 
ATOM     58  C   UNL     1       0.273  -6.191   4.316  1.00  0.00     0.049 A 
ATOM     59  C   UNL     1      -1.773  -1.020   3.753  1.00  0.00     0.074 A 
ATOM     60  C   UNL     1      -0.193  -6.914   5.400  1.00  0.00     0.029 A 
ATOM     61  N   UNL     1      -0.371  -4.958   4.360  1.00  0.00    -0.354 N 
ATOM     62  N   UNL     1      -1.333  -2.212   4.067  1.00  0.00    -0.248 NA
ATOM     63  C   UNL     1      -2.664  -0.414   4.750  1.00  0.00     0.031 C 
ATOM     64  C   UNL     1      -1.129  -6.132   6.087  1.00  0.00     0.029 A 
ATOM     65  C   UNL     1      -1.210  -4.897   5.466  1.00  0.00     0.049 A 
ATOM     66  H   UNL     1      -0.249  -4.235   3.703  1.00  0.00     0.167 HD
ATOM     67  C   UNL     1      -1.976  -2.548   5.240  1.00  0.00     0.074 A 
ATOM     68  C   UNL     1      -2.742  -1.385   5.650  1.00  0.00     0.031 C 
ATOM     69  C   UNL     1      -1.985  -3.747   5.866  1.00  0.00     0.037 A 
BRANCH  56  70
ATOM     70  C   UNL     1       1.738  -8.007   3.316  1.00  0.00     0.057 A 
ATOM     71  C   UNL     1       3.084  -8.300   3.572  1.00  0.00     0.134 A 
ATOM     72  C   UNL     1       0.886  -9.078   3.021  1.00  0.00     0.134 A 
ATOM     73  F   UNL     1       3.957  -7.313   3.827  1.00  0.00    -0.206 F 
ATOM     74  C   UNL     1       3.571  -9.604   3.500  1.00  0.00     0.040 A 
ATOM     75  C   UNL     1       1.355 -10.391   2.979  1.00  0.00     0.040 A 
ATOM     76  F   UNL     1      -0.412  -8.866   2.755  1.00  0.00    -0.206 F 
ATOM     77  C   UNL     1       2.704 -10.655   3.208  1.00  0.00     0.006 A 
ENDBRANCH  56  70
BRANCH  57  78
ATOM     78  C   UNL     1      -2.077   1.115   2.299  1.00  0.00     0.057 A 
ATOM     79  C   UNL     1      -1.552   2.135   3.116  1.00  0.00     0.134 A 
ATOM     80  C   UNL     1      -3.051   1.508   1.377  1.00  0.00     0.134 A 
ATOM     81  F   UNL     1      -0.648   1.841   4.064  1.00  0.00    -0.206 F 
ATOM     82  C   UNL     1      -1.965   3.468   3.013  1.00  0.00     0.040 A 
ATOM     83  C   UNL     1      -3.435   2.846   1.224  1.00  0.00     0.040 A 
ATOM     84  F   UNL     1      -3.669   0.600   0.608  1.00  0.00    -0.206 F 
ATOM     85  C   UNL     1      -2.896   3.830   2.047  1.00  0.00     0.006 A 
ENDBRANCH  57  78
BRANCH  69  86
ATOM     86  C   UNL     1      -2.860  -3.843   7.075  1.00  0.00     0.057 A 
ATOM     87  C   UNL     1      -4.258  -3.876   6.977  1.00  0.00     0.134 A 
ATOM     88  C   UNL     1      -2.295  -3.866   8.353  1.00  0.00     0.134 A 
ATOM     89  F   UNL     1      -4.859  -3.827   5.778  1.00  0.00    -0.206 F 
ATOM     90  C   UNL     1      -5.065  -3.898   8.115  1.00  0.00     0.040 A 
ATOM     91  C   UNL     1      -3.091  -3.914   9.497  1.00  0.00     0.040 A 
ATOM     92  F   UNL     1      -0.963  -3.830   8.509  1.00  0.00    -0.206 F 
ATOM     93  C   UNL     1      -4.479  -3.920   9.380  1.00  0.00     0.006 A 
ENDBRANCH  69  86
ENDBRANCH  43  44
ENDBRANCH  36  38
ENDBRANCH  35  36
ENDBRANCH  34  35
ENDBRANCH  33  34
ENDBRANCH  32  33
ENDBRANCH  31  32
ENDBRANCH  30  31
ENDBRANCH  29  30
ENDBRANCH  28  29
ENDBRANCH   1  28
TORSDOF 25
