REMARK SMILES Cc1ccc(NC(=O)c2ccccc2NC(=O)[C@H]2CCCC[C@H]2C(=O)OCCOCCOCCOCCOC(=O)c2ccc(-c3c4nc(c(-c5c(F)cccc5F)c5ccc([nH]5)c(-c5c(F)cccc5F)c5nc(c(-c6c(F)cccc6F)c6ccc3[nH]6)C=C5)C=C4)cc2)cc1
REMARK SMILES IDX 31 1 30 2 29 3 28 4 27 5 26 6 24 7 25 8 23 9 18 10 19 11
REMARK SMILES IDX 20 12 22 13 21 14 16 15 15 16 17 18 14 19 9 20 10 21 11 22
REMARK SMILES IDX 13 23 12 24 7 25 6 26 8 28 5 29 1 30 2 31 3 32 96 33 4 34
REMARK SMILES IDX 95 35 32 36 33 37 34 38 35 39 36 40 37 41 38 42 39 43 40 44
REMARK SMILES IDX 41 45 42 46 94 47 43 48 93 49 44 50 45 51 46 52 87 53 47 54
REMARK SMILES IDX 92 55 86 56 88 57 48 58 91 59 85 60 84 61 49 63 75 64 58 65
REMARK SMILES IDX 74 66 59 67 62 68 73 69 89 70 60 71 61 72 72 74 90 75 63 76
REMARK SMILES IDX 50 77 51 78 56 79 52 80 53 81 55 82 57 83 54 84 76 85 77 86
REMARK SMILES IDX 82 87 78 88 79 89 81 90 83 91 80 92 64 93 65 94 70 95 66 96
REMARK SMILES IDX 67 97 69 98 71 99 68 100
REMARK H PARENT 15 17 6 27 88 62 62 73
REMARK Flexibility Score: inf
ROOT
ATOM      1  C   UNL     1      -1.871   0.621   2.697  1.00  0.00     0.188 C 
ENDROOT
BRANCH   1   2
ATOM      2  C   UNL     1      -3.245   0.895   3.307  1.00  0.00     0.188 C 
BRANCH   2   3
ATOM      3  O   UNL     1      -3.328   1.794   4.389  1.00  0.00    -0.376 OA
BRANCH   3   4
ATOM      4  C   UNL     1      -2.883   1.317   5.652  1.00  0.00     0.202 C 
BRANCH   4   5
ATOM      5  C   UNL     1      -3.193  -0.107   6.083  1.00  0.00     0.261 C 
BRANCH   5   6
ATOM      6  O   UNL     1      -2.187  -1.022   5.599  1.00  0.00    -0.463 OA
BRANCH   6   7
ATOM      7  C   UNL     1      -2.656  -2.045   4.870  1.00  0.00     0.309 C 
ATOM      8  O   UNL     1      -3.846  -2.215   4.605  1.00  0.00    -0.252 OA
BRANCH   7   9
ATOM      9  C   UNL     1      -1.623  -3.053   4.433  1.00  0.00     0.111 C 
ATOM     10  C   UNL     1      -0.497  -2.724   3.417  1.00  0.00     0.093 C 
ATOM     11  C   UNL     1      -0.137  -4.077   2.750  1.00  0.00     0.014 C 
ATOM     12  C   UNL     1       0.117  -5.210   3.768  1.00  0.00     0.001 C 
ATOM     13  C   UNL     1      -1.269  -4.055   5.521  1.00  0.00     0.016 C 
ATOM     14  C   UNL     1      -0.970  -5.382   4.831  1.00  0.00     0.001 C 
BRANCH  10  15
ATOM     15  C   UNL     1       0.838  -2.094   3.870  1.00  0.00     0.228 C 
ATOM     16  N   UNL     1       1.678  -1.337   3.066  1.00  0.00    -0.325 N 
ATOM     17  H   UNL     1       2.552  -1.197   3.497  1.00  0.00     0.169 HD
ATOM     18  O   UNL     1       1.274  -2.339   5.002  1.00  0.00    -0.274 OA
BRANCH  16  19
ATOM     19  C   UNL     1       1.626  -0.703   1.782  1.00  0.00     0.054 A 
ATOM     20  C   UNL     1       2.604   0.262   1.378  1.00  0.00     0.063 A 
ATOM     21  C   UNL     1       2.409   1.041   0.208  1.00  0.00     0.016 A 
ATOM     22  C   UNL     1       1.275   0.889  -0.574  1.00  0.00     0.001 A 
ATOM     23  C   UNL     1       0.567  -0.909   0.892  1.00  0.00     0.027 A 
ATOM     24  C   UNL     1       0.367  -0.101  -0.240  1.00  0.00     0.002 A 
BRANCH  20  25
ATOM     25  C   UNL     1       3.801   0.736   2.127  1.00  0.00     0.257 C 
ATOM     26  N   UNL     1       4.814  -0.079   2.565  1.00  0.00    -0.322 N 
ATOM     27  H   UNL     1       5.617   0.388   2.892  1.00  0.00     0.170 HD
ATOM     28  O   UNL     1       3.895   1.946   2.352  1.00  0.00    -0.269 OA
BRANCH  26  29
ATOM     29  C   UNL     1       4.874  -1.468   2.615  1.00  0.00     0.041 A 
ATOM     30  C   UNL     1       3.941  -5.517   3.558  1.00  0.00     0.044 C 
ATOM     31  C   UNL     1       4.380  -4.135   3.191  1.00  0.00    -0.051 A 
ATOM     32  C   UNL     1       4.055  -3.617   1.933  1.00  0.00     0.005 A 
ATOM     33  C   UNL     1       5.090  -3.346   4.099  1.00  0.00     0.005 A 
ATOM     34  C   UNL     1       4.319  -2.285   1.637  1.00  0.00     0.026 A 
ATOM     35  C   UNL     1       5.367  -2.018   3.798  1.00  0.00     0.026 A 
ENDBRANCH  26  29
ENDBRANCH  20  25
ENDBRANCH  16  19
ENDBRANCH  10  15
ENDBRANCH   7   9
ENDBRANCH   6   7
ENDBRANCH   5   6
ENDBRANCH   4   5
ENDBRANCH   3   4
ENDBRANCH   2   3
ENDBRANCH   1   2
BRANCH   1  36
ATOM     36  O   UNL     1      -0.800   0.315   3.571  1.00  0.00    -0.377 OA
BRANCH  36  37
ATOM     37  C   UNL     1       0.120   1.338   3.945  1.00  0.00     0.188 C 
BRANCH  37  38
ATOM     38  C   UNL     1       0.454   2.433   2.953  1.00  0.00     0.188 C 
BRANCH  38  39
ATOM     39  O   UNL     1      -0.685   3.258   2.748  1.00  0.00    -0.376 OA
BRANCH  39  40
ATOM     40  C   UNL     1      -0.685   3.930   1.491  1.00  0.00     0.202 C 
BRANCH  40  41
ATOM     41  C   UNL     1       0.472   4.923   1.343  1.00  0.00     0.261 C 
BRANCH  41  42
ATOM     42  O   UNL     1       0.367   5.910   2.390  1.00  0.00    -0.460 OA
BRANCH  42  43
ATOM     43  C   UNL     1       1.360   5.887   3.309  1.00  0.00     0.338 C 
ATOM     44  O   UNL     1       2.568   5.895   3.045  1.00  0.00    -0.246 OA
BRANCH  43  45
ATOM     45  C   UNL     1       0.820   5.583   4.661  1.00  0.00     0.060 A 
ATOM     46  C   UNL     1       1.695   5.319   5.726  1.00  0.00     0.016 A 
ATOM     47  C   UNL     1      -0.521   5.233   4.783  1.00  0.00     0.016 A 
ATOM     48  C   UNL     1       1.269   4.539   6.811  1.00  0.00     0.010 A 
ATOM     49  C   UNL     1      -0.894   4.364   5.791  1.00  0.00     0.010 A 
ATOM     50  C   UNL     1       0.005   3.961   6.790  1.00  0.00    -0.014 A 
BRANCH  50  51
ATOM     51  C   UNL     1      -0.431   2.840   7.646  1.00  0.00     0.031 A 
ATOM     52  C   UNL     1      -1.754   2.930   8.334  1.00  0.00     0.074 A 
ATOM     53  C   UNL     1       0.178   1.627   7.519  1.00  0.00     0.049 A 
ATOM     54  N   UNL     1      -2.289   1.963   8.992  1.00  0.00    -0.248 NA
ATOM     55  C   UNL     1      -2.637   4.097   8.290  1.00  0.00     0.031 C 
ATOM     56  C   UNL     1      -0.373   0.301   7.823  1.00  0.00     0.029 A 
ATOM     57  N   UNL     1       1.468   1.319   7.080  1.00  0.00    -0.354 N 
ATOM     58  C   UNL     1      -3.633   2.211   9.139  1.00  0.00     0.074 A 
ATOM     59  C   UNL     1      -3.784   3.594   8.767  1.00  0.00     0.031 C 
ATOM     60  C   UNL     1       0.571  -0.646   7.737  1.00  0.00     0.029 A 
ATOM     61  C   UNL     1       1.819   0.062   7.627  1.00  0.00     0.049 A 
ATOM     62  H   UNL     1       2.031   1.876   6.495  1.00  0.00     0.167 HD
ATOM     63  C   UNL     1      -4.449   1.155   9.438  1.00  0.00     0.037 A 
ATOM     64  C   UNL     1       2.799  -0.004   8.577  1.00  0.00     0.037 A 
ATOM     65  C   UNL     1      -3.659  -0.019   9.854  1.00  0.00     0.049 A 
ATOM     66  C   UNL     1       2.189  -0.348   9.922  1.00  0.00     0.074 A 
ATOM     67  C   UNL     1      -3.549  -1.341   9.456  1.00  0.00     0.029 A 
ATOM     68  N   UNL     1      -2.628   0.182  10.774  1.00  0.00    -0.354 N 
ATOM     69  N   UNL     1       0.957  -0.039  10.254  1.00  0.00    -0.248 NA
ATOM     70  C   UNL     1       2.817  -1.239  10.895  1.00  0.00     0.031 C 
ATOM     71  C   UNL     1      -2.349  -1.871  10.029  1.00  0.00     0.029 A 
ATOM     72  C   UNL     1      -1.781  -0.899  10.841  1.00  0.00     0.049 A 
ATOM     73  H   UNL     1      -2.521   1.000  11.310  1.00  0.00     0.167 HD
ATOM     74  C   UNL     1       0.588  -0.772  11.346  1.00  0.00     0.074 A 
ATOM     75  C   UNL     1       1.802  -1.459  11.752  1.00  0.00     0.031 C 
ATOM     76  C   UNL     1      -0.691  -0.895  11.807  1.00  0.00     0.037 A 
BRANCH  63  77
ATOM     77  C   UNL     1      -5.956   1.119   9.253  1.00  0.00     0.057 A 
ATOM     78  C   UNL     1      -6.718   0.055   9.781  1.00  0.00     0.134 A 
ATOM     79  C   UNL     1      -6.708   2.034   8.488  1.00  0.00     0.134 A 
ATOM     80  F   UNL     1      -6.149  -0.914  10.512  1.00  0.00    -0.206 F 
ATOM     81  C   UNL     1      -8.102  -0.078   9.580  1.00  0.00     0.040 A 
ATOM     82  C   UNL     1      -8.102   1.941   8.323  1.00  0.00     0.040 A 
ATOM     83  F   UNL     1      -6.134   3.035   7.812  1.00  0.00    -0.206 F 
ATOM     84  C   UNL     1      -8.805   0.878   8.864  1.00  0.00     0.006 A 
ENDBRANCH  63  77
BRANCH  64  85
ATOM     85  C   UNL     1       3.930   0.894   8.185  1.00  0.00     0.057 A 
ATOM     86  C   UNL     1       4.505   0.559   6.938  1.00  0.00     0.134 A 
ATOM     87  C   UNL     1       3.967   2.245   8.544  1.00  0.00     0.134 A 
ATOM     88  F   UNL     1       4.541  -0.723   6.543  1.00  0.00    -0.206 F 
ATOM     89  C   UNL     1       4.806   1.534   5.986  1.00  0.00     0.040 A 
ATOM     90  C   UNL     1       4.360   3.227   7.616  1.00  0.00     0.040 A 
ATOM     91  F   UNL     1       3.458   2.656   9.713  1.00  0.00    -0.206 F 
ATOM     92  C   UNL     1       4.686   2.877   6.306  1.00  0.00     0.006 A 
ENDBRANCH  64  85
BRANCH  76  93
ATOM     93  C   UNL     1      -1.026  -0.947  13.281  1.00  0.00     0.057 A 
ATOM     94  C   UNL     1      -0.111  -0.616  14.291  1.00  0.00     0.134 A 
ATOM     95  C   UNL     1      -2.366  -1.091  13.713  1.00  0.00     0.134 A 
ATOM     96  F   UNL     1       1.178  -0.361  14.028  1.00  0.00    -0.206 F 
ATOM     97  C   UNL     1      -0.490  -0.467  15.629  1.00  0.00     0.040 A 
ATOM     98  C   UNL     1      -2.764  -0.883  15.035  1.00  0.00     0.040 A 
ATOM     99  F   UNL     1      -3.363  -1.389  12.868  1.00  0.00    -0.206 F 
ATOM    100  C   UNL     1      -1.821  -0.581  16.003  1.00  0.00     0.006 A 
ENDBRANCH  76  93
ENDBRANCH  50  51
ENDBRANCH  43  45
ENDBRANCH  42  43
ENDBRANCH  41  42
ENDBRANCH  40  41
ENDBRANCH  39  40
ENDBRANCH  38  39
ENDBRANCH  37  38
ENDBRANCH  36  37
ENDBRANCH   1  36
TORSDOF 24
