REMARK SMILES CCC(=O)Nc1cc(NC(=O)/C=C/C(=O)OCCOCCOCCOCCOC(=O)c2ccc(-c3c4nc(c(-c5c(F)cccc5F)c5ccc([nH]5)c(-c5c(F)cccc5F)c5nc(c(-c6c(F)cccc6F)c6ccc3[nH]6)C=C5)C=C4)cc2)ccc1C
REMARK SMILES IDX 21 1 20 2 19 3 18 4 17 5 16 6 14 7 15 8 13 9 12 10 10 11
REMARK SMILES IDX 9 12 11 14 8 15 6 16 7 17 87 18 86 19 88 20 85 21 5 22 3 23
REMARK SMILES IDX 4 24 2 26 1 27 22 28 23 29 24 30 25 31 26 32 27 33 28 34
REMARK SMILES IDX 29 35 30 36 31 37 32 38 84 39 33 40 83 41 34 42 35 43 36 44
REMARK SMILES IDX 77 45 37 46 82 47 76 48 78 49 38 50 81 51 75 52 74 53 39 55
REMARK SMILES IDX 65 56 48 57 64 58 49 59 52 60 63 61 79 62 50 63 51 64 62 66
REMARK SMILES IDX 80 67 53 68 40 69 41 70 46 71 42 72 43 73 45 74 47 75 44 76
REMARK SMILES IDX 66 77 67 78 72 79 68 80 69 81 71 82 73 83 70 84 54 85 55 86
REMARK SMILES IDX 60 87 56 88 57 89 59 90 61 91 58 92
REMARK H PARENT 9 13 5 25 78 54 52 65
REMARK Flexibility Score: inf
ROOT
ATOM      1  C   UNL     1       6.131   3.318   1.641  1.00  0.00     0.188 C 
ENDROOT
BRANCH   1   2
ATOM      2  C   UNL     1       4.721   3.253   1.032  1.00  0.00     0.188 C 
BRANCH   2   3
ATOM      3  O   UNL     1       3.871   2.300   1.665  1.00  0.00    -0.376 OA
BRANCH   3   4
ATOM      4  C   UNL     1       3.115   2.871   2.723  1.00  0.00     0.202 C 
BRANCH   4   5
ATOM      5  C   UNL     1       2.296   1.823   3.454  1.00  0.00     0.261 C 
BRANCH   5   6
ATOM      6  O   UNL     1       3.022   1.084   4.449  1.00  0.00    -0.460 OA
BRANCH   6   7
ATOM      7  C   UNL     1       3.696  -0.021   4.213  1.00  0.00     0.331 C 
ATOM      8  O   UNL     1       3.348  -1.153   4.572  1.00  0.00    -0.247 OA
BRANCH   7   9
ATOM      9  C   UNL     1       5.009   0.250   3.638  1.00  0.00     0.099 C 
ATOM     10  C   UNL     1       5.937  -0.623   4.027  1.00  0.00     0.079 C 
BRANCH  10  11
ATOM     11  C   UNL     1       6.967  -1.115   3.114  1.00  0.00     0.248 C 
ATOM     12  N   UNL     1       6.709  -1.504   1.823  1.00  0.00    -0.322 N 
ATOM     13  H   UNL     1       7.491  -1.938   1.411  1.00  0.00     0.170 HD
ATOM     14  O   UNL     1       8.111  -1.244   3.556  1.00  0.00    -0.270 OA
BRANCH  12  15
ATOM     15  C   UNL     1       5.609  -1.445   0.926  1.00  0.00     0.043 A 
ATOM     16  C   UNL     1       3.377  -0.642   0.338  1.00  0.00     0.046 A 
ATOM     17  C   UNL     1       4.271  -1.243   1.249  1.00  0.00     0.052 A 
ATOM     18  C   UNL     1       3.784  -0.437  -0.982  1.00  0.00    -0.027 A 
ATOM     19  C   UNL     1       5.014  -0.975  -1.379  1.00  0.00     0.008 A 
ATOM     20  C   UNL     1       3.067   0.466  -1.949  1.00  0.00     0.046 C 
ATOM     21  C   UNL     1       5.928  -1.448  -0.429  1.00  0.00     0.026 A 
BRANCH  16  22
ATOM     22  N   UNL     1       2.461   0.254   0.905  1.00  0.00    -0.326 N 
ATOM     23  C   UNL     1       1.140   0.500   0.678  1.00  0.00     0.224 C 
ATOM     24  O   UNL     1       0.726   1.663   0.682  1.00  0.00    -0.275 OA
ATOM     25  H   UNL     1       2.851   0.820   1.610  1.00  0.00     0.169 HD
BRANCH  23  26
ATOM     26  C   UNL     1       0.194  -0.655   0.613  1.00  0.00     0.097 C 
ATOM     27  C   UNL     1       0.226  -1.326  -0.731  1.00  0.00     0.014 C 
ENDBRANCH  23  26
ENDBRANCH  16  22
ENDBRANCH  12  15
ENDBRANCH  10  11
ENDBRANCH   7   9
ENDBRANCH   6   7
ENDBRANCH   5   6
ENDBRANCH   4   5
ENDBRANCH   3   4
ENDBRANCH   2   3
ENDBRANCH   1   2
BRANCH   1  28
ATOM     28  O   UNL     1       6.275   3.787   2.975  1.00  0.00    -0.377 OA
BRANCH  28  29
ATOM     29  C   UNL     1       5.928   5.132   3.276  1.00  0.00     0.188 C 
BRANCH  29  30
ATOM     30  C   UNL     1       6.265   6.209   2.253  1.00  0.00     0.188 C 
BRANCH  30  31
ATOM     31  O   UNL     1       5.287   6.167   1.218  1.00  0.00    -0.376 OA
BRANCH  31  32
ATOM     32  C   UNL     1       5.635   6.841   0.013  1.00  0.00     0.202 C 
BRANCH  32  33
ATOM     33  C   UNL     1       5.885   8.344   0.192  1.00  0.00     0.261 C 
BRANCH  33  34
ATOM     34  O   UNL     1       4.694   8.964   0.719  1.00  0.00    -0.460 OA
BRANCH  34  35
ATOM     35  C   UNL     1       4.772   9.409   1.993  1.00  0.00     0.338 C 
ATOM     36  O   UNL     1       5.727  10.037   2.476  1.00  0.00    -0.246 OA
BRANCH  35  37
ATOM     37  C   UNL     1       3.731   8.759   2.829  1.00  0.00     0.060 A 
ATOM     38  C   UNL     1       3.767   8.882   4.230  1.00  0.00     0.016 A 
ATOM     39  C   UNL     1       2.970   7.751   2.246  1.00  0.00     0.016 A 
ATOM     40  C   UNL     1       3.175   7.905   5.043  1.00  0.00     0.010 A 
ATOM     41  C   UNL     1       2.507   6.731   3.047  1.00  0.00     0.010 A 
ATOM     42  C   UNL     1       2.610   6.779   4.447  1.00  0.00    -0.014 A 
BRANCH  42  43
ATOM     43  C   UNL     1       2.235   5.532   5.143  1.00  0.00     0.031 A 
ATOM     44  C   UNL     1       0.890   4.914   4.833  1.00  0.00     0.074 A 
ATOM     45  C   UNL     1       3.248   4.842   5.727  1.00  0.00     0.049 A 
ATOM     46  N   UNL     1       0.412   3.812   5.308  1.00  0.00    -0.248 NA
ATOM     47  C   UNL     1      -0.065   5.532   3.910  1.00  0.00     0.031 C 
ATOM     48  C   UNL     1       3.339   3.405   5.901  1.00  0.00     0.029 A 
ATOM     49  N   UNL     1       4.482   5.248   6.202  1.00  0.00    -0.354 N 
ATOM     50  C   UNL     1      -0.669   3.405   4.519  1.00  0.00     0.074 A 
ATOM     51  C   UNL     1      -0.982   4.575   3.746  1.00  0.00     0.031 C 
ATOM     52  C   UNL     1       4.522   3.025   6.407  1.00  0.00     0.029 A 
ATOM     53  C   UNL     1       5.089   4.222   6.946  1.00  0.00     0.049 A 
ATOM     54  H   UNL     1       4.881   6.133   6.041  1.00  0.00     0.167 HD
ATOM     55  C   UNL     1      -1.069   2.087   4.516  1.00  0.00     0.037 A 
ATOM     56  C   UNL     1       5.217   4.369   8.299  1.00  0.00     0.037 A 
ATOM     57  C   UNL     1      -0.301   1.314   5.526  1.00  0.00     0.049 A 
ATOM     58  C   UNL     1       4.130   3.559   9.045  1.00  0.00     0.074 A 
ATOM     59  C   UNL     1       0.427   0.137   5.506  1.00  0.00     0.029 A 
ATOM     60  N   UNL     1      -0.038   1.879   6.782  1.00  0.00    -0.354 N 
ATOM     61  N   UNL     1       2.944   3.275   8.529  1.00  0.00    -0.248 NA
ATOM     62  C   UNL     1       4.371   2.780  10.264  1.00  0.00     0.031 C 
ATOM     63  C   UNL     1       1.261   0.110   6.667  1.00  0.00     0.029 A 
ATOM     64  C   UNL     1       0.973   1.220   7.449  1.00  0.00     0.049 A 
ATOM     65  H   UNL     1      -0.519   2.658   7.145  1.00  0.00     0.167 HD
ATOM     66  C   UNL     1       2.356   2.239   9.219  1.00  0.00     0.074 A 
ATOM     67  C   UNL     1       3.272   2.001  10.324  1.00  0.00     0.031 C 
ATOM     68  C   UNL     1       1.252   1.507   8.850  1.00  0.00     0.037 A 
BRANCH  55  69
ATOM     69  C   UNL     1      -1.999   1.390   3.474  1.00  0.00     0.057 A 
ATOM     70  C   UNL     1      -2.303   0.007   3.568  1.00  0.00     0.134 A 
ATOM     71  C   UNL     1      -2.572   1.977   2.322  1.00  0.00     0.134 A 
ATOM     72  F   UNL     1      -1.919  -0.727   4.619  1.00  0.00    -0.206 F 
ATOM     73  C   UNL     1      -3.033  -0.717   2.597  1.00  0.00     0.040 A 
ATOM     74  C   UNL     1      -3.338   1.273   1.364  1.00  0.00     0.040 A 
ATOM     75  F   UNL     1      -2.434   3.268   2.024  1.00  0.00    -0.206 F 
ATOM     76  C   UNL     1      -3.557  -0.085   1.485  1.00  0.00     0.006 A 
ENDBRANCH  55  69
BRANCH  56  77
ATOM     77  C   UNL     1       6.047   5.609   8.532  1.00  0.00     0.057 A 
ATOM     78  C   UNL     1       7.349   5.478   7.972  1.00  0.00     0.134 A 
ATOM     79  C   UNL     1       5.457   6.878   8.383  1.00  0.00     0.134 A 
ATOM     80  F   UNL     1       8.000   4.308   8.080  1.00  0.00    -0.206 F 
ATOM     81  C   UNL     1       7.860   6.401   7.044  1.00  0.00     0.040 A 
ATOM     82  C   UNL     1       5.989   7.829   7.482  1.00  0.00     0.040 A 
ATOM     83  F   UNL     1       4.240   7.123   8.887  1.00  0.00    -0.206 F 
ATOM     84  C   UNL     1       7.148   7.558   6.753  1.00  0.00     0.006 A 
ENDBRANCH  56  77
BRANCH  68  85
ATOM     85  C   UNL     1       0.255   0.921   9.840  1.00  0.00     0.057 A 
ATOM     86  C   UNL     1       0.135   1.389  11.153  1.00  0.00     0.134 A 
ATOM     87  C   UNL     1      -0.801   0.066   9.417  1.00  0.00     0.134 A 
ATOM     88  F   UNL     1       1.007   2.264  11.671  1.00  0.00    -0.206 F 
ATOM     89  C   UNL     1      -0.935   1.030  11.982  1.00  0.00     0.040 A 
ATOM     90  C   UNL     1      -1.899  -0.250  10.216  1.00  0.00     0.040 A 
ATOM     91  F   UNL     1      -0.858  -0.470   8.191  1.00  0.00    -0.206 F 
ATOM     92  C   UNL     1      -1.967   0.229  11.509  1.00  0.00     0.006 A 
ENDBRANCH  68  85
ENDBRANCH  42  43
ENDBRANCH  35  37
ENDBRANCH  34  35
ENDBRANCH  33  34
ENDBRANCH  32  33
ENDBRANCH  31  32
ENDBRANCH  30  31
ENDBRANCH  29  30
ENDBRANCH  28  29
ENDBRANCH   1  28
TORSDOF 24
