REMARK SMILES CCOc1ccc(-c2cc(Cl)cc3c2O[C@@H](C(F)(F)F)C(C(=O)OCCOCCOCCOCCOC(=O)c2ccc(-c4c5nc(c(-c6c(F)cccc6F)c6ccc([nH]6)c(-c6c(F)cccc6F)c6nc(c(-c7c(F)cccc7F)c7ccc4[nH]7)C=C6)C=C5)cc2)=C3)cc1
REMARK SMILES IDX 29 1 28 2 27 3 26 4 25 5 24 6 22 7 23 8 21 9 8 10 9 11 14 12
REMARK SMILES IDX 10 13 13 14 15 15 11 16 12 17 93 18 16 19 7 20 4 21 5 22
REMARK SMILES IDX 95 23 6 24 94 25 3 26 2 27 1 28 17 29 18 30 19 31 20 32
REMARK SMILES IDX 30 33 31 34 32 35 33 36 34 37 35 38 36 39 37 40 38 41 39 42
REMARK SMILES IDX 40 43 92 44 41 45 91 46 42 47 43 48 44 49 85 50 45 51 90 52
REMARK SMILES IDX 84 53 86 54 46 55 89 56 83 57 82 58 47 60 73 61 56 62 72 63
REMARK SMILES IDX 57 64 60 65 71 66 87 67 58 68 59 69 70 71 88 72 61 73 48 74
REMARK SMILES IDX 49 75 54 76 50 77 51 78 53 79 55 80 52 81 74 82 75 83 80 84
REMARK SMILES IDX 76 85 77 86 79 87 81 88 78 89 62 90 63 91 68 92 64 93 65 94
REMARK SMILES IDX 67 95 69 96 66 97
REMARK H PARENT 86 59 60 70
REMARK Flexibility Score: inf
ROOT
ATOM      1  C   UNL     1      10.747   6.494  -2.273  1.00  0.00     0.188 C 
ENDROOT
BRANCH   1   2
ATOM      2  C   UNL     1      10.431   5.812  -0.936  1.00  0.00     0.188 C 
BRANCH   2   3
ATOM      3  O   UNL     1      11.492   5.881   0.014  1.00  0.00    -0.376 OA
BRANCH   3   4
ATOM      4  C   UNL     1      12.383   4.770   0.093  1.00  0.00     0.202 C 
BRANCH   4   5
ATOM      5  C   UNL     1      12.989   4.256  -1.218  1.00  0.00     0.261 C 
BRANCH   5   6
ATOM      6  O   UNL     1      11.968   3.639  -2.034  1.00  0.00    -0.460 OA
BRANCH   6   7
ATOM      7  C   UNL     1      11.761   2.329  -1.821  1.00  0.00     0.338 C 
ATOM      8  O   UNL     1      12.474   1.613  -1.130  1.00  0.00    -0.246 OA
BRANCH   7   9
ATOM      9  C   UNL     1      10.460   1.864  -2.361  1.00  0.00     0.087 C 
ATOM     10  C   UNL     1       7.080   3.739  -0.844  1.00  0.00     0.026 A 
ATOM     11  C   UNL     1       7.402   4.194   0.455  1.00  0.00     0.033 A 
ATOM     12  C   UNL     1       8.082   2.990  -1.495  1.00  0.00     0.135 A 
ATOM     13  C   UNL     1       8.457   3.625   1.168  1.00  0.00     0.042 A 
ATOM     14  C   UNL     1       8.978   2.248  -0.713  1.00  0.00     0.019 A 
ATOM     15  O   UNL     1       8.351   3.179  -2.847  1.00  0.00    -0.475 OA
ATOM     16  Cl  UNL     1       8.801   4.170   2.759  1.00  0.00    -0.084 Cl
ATOM     17  C   UNL     1       9.175   2.569   0.625  1.00  0.00     0.032 A 
ATOM     18  C   UNL     1       9.796   1.217  -1.386  1.00  0.00     0.027 C 
ATOM     19  C   UNL     1       9.572   2.522  -3.404  1.00  0.00     0.316 C 
BRANCH  10  20
ATOM     20  C   UNL     1       5.609   3.511  -1.065  1.00  0.00    -0.014 A 
ATOM     21  C   UNL     1       2.882   2.772  -0.670  1.00  0.00     0.119 A 
ATOM     22  C   UNL     1       3.290   4.090  -0.485  1.00  0.00     0.047 A 
ATOM     23  C   UNL     1       3.799   1.839  -1.137  1.00  0.00     0.047 A 
ATOM     24  C   UNL     1       4.635   4.456  -0.682  1.00  0.00     0.013 A 
ATOM     25  C   UNL     1       5.142   2.205  -1.332  1.00  0.00     0.013 A 
BRANCH  21  26
ATOM     26  O   UNL     1       1.559   2.474  -0.492  1.00  0.00    -0.494 OA
BRANCH  26  27
ATOM     27  C   UNL     1       1.288   1.506   0.533  1.00  0.00     0.226 C 
ATOM     28  C   UNL     1       1.026   0.128  -0.056  1.00  0.00     0.049 C 
ENDBRANCH  26  27
ENDBRANCH  21  26
ENDBRANCH  10  20
BRANCH  19  29
ATOM     29  C   UNL     1      10.261   3.271  -4.574  1.00  0.00     0.430 C 
ATOM     30  F   UNL     1      10.866   2.369  -5.394  1.00  0.00    -0.167 F 
ATOM     31  F   UNL     1       9.358   3.934  -5.336  1.00  0.00    -0.167 F 
ATOM     32  F   UNL     1      11.209   4.155  -4.232  1.00  0.00    -0.167 F 
ENDBRANCH  19  29
ENDBRANCH   7   9
ENDBRANCH   6   7
ENDBRANCH   5   6
ENDBRANCH   4   5
ENDBRANCH   3   4
ENDBRANCH   2   3
ENDBRANCH   1   2
BRANCH   1  33
ATOM     33  O   UNL     1      12.107   6.869  -2.387  1.00  0.00    -0.377 OA
BRANCH  33  34
ATOM     34  C   UNL     1      12.494   8.107  -1.801  1.00  0.00     0.188 C 
BRANCH  34  35
ATOM     35  C   UNL     1      11.704   8.725  -0.624  1.00  0.00     0.188 C 
BRANCH  35  36
ATOM     36  O   UNL     1      10.290   8.738  -0.805  1.00  0.00    -0.376 OA
BRANCH  36  37
ATOM     37  C   UNL     1       9.684   9.992  -1.087  1.00  0.00     0.202 C 
BRANCH  37  38
ATOM     38  C   UNL     1       9.800  10.419  -2.555  1.00  0.00     0.261 C 
BRANCH  38  39
ATOM     39  O   UNL     1      11.142  10.641  -3.012  1.00  0.00    -0.460 OA
BRANCH  39  40
ATOM     40  C   UNL     1      11.861  11.588  -2.373  1.00  0.00     0.338 C 
ATOM     41  O   UNL     1      11.478  12.342  -1.494  1.00  0.00    -0.246 OA
BRANCH  40  42
ATOM     42  C   UNL     1      13.271  11.434  -2.780  1.00  0.00     0.060 A 
ATOM     43  C   UNL     1      14.246  11.281  -1.785  1.00  0.00     0.016 A 
ATOM     44  C   UNL     1      13.623  11.420  -4.131  1.00  0.00     0.016 A 
ATOM     45  C   UNL     1      15.588  11.157  -2.143  1.00  0.00     0.010 A 
ATOM     46  C   UNL     1      14.967  11.316  -4.487  1.00  0.00     0.010 A 
ATOM     47  C   UNL     1      15.956  11.222  -3.493  1.00  0.00    -0.014 A 
BRANCH  47  48
ATOM     48  C   UNL     1      17.376  11.421  -3.859  1.00  0.00     0.031 A 
ATOM     49  C   UNL     1      17.861  12.832  -4.050  1.00  0.00     0.074 A 
ATOM     50  C   UNL     1      18.214  10.385  -4.026  1.00  0.00     0.049 A 
ATOM     51  N   UNL     1      19.036  13.264  -4.425  1.00  0.00    -0.248 NA
ATOM     52  C   UNL     1      16.881  13.899  -3.785  1.00  0.00     0.031 C 
ATOM     53  C   UNL     1      17.869   8.977  -3.844  1.00  0.00     0.029 A 
ATOM     54  N   UNL     1      19.533  10.365  -4.404  1.00  0.00    -0.354 N 
ATOM     55  C   UNL     1      18.936  14.649  -4.444  1.00  0.00     0.074 A 
ATOM     56  C   UNL     1      17.581  14.986  -4.071  1.00  0.00     0.031 C 
ATOM     57  C   UNL     1      18.948   8.226  -4.129  1.00  0.00     0.029 A 
ATOM     58  C   UNL     1      20.048   9.100  -4.538  1.00  0.00     0.049 A 
ATOM     59  H   UNL     1      20.060  11.181  -4.564  1.00  0.00     0.167 HD
ATOM     60  C   UNL     1      19.891  15.560  -4.740  1.00  0.00     0.037 A 
ATOM     61  C   UNL     1      21.261   8.699  -4.964  1.00  0.00     0.037 A 
ATOM     62  C   UNL     1      21.236  15.226  -5.121  1.00  0.00     0.049 A 
ATOM     63  C   UNL     1      22.289   9.730  -5.352  1.00  0.00     0.074 A 
ATOM     64  C   UNL     1      22.283  16.077  -5.425  1.00  0.00     0.029 A 
ATOM     65  N   UNL     1      21.714  13.932  -5.261  1.00  0.00    -0.354 N 
ATOM     66  N   UNL     1      22.198  11.039  -5.334  1.00  0.00    -0.248 NA
ATOM     67  C   UNL     1      23.590   9.229  -5.819  1.00  0.00     0.031 C 
ATOM     68  C   UNL     1      23.384  15.297  -5.793  1.00  0.00     0.029 A 
ATOM     69  C   UNL     1      23.036  13.961  -5.671  1.00  0.00     0.049 A 
ATOM     70  H   UNL     1      21.192  13.114  -5.094  1.00  0.00     0.167 HD
ATOM     71  C   UNL     1      23.433  11.515  -5.757  1.00  0.00     0.074 A 
ATOM     72  C   UNL     1      24.261  10.355  -6.017  1.00  0.00     0.031 C 
ATOM     73  C   UNL     1      23.847  12.796  -5.915  1.00  0.00     0.037 A 
BRANCH  60  74
ATOM     74  C   UNL     1      19.500  17.006  -4.687  1.00  0.00     0.057 A 
ATOM     75  C   UNL     1      19.275  17.667  -3.473  1.00  0.00     0.134 A 
ATOM     76  C   UNL     1      19.363  17.750  -5.865  1.00  0.00     0.134 A 
ATOM     77  F   UNL     1      19.371  17.004  -2.310  1.00  0.00    -0.206 F 
ATOM     78  C   UNL     1      18.909  19.013  -3.433  1.00  0.00     0.040 A 
ATOM     79  C   UNL     1      19.020  19.102  -5.837  1.00  0.00     0.040 A 
ATOM     80  F   UNL     1      19.562  17.176  -7.061  1.00  0.00    -0.206 F 
ATOM     81  C   UNL     1      18.788  19.736  -4.618  1.00  0.00     0.006 A 
ENDBRANCH  60  74
BRANCH  61  82
ATOM     82  C   UNL     1      21.574   7.251  -5.066  1.00  0.00     0.057 A 
ATOM     83  C   UNL     1      22.496   6.645  -4.205  1.00  0.00     0.134 A 
ATOM     84  C   UNL     1      20.979   6.445  -6.044  1.00  0.00     0.134 A 
ATOM     85  F   UNL     1      23.119   7.370  -3.264  1.00  0.00    -0.206 F 
ATOM     86  C   UNL     1      22.828   5.294  -4.323  1.00  0.00     0.040 A 
ATOM     87  C   UNL     1      21.284   5.088  -6.159  1.00  0.00     0.040 A 
ATOM     88  F   UNL     1      20.090   6.967  -6.902  1.00  0.00    -0.206 F 
ATOM     89  C   UNL     1      22.217   4.510  -5.300  1.00  0.00     0.006 A 
ENDBRANCH  61  82
BRANCH  73  90
ATOM     90  C   UNL     1      25.265  13.017  -6.353  1.00  0.00     0.057 A 
ATOM     91  C   UNL     1      25.682  12.769  -7.667  1.00  0.00     0.134 A 
ATOM     92  C   UNL     1      26.212  13.539  -5.462  1.00  0.00     0.134 A 
ATOM     93  F   UNL     1      24.827  12.260  -8.567  1.00  0.00    -0.206 F 
ATOM     94  C   UNL     1      26.994  13.015  -8.073  1.00  0.00     0.040 A 
ATOM     95  C   UNL     1      27.520  13.813  -5.863  1.00  0.00     0.040 A 
ATOM     96  F   UNL     1      25.874  13.810  -4.192  1.00  0.00    -0.206 F 
ATOM     97  C   UNL     1      27.915  13.546  -7.172  1.00  0.00     0.006 A 
ENDBRANCH  73  90
ENDBRANCH  47  48
ENDBRANCH  40  42
ENDBRANCH  39  40
ENDBRANCH  38  39
ENDBRANCH  37  38
ENDBRANCH  36  37
ENDBRANCH  35  36
ENDBRANCH  34  35
ENDBRANCH  33  34
ENDBRANCH   1  33
TORSDOF 24
