REMARK SMILES Cc1c([C@H]2[C@H](C(=O)OCCOCCOCCOCCOC(=O)c3ccc(-c4c5nc(c(-c6c(F)cccc6F)c6ccc([nH]6)c(-c6c(F)cccc6F)c6nc(c(-c7c(F)cccc7F)c7ccc4[nH]7)C=C6)C=C5)cc3)OCC(=O)N2CC(C)C)cnn1C
REMARK SMILES IDX 14 1 13 2 12 3 11 4 10 5 9 6 8 7 6 8 7 9 5 10 4 11 81 12
REMARK SMILES IDX 77 13 79 14 78 15 80 16 3 17 1 18 2 19 88 20 86 21 87 22
REMARK SMILES IDX 89 23 82 24 83 25 84 26 85 27 15 28 16 29 17 30 18 31 19 32
REMARK SMILES IDX 20 33 21 34 22 35 23 36 24 37 76 38 25 39 75 40 26 41 27 42
REMARK SMILES IDX 28 43 69 44 29 45 74 46 68 47 70 48 30 49 73 50 67 51 66 52
REMARK SMILES IDX 31 54 57 55 40 56 56 57 41 58 44 59 55 60 71 61 42 62 43 63
REMARK SMILES IDX 54 65 72 66 45 67 32 68 33 69 38 70 34 71 35 72 37 73 39 74
REMARK SMILES IDX 36 75 58 76 59 77 64 78 60 79 61 80 63 81 65 82 62 83 46 84
REMARK SMILES IDX 47 85 52 86 48 87 49 88 51 89 53 90 50 91
REMARK H PARENT 70 53 44 64
REMARK Flexibility Score: inf
ROOT
ATOM      1  O   UNL     1      -4.016  -1.634  -0.157  1.00  0.00    -0.377 OA
ENDROOT
BRANCH   1   2
ATOM      2  C   UNL     1      -3.414  -1.739  -1.427  1.00  0.00     0.188 C 
BRANCH   2   3
ATOM      3  C   UNL     1      -4.051  -2.794  -2.335  1.00  0.00     0.188 C 
BRANCH   3   4
ATOM      4  O   UNL     1      -5.396  -3.187  -2.143  1.00  0.00    -0.376 OA
BRANCH   4   5
ATOM      5  C   UNL     1      -5.877  -3.617  -0.879  1.00  0.00     0.202 C 
BRANCH   5   6
ATOM      6  C   UNL     1      -5.063  -4.435   0.144  1.00  0.00     0.261 C 
BRANCH   6   7
ATOM      7  O   UNL     1      -3.633  -4.323   0.130  1.00  0.00    -0.461 OA
BRANCH   7   8
ATOM      8  C   UNL     1      -2.984  -5.333  -0.497  1.00  0.00     0.337 C 
ATOM      9  O   UNL     1      -3.553  -6.245  -1.091  1.00  0.00    -0.249 OA
BRANCH   8  10
ATOM     10  C   UNL     1      -1.455  -5.259  -0.376  1.00  0.00     0.255 C 
ATOM     11  C   UNL     1      -0.816  -3.889  -0.004  1.00  0.00     0.159 C 
ATOM     12  N   UNL     1      -0.562  -3.661   1.438  1.00  0.00    -0.330 N 
ATOM     13  O   UNL     1      -0.902  -6.302   0.422  1.00  0.00    -0.354 OA
ATOM     14  C   UNL     1      -0.775  -4.686   2.360  1.00  0.00     0.249 C 
ATOM     15  C   UNL     1      -1.158  -6.061   1.791  1.00  0.00     0.261 C 
ATOM     16  O   UNL     1      -0.744  -4.512   3.579  1.00  0.00    -0.272 OA
BRANCH  11  17
ATOM     17  C   UNL     1       0.404  -3.689  -0.879  1.00  0.00     0.019 A 
ATOM     18  C   UNL     1      -0.586  -2.790  -3.161  1.00  0.00     0.067 C 
ATOM     19  C   UNL     1       0.454  -3.281  -2.217  1.00  0.00     0.040 A 
ATOM     20  N   UNL     1       1.743  -3.519  -2.630  1.00  0.00    -0.273 N 
ATOM     21  C   UNL     1       1.742  -4.041  -0.588  1.00  0.00     0.141 A 
ATOM     22  N   UNL     1       2.555  -3.905  -1.636  1.00  0.00    -0.181 NA
ATOM     23  C   UNL     1       2.227  -3.533  -3.994  1.00  0.00     0.174 C 
ENDBRANCH  11  17
BRANCH  12  24
ATOM     24  C   UNL     1      -0.440  -2.277   1.958  1.00  0.00     0.123 C 
BRANCH  24  25
ATOM     25  C   UNL     1       1.003  -1.745   2.129  1.00  0.00     0.002 C 
ATOM     26  C   UNL     1       1.420  -0.850   0.959  1.00  0.00     0.009 C 
ATOM     27  C   UNL     1       1.131  -0.904   3.410  1.00  0.00     0.009 C 
ENDBRANCH  24  25
ENDBRANCH  12  24
ENDBRANCH   8  10
ENDBRANCH   7   8
ENDBRANCH   6   7
ENDBRANCH   5   6
ENDBRANCH   4   5
ENDBRANCH   3   4
ENDBRANCH   2   3
ENDBRANCH   1   2
BRANCH   1  28
ATOM     28  C   UNL     1      -4.889  -0.521   0.007  1.00  0.00     0.188 C 
BRANCH  28  29
ATOM     29  C   UNL     1      -5.728  -0.061  -1.212  1.00  0.00     0.188 C 
BRANCH  29  30
ATOM     30  O   UNL     1      -4.997   0.115  -2.419  1.00  0.00    -0.376 OA
BRANCH  30  31
ATOM     31  C   UNL     1      -4.505   1.403  -2.765  1.00  0.00     0.202 C 
BRANCH  31  32
ATOM     32  C   UNL     1      -3.490   2.088  -1.831  1.00  0.00     0.261 C 
BRANCH  32  33
ATOM     33  O   UNL     1      -3.893   2.272  -0.466  1.00  0.00    -0.460 OA
BRANCH  33  34
ATOM     34  C   UNL     1      -5.021   2.971  -0.231  1.00  0.00     0.338 C 
ATOM     35  O   UNL     1      -5.720   3.540  -1.053  1.00  0.00    -0.246 OA
BRANCH  34  36
ATOM     36  C   UNL     1      -5.397   2.755   1.182  1.00  0.00     0.060 A 
ATOM     37  C   UNL     1      -6.637   2.170   1.470  1.00  0.00     0.016 A 
ATOM     38  C   UNL     1      -4.529   3.117   2.214  1.00  0.00     0.016 A 
ATOM     39  C   UNL     1      -7.032   1.981   2.793  1.00  0.00     0.010 A 
ATOM     40  C   UNL     1      -4.938   2.956   3.541  1.00  0.00     0.010 A 
ATOM     41  C   UNL     1      -6.206   2.422   3.834  1.00  0.00    -0.014 A 
BRANCH  41  42
ATOM     42  C   UNL     1      -6.759   2.534   5.204  1.00  0.00     0.031 A 
ATOM     43  C   UNL     1      -7.273   3.875   5.652  1.00  0.00     0.074 A 
ATOM     44  C   UNL     1      -6.832   1.471   6.024  1.00  0.00     0.049 A 
ATOM     45  N   UNL     1      -7.750   4.240   6.813  1.00  0.00    -0.248 NA
ATOM     46  C   UNL     1      -7.242   4.954   4.649  1.00  0.00     0.031 C 
ATOM     47  C   UNL     1      -6.418   0.111   5.688  1.00  0.00     0.029 A 
ATOM     48  N   UNL     1      -7.276   1.380   7.319  1.00  0.00    -0.354 N 
ATOM     49  C   UNL     1      -8.057   5.589   6.687  1.00  0.00     0.074 A 
ATOM     50  C   UNL     1      -7.693   5.985   5.345  1.00  0.00     0.031 C 
ATOM     51  C   UNL     1      -6.617  -0.680   6.758  1.00  0.00     0.029 A 
ATOM     52  C   UNL     1      -7.135   0.126   7.862  1.00  0.00     0.049 A 
ATOM     53  H   UNL     1      -7.659   2.141   7.813  1.00  0.00     0.167 HD
ATOM     54  C   UNL     1      -8.598   6.421   7.606  1.00  0.00     0.037 A 
ATOM     55  C   UNL     1      -7.374  -0.308   9.115  1.00  0.00     0.037 A 
ATOM     56  C   UNL     1      -8.963   6.021   8.939  1.00  0.00     0.049 A 
ATOM     57  C   UNL     1      -7.897   0.661  10.146  1.00  0.00     0.074 A 
ATOM     58  C   UNL     1      -9.544   6.783   9.937  1.00  0.00     0.029 A 
ATOM     59  N   UNL     1      -8.770   4.753   9.463  1.00  0.00    -0.354 N 
ATOM     60  N   UNL     1      -8.215   1.926  10.010  1.00  0.00    -0.248 NA
ATOM     61  C   UNL     1      -8.095   0.139  11.506  1.00  0.00     0.031 C 
ATOM     62  C   UNL     1      -9.642   5.993  11.086  1.00  0.00     0.029 A 
ATOM     63  C   UNL     1      -9.188   4.720  10.783  1.00  0.00     0.049 A 
ATOM     64  H   UNL     1      -8.392   3.989   8.971  1.00  0.00     0.167 HD
ATOM     65  C   UNL     1      -8.686   2.338  11.252  1.00  0.00     0.074 A 
ATOM     66  C   UNL     1      -8.622   1.185  12.125  1.00  0.00     0.031 C 
ATOM     67  C   UNL     1      -9.133   3.560  11.636  1.00  0.00     0.037 A 
BRANCH  54  68
ATOM     68  C   UNL     1      -8.791   7.858   7.216  1.00  0.00     0.057 A 
ATOM     69  C   UNL     1      -9.760   8.257   6.287  1.00  0.00     0.134 A 
ATOM     70  C   UNL     1      -8.015   8.862   7.811  1.00  0.00     0.134 A 
ATOM     71  F   UNL     1     -10.525   7.345   5.668  1.00  0.00    -0.206 F 
ATOM     72  C   UNL     1      -9.937   9.600   5.948  1.00  0.00     0.040 A 
ATOM     73  C   UNL     1      -8.202  10.210   7.503  1.00  0.00     0.040 A 
ATOM     74  F   UNL     1      -7.069   8.550   8.710  1.00  0.00    -0.206 F 
ATOM     75  C   UNL     1      -9.162  10.581   6.564  1.00  0.00     0.006 A 
ENDBRANCH  54  68
BRANCH  55  76
ATOM     76  C   UNL     1      -7.105  -1.723   9.486  1.00  0.00     0.057 A 
ATOM     77  C   UNL     1      -8.145  -2.588   9.846  1.00  0.00     0.134 A 
ATOM     78  C   UNL     1      -5.801  -2.230   9.536  1.00  0.00     0.134 A 
ATOM     79  F   UNL     1      -9.415  -2.155   9.845  1.00  0.00    -0.206 F 
ATOM     80  C   UNL     1      -7.897  -3.896  10.268  1.00  0.00     0.040 A 
ATOM     81  C   UNL     1      -5.541  -3.545   9.925  1.00  0.00     0.040 A 
ATOM     82  F   UNL     1      -4.759  -1.453   9.206  1.00  0.00    -0.206 F 
ATOM     83  C   UNL     1      -6.590  -4.379  10.303  1.00  0.00     0.006 A 
ENDBRANCH  55  76
BRANCH  67  84
ATOM     84  C   UNL     1      -9.642   3.703  13.043  1.00  0.00     0.057 A 
ATOM     85  C   UNL     1      -8.788   3.667  14.153  1.00  0.00     0.134 A 
ATOM     86  C   UNL     1     -11.004   3.925  13.285  1.00  0.00     0.134 A 
ATOM     87  F   UNL     1      -7.474   3.448  13.994  1.00  0.00    -0.206 F 
ATOM     88  C   UNL     1      -9.274   3.820  15.453  1.00  0.00     0.040 A 
ATOM     89  C   UNL     1     -11.497   4.113  14.577  1.00  0.00     0.040 A 
ATOM     90  F   UNL     1     -11.877   3.985  12.268  1.00  0.00    -0.206 F 
ATOM     91  C   UNL     1     -10.632   4.052  15.667  1.00  0.00     0.006 A 
ENDBRANCH  67  84
ENDBRANCH  41  42
ENDBRANCH  34  36
ENDBRANCH  33  34
ENDBRANCH  32  33
ENDBRANCH  31  32
ENDBRANCH  30  31
ENDBRANCH  29  30
ENDBRANCH  28  29
ENDBRANCH   1  28
TORSDOF 23
