REMARK SMILES CCOc1cc(C[NH+]2CCC3(CC2)[C@H](C(=O)OCCOCCOCCOCCOC(=O)c2ccc(-c4c5nc(c(-c6c(F)cccc6F)c6ccc([nH]6)c(-c6c(F)cccc6F)c6nc(c(-c7c(F)cccc7F)c7ccc4[nH]7)C=C6)C=C5)cc2)CC(=O)N3C)ccc1OC
REMARK SMILES IDX 22 1 21 2 20 3 19 4 18 5 17 6 15 7 16 8 14 9 8 10 9 11 13 12
REMARK SMILES IDX 10 14 12 15 11 16 89 17 86 18 87 19 90 20 88 21 7 22 6 23
REMARK SMILES IDX 4 24 5 25 93 26 92 27 91 28 3 29 2 30 1 31 94 32 95 33 23 34
REMARK SMILES IDX 24 35 25 36 26 37 27 38 28 39 29 40 30 41 31 42 32 43 33 44
REMARK SMILES IDX 85 45 34 46 84 47 35 48 36 49 37 50 78 51 38 52 83 53 77 54
REMARK SMILES IDX 79 55 39 56 82 57 76 58 75 59 40 61 66 62 49 63 65 64 50 65
REMARK SMILES IDX 53 66 64 67 80 68 51 69 52 70 63 72 81 73 54 74 41 75 42 76
REMARK SMILES IDX 47 77 43 78 44 79 46 80 48 81 45 82 67 83 68 84 73 85 69 86
REMARK SMILES IDX 70 87 72 88 74 89 71 90 55 91 56 92 61 93 57 94 58 95 60 96
REMARK SMILES IDX 62 97 59 98
REMARK H PARENT 8 13 79 60 53 71
REMARK Flexibility Score: inf
ROOT
ATOM      1  C   UNL     1       5.443  -1.526  -1.848  1.00  0.00     0.188 C 
ENDROOT
BRANCH   1   2
ATOM      2  C   UNL     1       5.849  -1.364  -0.390  1.00  0.00     0.188 C 
BRANCH   2   3
ATOM      3  O   UNL     1       5.097  -2.208   0.486  1.00  0.00    -0.376 OA
BRANCH   3   4
ATOM      4  C   UNL     1       5.332  -3.600   0.280  1.00  0.00     0.202 C 
BRANCH   4   5
ATOM      5  C   UNL     1       4.062  -4.338  -0.185  1.00  0.00     0.261 C 
BRANCH   5   6
ATOM      6  O   UNL     1       3.416  -3.800  -1.382  1.00  0.00    -0.463 OA
BRANCH   6   7
ATOM      7  C   UNL     1       2.170  -3.307  -1.198  1.00  0.00     0.311 C 
ATOM      8  O   UNL     1       1.627  -3.317  -0.090  1.00  0.00    -0.252 OA
BRANCH   7   9
ATOM      9  C   UNL     1       1.475  -2.581  -2.373  1.00  0.00     0.134 C 
ATOM     10  N   UNL     1       3.040  -0.906  -5.882  1.00  0.00    -0.331 N 
ATOM     11  C   UNL     1       3.602  -2.222  -5.632  1.00  0.00     0.265 C 
ATOM     12  C   UNL     1       1.599  -0.969  -5.925  1.00  0.00     0.265 C 
ATOM     13  H   UNL     1       3.366  -0.663  -6.817  1.00  0.00     0.348 HD
ATOM     14  C   UNL     1       3.142  -2.862  -4.321  1.00  0.00     0.091 C 
ATOM     15  C   UNL     1       0.963  -1.518  -4.645  1.00  0.00     0.091 C 
ATOM     16  C   UNL     1       1.662  -2.732  -3.932  1.00  0.00     0.067 C 
ATOM     17  N   UNL     1       0.823  -3.905  -4.208  1.00  0.00    -0.339 N 
ATOM     18  C   UNL     1      -0.015  -2.931  -2.225  1.00  0.00     0.118 C 
ATOM     19  C   UNL     1      -0.205  -4.009  -3.260  1.00  0.00     0.223 C 
ATOM     20  C   UNL     1       0.555  -4.399  -5.545  1.00  0.00     0.147 C 
ATOM     21  O   UNL     1      -1.173  -4.750  -3.324  1.00  0.00    -0.275 OA
BRANCH  10  22
ATOM     22  C   UNL     1       3.726   0.333  -5.470  1.00  0.00     0.299 C 
BRANCH  22  23
ATOM     23  C   UNL     1       3.446   0.942  -4.103  1.00  0.00     0.010 A 
ATOM     24  C   UNL     1       1.861   1.343  -2.307  1.00  0.00     0.161 A 
ATOM     25  C   UNL     1       2.148   1.208  -3.667  1.00  0.00     0.060 A 
ATOM     26  C   UNL     1       2.901   1.477  -1.398  1.00  0.00     0.160 A 
ATOM     27  C   UNL     1       4.202   1.601  -1.879  1.00  0.00     0.051 A 
ATOM     28  C   UNL     1       4.476   1.299  -3.223  1.00  0.00     0.013 A 
BRANCH  24  29
ATOM     29  O   UNL     1       0.585   1.022  -1.929  1.00  0.00    -0.490 OA
BRANCH  29  30
ATOM     30  C   UNL     1      -0.187   2.127  -1.467  1.00  0.00     0.226 C 
ATOM     31  C   UNL     1      -0.751   1.788  -0.098  1.00  0.00     0.049 C 
ENDBRANCH  29  30
ENDBRANCH  24  29
BRANCH  26  32
ATOM     32  O   UNL     1       2.719   1.447  -0.043  1.00  0.00    -0.493 OA
ATOM     33  C   UNL     1       2.377   0.124   0.395  1.00  0.00     0.278 C 
ENDBRANCH  26  32
ENDBRANCH  22  23
ENDBRANCH  10  22
ENDBRANCH   7   9
ENDBRANCH   6   7
ENDBRANCH   5   6
ENDBRANCH   4   5
ENDBRANCH   3   4
ENDBRANCH   2   3
ENDBRANCH   1   2
BRANCH   1  34
ATOM     34  O   UNL     1       5.634  -2.824  -2.385  1.00  0.00    -0.377 OA
BRANCH  34  35
ATOM     35  C   UNL     1       6.870  -3.241  -2.924  1.00  0.00     0.188 C 
BRANCH  35  36
ATOM     36  C   UNL     1       8.091  -2.334  -2.776  1.00  0.00     0.188 C 
BRANCH  36  37
ATOM     37  O   UNL     1       8.045  -1.057  -3.409  1.00  0.00    -0.376 OA
BRANCH  37  38
ATOM     38  C   UNL     1       7.381  -0.943  -4.667  1.00  0.00     0.202 C 
BRANCH  38  39
ATOM     39  C   UNL     1       8.137  -1.466  -5.885  1.00  0.00     0.261 C 
BRANCH  39  40
ATOM     40  O   UNL     1       8.029  -2.894  -5.968  1.00  0.00    -0.460 OA
BRANCH  40  41
ATOM     41  C   UNL     1       9.130  -3.583  -5.585  1.00  0.00     0.338 C 
ATOM     42  O   UNL     1      10.218  -3.141  -5.293  1.00  0.00    -0.246 OA
BRANCH  41  43
ATOM     43  C   UNL     1       8.730  -4.985  -5.353  1.00  0.00     0.060 A 
ATOM     44  C   UNL     1       9.166  -5.598  -4.170  1.00  0.00     0.016 A 
ATOM     45  C   UNL     1       7.955  -5.685  -6.280  1.00  0.00     0.016 A 
ATOM     46  C   UNL     1       8.877  -6.936  -3.936  1.00  0.00     0.010 A 
ATOM     47  C   UNL     1       7.686  -7.033  -6.059  1.00  0.00     0.010 A 
ATOM     48  C   UNL     1       8.192  -7.668  -4.912  1.00  0.00    -0.014 A 
BRANCH  48  49
ATOM     49  C   UNL     1       8.251  -9.141  -4.862  1.00  0.00     0.031 A 
ATOM     50  C   UNL     1       9.340  -9.816  -5.647  1.00  0.00     0.074 A 
ATOM     51  C   UNL     1       7.386  -9.844  -4.115  1.00  0.00     0.049 A 
ATOM     52  N   UNL     1       9.579 -11.089  -5.812  1.00  0.00    -0.248 NA
ATOM     53  C   UNL     1      10.287  -8.929  -6.346  1.00  0.00     0.031 C 
ATOM     54  C   UNL     1       6.333  -9.273  -3.278  1.00  0.00     0.029 A 
ATOM     55  N   UNL     1       7.255 -11.197  -3.952  1.00  0.00    -0.354 N 
ATOM     56  C   UNL     1      10.695 -11.154  -6.638  1.00  0.00     0.074 A 
ATOM     57  C   UNL     1      11.068  -9.798  -6.967  1.00  0.00     0.031 C 
ATOM     58  C   UNL     1       5.648 -10.275  -2.701  1.00  0.00     0.029 A 
ATOM     59  C   UNL     1       6.194 -11.551  -3.157  1.00  0.00     0.049 A 
ATOM     60  H   UNL     1       7.864 -11.852  -4.364  1.00  0.00     0.167 HD
ATOM     61  C   UNL     1      11.352 -12.252  -7.075  1.00  0.00     0.037 A 
ATOM     62  C   UNL     1       5.712 -12.773  -2.863  1.00  0.00     0.037 A 
ATOM     63  C   UNL     1      10.957 -13.594  -6.744  1.00  0.00     0.049 A 
ATOM     64  C   UNL     1       6.412 -13.982  -3.429  1.00  0.00     0.074 A 
ATOM     65  C   UNL     1      11.544 -14.786  -7.126  1.00  0.00     0.029 A 
ATOM     66  N   UNL     1       9.859 -13.917  -5.958  1.00  0.00    -0.354 N 
ATOM     67  N   UNL     1       7.476 -14.041  -4.195  1.00  0.00    -0.248 NA
ATOM     68  C   UNL     1       5.848 -15.294  -3.086  1.00  0.00     0.031 C 
ATOM     69  C   UNL     1      10.766 -15.832  -6.619  1.00  0.00     0.029 A 
ATOM     70  C   UNL     1       9.736 -15.291  -5.864  1.00  0.00     0.049 A 
ATOM     71  H   UNL     1       9.258 -13.265  -5.531  1.00  0.00     0.167 HD
ATOM     72  C   UNL     1       7.730 -15.392  -4.395  1.00  0.00     0.074 A 
ATOM     73  C   UNL     1       6.712 -16.117  -3.663  1.00  0.00     0.031 C 
ATOM     74  C   UNL     1       8.717 -15.983  -5.114  1.00  0.00     0.037 A 
BRANCH  61  75
ATOM     75  C   UNL     1      12.529 -12.042  -7.982  1.00  0.00     0.057 A 
ATOM     76  C   UNL     1      13.729 -11.476  -7.530  1.00  0.00     0.134 A 
ATOM     77  C   UNL     1      12.464 -12.420  -9.329  1.00  0.00     0.134 A 
ATOM     78  F   UNL     1      13.852 -11.070  -6.257  1.00  0.00    -0.206 F 
ATOM     79  C   UNL     1      14.812 -11.274  -8.388  1.00  0.00     0.040 A 
ATOM     80  C   UNL     1      13.550 -12.251 -10.190  1.00  0.00     0.040 A 
ATOM     81  F   UNL     1      11.345 -12.964  -9.831  1.00  0.00    -0.206 F 
ATOM     82  C   UNL     1      14.726 -11.670  -9.722  1.00  0.00     0.006 A 
ENDBRANCH  61  75
BRANCH  62  83
ATOM     83  C   UNL     1       4.506 -12.913  -2.008  1.00  0.00     0.057 A 
ATOM     84  C   UNL     1       4.579 -13.486  -0.734  1.00  0.00     0.134 A 
ATOM     85  C   UNL     1       3.247 -12.486  -2.450  1.00  0.00     0.134 A 
ATOM     86  F   UNL     1       5.752 -13.931  -0.260  1.00  0.00    -0.206 F 
ATOM     87  C   UNL     1       3.443 -13.647   0.063  1.00  0.00     0.040 A 
ATOM     88  C   UNL     1       2.108 -12.614  -1.653  1.00  0.00     0.040 A 
ATOM     89  F   UNL     1       3.108 -11.925  -3.660  1.00  0.00    -0.206 F 
ATOM     90  C   UNL     1       2.204 -13.204  -0.395  1.00  0.00     0.006 A 
ENDBRANCH  62  83
BRANCH  74  91
ATOM     91  C   UNL     1       8.778 -17.483  -5.096  1.00  0.00     0.057 A 
ATOM     92  C   UNL     1       7.837 -18.275  -5.765  1.00  0.00     0.134 A 
ATOM     93  C   UNL     1       9.830 -18.140  -4.444  1.00  0.00     0.134 A 
ATOM     94  F   UNL     1       6.800 -17.709  -6.401  1.00  0.00    -0.206 F 
ATOM     95  C   UNL     1       7.927 -19.668  -5.765  1.00  0.00     0.040 A 
ATOM     96  C   UNL     1       9.949 -19.529  -4.465  1.00  0.00     0.040 A 
ATOM     97  F   UNL     1      10.773 -17.439  -3.796  1.00  0.00    -0.206 F 
ATOM     98  C   UNL     1       8.990 -20.297  -5.121  1.00  0.00     0.006 A 
ENDBRANCH  74  91
ENDBRANCH  48  49
ENDBRANCH  41  43
ENDBRANCH  40  41
ENDBRANCH  39  40
ENDBRANCH  38  39
ENDBRANCH  37  38
ENDBRANCH  36  37
ENDBRANCH  35  36
ENDBRANCH  34  35
ENDBRANCH   1  34
TORSDOF 25
