REMARK SMILES Cc1cccc(-c2ncc(C[NH+]3CCC4(CC3)NC(=O)C[C@H]4C(=O)OCCOCCOCCOCCOC(=O)c3ccc(-c4c5nc(c(-c6c(F)cccc6F)c6ccc([nH]6)c(-c6c(F)cccc6F)c6nc(c(-c7c(F)cccc7F)c7ccc4[nH]7)C=C6)C=C5)cc3)cn2)c1
REMARK SMILES IDX 30 1 29 2 28 3 27 4 26 5 25 6 23 7 24 8 22 9 12 10 13 11
REMARK SMILES IDX 17 12 14 14 16 15 15 16 18 17 19 18 21 20 20 21 11 22 10 23
REMARK SMILES IDX 7 24 8 25 95 26 9 27 94 28 6 29 1 30 2 31 3 32 96 33 4 34
REMARK SMILES IDX 5 35 31 36 32 37 33 38 34 39 35 40 36 41 37 42 38 43 39 44
REMARK SMILES IDX 40 45 41 46 93 47 42 48 92 49 43 50 44 51 45 52 86 53 46 54
REMARK SMILES IDX 91 55 85 56 87 57 47 58 90 59 84 60 83 61 48 63 74 64 57 65
REMARK SMILES IDX 73 66 58 67 61 68 72 69 88 70 59 71 60 72 71 74 89 75 62 76
REMARK SMILES IDX 49 77 50 78 55 79 51 80 52 81 54 82 56 83 53 84 75 85 76 86
REMARK SMILES IDX 81 87 77 88 78 89 80 90 82 91 79 92 63 93 64 94 69 95 65 96
REMARK SMILES IDX 66 97 68 98 70 99 67 100
REMARK H PARENT 12 13 18 19 87 62 61 73
REMARK Flexibility Score: inf
ROOT
ATOM      1  C   UNL     1      -2.493   7.850  -2.136  1.00  0.00     0.188 C 
ENDROOT
BRANCH   1   2
ATOM      2  C   UNL     1      -2.224   9.347  -2.158  1.00  0.00     0.188 C 
BRANCH   2   3
ATOM      3  O   UNL     1      -1.383   9.845  -3.163  1.00  0.00    -0.376 OA
BRANCH   3   4
ATOM      4  C   UNL     1      -0.307   8.994  -3.487  1.00  0.00     0.202 C 
BRANCH   4   5
ATOM      5  C   UNL     1       0.772   8.756  -2.427  1.00  0.00     0.261 C 
BRANCH   5   6
ATOM      6  O   UNL     1       0.476   7.832  -1.351  1.00  0.00    -0.463 OA
BRANCH   6   7
ATOM      7  C   UNL     1       1.046   8.138  -0.161  1.00  0.00     0.311 C 
ATOM      8  O   UNL     1       1.522   9.243   0.090  1.00  0.00    -0.252 OA
BRANCH   7   9
ATOM      9  C   UNL     1       1.241   6.980   0.816  1.00  0.00     0.134 C 
ATOM     10  N   UNL     1      -2.757   6.665   1.726  1.00  0.00    -0.331 N 
ATOM     11  C   UNL     1      -1.768   7.011   2.724  1.00  0.00     0.264 C 
ATOM     12  C   UNL     1      -2.151   6.582   0.425  1.00  0.00     0.264 C 
ATOM     13  H   UNL     1      -3.382   7.469   1.794  1.00  0.00     0.348 HD
ATOM     14  C   UNL     1      -0.469   6.198   2.656  1.00  0.00     0.091 C 
ATOM     15  C   UNL     1      -0.950   5.665   0.243  1.00  0.00     0.091 C 
ATOM     16  C   UNL     1       0.150   5.952   1.247  1.00  0.00     0.064 C 
ATOM     17  N   UNL     1       0.932   4.722   1.356  1.00  0.00    -0.349 N 
ATOM     18  C   UNL     1       2.167   4.760   0.788  1.00  0.00     0.221 C 
ATOM     19  H   UNL     1       0.587   3.920   1.811  1.00  0.00     0.164 HD
ATOM     20  C   UNL     1       2.458   6.153   0.343  1.00  0.00     0.117 C 
ATOM     21  O   UNL     1       2.911   3.787   0.684  1.00  0.00    -0.275 OA
BRANCH  10  22
ATOM     22  C   UNL     1      -3.861   5.739   1.987  1.00  0.00     0.302 C 
BRANCH  22  23
ATOM     23  C   UNL     1      -3.561   4.301   1.694  1.00  0.00     0.043 A 
ATOM     24  C   UNL     1      -2.420   1.960   0.970  1.00  0.00     0.159 A 
ATOM     25  N   UNL     1      -2.318   2.343   2.259  1.00  0.00    -0.236 NA
ATOM     26  N   UNL     1      -3.158   2.585   0.037  1.00  0.00    -0.236 NA
ATOM     27  C   UNL     1      -2.919   3.496   2.597  1.00  0.00     0.124 A 
ATOM     28  C   UNL     1      -3.722   3.740   0.441  1.00  0.00     0.124 A 
BRANCH  24  29
ATOM     29  C   UNL     1      -1.583   0.837   0.561  1.00  0.00     0.019 A 
ATOM     30  C   UNL     1       2.136   0.020   0.138  1.00  0.00     0.044 C 
ATOM     31  C   UNL     1       0.643  -0.126   0.196  1.00  0.00    -0.050 A 
ATOM     32  C   UNL     1       0.053  -1.379   0.004  1.00  0.00     0.003 A 
ATOM     33  C   UNL     1      -0.182   0.972   0.475  1.00  0.00     0.015 A 
ATOM     34  C   UNL     1      -1.334  -1.523   0.050  1.00  0.00     0.001 A 
ATOM     35  C   UNL     1      -2.147  -0.421   0.317  1.00  0.00     0.012 A 
ENDBRANCH  24  29
ENDBRANCH  22  23
ENDBRANCH  10  22
ENDBRANCH   7   9
ENDBRANCH   6   7
ENDBRANCH   5   6
ENDBRANCH   4   5
ENDBRANCH   3   4
ENDBRANCH   2   3
ENDBRANCH   1   2
BRANCH   1  36
ATOM     36  O   UNL     1      -2.675   7.095  -3.314  1.00  0.00    -0.377 OA
BRANCH  36  37
ATOM     37  C   UNL     1      -3.018   5.731  -3.002  1.00  0.00     0.188 C 
BRANCH  37  38
ATOM     38  C   UNL     1      -4.513   5.557  -2.858  1.00  0.00     0.188 C 
BRANCH  38  39
ATOM     39  O   UNL     1      -5.056   6.831  -2.593  1.00  0.00    -0.376 OA
BRANCH  39  40
ATOM     40  C   UNL     1      -6.411   6.894  -2.238  1.00  0.00     0.202 C 
BRANCH  40  41
ATOM     41  C   UNL     1      -7.327   6.309  -3.312  1.00  0.00     0.261 C 
BRANCH  41  42
ATOM     42  O   UNL     1      -6.879   6.744  -4.620  1.00  0.00    -0.460 OA
BRANCH  42  43
ATOM     43  C   UNL     1      -6.535   5.755  -5.496  1.00  0.00     0.338 C 
ATOM     44  O   UNL     1      -7.042   4.643  -5.530  1.00  0.00    -0.246 OA
BRANCH  43  45
ATOM     45  C   UNL     1      -5.222   6.062  -6.166  1.00  0.00     0.060 A 
ATOM     46  C   UNL     1      -4.503   5.011  -6.775  1.00  0.00     0.016 A 
ATOM     47  C   UNL     1      -4.553   7.247  -5.882  1.00  0.00     0.016 A 
ATOM     48  C   UNL     1      -3.099   5.070  -6.905  1.00  0.00     0.010 A 
ATOM     49  C   UNL     1      -3.164   7.288  -6.002  1.00  0.00     0.010 A 
ATOM     50  C   UNL     1      -2.403   6.173  -6.415  1.00  0.00    -0.014 A 
BRANCH  50  51
ATOM     51  C   UNL     1      -0.952   6.206  -6.052  1.00  0.00     0.031 A 
ATOM     52  C   UNL     1      -0.125   7.414  -6.417  1.00  0.00     0.074 A 
ATOM     53  C   UNL     1      -0.486   5.364  -5.085  1.00  0.00     0.049 A 
ATOM     54  N   UNL     1       1.081   7.664  -6.017  1.00  0.00    -0.248 NA
ATOM     55  C   UNL     1      -0.615   8.464  -7.311  1.00  0.00     0.031 C 
ATOM     56  C   UNL     1       0.482   5.677  -4.029  1.00  0.00     0.029 A 
ATOM     57  N   UNL     1      -0.824   4.065  -4.752  1.00  0.00    -0.354 N 
ATOM     58  C   UNL     1       1.380   8.995  -6.291  1.00  0.00     0.074 A 
ATOM     59  C   UNL     1       0.337   9.401  -7.201  1.00  0.00     0.031 C 
ATOM     60  C   UNL     1       0.728   4.609  -3.258  1.00  0.00     0.029 A 
ATOM     61  C   UNL     1       0.162   3.483  -3.938  1.00  0.00     0.049 A 
ATOM     62  H   UNL     1      -1.645   3.609  -5.046  1.00  0.00     0.167 HD
ATOM     63  C   UNL     1       2.361   9.636  -5.564  1.00  0.00     0.037 A 
ATOM     64  C   UNL     1       0.913   2.460  -4.446  1.00  0.00     0.037 A 
ATOM     65  C   UNL     1       3.202   8.674  -4.803  1.00  0.00     0.049 A 
ATOM     66  C   UNL     1       2.323   2.910  -4.867  1.00  0.00     0.074 A 
ATOM     67  C   UNL     1       3.806   8.589  -3.554  1.00  0.00     0.029 A 
ATOM     68  N   UNL     1       3.450   7.436  -5.382  1.00  0.00    -0.354 N 
ATOM     69  N   UNL     1       2.839   4.093  -4.604  1.00  0.00    -0.248 NA
ATOM     70  C   UNL     1       3.252   2.099  -5.649  1.00  0.00     0.031 C 
ATOM     71  C   UNL     1       4.356   7.273  -3.393  1.00  0.00     0.029 A 
ATOM     72  C   UNL     1       4.191   6.601  -4.586  1.00  0.00     0.049 A 
ATOM     73  H   UNL     1       3.125   7.183  -6.276  1.00  0.00     0.167 HD
ATOM     74  C   UNL     1       4.049   4.256  -5.232  1.00  0.00     0.074 A 
ATOM     75  C   UNL     1       4.261   2.964  -5.869  1.00  0.00     0.031 C 
ATOM     76  C   UNL     1       4.761   5.434  -5.237  1.00  0.00     0.037 A 
BRANCH  63  77
ATOM     77  C   UNL     1       2.474  11.168  -5.362  1.00  0.00     0.057 A 
ATOM     78  C   UNL     1       3.573  11.736  -4.676  1.00  0.00     0.134 A 
ATOM     79  C   UNL     1       1.486  12.125  -5.690  1.00  0.00     0.134 A 
ATOM     80  F   UNL     1       4.633  10.999  -4.319  1.00  0.00    -0.206 F 
ATOM     81  C   UNL     1       3.660  13.096  -4.311  1.00  0.00     0.040 A 
ATOM     82  C   UNL     1       1.590  13.501  -5.388  1.00  0.00     0.040 A 
ATOM     83  F   UNL     1       0.334  11.791  -6.279  1.00  0.00    -0.206 F 
ATOM     84  C   UNL     1       2.671  13.990  -4.677  1.00  0.00     0.006 A 
ENDBRANCH  63  77
BRANCH  64  85
ATOM     85  C   UNL     1      -0.036   1.395  -4.954  1.00  0.00     0.057 A 
ATOM     86  C   UNL     1      -0.792   0.811  -3.908  1.00  0.00     0.134 A 
ATOM     87  C   UNL     1      -0.730   1.604  -6.158  1.00  0.00     0.134 A 
ATOM     88  F   UNL     1      -0.188   0.506  -2.752  1.00  0.00    -0.206 F 
ATOM     89  C   UNL     1      -2.195   0.791  -3.926  1.00  0.00     0.040 A 
ATOM     90  C   UNL     1      -2.140   1.543  -6.201  1.00  0.00     0.040 A 
ATOM     91  F   UNL     1      -0.101   2.132  -7.218  1.00  0.00    -0.206 F 
ATOM     92  C   UNL     1      -2.876   1.222  -5.058  1.00  0.00     0.006 A 
ENDBRANCH  64  85
BRANCH  76  93
ATOM     93  C   UNL     1       6.019   5.691  -6.053  1.00  0.00     0.057 A 
ATOM     94  C   UNL     1       6.978   4.716  -6.313  1.00  0.00     0.134 A 
ATOM     95  C   UNL     1       6.316   6.967  -6.606  1.00  0.00     0.134 A 
ATOM     96  F   UNL     1       6.971   3.548  -5.656  1.00  0.00    -0.206 F 
ATOM     97  C   UNL     1       8.014   4.918  -7.234  1.00  0.00     0.040 A 
ATOM     98  C   UNL     1       7.364   7.194  -7.495  1.00  0.00     0.040 A 
ATOM     99  F   UNL     1       5.620   8.072  -6.316  1.00  0.00    -0.206 F 
ATOM    100  C   UNL     1       8.187   6.149  -7.858  1.00  0.00     0.006 A 
ENDBRANCH  76  93
ENDBRANCH  50  51
ENDBRANCH  43  45
ENDBRANCH  42  43
ENDBRANCH  41  42
ENDBRANCH  40  41
ENDBRANCH  39  40
ENDBRANCH  38  39
ENDBRANCH  37  38
ENDBRANCH  36  37
ENDBRANCH   1  36
TORSDOF 23
