REMARK SMILES Cc1cccc(OC2(C(=O)OCCOCCOCCOCCOC(=O)c3ccc(-c4c5nc(c(-c6c(F)cccc6F)c6ccc([nH]6)c(-c6c(F)cccc6F)c6nc(c(-c7c(F)cccc7F)c7ccc4[nH]7)C=C6)C=C5)cc3)CCN(C(=O)c3cnc[nH]c3=O)CC2)c1
REMARK SMILES IDX 17 1 16 2 15 3 14 4 13 5 12 6 11 7 9 8 10 9 8 10 80 11 93 12
REMARK SMILES IDX 81 13 92 14 82 15 83 16 84 17 7 18 6 19 1 20 2 21 3 22 94 23
REMARK SMILES IDX 4 24 5 25 85 26 86 27 90 28 87 29 89 30 91 31 88 32 18 34
REMARK SMILES IDX 19 35 20 36 21 37 22 38 23 39 24 40 25 41 26 42 27 43 79 44
REMARK SMILES IDX 28 45 78 46 29 47 30 48 31 49 72 50 32 51 77 52 71 53 73 54
REMARK SMILES IDX 33 55 76 56 70 57 69 58 34 60 60 61 43 62 59 63 44 64 47 65
REMARK SMILES IDX 58 66 74 67 45 68 46 69 57 71 75 72 48 73 35 74 36 75 41 76
REMARK SMILES IDX 37 77 38 78 40 79 42 80 39 81 61 82 62 83 67 84 63 85 64 86
REMARK SMILES IDX 66 87 68 88 65 89 49 90 50 91 55 92 51 93 52 94 54 95 56 96
REMARK SMILES IDX 53 97
REMARK H PARENT 89 33 73 59 47 70
REMARK Flexibility Score: inf
ROOT
ATOM      1  O   UNL     1       4.486   4.260  -2.011  1.00  0.00    -0.377 OA
ENDROOT
BRANCH   1   2
ATOM      2  C   UNL     1       3.209   3.743  -1.722  1.00  0.00     0.188 C 
BRANCH   2   3
ATOM      3  C   UNL     1       2.310   3.714  -3.009  1.00  0.00     0.188 C 
BRANCH   3   4
ATOM      4  O   UNL     1       1.580   4.934  -3.547  1.00  0.00    -0.376 OA
BRANCH   4   5
ATOM      5  C   UNL     1       0.079   5.189  -4.036  1.00  0.00     0.202 C 
BRANCH   5   6
ATOM      6  C   UNL     1      -1.678   4.906  -3.526  1.00  0.00     0.261 C 
BRANCH   6   7
ATOM      7  O   UNL     1      -2.554   3.756  -2.374  1.00  0.00    -0.460 OA
BRANCH   7   8
ATOM      8  C   UNL     1      -2.668   2.763  -1.216  1.00  0.00     0.350 C 
ATOM      9  O   UNL     1      -3.558   1.903  -1.350  1.00  0.00    -0.247 OA
BRANCH   8  10
ATOM     10  C   UNL     1      -1.783   2.698   0.386  1.00  0.00     0.209 C 
ATOM     11  C   UNL     1      -0.217   2.898   0.588  1.00  0.00     0.082 C 
ATOM     12  C   UNL     1      -2.549   3.612   1.459  1.00  0.00     0.082 C 
ATOM     13  C   UNL     1       0.348   3.202   1.968  1.00  0.00     0.124 C 
ATOM     14  C   UNL     1      -1.824   3.852   2.816  1.00  0.00     0.124 C 
ATOM     15  N   UNL     1      -0.430   4.214   2.630  1.00  0.00    -0.338 N 
ATOM     16  C   UNL     1       0.224   5.351   3.071  1.00  0.00     0.261 C 
ATOM     17  O   UNL     1       1.095   5.929   2.422  1.00  0.00    -0.269 OA
BRANCH  10  18
ATOM     18  O   UNL     1      -2.083   1.362   0.998  1.00  0.00    -0.475 OA
BRANCH  18  19
ATOM     19  C   UNL     1      -1.351   0.284   0.588  1.00  0.00     0.121 A 
ATOM     20  C   UNL     1       2.146  -1.111   1.066  1.00  0.00     0.044 C 
ATOM     21  C   UNL     1       0.713  -1.023   0.632  1.00  0.00    -0.047 A 
ATOM     22  C   UNL     1       0.123  -1.957  -0.213  1.00  0.00     0.003 A 
ATOM     23  C   UNL     1      -0.082   0.018   1.110  1.00  0.00     0.050 A 
ATOM     24  C   UNL     1      -1.206  -1.789  -0.622  1.00  0.00     0.004 A 
ATOM     25  C   UNL     1      -1.934  -0.656  -0.244  1.00  0.00     0.046 A 
ENDBRANCH  18  19
ENDBRANCH  10  18
BRANCH  16  26
ATOM     26  C   UNL     1       0.024   5.748   4.478  1.00  0.00     0.123 A 
ATOM     27  C   UNL     1      -0.382   6.989   4.787  1.00  0.00     0.132 A 
ATOM     28  C   UNL     1       0.570   4.936   5.583  1.00  0.00     0.263 A 
ATOM     29  N   UNL     1      -0.438   7.514   6.059  1.00  0.00    -0.246 NA
ATOM     30  N   UNL     1       0.541   5.526   6.816  1.00  0.00    -0.312 N 
ATOM     31  O   UNL     1       1.050   3.813   5.427  1.00  0.00    -0.269 OA
ATOM     32  C   UNL     1       0.036   6.777   7.006  1.00  0.00     0.199 A 
ATOM     33  H   UNL     1       0.896   5.032   7.590  1.00  0.00     0.171 HD
ENDBRANCH  16  26
ENDBRANCH   8  10
ENDBRANCH   7   8
ENDBRANCH   6   7
ENDBRANCH   5   6
ENDBRANCH   4   5
ENDBRANCH   3   4
ENDBRANCH   2   3
ENDBRANCH   1   2
BRANCH   1  34
ATOM     34  C   UNL     1       5.495   3.305  -2.316  1.00  0.00     0.188 C 
BRANCH  34  35
ATOM     35  C   UNL     1       5.204   2.202  -3.347  1.00  0.00     0.188 C 
BRANCH  35  36
ATOM     36  O   UNL     1       4.324   1.181  -2.870  1.00  0.00    -0.376 OA
BRANCH  36  37
ATOM     37  C   UNL     1       4.788  -0.170  -3.017  1.00  0.00     0.202 C 
BRANCH  37  38
ATOM     38  C   UNL     1       5.280  -0.594  -4.419  1.00  0.00     0.261 C 
BRANCH  38  39
ATOM     39  O   UNL     1       4.181  -0.678  -5.339  1.00  0.00    -0.460 OA
BRANCH  39  40
ATOM     40  C   UNL     1       3.870   0.485  -5.962  1.00  0.00     0.338 C 
ATOM     41  O   UNL     1       4.658   1.215  -6.539  1.00  0.00    -0.246 OA
BRANCH  40  42
ATOM     42  C   UNL     1       2.482   0.864  -5.575  1.00  0.00     0.060 A 
ATOM     43  C   UNL     1       1.958   2.072  -6.003  1.00  0.00     0.016 A 
ATOM     44  C   UNL     1       1.818   0.162  -4.560  1.00  0.00     0.016 A 
ATOM     45  C   UNL     1       0.877   2.620  -5.296  1.00  0.00     0.010 A 
ATOM     46  C   UNL     1       0.888   0.808  -3.743  1.00  0.00     0.010 A 
ATOM     47  C   UNL     1       0.472   2.109  -4.031  1.00  0.00    -0.014 A 
BRANCH  47  48
ATOM     48  C   UNL     1      -0.511   2.829  -3.002  1.00  0.00     0.031 A 
ATOM     49  C   UNL     1      -1.933   2.195  -3.867  1.00  0.00     0.074 A 
ATOM     50  C   UNL     1      -0.350   4.021  -1.889  1.00  0.00     0.049 A 
ATOM     51  N   UNL     1      -2.869   2.934  -4.418  1.00  0.00    -0.248 NA
ATOM     52  C   UNL     1      -2.143   0.810  -4.354  1.00  0.00     0.031 C 
ATOM     53  C   UNL     1      -1.431   4.909  -0.944  1.00  0.00     0.029 A 
ATOM     54  N   UNL     1       0.665   5.056  -1.506  1.00  0.00    -0.354 N 
ATOM     55  C   UNL     1      -3.957   2.177  -4.676  1.00  0.00     0.074 A 
ATOM     56  C   UNL     1      -3.367   0.880  -4.915  1.00  0.00     0.031 C 
ATOM     57  C   UNL     1      -0.995   5.984  -0.302  1.00  0.00     0.029 A 
ATOM     58  C   UNL     1       0.169   6.303  -0.996  1.00  0.00     0.049 A 
ATOM     59  H   UNL     1       1.630   4.887  -1.601  1.00  0.00     0.167 HD
ATOM     60  C   UNL     1      -5.227   2.641  -4.430  1.00  0.00     0.037 A 
ATOM     61  C   UNL     1       0.286   7.561  -1.531  1.00  0.00     0.037 A 
ATOM     62  C   UNL     1      -5.275   3.913  -3.628  1.00  0.00     0.049 A 
ATOM     63  C   UNL     1      -1.110   8.132  -1.968  1.00  0.00     0.074 A 
ATOM     64  C   UNL     1      -5.540   4.104  -2.275  1.00  0.00     0.029 A 
ATOM     65  N   UNL     1      -4.801   5.170  -4.065  1.00  0.00    -0.354 N 
ATOM     66  N   UNL     1      -2.162   7.383  -2.223  1.00  0.00    -0.248 NA
ATOM     67  C   UNL     1      -1.470   9.540  -2.078  1.00  0.00     0.031 C 
ATOM     68  C   UNL     1      -5.161   5.418  -1.885  1.00  0.00     0.029 A 
ATOM     69  C   UNL     1      -4.698   6.101  -2.999  1.00  0.00     0.049 A 
ATOM     70  H   UNL     1      -4.568   5.376  -4.999  1.00  0.00     0.167 HD
ATOM     71  C   UNL     1      -3.249   8.108  -2.654  1.00  0.00     0.074 A 
ATOM     72  C   UNL     1      -2.771   9.473  -2.442  1.00  0.00     0.031 C 
ATOM     73  C   UNL     1      -4.421   7.558  -3.165  1.00  0.00     0.037 A 
BRANCH  60  74
ATOM     74  C   UNL     1      -6.364   1.624  -4.520  1.00  0.00     0.057 A 
ATOM     75  C   UNL     1      -7.403   1.529  -3.579  1.00  0.00     0.134 A 
ATOM     76  C   UNL     1      -6.410   0.636  -5.526  1.00  0.00     0.134 A 
ATOM     77  F   UNL     1      -7.629   2.485  -2.671  1.00  0.00    -0.206 F 
ATOM     78  C   UNL     1      -8.286   0.437  -3.527  1.00  0.00     0.040 A 
ATOM     79  C   UNL     1      -7.259  -0.481  -5.467  1.00  0.00     0.040 A 
ATOM     80  F   UNL     1      -5.617   0.721  -6.607  1.00  0.00    -0.206 F 
ATOM     81  C   UNL     1      -8.183  -0.601  -4.441  1.00  0.00     0.006 A 
ENDBRANCH  60  74
BRANCH  61  82
ATOM     82  C   UNL     1       1.637   7.848  -2.088  1.00  0.00     0.057 A 
ATOM     83  C   UNL     1       2.741   7.580  -1.248  1.00  0.00     0.134 A 
ATOM     84  C   UNL     1       1.916   8.025  -3.442  1.00  0.00     0.134 A 
ATOM     85  F   UNL     1       2.567   7.467   0.078  1.00  0.00    -0.206 F 
ATOM     86  C   UNL     1       4.011   7.303  -1.751  1.00  0.00     0.040 A 
ATOM     87  C   UNL     1       3.191   7.745  -3.962  1.00  0.00     0.040 A 
ATOM     88  F   UNL     1       0.939   8.335  -4.305  1.00  0.00    -0.206 F 
ATOM     89  C   UNL     1       4.227   7.337  -3.122  1.00  0.00     0.006 A 
ENDBRANCH  61  82
BRANCH  73  90
ATOM     90  C   UNL     1      -5.570   8.373  -3.762  1.00  0.00     0.057 A 
ATOM     91  C   UNL     1      -5.423   9.620  -4.384  1.00  0.00     0.134 A 
ATOM     92  C   UNL     1      -6.886   7.844  -3.829  1.00  0.00     0.134 A 
ATOM     93  F   UNL     1      -4.224  10.201  -4.519  1.00  0.00    -0.206 F 
ATOM     94  C   UNL     1      -6.500  10.314  -4.959  1.00  0.00     0.040 A 
ATOM     95  C   UNL     1      -7.952   8.495  -4.459  1.00  0.00     0.040 A 
ATOM     96  F   UNL     1      -7.210   6.657  -3.299  1.00  0.00    -0.206 F 
ATOM     97  C   UNL     1      -7.766   9.747  -5.013  1.00  0.00     0.006 A 
ENDBRANCH  73  90
ENDBRANCH  47  48
ENDBRANCH  40  42
ENDBRANCH  39  40
ENDBRANCH  38  39
ENDBRANCH  37  38
ENDBRANCH  36  37
ENDBRANCH  35  36
ENDBRANCH  34  35
ENDBRANCH   1  34
TORSDOF 23
