REMARK SMILES CC1(C)CCCN(c2cncc(C(=O)OCCOCCOCCOCCOC(=O)c3ccc(-c4c5nc(c(-c6c(F)cccc6F)c6ccc([nH]6)c(-c6c(F)cccc6F)c6nc(c(-c7c(F)cccc7F)c7ccc4[nH]7)C=C6)C=C5)cc3)n2)CC1
REMARK SMILES IDX 20 1 19 2 18 3 17 4 16 5 15 6 13 7 14 8 12 9 8 10 9 11 84 12
REMARK SMILES IDX 10 13 11 14 7 15 85 16 86 17 2 18 1 19 3 20 6 22 5 23 4 24
REMARK SMILES IDX 21 26 22 27 23 28 24 29 25 30 26 31 27 32 28 33 29 34 30 35
REMARK SMILES IDX 31 36 83 37 32 38 82 39 33 40 34 41 35 42 76 43 36 44 81 45
REMARK SMILES IDX 75 46 77 47 37 48 80 49 74 50 73 51 38 53 64 54 47 55 63 56
REMARK SMILES IDX 48 57 51 58 62 59 78 60 49 61 50 62 61 64 79 65 52 66 39 67
REMARK SMILES IDX 40 68 45 69 41 70 42 71 44 72 46 73 43 74 65 75 66 76 71 77
REMARK SMILES IDX 67 78 68 79 70 80 72 81 69 82 53 83 54 84 59 85 55 86 56 87
REMARK SMILES IDX 58 88 60 89 57 90
REMARK H PARENT 77 52 51 63
REMARK Flexibility Score: 90.00
ROOT
ATOM      1  C   UNL     1      -2.679  -7.345   2.995  1.00  0.00     0.188 C 
ENDROOT
BRANCH   1   2
ATOM      2  C   UNL     1      -3.743  -8.070   3.859  1.00  0.00     0.188 C 
BRANCH   2   3
ATOM      3  O   UNL     1      -4.969  -8.338   3.200  1.00  0.00    -0.376 OA
BRANCH   3   4
ATOM      4  C   UNL     1      -6.133  -7.647   3.612  1.00  0.00     0.202 C 
BRANCH   4   5
ATOM      5  C   UNL     1      -6.189  -6.161   3.241  1.00  0.00     0.261 C 
BRANCH   5   6
ATOM      6  O   UNL     1      -5.049  -5.389   3.645  1.00  0.00    -0.458 OA
BRANCH   6   7
ATOM      7  C   UNL     1      -4.898  -5.146   4.970  1.00  0.00     0.358 C 
ATOM      8  O   UNL     1      -5.649  -5.510   5.859  1.00  0.00    -0.244 OA
BRANCH   7   9
ATOM      9  C   UNL     1      -3.541  -4.587   5.186  1.00  0.00     0.169 A 
ATOM     10  C   UNL     1      -1.754  -3.334   4.416  1.00  0.00     0.148 A 
ATOM     11  C   UNL     1      -0.964  -3.986   5.375  1.00  0.00     0.157 A 
ATOM     12  N   UNL     1      -3.068  -3.649   4.320  1.00  0.00    -0.221 NA
ATOM     13  N   UNL     1      -1.428  -4.910   6.259  1.00  0.00    -0.258 NA
ATOM     14  C   UNL     1      -2.745  -5.188   6.147  1.00  0.00     0.147 A 
BRANCH  10  15
ATOM     15  N   UNL     1      -1.231  -2.353   3.579  1.00  0.00    -0.355 N 
BRANCH  15  16
ATOM     16  C   UNL     1       0.065  -2.583   2.949  1.00  0.00     0.118 C 
BRANCH  16  17
ATOM     17  C   UNL     1       0.243  -1.939   1.568  1.00  0.00     0.028 C 
BRANCH  17  18
ATOM     18  C   UNL     1       0.492  -0.410   1.517  1.00  0.00    -0.034 CG0
ATOM     19  C   UNL     1       0.886  -0.042   0.065  1.00  0.00     0.011 C 
ATOM     20  C   UNL     1       1.664   0.005   2.427  1.00  0.00     0.011 C 
ATOM     21  G   UNL     1      -0.775   0.402   1.861  1.00  0.00     0.000 G0
ENDBRANCH  17  18
ENDBRANCH  16  17
ENDBRANCH  15  16
BRANCH  15  22
ATOM     22  C   UNL     1      -2.143  -1.297   3.171  1.00  0.00     0.118 C 
BRANCH  22  23
ATOM     23  C   UNL     1      -1.456   0.067   3.183  1.00  0.00     0.022 C 
BRANCH  23  24
ATOM     24  C   UNL     1      -0.775   0.402   1.861  1.00  0.00     0.008 CG0
ATOM     25  G   UNL     1       0.492  -0.410   1.517  1.00  0.00     0.000 G0
ENDBRANCH  23  24
ENDBRANCH  22  23
ENDBRANCH  15  22
ENDBRANCH  10  15
ENDBRANCH   7   9
ENDBRANCH   6   7
ENDBRANCH   5   6
ENDBRANCH   4   5
ENDBRANCH   3   4
ENDBRANCH   2   3
ENDBRANCH   1   2
BRANCH   1  26
ATOM     26  O   UNL     1      -2.666  -7.377   1.570  1.00  0.00    -0.377 OA
BRANCH  26  27
ATOM     27  C   UNL     1      -3.698  -8.063   0.880  1.00  0.00     0.188 C 
BRANCH  27  28
ATOM     28  C   UNL     1      -3.699  -9.592   1.070  1.00  0.00     0.188 C 
BRANCH  28  29
ATOM     29  O   UNL     1      -2.757 -10.021   2.044  1.00  0.00    -0.376 OA
BRANCH  29  30
ATOM     30  C   UNL     1      -1.528 -10.552   1.573  1.00  0.00     0.202 C 
BRANCH  30  31
ATOM     31  C   UNL     1      -0.650  -9.706   0.636  1.00  0.00     0.261 C 
BRANCH  31  32
ATOM     32  O   UNL     1      -1.282  -9.133  -0.519  1.00  0.00    -0.460 OA
BRANCH  32  33
ATOM     33  C   UNL     1      -1.731  -9.954  -1.490  1.00  0.00     0.338 C 
ATOM     34  O   UNL     1      -1.672 -11.170  -1.521  1.00  0.00    -0.246 OA
BRANCH  33  35
ATOM     35  C   UNL     1      -2.484  -9.108  -2.443  1.00  0.00     0.060 A 
ATOM     36  C   UNL     1      -3.866  -9.291  -2.594  1.00  0.00     0.016 A 
ATOM     37  C   UNL     1      -1.828  -8.091  -3.139  1.00  0.00     0.016 A 
ATOM     38  C   UNL     1      -4.595  -8.449  -3.440  1.00  0.00     0.010 A 
ATOM     39  C   UNL     1      -2.553  -7.270  -4.005  1.00  0.00     0.010 A 
ATOM     40  C   UNL     1      -3.937  -7.451  -4.170  1.00  0.00    -0.014 A 
BRANCH  40  41
ATOM     41  C   UNL     1      -4.646  -6.684  -5.223  1.00  0.00     0.031 A 
ATOM     42  C   UNL     1      -4.500  -7.132  -6.650  1.00  0.00     0.074 A 
ATOM     43  C   UNL     1      -5.380  -5.596  -4.926  1.00  0.00     0.049 A 
ATOM     44  N   UNL     1      -4.890  -6.543  -7.750  1.00  0.00    -0.248 NA
ATOM     45  C   UNL     1      -3.818  -8.419  -6.863  1.00  0.00     0.031 C 
ATOM     46  C   UNL     1      -5.643  -5.091  -3.580  1.00  0.00     0.029 A 
ATOM     47  N   UNL     1      -6.022  -4.704  -5.751  1.00  0.00    -0.354 N 
ATOM     48  C   UNL     1      -4.504  -7.387  -8.784  1.00  0.00     0.074 A 
ATOM     49  C   UNL     1      -3.822  -8.512  -8.184  1.00  0.00     0.031 C 
ATOM     50  C   UNL     1      -6.369  -3.962  -3.672  1.00  0.00     0.029 A 
ATOM     51  C   UNL     1      -6.582  -3.641  -5.082  1.00  0.00     0.049 A 
ATOM     52  H   UNL     1      -6.076  -4.816  -6.728  1.00  0.00     0.167 HD
ATOM     53  C   UNL     1      -4.710  -7.240 -10.113  1.00  0.00     0.037 A 
ATOM     54  C   UNL     1      -7.158  -2.520  -5.561  1.00  0.00     0.037 A 
ATOM     55  C   UNL     1      -5.375  -6.113 -10.709  1.00  0.00     0.049 A 
ATOM     56  C   UNL     1      -7.257  -2.320  -7.054  1.00  0.00     0.074 A 
ATOM     57  C   UNL     1      -5.622  -5.867 -12.048  1.00  0.00     0.029 A 
ATOM     58  N   UNL     1      -5.895  -5.041 -10.001  1.00  0.00    -0.354 N 
ATOM     59  N   UNL     1      -6.904  -3.127  -8.025  1.00  0.00    -0.248 NA
ATOM     60  C   UNL     1      -7.826  -1.044  -7.519  1.00  0.00     0.031 C 
ATOM     61  C   UNL     1      -6.250  -4.623 -12.154  1.00  0.00     0.029 A 
ATOM     62  C   UNL     1      -6.438  -4.118 -10.878  1.00  0.00     0.049 A 
ATOM     63  H   UNL     1      -5.880  -4.949  -9.021  1.00  0.00     0.167 HD
ATOM     64  C   UNL     1      -7.234  -2.473  -9.207  1.00  0.00     0.074 A 
ATOM     65  C   UNL     1      -7.833  -1.210  -8.834  1.00  0.00     0.031 C 
ATOM     66  C   UNL     1      -7.052  -2.876 -10.488  1.00  0.00     0.037 A 
BRANCH  53  67
ATOM     67  C   UNL     1      -4.202  -8.320 -11.020  1.00  0.00     0.057 A 
ATOM     68  C   UNL     1      -4.827  -9.571 -11.091  1.00  0.00     0.134 A 
ATOM     69  C   UNL     1      -3.119  -8.087 -11.877  1.00  0.00     0.134 A 
ATOM     70  F   UNL     1      -5.861  -9.862 -10.287  1.00  0.00    -0.206 F 
ATOM     71  C   UNL     1      -4.388 -10.556 -11.978  1.00  0.00     0.040 A 
ATOM     72  C   UNL     1      -2.687  -9.055 -12.785  1.00  0.00     0.040 A 
ATOM     73  F   UNL     1      -2.478  -6.908 -11.860  1.00  0.00    -0.206 F 
ATOM     74  C   UNL     1      -3.321 -10.294 -12.835  1.00  0.00     0.006 A 
ENDBRANCH  53  67
BRANCH  54  75
ATOM     75  C   UNL     1      -7.644  -1.458  -4.638  1.00  0.00     0.057 A 
ATOM     76  C   UNL     1      -9.001  -1.117  -4.573  1.00  0.00     0.134 A 
ATOM     77  C   UNL     1      -6.756  -0.703  -3.861  1.00  0.00     0.134 A 
ATOM     78  F   UNL     1      -9.899  -1.781  -5.315  1.00  0.00    -0.206 F 
ATOM     79  C   UNL     1      -9.452  -0.045  -3.800  1.00  0.00     0.040 A 
ATOM     80  C   UNL     1      -7.197   0.351  -3.058  1.00  0.00     0.040 A 
ATOM     81  F   UNL     1      -5.442  -0.971  -3.878  1.00  0.00    -0.206 F 
ATOM     82  C   UNL     1      -8.547   0.692  -3.038  1.00  0.00     0.006 A 
ENDBRANCH  54  75
BRANCH  66  83
ATOM     83  C   UNL     1      -7.537  -1.968 -11.580  1.00  0.00     0.057 A 
ATOM     84  C   UNL     1      -6.872  -0.778 -11.900  1.00  0.00     0.134 A 
ATOM     85  C   UNL     1      -8.642  -2.323 -12.366  1.00  0.00     0.134 A 
ATOM     86  F   UNL     1      -5.816  -0.375 -11.178  1.00  0.00    -0.206 F 
ATOM     87  C   UNL     1      -7.297   0.034 -12.953  1.00  0.00     0.040 A 
ATOM     88  C   UNL     1      -9.059  -1.534 -13.439  1.00  0.00     0.040 A 
ATOM     89  F   UNL     1      -9.317  -3.456 -12.120  1.00  0.00    -0.206 F 
ATOM     90  C   UNL     1      -8.387  -0.349 -13.732  1.00  0.00     0.006 A 
ENDBRANCH  66  83
ENDBRANCH  40  41
ENDBRANCH  33  35
ENDBRANCH  32  33
ENDBRANCH  31  32
ENDBRANCH  30  31
ENDBRANCH  29  30
ENDBRANCH  28  29
ENDBRANCH  27  28
ENDBRANCH  26  27
ENDBRANCH   1  26
TORSDOF 21
