REMARK SMILES CS(=O)(=O)c1ccc(/C=C(/C(=O)OCCOCCOCCOCCOC(=O)c2ccc(-c3c4nc(c(-c5c(F)cccc5F)c5ccc([nH]5)c(-c5c(F)cccc5F)c5nc(c(-c6c(F)cccc6F)c6ccc3[nH]6)C=C5)C=C4)cc2)c2cccc(Br)c2)cc1
REMARK SMILES IDX 19 1 18 2 17 3 16 4 15 5 14 6 13 7 11 8 12 9 10 10 9 11 8 12
REMARK SMILES IDX 5 13 6 14 90 15 7 16 89 17 2 18 1 19 3 20 4 21 82 22 83 23
REMARK SMILES IDX 88 24 84 25 86 26 85 27 87 28 20 29 21 30 22 31 23 32 24 33
REMARK SMILES IDX 25 34 26 35 27 36 28 37 29 38 81 39 30 40 80 41 31 42 32 43
REMARK SMILES IDX 33 44 74 45 34 46 79 47 73 48 75 49 35 50 78 51 72 52 71 53
REMARK SMILES IDX 36 55 62 56 45 57 61 58 46 59 49 60 60 61 76 62 47 63 48 64
REMARK SMILES IDX 59 66 77 67 50 68 37 69 38 70 43 71 39 72 40 73 42 74 44 75
REMARK SMILES IDX 41 76 63 77 64 78 69 79 65 80 66 81 68 82 70 83 67 84 51 85
REMARK SMILES IDX 52 86 57 87 53 88 54 89 56 90 58 91 55 92
REMARK H PARENT 75 54 49 65
REMARK Flexibility Score: inf
ROOT
ATOM      1  O   UNL     1       0.088  -5.183   9.057  1.00  0.00    -0.377 OA
ENDROOT
BRANCH   1   2
ATOM      2  C   UNL     1      -0.015  -5.844   7.807  1.00  0.00     0.188 C 
BRANCH   2   3
ATOM      3  C   UNL     1       0.750  -7.173   7.611  1.00  0.00     0.188 C 
BRANCH   3   4
ATOM      4  O   UNL     1       1.401  -7.626   8.784  1.00  0.00    -0.376 OA
BRANCH   4   5
ATOM      5  C   UNL     1       2.807  -7.479   8.853  1.00  0.00     0.202 C 
BRANCH   5   6
ATOM      6  C   UNL     1       3.414  -6.074   8.702  1.00  0.00     0.261 C 
BRANCH   6   7
ATOM      7  O   UNL     1       2.857  -5.239   7.672  1.00  0.00    -0.460 OA
BRANCH   7   8
ATOM      8  C   UNL     1       3.208  -5.500   6.391  1.00  0.00     0.338 C 
ATOM      9  O   UNL     1       4.000  -6.362   6.040  1.00  0.00    -0.246 OA
BRANCH   8  10
ATOM     10  C   UNL     1       2.371  -4.690   5.436  1.00  0.00     0.067 C 
ATOM     11  C   UNL     1       2.076  -3.400   5.740  1.00  0.00     0.024 C 
BRANCH  11  12
ATOM     12  C   UNL     1       1.435  -2.366   4.887  1.00  0.00    -0.025 A 
ATOM     13  C   UNL     1       0.676  -0.390   3.040  1.00  0.00     0.067 A 
ATOM     14  C   UNL     1       0.153  -1.674   2.930  1.00  0.00     0.021 A 
ATOM     15  C   UNL     1       1.462  -0.042   4.137  1.00  0.00     0.021 A 
ATOM     16  C   UNL     1       0.504  -2.639   3.875  1.00  0.00     0.009 A 
ATOM     17  C   UNL     1       1.837  -1.031   5.056  1.00  0.00     0.009 A 
BRANCH  13  18
ATOM     18  S   UNL     1       0.348   0.783   1.748  1.00  0.00     0.175 S 
ATOM     19  C   UNL     1       1.102   0.056   0.311  1.00  0.00     0.163 C 
ATOM     20  O   UNL     1       1.081   1.996   2.057  1.00  0.00    -0.224 OA
ATOM     21  O   UNL     1      -1.088   0.802   1.552  1.00  0.00    -0.224 OA
ENDBRANCH  13  18
ENDBRANCH  11  12
BRANCH  10  22
ATOM     22  C   UNL     1       1.926  -5.339   4.184  1.00  0.00    -0.010 A 
ATOM     23  C   UNL     1       0.749  -6.114   4.167  1.00  0.00     0.009 A 
ATOM     24  C   UNL     1       2.573  -5.069   2.976  1.00  0.00     0.024 A 
ATOM     25  C   UNL     1       0.217  -6.592   2.970  1.00  0.00     0.002 A 
ATOM     26  C   UNL     1       2.021  -5.528   1.779  1.00  0.00     0.018 A 
ATOM     27  C   UNL     1       0.850  -6.287   1.769  1.00  0.00     0.016 A 
ATOM     28  Br  UNL     1       2.827  -5.043   0.140  1.00  0.00    -0.051 Br
ENDBRANCH  10  22
ENDBRANCH   8  10
ENDBRANCH   7   8
ENDBRANCH   6   7
ENDBRANCH   5   6
ENDBRANCH   4   5
ENDBRANCH   3   4
ENDBRANCH   2   3
ENDBRANCH   1   2
BRANCH   1  29
ATOM     29  C   UNL     1      -0.117  -5.923  10.257  1.00  0.00     0.188 C 
BRANCH  29  30
ATOM     30  C   UNL     1      -0.932  -7.239  10.266  1.00  0.00     0.188 C 
BRANCH  30  31
ATOM     31  O   UNL     1      -1.628  -7.526   9.064  1.00  0.00    -0.376 OA
BRANCH  31  32
ATOM     32  C   UNL     1      -3.034  -7.356   9.048  1.00  0.00     0.202 C 
BRANCH  32  33
ATOM     33  C   UNL     1      -3.561  -5.926   9.227  1.00  0.00     0.261 C 
BRANCH  33  34
ATOM     34  O   UNL     1      -3.092  -5.228  10.390  1.00  0.00    -0.460 OA
BRANCH  34  35
ATOM     35  C   UNL     1      -3.461  -5.727  11.586  1.00  0.00     0.338 C 
ATOM     36  O   UNL     1      -4.173  -6.699  11.793  1.00  0.00    -0.246 OA
BRANCH  35  37
ATOM     37  C   UNL     1      -2.699  -5.020  12.633  1.00  0.00     0.060 A 
ATOM     38  C   UNL     1      -1.877  -5.766  13.487  1.00  0.00     0.016 A 
ATOM     39  C   UNL     1      -2.802  -3.635  12.775  1.00  0.00     0.016 A 
ATOM     40  C   UNL     1      -1.204  -5.136  14.529  1.00  0.00     0.010 A 
ATOM     41  C   UNL     1      -2.145  -3.006  13.836  1.00  0.00     0.010 A 
ATOM     42  C   UNL     1      -1.388  -3.764  14.746  1.00  0.00    -0.014 A 
BRANCH  42  43
ATOM     43  C   UNL     1      -0.998  -3.197  16.058  1.00  0.00     0.031 A 
ATOM     44  C   UNL     1      -2.063  -3.058  17.113  1.00  0.00     0.074 A 
ATOM     45  C   UNL     1       0.279  -2.887  16.339  1.00  0.00     0.049 A 
ATOM     46  N   UNL     1      -1.967  -2.626  18.344  1.00  0.00    -0.248 NA
ATOM     47  C   UNL     1      -3.424  -3.466  16.724  1.00  0.00     0.031 C 
ATOM     48  C   UNL     1       1.405  -3.020  15.417  1.00  0.00     0.029 A 
ATOM     49  N   UNL     1       0.840  -2.401  17.492  1.00  0.00    -0.354 N 
ATOM     50  C   UNL     1      -3.250  -2.708  18.872  1.00  0.00     0.074 A 
ATOM     51  C   UNL     1      -4.115  -3.189  17.818  1.00  0.00     0.031 C 
ATOM     52  C   UNL     1       2.527  -2.622  16.043  1.00  0.00     0.029 A 
ATOM     53  C   UNL     1       2.192  -2.183  17.397  1.00  0.00     0.049 A 
ATOM     54  H   UNL     1       0.323  -2.225  18.311  1.00  0.00     0.167 HD
ATOM     55  C   UNL     1      -3.670  -2.422  20.127  1.00  0.00     0.037 A 
ATOM     56  C   UNL     1       3.054  -1.676  18.299  1.00  0.00     0.037 A 
ATOM     57  C   UNL     1      -2.808  -1.940  21.173  1.00  0.00     0.049 A 
ATOM     58  C   UNL     1       2.550  -1.297  19.669  1.00  0.00     0.074 A 
ATOM     59  C   UNL     1      -3.131  -1.628  22.481  1.00  0.00     0.029 A 
ATOM     60  N   UNL     1      -1.451  -1.691  21.025  1.00  0.00    -0.354 N 
ATOM     61  N   UNL     1       1.341  -1.401  20.167  1.00  0.00    -0.248 NA
ATOM     62  C   UNL     1       3.536  -0.740  20.605  1.00  0.00     0.031 C 
ATOM     63  C   UNL     1      -1.983  -1.133  23.108  1.00  0.00     0.029 A 
ATOM     64  C   UNL     1      -0.928  -1.204  22.212  1.00  0.00     0.049 A 
ATOM     65  H   UNL     1      -0.937  -1.839  20.199  1.00  0.00     0.167 HD
ATOM     66  C   UNL     1       1.429  -0.958  21.482  1.00  0.00     0.074 A 
ATOM     67  C   UNL     1       2.815  -0.601  21.707  1.00  0.00     0.031 C 
ATOM     68  C   UNL     1       0.455  -0.857  22.421  1.00  0.00     0.037 A 
BRANCH  55  69
ATOM     69  C   UNL     1      -5.132  -2.594  20.421  1.00  0.00     0.057 A 
ATOM     70  C   UNL     1      -5.737  -3.857  20.481  1.00  0.00     0.134 A 
ATOM     71  C   UNL     1      -5.944  -1.479  20.665  1.00  0.00     0.134 A 
ATOM     72  F   UNL     1      -5.022  -4.967  20.239  1.00  0.00    -0.206 F 
ATOM     73  C   UNL     1      -7.101  -4.003  20.745  1.00  0.00     0.040 A 
ATOM     74  C   UNL     1      -7.302  -1.614  20.961  1.00  0.00     0.040 A 
ATOM     75  F   UNL     1      -5.431  -0.241  20.625  1.00  0.00    -0.206 F 
ATOM     76  C   UNL     1      -7.885  -2.878  20.994  1.00  0.00     0.006 A 
ENDBRANCH  55  69
BRANCH  56  77
ATOM     77  C   UNL     1       4.485  -1.489  17.944  1.00  0.00     0.057 A 
ATOM     78  C   UNL     1       5.495  -2.232  18.566  1.00  0.00     0.134 A 
ATOM     79  C   UNL     1       4.879  -0.534  16.998  1.00  0.00     0.134 A 
ATOM     80  F   UNL     1       5.185  -3.145  19.498  1.00  0.00    -0.206 F 
ATOM     81  C   UNL     1       6.845  -2.017  18.279  1.00  0.00     0.040 A 
ATOM     82  C   UNL     1       6.222  -0.330  16.679  1.00  0.00     0.040 A 
ATOM     83  F   UNL     1       3.962   0.211  16.365  1.00  0.00    -0.206 F 
ATOM     84  C   UNL     1       7.211  -1.066  17.329  1.00  0.00     0.006 A 
ENDBRANCH  56  77
BRANCH  68  85
ATOM     85  C   UNL     1       0.864  -0.389  23.791  1.00  0.00     0.057 A 
ATOM     86  C   UNL     1       1.283   0.925  24.037  1.00  0.00     0.134 A 
ATOM     87  C   UNL     1       0.823  -1.266  24.883  1.00  0.00     0.134 A 
ATOM     88  F   UNL     1       1.355   1.816  23.036  1.00  0.00    -0.206 F 
ATOM     89  C   UNL     1       1.685   1.337  25.309  1.00  0.00     0.040 A 
ATOM     90  C   UNL     1       1.188  -0.857  26.166  1.00  0.00     0.040 A 
ATOM     91  F   UNL     1       0.417  -2.535  24.724  1.00  0.00    -0.206 F 
ATOM     92  C   UNL     1       1.633   0.446  26.379  1.00  0.00     0.006 A 
ENDBRANCH  68  85
ENDBRANCH  42  43
ENDBRANCH  35  37
ENDBRANCH  34  35
ENDBRANCH  33  34
ENDBRANCH  32  33
ENDBRANCH  31  32
ENDBRANCH  30  31
ENDBRANCH  29  30
ENDBRANCH   1  29
TORSDOF 23
