REMARK SMILES Cn1c(C[NH+]2CCCC2)nnc1[C@@H]1CCCN(c2cccc(C(=O)OCCOCCOCCOCCOC(=O)c3ccc(-c4c5nc(c(-c6c(F)cccc6F)c6ccc([nH]6)c(-c6c(F)cccc6F)c6nc(c(-c7c(F)cccc7F)c7ccc4[nH]7)C=C6)C=C5)cc3)n2)C1
REMARK SMILES IDX 30 1 29 2 28 3 27 4 26 5 25 6 23 7 24 8 22 9 18 10 19 11
REMARK SMILES IDX 94 12 20 13 21 14 17 15 13 16 14 17 95 18 15 19 16 20 12 21
REMARK SMILES IDX 1 22 2 23 3 24 10 25 11 26 4 27 5 28 6 29 9 30 7 32 8 33
REMARK SMILES IDX 31 34 32 35 33 36 34 37 35 38 36 39 37 40 38 41 39 42 40 43
REMARK SMILES IDX 41 44 93 45 42 46 92 47 43 48 44 49 45 50 86 51 46 52 91 53
REMARK SMILES IDX 85 54 87 55 47 56 90 57 84 58 83 59 48 61 74 62 57 63 73 64
REMARK SMILES IDX 58 65 61 66 72 67 88 68 59 69 60 70 71 72 89 73 62 74 49 75
REMARK SMILES IDX 50 76 55 77 51 78 52 79 54 80 56 81 53 82 75 83 76 84 81 85
REMARK SMILES IDX 77 86 78 87 80 88 82 89 79 90 63 91 64 92 69 93 65 94 66 95
REMARK SMILES IDX 68 96 70 97 67 98
REMARK H PARENT 5 31 87 60 61 71
REMARK Flexibility Score: inf
ROOT
ATOM      1  C   UNL     1      -3.166   2.433   0.575  1.00  0.00     0.188 C 
ENDROOT
BRANCH   1   2
ATOM      2  C   UNL     1      -3.987   1.179   0.910  1.00  0.00     0.188 C 
BRANCH   2   3
ATOM      3  O   UNL     1      -5.107   1.286   1.778  1.00  0.00    -0.376 OA
BRANCH   3   4
ATOM      4  C   UNL     1      -5.025   2.173   2.878  1.00  0.00     0.202 C 
BRANCH   4   5
ATOM      5  C   UNL     1      -3.868   2.025   3.886  1.00  0.00     0.261 C 
BRANCH   5   6
ATOM      6  O   UNL     1      -2.516   1.954   3.374  1.00  0.00    -0.459 OA
BRANCH   6   7
ATOM      7  C   UNL     1      -1.817   0.787   3.563  1.00  0.00     0.357 C 
ATOM      8  O   UNL     1      -2.290  -0.234   4.037  1.00  0.00    -0.244 OA
BRANCH   7   9
ATOM      9  C   UNL     1      -0.358   0.946   3.169  1.00  0.00     0.150 A 
ATOM     10  C   UNL     1       1.676  -0.108   2.590  1.00  0.00     0.129 A 
ATOM     11  C   UNL     1       2.303   1.132   2.527  1.00  0.00     0.047 A 
ATOM     12  N   UNL     1       0.367  -0.196   2.943  1.00  0.00    -0.224 NA
ATOM     13  C   UNL     1       1.584   2.290   2.835  1.00  0.00     0.006 A 
ATOM     14  C   UNL     1       0.230   2.202   3.146  1.00  0.00     0.036 A 
BRANCH  10  15
ATOM     15  N   UNL     1       2.438  -1.267   2.360  1.00  0.00    -0.356 N 
ATOM     16  C   UNL     1       1.311  -2.114   0.315  1.00  0.00     0.077 C 
ATOM     17  C   UNL     1       0.502  -3.050   1.268  1.00  0.00     0.015 C 
ATOM     18  C   UNL     1       2.642  -1.803   1.008  1.00  0.00     0.129 C 
ATOM     19  C   UNL     1       0.906  -3.135   2.776  1.00  0.00     0.022 C 
ATOM     20  C   UNL     1       2.128  -2.352   3.265  1.00  0.00     0.118 C 
BRANCH  16  21
ATOM     21  C   UNL     1       0.601  -0.857  -0.147  1.00  0.00     0.137 A 
ATOM     22  C   UNL     1       2.564   0.460  -1.109  1.00  0.00     0.153 C 
ATOM     23  N   UNL     1       1.217   0.274  -0.649  1.00  0.00    -0.313 N 
ATOM     24  C   UNL     1       0.290   1.285  -0.576  1.00  0.00     0.187 A 
ATOM     25  N   UNL     1      -0.880   0.737  -0.320  1.00  0.00    -0.129 NA
ATOM     26  N   UNL     1      -0.694  -0.606  -0.094  1.00  0.00    -0.135 NA
BRANCH  24  27
ATOM     27  C   UNL     1       0.626   2.748  -0.667  1.00  0.00     0.341 C 
BRANCH  27  28
ATOM     28  N   UNL     1       0.496   3.449  -1.961  1.00  0.00    -0.329 N 
ATOM     29  C   UNL     1      -0.891   3.532  -2.397  1.00  0.00     0.262 C 
ATOM     30  C   UNL     1       1.169   2.874  -3.121  1.00  0.00     0.262 C 
ATOM     31  H   UNL     1       0.938   4.337  -1.722  1.00  0.00     0.348 HD
ATOM     32  C   UNL     1      -1.148   2.255  -3.191  1.00  0.00     0.067 C 
ATOM     33  C   UNL     1       0.224   1.820  -3.683  1.00  0.00     0.067 C 
ENDBRANCH  27  28
ENDBRANCH  24  27
ENDBRANCH  16  21
ENDBRANCH  10  15
ENDBRANCH   7   9
ENDBRANCH   6   7
ENDBRANCH   5   6
ENDBRANCH   4   5
ENDBRANCH   3   4
ENDBRANCH   2   3
ENDBRANCH   1   2
BRANCH   1  34
ATOM     34  O   UNL     1      -3.708   3.676   0.982  1.00  0.00    -0.377 OA
BRANCH  34  35
ATOM     35  C   UNL     1      -4.263   4.530  -0.005  1.00  0.00     0.188 C 
BRANCH  35  36
ATOM     36  C   UNL     1      -5.496   4.004  -0.757  1.00  0.00     0.188 C 
BRANCH  36  37
ATOM     37  O   UNL     1      -5.344   2.991  -1.751  1.00  0.00    -0.376 OA
BRANCH  37  38
ATOM     38  C   UNL     1      -4.237   3.060  -2.634  1.00  0.00     0.202 C 
BRANCH  38  39
ATOM     39  C   UNL     1      -4.270   4.069  -3.771  1.00  0.00     0.261 C 
BRANCH  39  40
ATOM     40  O   UNL     1      -4.076   5.378  -3.222  1.00  0.00    -0.460 OA
BRANCH  40  41
ATOM     41  C   UNL     1      -5.046   6.249  -3.541  1.00  0.00     0.338 C 
ATOM     42  O   UNL     1      -5.930   6.117  -4.379  1.00  0.00    -0.246 OA
BRANCH  41  43
ATOM     43  C   UNL     1      -5.053   7.318  -2.544  1.00  0.00     0.060 A 
ATOM     44  C   UNL     1      -6.241   7.467  -1.825  1.00  0.00     0.016 A 
ATOM     45  C   UNL     1      -3.974   8.188  -2.364  1.00  0.00     0.016 A 
ATOM     46  C   UNL     1      -6.394   8.545  -0.978  1.00  0.00     0.010 A 
ATOM     47  C   UNL     1      -4.138   9.293  -1.526  1.00  0.00     0.010 A 
ATOM     48  C   UNL     1      -5.373   9.497  -0.885  1.00  0.00    -0.014 A 
BRANCH  48  49
ATOM     49  C   UNL     1      -5.749  10.806  -0.317  1.00  0.00     0.031 A 
ATOM     50  C   UNL     1      -6.184  11.886  -1.267  1.00  0.00     0.074 A 
ATOM     51  C   UNL     1      -5.873  10.947   1.011  1.00  0.00     0.049 A 
ATOM     52  N   UNL     1      -6.669  13.072  -1.008  1.00  0.00    -0.248 NA
ATOM     53  C   UNL     1      -6.078  11.583  -2.706  1.00  0.00     0.031 C 
ATOM     54  C   UNL     1      -5.555   9.918   2.002  1.00  0.00     0.029 A 
ATOM     55  N   UNL     1      -6.331  12.002   1.751  1.00  0.00    -0.354 N 
ATOM     56  C   UNL     1      -6.932  13.648  -2.245  1.00  0.00     0.074 A 
ATOM     57  C   UNL     1      -6.520  12.702  -3.256  1.00  0.00     0.031 C 
ATOM     58  C   UNL     1      -5.830  10.397   3.227  1.00  0.00     0.029 A 
ATOM     59  C   UNL     1      -6.313  11.770   3.103  1.00  0.00     0.049 A 
ATOM     60  H   UNL     1      -6.643  12.847   1.352  1.00  0.00     0.167 HD
ATOM     61  C   UNL     1      -7.484  14.854  -2.508  1.00  0.00     0.037 A 
ATOM     62  C   UNL     1      -6.635  12.590   4.119  1.00  0.00     0.037 A 
ATOM     63  C   UNL     1      -7.887  15.784  -1.486  1.00  0.00     0.049 A 
ATOM     64  C   UNL     1      -7.157  13.964   3.796  1.00  0.00     0.074 A 
ATOM     65  C   UNL     1      -8.434  17.045  -1.634  1.00  0.00     0.029 A 
ATOM     66  N   UNL     1      -7.781  15.547  -0.123  1.00  0.00    -0.354 N 
ATOM     67  N   UNL     1      -7.394  14.508   2.625  1.00  0.00    -0.248 NA
ATOM     68  C   UNL     1      -7.464  14.837   4.936  1.00  0.00     0.031 C 
ATOM     69  C   UNL     1      -8.607  17.594  -0.359  1.00  0.00     0.029 A 
ATOM     70  C   UNL     1      -8.229  16.650   0.583  1.00  0.00     0.049 A 
ATOM     71  H   UNL     1      -7.438  14.717   0.281  1.00  0.00     0.167 HD
ATOM     72  C   UNL     1      -7.900  15.774   2.887  1.00  0.00     0.074 A 
ATOM     73  C   UNL     1      -7.963  15.904   4.329  1.00  0.00     0.031 C 
ATOM     74  C   UNL     1      -8.276  16.748   2.020  1.00  0.00     0.037 A 
BRANCH  61  75
ATOM     75  C   UNL     1      -7.651  15.247  -3.947  1.00  0.00     0.057 A 
ATOM     76  C   UNL     1      -8.606  14.646  -4.777  1.00  0.00     0.134 A 
ATOM     77  C   UNL     1      -6.867  16.267  -4.500  1.00  0.00     0.134 A 
ATOM     78  F   UNL     1      -9.375  13.647  -4.318  1.00  0.00    -0.206 F 
ATOM     79  C   UNL     1      -8.767  15.038  -6.108  1.00  0.00     0.040 A 
ATOM     80  C   UNL     1      -7.037  16.686  -5.820  1.00  0.00     0.040 A 
ATOM     81  F   UNL     1      -5.930  16.882  -3.762  1.00  0.00    -0.206 F 
ATOM     82  C   UNL     1      -7.987  16.069  -6.630  1.00  0.00     0.006 A 
ENDBRANCH  61  75
BRANCH  62  83
ATOM     83  C   UNL     1      -6.436  12.154   5.525  1.00  0.00     0.057 A 
ATOM     84  C   UNL     1      -7.510  12.004   6.410  1.00  0.00     0.134 A 
ATOM     85  C   UNL     1      -5.151  11.915   6.029  1.00  0.00     0.134 A 
ATOM     86  F   UNL     1      -8.764  12.235   5.995  1.00  0.00    -0.206 F 
ATOM     87  C   UNL     1      -7.312  11.666   7.750  1.00  0.00     0.040 A 
ATOM     88  C   UNL     1      -4.940  11.544   7.357  1.00  0.00     0.040 A 
ATOM     89  F   UNL     1      -4.077  12.036   5.234  1.00  0.00    -0.206 F 
ATOM     90  C   UNL     1      -6.023  11.431   8.226  1.00  0.00     0.006 A 
ENDBRANCH  62  83
BRANCH  74  91
ATOM     91  C   UNL     1      -8.813  18.017   2.618  1.00  0.00     0.057 A 
ATOM     92  C   UNL     1      -7.995  18.908   3.325  1.00  0.00     0.134 A 
ATOM     93  C   UNL     1     -10.165  18.354   2.476  1.00  0.00     0.134 A 
ATOM     94  F   UNL     1      -6.692  18.639   3.505  1.00  0.00    -0.206 F 
ATOM     95  C   UNL     1      -8.511  20.066   3.906  1.00  0.00     0.040 A 
ATOM     96  C   UNL     1     -10.685  19.528   3.021  1.00  0.00     0.040 A 
ATOM     97  F   UNL     1     -11.001  17.553   1.798  1.00  0.00    -0.206 F 
ATOM     98  C   UNL     1      -9.860  20.381   3.750  1.00  0.00     0.006 A 
ENDBRANCH  74  91
ENDBRANCH  48  49
ENDBRANCH  41  43
ENDBRANCH  40  41
ENDBRANCH  39  40
ENDBRANCH  38  39
ENDBRANCH  37  38
ENDBRANCH  36  37
ENDBRANCH  35  36
ENDBRANCH  34  35
ENDBRANCH   1  34
TORSDOF 24
