REMARK SMILES CCCC1CN(c2cc(C(=O)OCCOCCOCCOCCOC(=O)c3ccc(-c4c5nc(c(-c6c(F)cccc6F)c6ccc([nH]6)c(-c6c(F)cccc6F)c6nc(c(-c7c(F)cccc7F)c7ccc4[nH]7)C=C6)C=C5)cc3)ccc2C)C1
REMARK SMILES IDX 17 1 16 2 15 3 14 4 13 5 12 6 10 7 11 8 9 9 7 10 8 11 83 12
REMARK SMILES IDX 82 13 84 14 81 15 6 16 4 17 5 18 85 19 3 20 2 21 1 22 18 23
REMARK SMILES IDX 19 24 20 25 21 26 22 27 23 28 24 29 25 30 26 31 27 32 28 33
REMARK SMILES IDX 80 34 29 35 79 36 30 37 31 38 32 39 73 40 33 41 78 42 72 43
REMARK SMILES IDX 74 44 34 45 77 46 71 47 70 48 35 50 61 51 44 52 60 53 45 54
REMARK SMILES IDX 48 55 59 56 75 57 46 58 47 59 58 61 76 62 49 63 36 64 37 65
REMARK SMILES IDX 42 66 38 67 39 68 41 69 43 70 40 71 62 72 63 73 68 74 64 75
REMARK SMILES IDX 65 76 67 77 69 78 66 79 50 80 51 81 56 82 52 83 53 84 55 85
REMARK SMILES IDX 57 86 54 87
REMARK H PARENT 74 49 48 60
REMARK Flexibility Score: inf
ROOT
ATOM      1  C   UNL     1      -5.099   5.167   2.079  1.00  0.00     0.188 C 
ENDROOT
BRANCH   1   2
ATOM      2  C   UNL     1      -5.539   6.632   2.165  1.00  0.00     0.188 C 
BRANCH   2   3
ATOM      3  O   UNL     1      -4.562   7.593   1.819  1.00  0.00    -0.376 OA
BRANCH   3   4
ATOM      4  C   UNL     1      -4.231   7.729   0.440  1.00  0.00     0.202 C 
BRANCH   4   5
ATOM      5  C   UNL     1      -3.059   6.867  -0.005  1.00  0.00     0.261 C 
BRANCH   5   6
ATOM      6  O   UNL     1      -2.074   6.601   0.995  1.00  0.00    -0.460 OA
BRANCH   6   7
ATOM      7  C   UNL     1      -1.793   7.520   1.947  1.00  0.00     0.338 C 
ATOM      8  O   UNL     1      -2.079   8.702   2.005  1.00  0.00    -0.246 OA
BRANCH   7   9
ATOM      9  C   UNL     1      -1.232   6.779   3.081  1.00  0.00     0.062 A 
ATOM     10  C   UNL     1      -0.264   4.739   3.955  1.00  0.00     0.040 A 
ATOM     11  C   UNL     1      -0.556   5.575   2.879  1.00  0.00     0.041 A 
ATOM     12  C   UNL     1      -0.623   5.157   5.252  1.00  0.00    -0.028 A 
ATOM     13  C   UNL     1      -1.236   6.411   5.446  1.00  0.00     0.006 A 
ATOM     14  C   UNL     1      -0.414   4.299   6.466  1.00  0.00     0.046 C 
ATOM     15  C   UNL     1      -1.541   7.223   4.363  1.00  0.00     0.016 A 
BRANCH  10  16
ATOM     16  N   UNL     1       0.316   3.473   3.716  1.00  0.00    -0.371 N 
ATOM     17  C   UNL     1       0.429   1.937   2.299  1.00  0.00     0.028 C 
ATOM     18  C   UNL     1      -0.465   2.283   3.499  1.00  0.00     0.122 C 
ATOM     19  C   UNL     1       1.274   3.150   2.697  1.00  0.00     0.122 C 
BRANCH  17  20
ATOM     20  C   UNL     1       1.174   0.605   2.341  1.00  0.00     0.007 C 
BRANCH  20  21
ATOM     21  C   UNL     1       0.604  -0.397   1.337  1.00  0.00    -0.003 C 
ATOM     22  C   UNL     1       1.053  -0.105  -0.090  1.00  0.00     0.004 C 
ENDBRANCH  20  21
ENDBRANCH  17  20
ENDBRANCH  10  16
ENDBRANCH   7   9
ENDBRANCH   6   7
ENDBRANCH   5   6
ENDBRANCH   4   5
ENDBRANCH   3   4
ENDBRANCH   2   3
ENDBRANCH   1   2
BRANCH   1  23
ATOM     23  O   UNL     1      -4.788   4.681   0.775  1.00  0.00    -0.377 OA
BRANCH  23  24
ATOM     24  C   UNL     1      -5.843   4.068   0.042  1.00  0.00     0.188 C 
BRANCH  24  25
ATOM     25  C   UNL     1      -6.395   4.968  -1.067  1.00  0.00     0.188 C 
BRANCH  25  26
ATOM     26  O   UNL     1      -6.886   6.191  -0.541  1.00  0.00    -0.376 OA
BRANCH  26  27
ATOM     27  C   UNL     1      -8.293   6.305  -0.375  1.00  0.00     0.202 C 
BRANCH  27  28
ATOM     28  C   UNL     1      -8.983   6.695  -1.683  1.00  0.00     0.261 C 
BRANCH  28  29
ATOM     29  O   UNL     1      -8.307   7.840  -2.233  1.00  0.00    -0.460 OA
BRANCH  29  30
ATOM     30  C   UNL     1      -7.402   7.575  -3.210  1.00  0.00     0.338 C 
ATOM     31  O   UNL     1      -7.409   6.601  -3.951  1.00  0.00    -0.246 OA
BRANCH  30  32
ATOM     32  C   UNL     1      -6.277   8.549  -3.150  1.00  0.00     0.060 A 
ATOM     33  C   UNL     1      -5.175   8.380  -4.001  1.00  0.00     0.016 A 
ATOM     34  C   UNL     1      -6.217   9.511  -2.143  1.00  0.00     0.016 A 
ATOM     35  C   UNL     1      -3.997   9.120  -3.803  1.00  0.00     0.010 A 
ATOM     36  C   UNL     1      -5.032  10.209  -1.923  1.00  0.00     0.010 A 
ATOM     37  C   UNL     1      -3.893  10.012  -2.728  1.00  0.00    -0.014 A 
BRANCH  37  38
ATOM     38  C   UNL     1      -2.607  10.546  -2.214  1.00  0.00     0.031 A 
ATOM     39  C   UNL     1      -2.447  11.898  -1.574  1.00  0.00     0.074 A 
ATOM     40  C   UNL     1      -1.719   9.617  -1.784  1.00  0.00     0.049 A 
ATOM     41  N   UNL     1      -1.354  12.299  -0.992  1.00  0.00    -0.248 NA
ATOM     42  C   UNL     1      -3.473  12.941  -1.555  1.00  0.00     0.031 C 
ATOM     43  C   UNL     1      -1.046   9.683  -0.494  1.00  0.00     0.029 A 
ATOM     44  N   UNL     1      -1.253   8.430  -2.346  1.00  0.00    -0.354 N 
ATOM     45  C   UNL     1      -1.724  13.295  -0.119  1.00  0.00     0.074 A 
ATOM     46  C   UNL     1      -2.941  13.816  -0.689  1.00  0.00     0.031 C 
ATOM     47  C   UNL     1      -0.139   8.715  -0.404  1.00  0.00     0.029 A 
ATOM     48  C   UNL     1      -0.099   8.025  -1.669  1.00  0.00     0.049 A 
ATOM     49  H   UNL     1      -1.670   7.952  -3.099  1.00  0.00     0.167 HD
ATOM     50  C   UNL     1      -1.099  13.428   1.091  1.00  0.00     0.037 A 
ATOM     51  C   UNL     1       1.023   7.456  -2.168  1.00  0.00     0.037 A 
ATOM     52  C   UNL     1       0.085  12.560   1.252  1.00  0.00     0.049 A 
ATOM     53  C   UNL     1       2.208   8.295  -1.800  1.00  0.00     0.074 A 
ATOM     54  C   UNL     1       0.489  11.670   2.236  1.00  0.00     0.029 A 
ATOM     55  N   UNL     1       1.024  12.436   0.223  1.00  0.00    -0.354 N 
ATOM     56  N   UNL     1       2.014   9.529  -1.415  1.00  0.00    -0.248 NA
ATOM     57  C   UNL     1       3.622   7.939  -1.764  1.00  0.00     0.031 C 
ATOM     58  C   UNL     1       1.669  11.013   1.787  1.00  0.00     0.029 A 
ATOM     59  C   UNL     1       2.003  11.513   0.538  1.00  0.00     0.049 A 
ATOM     60  H   UNL     1       0.992  12.942  -0.621  1.00  0.00     0.167 HD
ATOM     61  C   UNL     1       3.168  10.065  -0.960  1.00  0.00     0.074 A 
ATOM     62  C   UNL     1       4.177   9.080  -1.297  1.00  0.00     0.031 C 
ATOM     63  C   UNL     1       3.157  11.269  -0.329  1.00  0.00     0.037 A 
BRANCH  50  64
ATOM     64  C   UNL     1      -1.649  14.256   2.255  1.00  0.00     0.057 A 
ATOM     65  C   UNL     1      -0.824  14.614   3.343  1.00  0.00     0.134 A 
ATOM     66  C   UNL     1      -2.989  14.674   2.402  1.00  0.00     0.134 A 
ATOM     67  F   UNL     1       0.467  14.256   3.389  1.00  0.00    -0.206 F 
ATOM     68  C   UNL     1      -1.280  15.358   4.447  1.00  0.00     0.040 A 
ATOM     69  C   UNL     1      -3.439  15.479   3.463  1.00  0.00     0.040 A 
ATOM     70  F   UNL     1      -3.957  14.279   1.566  1.00  0.00    -0.206 F 
ATOM     71  C   UNL     1      -2.584  15.824   4.495  1.00  0.00     0.006 A 
ENDBRANCH  50  64
BRANCH  51  72
ATOM     72  C   UNL     1       0.767   6.394  -3.154  1.00  0.00     0.057 A 
ATOM     73  C   UNL     1       0.365   5.160  -2.605  1.00  0.00     0.134 A 
ATOM     74  C   UNL     1       0.286   6.710  -4.429  1.00  0.00     0.134 A 
ATOM     75  F   UNL     1       0.794   4.795  -1.385  1.00  0.00    -0.206 F 
ATOM     76  C   UNL     1      -0.608   4.365  -3.216  1.00  0.00     0.040 A 
ATOM     77  C   UNL     1      -0.694   5.922  -5.048  1.00  0.00     0.040 A 
ATOM     78  F   UNL     1       0.577   7.894  -4.985  1.00  0.00    -0.206 F 
ATOM     79  C   UNL     1      -1.174   4.772  -4.420  1.00  0.00     0.006 A 
ENDBRANCH  51  72
BRANCH  63  80
ATOM     80  C   UNL     1       4.251  12.285  -0.454  1.00  0.00     0.057 A 
ATOM     81  C   UNL     1       5.141  12.310  -1.540  1.00  0.00     0.134 A 
ATOM     82  C   UNL     1       4.274  13.423   0.378  1.00  0.00     0.134 A 
ATOM     83  F   UNL     1       5.176  11.321  -2.445  1.00  0.00    -0.206 F 
ATOM     84  C   UNL     1       5.995  13.391  -1.782  1.00  0.00     0.040 A 
ATOM     85  C   UNL     1       5.097  14.522   0.124  1.00  0.00     0.040 A 
ATOM     86  F   UNL     1       3.466  13.536   1.442  1.00  0.00    -0.206 F 
ATOM     87  C   UNL     1       5.962  14.510  -0.960  1.00  0.00     0.006 A 
ENDBRANCH  63  80
ENDBRANCH  37  38
ENDBRANCH  30  32
ENDBRANCH  29  30
ENDBRANCH  28  29
ENDBRANCH  27  28
ENDBRANCH  26  27
ENDBRANCH  25  26
ENDBRANCH  24  25
ENDBRANCH  23  24
ENDBRANCH   1  23
TORSDOF 23
