REMARK SMILES C[C@@H](NC(=O)CN1C(=O)S/C(=C\c2c[nH]c3ccccc23)C1=O)C(=O)OCCOCCOCCOCCOC(=O)c1ccc(-c2c3nc(c(-c4c(F)cccc4F)c4ccc([nH]4)c(-c4c(F)cccc4F)c4nc(c(-c5c(F)cccc5F)c5ccc2[nH]5)C=C4)C=C3)cc1
REMARK SMILES IDX 31 1 30 2 29 3 28 4 27 5 26 6 24 7 25 8 2 9 1 10 3 11 4 12
REMARK SMILES IDX 5 14 6 15 7 16 8 17 22 18 9 19 10 20 11 21 23 22 12 23 13 24
REMARK SMILES IDX 14 25 21 26 15 27 16 28 20 29 17 31 19 32 18 33 32 34 33 35
REMARK SMILES IDX 34 36 35 37 36 38 37 39 38 40 39 41 40 42 41 43 42 44 94 45
REMARK SMILES IDX 43 46 93 47 44 48 45 49 46 50 87 51 47 52 92 53 86 54 88 55
REMARK SMILES IDX 48 56 91 57 85 58 84 59 49 61 75 62 58 63 74 64 59 65 62 66
REMARK SMILES IDX 73 67 89 68 60 69 61 70 72 72 90 73 63 74 50 75 51 76 56 77
REMARK SMILES IDX 52 78 53 79 55 80 57 81 54 82 76 83 77 84 82 85 78 86 79 87
REMARK SMILES IDX 81 88 83 89 80 90 64 91 65 92 70 93 66 94 67 95 69 96 71 97
REMARK SMILES IDX 68 98
REMARK H PARENT 3 13 15 30 88 60 62 71
REMARK Flexibility Score: inf
ROOT
ATOM      1  C   UNL     1      -1.619   0.868  -1.916  1.00  0.00     0.188 C 
ENDROOT
BRANCH   1   2
ATOM      2  C   UNL     1      -2.640   0.351  -2.931  1.00  0.00     0.188 C 
BRANCH   2   3
ATOM      3  O   UNL     1      -3.802  -0.166  -2.299  1.00  0.00    -0.376 OA
BRANCH   3   4
ATOM      4  C   UNL     1      -3.913  -1.570  -2.107  1.00  0.00     0.202 C 
BRANCH   4   5
ATOM      5  C   UNL     1      -2.849  -2.242  -1.233  1.00  0.00     0.261 C 
BRANCH   5   6
ATOM      6  O   UNL     1      -1.738  -2.933  -1.870  1.00  0.00    -0.462 OA
BRANCH   6   7
ATOM      7  C   UNL     1      -0.533  -2.358  -2.097  1.00  0.00     0.328 C 
ATOM      8  O   UNL     1      -0.287  -1.843  -3.192  1.00  0.00    -0.250 OA
BRANCH   7   9
ATOM      9  C   UNL     1       0.629  -2.540  -1.057  1.00  0.00     0.189 C 
ATOM     10  C   UNL     1       1.350  -1.212  -0.703  1.00  0.00     0.043 C 
BRANCH   9  11
ATOM     11  N   UNL     1       0.774  -3.538   0.035  1.00  0.00    -0.341 N 
ATOM     12  C   UNL     1       0.212  -3.825   1.236  1.00  0.00     0.240 C 
ATOM     13  H   UNL     1       1.489  -4.180  -0.176  1.00  0.00     0.164 HD
ATOM     14  O   UNL     1       0.922  -4.433   2.044  1.00  0.00    -0.273 OA
BRANCH  12  15
ATOM     15  C   UNL     1      -1.206  -3.439   1.614  1.00  0.00     0.229 C 
BRANCH  15  16
ATOM     16  N   UNL     1      -1.240  -2.233   2.413  1.00  0.00    -0.259 N 
ATOM     17  C   UNL     1      -1.688  -2.174   3.704  1.00  0.00     0.294 C 
ATOM     18  C   UNL     1      -1.037  -1.034   1.821  1.00  0.00     0.268 C 
ATOM     19  O   UNL     1      -2.188  -3.068   4.348  1.00  0.00    -0.261 OA
ATOM     20  S   UNL     1      -1.576  -0.504   4.286  1.00  0.00    -0.022 SA
ATOM     21  C   UNL     1      -1.020   0.072   2.777  1.00  0.00     0.083 C 
ATOM     22  O   UNL     1      -0.917  -0.870   0.619  1.00  0.00    -0.268 OA
ATOM     23  C   UNL     1      -0.588   1.256   2.327  1.00  0.00     0.031 C 
BRANCH  23  24
ATOM     24  C   UNL     1      -0.402   2.482   3.012  1.00  0.00     0.001 A 
ATOM     25  C   UNL     1      -0.623   3.700   2.412  1.00  0.00     0.091 A 
ATOM     26  C   UNL     1       0.132   2.726   4.302  1.00  0.00     0.007 A 
ATOM     27  N   UNL     1      -0.393   4.671   3.346  1.00  0.00    -0.361 N 
ATOM     28  C   UNL     1       0.031   4.101   4.523  1.00  0.00     0.046 A 
ATOM     29  C   UNL     1       0.711   1.926   5.304  1.00  0.00     0.011 A 
ATOM     30  H   UNL     1      -0.513   5.637   3.198  1.00  0.00     0.166 HD
ATOM     31  C   UNL     1       0.360   4.694   5.744  1.00  0.00     0.027 A 
ATOM     32  C   UNL     1       1.084   2.506   6.516  1.00  0.00     0.001 A 
ATOM     33  C   UNL     1       0.883   3.865   6.740  1.00  0.00     0.002 A 
ENDBRANCH  23  24
ENDBRANCH  15  16
ENDBRANCH  12  15
ENDBRANCH   9  11
ENDBRANCH   7   9
ENDBRANCH   6   7
ENDBRANCH   5   6
ENDBRANCH   4   5
ENDBRANCH   3   4
ENDBRANCH   2   3
ENDBRANCH   1   2
BRANCH   1  34
ATOM     34  O   UNL     1      -2.018   1.868  -0.984  1.00  0.00    -0.377 OA
BRANCH  34  35
ATOM     35  C   UNL     1      -3.256   1.695  -0.313  1.00  0.00     0.188 C 
BRANCH  35  36
ATOM     36  C   UNL     1      -4.470   2.368  -0.991  1.00  0.00     0.188 C 
BRANCH  36  37
ATOM     37  O   UNL     1      -4.310   3.374  -1.986  1.00  0.00    -0.376 OA
BRANCH  37  38
ATOM     38  C   UNL     1      -3.142   4.172  -2.019  1.00  0.00     0.202 C 
BRANCH  38  39
ATOM     39  C   UNL     1      -2.826   5.073  -0.819  1.00  0.00     0.261 C 
BRANCH  39  40
ATOM     40  O   UNL     1      -3.161   4.548   0.472  1.00  0.00    -0.460 OA
BRANCH  40  41
ATOM     41  C   UNL     1      -4.330   4.969   1.006  1.00  0.00     0.338 C 
ATOM     42  O   UNL     1      -5.156   5.710   0.506  1.00  0.00    -0.246 OA
BRANCH  41  43
ATOM     43  C   UNL     1      -4.473   4.377   2.351  1.00  0.00     0.060 A 
ATOM     44  C   UNL     1      -5.451   3.412   2.604  1.00  0.00     0.016 A 
ATOM     45  C   UNL     1      -3.688   4.869   3.392  1.00  0.00     0.016 A 
ATOM     46  C   UNL     1      -5.678   2.981   3.917  1.00  0.00     0.010 A 
ATOM     47  C   UNL     1      -3.875   4.394   4.692  1.00  0.00     0.010 A 
ATOM     48  C   UNL     1      -4.922   3.502   4.979  1.00  0.00    -0.014 A 
BRANCH  48  49
ATOM     49  C   UNL     1      -5.350   3.294   6.393  1.00  0.00     0.031 A 
ATOM     50  C   UNL     1      -5.867   4.478   7.180  1.00  0.00     0.074 A 
ATOM     51  C   UNL     1      -5.298   2.084   6.981  1.00  0.00     0.049 A 
ATOM     52  N   UNL     1      -6.247   4.548   8.432  1.00  0.00    -0.248 NA
ATOM     53  C   UNL     1      -5.939   5.764   6.466  1.00  0.00     0.031 C 
ATOM     54  C   UNL     1      -4.812   0.858   6.353  1.00  0.00     0.029 A 
ATOM     55  N   UNL     1      -5.655   1.693   8.249  1.00  0.00    -0.354 N 
ATOM     56  C   UNL     1      -6.567   5.883   8.657  1.00  0.00     0.074 A 
ATOM     57  C   UNL     1      -6.282   6.598   7.434  1.00  0.00     0.031 C 
ATOM     58  C   UNL     1      -4.905  -0.152   7.236  1.00  0.00     0.029 A 
ATOM     59  C   UNL     1      -5.434   0.359   8.499  1.00  0.00     0.049 A 
ATOM     60  H   UNL     1      -6.033   2.310   8.916  1.00  0.00     0.167 HD
ATOM     61  C   UNL     1      -7.082   6.463   9.767  1.00  0.00     0.037 A 
ATOM     62  C   UNL     1      -5.631  -0.364   9.620  1.00  0.00     0.037 A 
ATOM     63  C   UNL     1      -7.419   5.750  10.970  1.00  0.00     0.049 A 
ATOM     64  C   UNL     1      -6.209   0.299  10.845  1.00  0.00     0.074 A 
ATOM     65  C   UNL     1      -8.010   6.237  12.123  1.00  0.00     0.029 A 
ATOM     66  N   UNL     1      -7.199   4.396  11.172  1.00  0.00    -0.354 N 
ATOM     67  N   UNL     1      -6.560   1.550  11.023  1.00  0.00    -0.248 NA
ATOM     68  C   UNL     1      -6.429  -0.555  12.022  1.00  0.00     0.031 C 
ATOM     69  C   UNL     1      -8.101   5.188  13.043  1.00  0.00     0.029 A 
ATOM     70  C   UNL     1      -7.623   4.035  12.440  1.00  0.00     0.049 A 
ATOM     71  H   UNL     1      -6.801   3.783  10.512  1.00  0.00     0.167 HD
ATOM     72  C   UNL     1      -7.069   1.625  12.315  1.00  0.00     0.074 A 
ATOM     73  C   UNL     1      -6.996   0.291  12.871  1.00  0.00     0.031 C 
ATOM     74  C   UNL     1      -7.556   2.702  12.980  1.00  0.00     0.037 A 
BRANCH  61  75
ATOM     75  C   UNL     1      -7.315   7.948   9.733  1.00  0.00     0.057 A 
ATOM     76  C   UNL     1      -8.306   8.528   8.928  1.00  0.00     0.134 A 
ATOM     77  C   UNL     1      -6.559   8.807  10.541  1.00  0.00     0.134 A 
ATOM     78  F   UNL     1      -9.059   7.766   8.120  1.00  0.00    -0.206 F 
ATOM     79  C   UNL     1      -8.512   9.909   8.902  1.00  0.00     0.040 A 
ATOM     80  C   UNL     1      -6.779  10.186  10.549  1.00  0.00     0.040 A 
ATOM     81  F   UNL     1      -5.600   8.321  11.343  1.00  0.00    -0.206 F 
ATOM     82  C   UNL     1      -7.752  10.741   9.721  1.00  0.00     0.006 A 
ENDBRANCH  61  75
BRANCH  62  83
ATOM     83  C   UNL     1      -5.297  -1.813   9.637  1.00  0.00     0.057 A 
ATOM     84  C   UNL     1      -6.299  -2.788   9.715  1.00  0.00     0.134 A 
ATOM     85  C   UNL     1      -3.970  -2.257   9.595  1.00  0.00     0.134 A 
ATOM     86  F   UNL     1      -7.589  -2.426   9.784  1.00  0.00    -0.206 F 
ATOM     87  C   UNL     1      -5.995  -4.150   9.768  1.00  0.00     0.040 A 
ATOM     88  C   UNL     1      -3.652  -3.616   9.618  1.00  0.00     0.040 A 
ATOM     89  F   UNL     1      -2.962  -1.375   9.524  1.00  0.00    -0.206 F 
ATOM     90  C   UNL     1      -4.666  -4.567   9.713  1.00  0.00     0.006 A 
ENDBRANCH  62  83
BRANCH  74  91
ATOM     91  C   UNL     1      -8.087   2.482  14.368  1.00  0.00     0.057 A 
ATOM     92  C   UNL     1      -7.244   2.211  15.453  1.00  0.00     0.134 A 
ATOM     93  C   UNL     1      -9.459   2.597  14.630  1.00  0.00     0.134 A 
ATOM     94  F   UNL     1      -5.921   2.081  15.270  1.00  0.00    -0.206 F 
ATOM     95  C   UNL     1      -7.748   2.037  16.743  1.00  0.00     0.040 A 
ATOM     96  C   UNL     1      -9.972   2.455  15.921  1.00  0.00     0.040 A 
ATOM     97  F   UNL     1     -10.322   2.870  13.640  1.00  0.00    -0.206 F 
ATOM     98  C   UNL     1      -9.116   2.166  16.981  1.00  0.00     0.006 A 
ENDBRANCH  74  91
ENDBRANCH  48  49
ENDBRANCH  41  43
ENDBRANCH  40  41
ENDBRANCH  39  40
ENDBRANCH  38  39
ENDBRANCH  37  38
ENDBRANCH  36  37
ENDBRANCH  35  36
ENDBRANCH  34  35
ENDBRANCH   1  34
TORSDOF 24
