REMARK SMILES O=C(/C=C/c1ccc(O)c(O)c1)OCCOCCOCCOCCOC(=O)c1ccc(-c2c3nc(c(-c4c(F)cccc4F)c4ccc([nH]4)c(-c4c(F)cccc4F)c4nc(c(-c5c(F)cccc5F)c5ccc2[nH]5)C=C4)C=C3)cc1
REMARK SMILES IDX 19 1 18 2 17 3 16 4 15 5 14 6 13 7 2 8 1 9 3 10 4 11 5 12
REMARK SMILES IDX 6 13 12 14 7 15 10 16 8 17 11 18 9 20 20 22 21 23 22 24
REMARK SMILES IDX 23 25 24 26 25 27 26 28 27 29 28 30 29 31 81 32 30 33 80 34
REMARK SMILES IDX 31 35 32 36 33 37 74 38 34 39 79 40 73 41 75 42 35 43 78 44
REMARK SMILES IDX 72 45 71 46 36 48 62 49 45 50 61 51 46 52 49 53 60 54 76 55
REMARK SMILES IDX 47 56 48 57 59 59 77 60 50 61 37 62 38 63 43 64 39 65 40 66
REMARK SMILES IDX 42 67 44 68 41 69 63 70 64 71 69 72 65 73 66 74 68 75 70 76
REMARK SMILES IDX 67 77 51 78 52 79 57 80 53 81 54 82 56 83 58 84 55 85
REMARK H PARENT 11 19 9 21 75 47 49 58
REMARK Flexibility Score: inf
ROOT
ATOM      1  O   UNL     1       2.468  -3.259   0.987  1.00  0.00    -0.377 OA
ENDROOT
BRANCH   1   2
ATOM      2  C   UNL     1       1.979  -1.989   0.588  1.00  0.00     0.188 C 
BRANCH   2   3
ATOM      3  C   UNL     1       2.707  -1.331  -0.581  1.00  0.00     0.188 C 
BRANCH   3   4
ATOM      4  O   UNL     1       4.093  -1.037  -0.509  1.00  0.00    -0.376 OA
BRANCH   4   5
ATOM      5  C   UNL     1       4.742  -0.246   0.463  1.00  0.00     0.202 C 
BRANCH   5   6
ATOM      6  C   UNL     1       4.119   0.994   1.090  1.00  0.00     0.261 C 
BRANCH   6   7
ATOM      7  O   UNL     1       2.821   1.399   0.653  1.00  0.00    -0.460 OA
BRANCH   7   8
ATOM      8  C   UNL     1       2.532   2.054  -0.495  1.00  0.00     0.330 C 
ATOM      9  O   UNL     1       1.511   2.728  -0.583  1.00  0.00    -0.247 OA
BRANCH   8  10
ATOM     10  C   UNL     1       3.249   1.682  -1.727  1.00  0.00     0.094 C 
ATOM     11  C   UNL     1       4.569   1.708  -1.944  1.00  0.00     0.016 C 
BRANCH  11  12
ATOM     12  C   UNL     1       5.162   1.144  -3.163  1.00  0.00    -0.021 A 
ATOM     13  C   UNL     1       4.834   1.649  -4.428  1.00  0.00     0.012 A 
ATOM     14  C   UNL     1       6.107   0.112  -3.061  1.00  0.00     0.058 A 
ATOM     15  C   UNL     1       5.482   1.173  -5.574  1.00  0.00     0.051 A 
ATOM     16  C   UNL     1       6.747  -0.352  -4.201  1.00  0.00     0.157 A 
ATOM     17  C   UNL     1       6.454   0.189  -5.447  1.00  0.00     0.157 A 
BRANCH  16  18
ATOM     18  O   UNL     1       7.693  -1.330  -4.082  1.00  0.00    -0.504 OA
ATOM     19  H   UNL     1       8.133  -1.652  -4.844  1.00  0.00     0.293 HD
ENDBRANCH  16  18
BRANCH  17  20
ATOM     20  O   UNL     1       7.166  -0.267  -6.521  1.00  0.00    -0.504 OA
ATOM     21  H   UNL     1       6.995   0.075  -7.376  1.00  0.00     0.293 HD
ENDBRANCH  17  20
ENDBRANCH  11  12
ENDBRANCH   8  10
ENDBRANCH   7   8
ENDBRANCH   6   7
ENDBRANCH   5   6
ENDBRANCH   4   5
ENDBRANCH   3   4
ENDBRANCH   2   3
ENDBRANCH   1   2
BRANCH   1  22
ATOM     22  C   UNL     1       3.802  -3.240   1.451  1.00  0.00     0.188 C 
BRANCH  22  23
ATOM     23  C   UNL     1       4.856  -3.706   0.423  1.00  0.00     0.188 C 
BRANCH  23  24
ATOM     24  O   UNL     1       4.484  -4.184  -0.858  1.00  0.00    -0.376 OA
BRANCH  24  25
ATOM     25  C   UNL     1       3.325  -4.978  -1.034  1.00  0.00     0.202 C 
BRANCH  25  26
ATOM     26  C   UNL     1       2.990  -6.164  -0.108  1.00  0.00     0.261 C 
BRANCH  26  27
ATOM     27  O   UNL     1       3.373  -6.053   1.268  1.00  0.00    -0.460 OA
BRANCH  27  28
ATOM     28  C   UNL     1       4.539  -6.644   1.616  1.00  0.00     0.338 C 
ATOM     29  O   UNL     1       5.279  -7.303   0.904  1.00  0.00    -0.246 OA
BRANCH  28  30
ATOM     30  C   UNL     1       4.905  -6.189   2.978  1.00  0.00     0.060 A 
ATOM     31  C   UNL     1       6.138  -5.542   3.157  1.00  0.00     0.016 A 
ATOM     32  C   UNL     1       4.032  -6.353   4.056  1.00  0.00     0.016 A 
ATOM     33  C   UNL     1       6.512  -5.077   4.416  1.00  0.00     0.010 A 
ATOM     34  C   UNL     1       4.426  -5.923   5.327  1.00  0.00     0.010 A 
ATOM     35  C   UNL     1       5.682  -5.316   5.516  1.00  0.00    -0.014 A 
BRANCH  35  36
ATOM     36  C   UNL     1       6.236  -5.172   6.882  1.00  0.00     0.031 A 
ATOM     37  C   UNL     1       6.798  -6.403   7.539  1.00  0.00     0.074 A 
ATOM     38  C   UNL     1       6.273  -3.988   7.516  1.00  0.00     0.049 A 
ATOM     39  N   UNL     1       7.282  -6.559   8.743  1.00  0.00    -0.248 NA
ATOM     40  C   UNL     1       6.810  -7.628   6.721  1.00  0.00     0.031 C 
ATOM     41  C   UNL     1       5.812  -2.716   6.965  1.00  0.00     0.029 A 
ATOM     42  N   UNL     1       6.714  -3.672   8.777  1.00  0.00    -0.354 N 
ATOM     43  C   UNL     1       7.642  -7.898   8.831  1.00  0.00     0.074 A 
ATOM     44  C   UNL     1       7.296  -8.518   7.572  1.00  0.00     0.031 C 
ATOM     45  C   UNL     1       5.977  -1.756   7.894  1.00  0.00     0.029 A 
ATOM     46  C   UNL     1       6.522  -2.354   9.113  1.00  0.00     0.049 A 
ATOM     47  H   UNL     1       7.129  -4.327   9.383  1.00  0.00     0.167 HD
ATOM     48  C   UNL     1       8.214  -8.552   9.868  1.00  0.00     0.037 A 
ATOM     49  C   UNL     1       6.735  -1.717  10.281  1.00  0.00     0.037 A 
ATOM     50  C   UNL     1       8.553  -7.933  11.121  1.00  0.00     0.049 A 
ATOM     51  C   UNL     1       7.298  -2.485  11.451  1.00  0.00     0.074 A 
ATOM     52  C   UNL     1       9.151  -8.505  12.229  1.00  0.00     0.029 A 
ATOM     53  N   UNL     1       8.313  -6.604  11.434  1.00  0.00    -0.354 N 
ATOM     54  N   UNL     1       7.655  -3.745  11.521  1.00  0.00    -0.248 NA
ATOM     55  C   UNL     1       7.490  -1.740  12.704  1.00  0.00     0.031 C 
ATOM     56  C   UNL     1       9.217  -7.537  13.236  1.00  0.00     0.029 A 
ATOM     57  C   UNL     1       8.723  -6.344  12.731  1.00  0.00     0.049 A 
ATOM     58  H   UNL     1       7.910  -5.943  10.825  1.00  0.00     0.167 HD
ATOM     59  C   UNL     1       8.142  -3.935  12.810  1.00  0.00     0.074 A 
ATOM     60  C   UNL     1       8.046  -2.656  13.483  1.00  0.00     0.031 C 
ATOM     61  C   UNL     1       8.628  -5.063  13.385  1.00  0.00     0.037 A 
BRANCH  48  62
ATOM     62  C   UNL     1       8.469 -10.021   9.701  1.00  0.00     0.057 A 
ATOM     63  C   UNL     1       9.454 -10.513   8.835  1.00  0.00     0.134 A 
ATOM     64  C   UNL     1       7.731 -10.957  10.437  1.00  0.00     0.134 A 
ATOM     65  F   UNL     1      10.184  -9.672   8.086  1.00  0.00    -0.206 F 
ATOM     66  C   UNL     1       9.679 -11.883   8.688  1.00  0.00     0.040 A 
ATOM     67  C   UNL     1       7.967 -12.327  10.322  1.00  0.00     0.040 A 
ATOM     68  F   UNL     1       6.772 -10.554  11.284  1.00  0.00    -0.206 F 
ATOM     69  C   UNL     1       8.939 -12.794   9.440  1.00  0.00     0.006 A 
ENDBRANCH  48  62
BRANCH  49  70
ATOM     70  C   UNL     1       6.395  -0.277  10.419  1.00  0.00     0.057 A 
ATOM     71  C   UNL     1       7.388   0.692  10.604  1.00  0.00     0.134 A 
ATOM     72  C   UNL     1       5.065   0.163  10.398  1.00  0.00     0.134 A 
ATOM     73  F   UNL     1       8.679   0.333  10.660  1.00  0.00    -0.206 F 
ATOM     74  C   UNL     1       7.072   2.041  10.781  1.00  0.00     0.040 A 
ATOM     75  C   UNL     1       4.736   1.511  10.545  1.00  0.00     0.040 A 
ATOM     76  F   UNL     1       4.064  -0.714  10.226  1.00  0.00    -0.206 F 
ATOM     77  C   UNL     1       5.742   2.454  10.746  1.00  0.00     0.006 A 
ENDBRANCH  49  70
BRANCH  61  78
ATOM     78  C   UNL     1       9.137  -4.962  14.795  1.00  0.00     0.057 A 
ATOM     79  C   UNL     1       8.278  -4.785  15.887  1.00  0.00     0.134 A 
ATOM     80  C   UNL     1      10.506  -5.095  15.066  1.00  0.00     0.134 A 
ATOM     81  F   UNL     1       6.958  -4.641  15.697  1.00  0.00    -0.206 F 
ATOM     82  C   UNL     1       8.764  -4.718  17.194  1.00  0.00     0.040 A 
ATOM     83  C   UNL     1      11.000  -5.061  16.371  1.00  0.00     0.040 A 
ATOM     84  F   UNL     1      11.384  -5.280  14.069  1.00  0.00    -0.206 F 
ATOM     85  C   UNL     1      10.128  -4.864  17.439  1.00  0.00     0.006 A 
ENDBRANCH  61  78
ENDBRANCH  35  36
ENDBRANCH  28  30
ENDBRANCH  27  28
ENDBRANCH  26  27
ENDBRANCH  25  26
ENDBRANCH  24  25
ENDBRANCH  23  24
ENDBRANCH  22  23
ENDBRANCH   1  22
TORSDOF 23
