REMARK SMILES COc1ccccc1[C@@H]1C[N@@H+](Cc2cn3cc(C)ccc3n2)C[C@H]1C(=O)OCCOCCOCCOCCOC(=O)c1ccc(-c2c3nc(c(-c4c(F)cccc4F)c4ccc([nH]4)c(-c4c(F)cccc4F)c4nc(c(-c5c(F)cccc5F)c5ccc2[nH]5)C=C4)C=C3)cc1
REMARK SMILES IDX 33 1 32 2 31 3 30 4 29 5 28 6 27 7 25 8 26 9 24 10 9 11
REMARK SMILES IDX 10 12 11 13 23 14 8 16 3 17 4 18 5 19 7 20 6 21 2 22 1 23
REMARK SMILES IDX 12 24 13 25 14 26 22 27 15 28 21 29 16 30 20 31 17 32 19 33
REMARK SMILES IDX 18 34 34 35 35 36 36 37 37 38 38 39 39 40 40 41 41 42 42 43
REMARK SMILES IDX 43 44 95 45 44 46 94 47 45 48 46 49 47 50 88 51 48 52 93 53
REMARK SMILES IDX 87 54 89 55 49 56 92 57 86 58 85 59 50 61 76 62 59 63 75 64
REMARK SMILES IDX 60 65 63 66 74 67 90 68 61 69 62 70 73 72 91 73 64 74 51 75
REMARK SMILES IDX 52 76 57 77 53 78 54 79 56 80 58 81 55 82 77 83 78 84 83 85
REMARK SMILES IDX 79 86 80 87 82 88 84 89 81 90 65 91 66 92 71 93 67 94 68 95
REMARK SMILES IDX 70 96 72 97 69 98
REMARK H PARENT 11 15 89 60 63 71
REMARK Flexibility Score: inf
ROOT
ATOM      1  O   UNL     1       3.749  -4.707   2.668  1.00  0.00    -0.377 OA
ENDROOT
BRANCH   1   2
ATOM      2  C   UNL     1       2.564  -4.153   2.129  1.00  0.00     0.188 C 
BRANCH   2   3
ATOM      3  C   UNL     1       1.684  -4.898   1.114  1.00  0.00     0.188 C 
BRANCH   3   4
ATOM      4  O   UNL     1       2.263  -5.969   0.385  1.00  0.00    -0.376 OA
BRANCH   4   5
ATOM      5  C   UNL     1       3.501  -5.723  -0.266  1.00  0.00     0.202 C 
BRANCH   5   6
ATOM      6  C   UNL     1       3.518  -4.590  -1.284  1.00  0.00     0.261 C 
BRANCH   6   7
ATOM      7  O   UNL     1       3.466  -3.293  -0.647  1.00  0.00    -0.463 OA
BRANCH   7   8
ATOM      8  C   UNL     1       2.484  -2.469  -1.074  1.00  0.00     0.315 C 
ATOM      9  O   UNL     1       1.659  -2.776  -1.933  1.00  0.00    -0.252 OA
BRANCH   8  10
ATOM     10  C   UNL     1       2.512  -1.067  -0.512  1.00  0.00     0.167 C 
ATOM     11  C   UNL     1       2.859  -0.707   0.933  1.00  0.00     0.098 C 
ATOM     12  C   UNL     1       3.482   0.698   0.791  1.00  0.00     0.272 C 
ATOM     13  N   UNL     1       4.153   0.729  -0.507  1.00  0.00    -0.329 N 
ATOM     14  C   UNL     1       3.469  -0.241  -1.372  1.00  0.00     0.278 C 
ATOM     15  H   UNL     1       4.074   1.669  -0.896  1.00  0.00     0.348 HD
BRANCH  11  16
ATOM     16  C   UNL     1       1.850  -0.669   2.084  1.00  0.00     0.004 A 
ATOM     17  C   UNL     1       0.457  -0.479   2.047  1.00  0.00     0.122 A 
ATOM     18  C   UNL     1      -0.285  -0.510   3.249  1.00  0.00     0.047 A 
ATOM     19  C   UNL     1       0.323  -0.702   4.491  1.00  0.00     0.004 A 
ATOM     20  C   UNL     1       2.440  -0.832   3.372  1.00  0.00     0.008 A 
ATOM     21  C   UNL     1       1.696  -0.855   4.553  1.00  0.00     0.001 A 
BRANCH  17  22
ATOM     22  O   UNL     1      -0.337  -0.465   0.934  1.00  0.00    -0.496 OA
ATOM     23  C   UNL     1      -0.206   0.616   0.016  1.00  0.00     0.278 C 
ENDBRANCH  17  22
ENDBRANCH  11  16
BRANCH  13  24
ATOM     24  C   UNL     1       5.615   0.548  -0.458  1.00  0.00     0.321 C 
BRANCH  24  25
ATOM     25  C   UNL     1       6.079  -0.620   0.360  1.00  0.00     0.114 A 
ATOM     26  C   UNL     1       6.475  -0.629   1.685  1.00  0.00     0.122 A 
ATOM     27  N   UNL     1       6.149  -1.894  -0.166  1.00  0.00    -0.228 NA
ATOM     28  N   UNL     1       6.735  -1.938   1.992  1.00  0.00    -0.306 N 
ATOM     29  C   UNL     1       6.543  -2.668   0.827  1.00  0.00     0.137 A 
ATOM     30  C   UNL     1       7.120  -2.499   3.206  1.00  0.00     0.096 A 
ATOM     31  C   UNL     1       6.780  -4.068   0.903  1.00  0.00     0.048 A 
ATOM     32  C   UNL     1       7.345  -3.825   3.284  1.00  0.00    -0.034 A 
ATOM     33  C   UNL     1       7.163  -4.623   2.071  1.00  0.00     0.009 A 
ATOM     34  C   UNL     1       7.744  -4.516   4.549  1.00  0.00     0.046 C 
ENDBRANCH  24  25
ENDBRANCH  13  24
ENDBRANCH   8  10
ENDBRANCH   7   8
ENDBRANCH   6   7
ENDBRANCH   5   6
ENDBRANCH   4   5
ENDBRANCH   3   4
ENDBRANCH   2   3
ENDBRANCH   1   2
BRANCH   1  35
ATOM     35  C   UNL     1       3.813  -6.050   3.106  1.00  0.00     0.188 C 
BRANCH  35  36
ATOM     36  C   UNL     1       2.555  -6.798   3.567  1.00  0.00     0.188 C 
BRANCH  36  37
ATOM     37  O   UNL     1       1.381  -6.012   3.683  1.00  0.00    -0.376 OA
BRANCH  37  38
ATOM     38  C   UNL     1       0.980  -5.592   4.973  1.00  0.00     0.202 C 
BRANCH  38  39
ATOM     39  C   UNL     1       1.865  -4.547   5.627  1.00  0.00     0.261 C 
BRANCH  39  40
ATOM     40  O   UNL     1       3.243  -4.877   5.680  1.00  0.00    -0.460 OA
BRANCH  40  41
ATOM     41  C   UNL     1       3.578  -5.838   6.559  1.00  0.00     0.338 C 
ATOM     42  O   UNL     1       2.937  -6.806   6.906  1.00  0.00    -0.246 OA
BRANCH  41  43
ATOM     43  C   UNL     1       4.810  -5.380   7.197  1.00  0.00     0.060 A 
ATOM     44  C   UNL     1       5.689  -6.320   7.731  1.00  0.00     0.016 A 
ATOM     45  C   UNL     1       4.939  -4.002   7.438  1.00  0.00     0.016 A 
ATOM     46  C   UNL     1       6.650  -5.873   8.614  1.00  0.00     0.010 A 
ATOM     47  C   UNL     1       5.887  -3.562   8.320  1.00  0.00     0.010 A 
ATOM     48  C   UNL     1       6.686  -4.511   8.947  1.00  0.00    -0.014 A 
BRANCH  48  49
ATOM     49  C   UNL     1       7.636  -4.064   9.941  1.00  0.00     0.031 A 
ATOM     50  C   UNL     1       9.030  -4.063   9.452  1.00  0.00     0.074 A 
ATOM     51  C   UNL     1       7.232  -3.565  11.125  1.00  0.00     0.049 A 
ATOM     52  N   UNL     1      10.007  -4.791   9.871  1.00  0.00    -0.248 NA
ATOM     53  C   UNL     1       9.345  -3.270   8.251  1.00  0.00     0.031 C 
ATOM     54  C   UNL     1       5.855  -3.240  11.520  1.00  0.00     0.029 A 
ATOM     55  N   UNL     1       7.967  -3.127  12.185  1.00  0.00    -0.354 N 
ATOM     56  C   UNL     1      11.122  -4.360   9.157  1.00  0.00     0.074 A 
ATOM     57  C   UNL     1      10.626  -3.587   8.053  1.00  0.00     0.031 C 
ATOM     58  C   UNL     1       5.880  -2.453  12.617  1.00  0.00     0.029 A 
ATOM     59  C   UNL     1       7.252  -2.342  13.081  1.00  0.00     0.049 A 
ATOM     60  H   UNL     1       8.919  -3.347  12.306  1.00  0.00     0.167 HD
ATOM     61  C   UNL     1      12.350  -4.405   9.739  1.00  0.00     0.037 A 
ATOM     62  C   UNL     1       7.761  -1.611  14.101  1.00  0.00     0.037 A 
ATOM     63  C   UNL     1      12.332  -5.286  10.881  1.00  0.00     0.049 A 
ATOM     64  C   UNL     1       9.101  -2.152  14.421  1.00  0.00     0.074 A 
ATOM     65  C   UNL     1      12.249  -6.643  11.100  1.00  0.00     0.029 A 
ATOM     66  N   UNL     1      12.008  -4.661  12.056  1.00  0.00    -0.354 N 
ATOM     67  N   UNL     1       9.302  -3.327  14.947  1.00  0.00    -0.248 NA
ATOM     68  C   UNL     1      10.284  -1.519  13.845  1.00  0.00     0.031 C 
ATOM     69  C   UNL     1      11.682  -6.800  12.400  1.00  0.00     0.029 A 
ATOM     70  C   UNL     1      11.470  -5.538  12.955  1.00  0.00     0.049 A 
ATOM     71  H   UNL     1      12.145  -3.702  12.230  1.00  0.00     0.167 HD
ATOM     72  C   UNL     1      10.486  -3.758  14.380  1.00  0.00     0.074 A 
ATOM     73  C   UNL     1      11.131  -2.551  13.883  1.00  0.00     0.031 C 
ATOM     74  C   UNL     1      10.667  -5.074  14.066  1.00  0.00     0.037 A 
BRANCH  61  75
ATOM     75  C   UNL     1      13.374  -3.285   9.650  1.00  0.00     0.057 A 
ATOM     76  C   UNL     1      14.599  -3.447  10.328  1.00  0.00     0.134 A 
ATOM     77  C   UNL     1      13.096  -1.964   9.242  1.00  0.00     0.134 A 
ATOM     78  F   UNL     1      14.987  -4.653  10.771  1.00  0.00    -0.206 F 
ATOM     79  C   UNL     1      15.426  -2.367  10.661  1.00  0.00     0.040 A 
ATOM     80  C   UNL     1      13.938  -0.885   9.531  1.00  0.00     0.040 A 
ATOM     81  F   UNL     1      11.958  -1.616   8.633  1.00  0.00    -0.206 F 
ATOM     82  C   UNL     1      15.089  -1.078  10.274  1.00  0.00     0.006 A 
ENDBRANCH  61  75
BRANCH  62  83
ATOM     83  C   UNL     1       7.273  -0.334  14.665  1.00  0.00     0.057 A 
ATOM     84  C   UNL     1       7.722   0.122  15.913  1.00  0.00     0.134 A 
ATOM     85  C   UNL     1       6.579   0.602  13.878  1.00  0.00     0.134 A 
ATOM     86  F   UNL     1       8.419  -0.687  16.723  1.00  0.00    -0.206 F 
ATOM     87  C   UNL     1       7.530   1.443  16.336  1.00  0.00     0.040 A 
ATOM     88  C   UNL     1       6.372   1.921  14.293  1.00  0.00     0.040 A 
ATOM     89  F   UNL     1       6.160   0.294  12.643  1.00  0.00    -0.206 F 
ATOM     90  C   UNL     1       6.865   2.352  15.518  1.00  0.00     0.006 A 
ENDBRANCH  62  83
BRANCH  74  91
ATOM     91  C   UNL     1       9.852  -6.079  14.823  1.00  0.00     0.057 A 
ATOM     92  C   UNL     1       8.455  -6.179  14.777  1.00  0.00     0.134 A 
ATOM     93  C   UNL     1      10.533  -7.029  15.594  1.00  0.00     0.134 A 
ATOM     94  F   UNL     1       7.724  -5.372  13.997  1.00  0.00    -0.206 F 
ATOM     95  C   UNL     1       7.767  -7.147  15.515  1.00  0.00     0.040 A 
ATOM     96  C   UNL     1       9.861  -8.025  16.302  1.00  0.00     0.040 A 
ATOM     97  F   UNL     1      11.875  -7.021  15.649  1.00  0.00    -0.206 F 
ATOM     98  C   UNL     1       8.470  -8.076  16.277  1.00  0.00     0.006 A 
ENDBRANCH  74  91
ENDBRANCH  48  49
ENDBRANCH  41  43
ENDBRANCH  40  41
ENDBRANCH  39  40
ENDBRANCH  38  39
ENDBRANCH  37  38
ENDBRANCH  36  37
ENDBRANCH  35  36
ENDBRANCH   1  35
TORSDOF 24
