REMARK SMILES O=C(OCCOCCOCCOCCOC(=O)[C@H]1Cc2[nH]cnc2CN1C(=O)N1CCC[C@H](O)C1)c1ccc(-c2c3nc(c(-c4c(F)cccc4F)c4ccc([nH]4)c(-c4c(F)cccc4F)c4nc(c(-c5c(F)cccc5F)c5ccc2[nH]5)C=C4)C=C3)cc1
REMARK SMILES IDX 10 1 9 2 8 3 7 4 6 5 5 6 4 7 3 8 2 9 1 10 36 11 37 12 89 13
REMARK SMILES IDX 38 14 88 15 39 16 40 17 41 18 82 19 42 20 87 21 81 22 83 23
REMARK SMILES IDX 43 24 86 25 80 26 79 27 44 29 70 30 53 31 69 32 54 33 57 34
REMARK SMILES IDX 68 35 84 36 55 37 56 38 67 40 85 41 58 42 45 43 46 44 51 45
REMARK SMILES IDX 47 46 48 47 50 48 52 49 49 50 71 51 72 52 77 53 73 54 74 55
REMARK SMILES IDX 76 56 78 57 75 58 59 59 60 60 65 61 61 62 62 63 64 64 66 65
REMARK SMILES IDX 63 66 11 67 12 68 13 69 14 70 15 71 16 72 17 73 18 74 19 75
REMARK SMILES IDX 26 76 20 77 25 78 21 79 24 80 22 81 23 83 27 84 28 85 29 86
REMARK SMILES IDX 30 87 35 88 31 89 33 90 32 91 34 92
REMARK H PARENT 83 28 57 39 21 82 34 93
REMARK Flexibility Score: inf
ROOT
ATOM      1  C   UNL     1       4.878   2.562   0.273  1.00  0.00     0.188 C 
ENDROOT
BRANCH   1   2
ATOM      2  O   UNL     1       3.596   2.596   0.856  1.00  0.00    -0.377 OA
BRANCH   2   3
ATOM      3  C   UNL     1       2.844   1.395   0.782  1.00  0.00     0.188 C 
BRANCH   3   4
ATOM      4  C   UNL     1       3.446   0.045   1.229  1.00  0.00     0.188 C 
BRANCH   4   5
ATOM      5  O   UNL     1       4.511  -0.704   0.657  1.00  0.00    -0.376 OA
BRANCH   5   6
ATOM      6  C   UNL     1       5.319  -0.441  -0.466  1.00  0.00     0.202 C 
BRANCH   6   7
ATOM      7  C   UNL     1       4.711  -0.230  -1.865  1.00  0.00     0.261 C 
BRANCH   7   8
ATOM      8  O   UNL     1       3.366   0.243  -1.928  1.00  0.00    -0.460 OA
BRANCH   8   9
ATOM      9  C   UNL     1       2.220  -0.457  -1.783  1.00  0.00     0.338 C 
ATOM     10  O   UNL     1       1.152   0.077  -2.075  1.00  0.00    -0.246 OA
BRANCH   9  11
ATOM     11  C   UNL     1       2.172  -1.801  -1.165  1.00  0.00     0.060 A 
ATOM     12  C   UNL     1       3.226  -2.713  -1.173  1.00  0.00     0.016 A 
ATOM     13  C   UNL     1       0.942  -2.168  -0.581  1.00  0.00     0.016 A 
ATOM     14  C   UNL     1       3.034  -3.997  -0.742  1.00  0.00     0.010 A 
ATOM     15  C   UNL     1       0.733  -3.465  -0.154  1.00  0.00     0.010 A 
ATOM     16  C   UNL     1       1.762  -4.376  -0.339  1.00  0.00    -0.014 A 
BRANCH  16  17
ATOM     17  C   UNL     1       1.565  -5.802  -0.272  1.00  0.00     0.031 A 
ATOM     18  C   UNL     1       2.381  -6.473   0.764  1.00  0.00     0.074 A 
ATOM     19  C   UNL     1       0.810  -6.385  -1.220  1.00  0.00     0.049 A 
ATOM     20  N   UNL     1       3.359  -7.300   0.587  1.00  0.00    -0.248 NA
ATOM     21  C   UNL     1       2.225  -6.010   2.150  1.00  0.00     0.031 C 
ATOM     22  C   UNL     1      -0.102  -5.749  -2.179  1.00  0.00     0.029 A 
ATOM     23  N   UNL     1       0.644  -7.708  -1.472  1.00  0.00    -0.354 N 
ATOM     24  C   UNL     1       3.802  -7.632   1.864  1.00  0.00     0.074 A 
ATOM     25  C   UNL     1       3.194  -6.689   2.764  1.00  0.00     0.031 C 
ATOM     26  C   UNL     1      -0.910  -6.687  -2.715  1.00  0.00     0.029 A 
ATOM     27  C   UNL     1      -0.471  -7.988  -2.253  1.00  0.00     0.049 A 
ATOM     28  H   UNL     1       1.254  -8.402  -1.133  1.00  0.00     0.167 HD
ATOM     29  C   UNL     1       4.407  -8.828   2.095  1.00  0.00     0.037 A 
ATOM     30  C   UNL     1      -1.038  -9.212  -2.366  1.00  0.00     0.037 A 
ATOM     31  C   UNL     1       5.029  -9.328   0.893  1.00  0.00     0.049 A 
ATOM     32  C   UNL     1       0.004 -10.208  -1.991  1.00  0.00     0.074 A 
ATOM     33  C   UNL     1       6.041  -8.877   0.067  1.00  0.00     0.029 A 
ATOM     34  N   UNL     1       4.365 -10.292   0.174  1.00  0.00    -0.354 N 
ATOM     35  N   UNL     1       1.075 -10.426  -2.707  1.00  0.00    -0.248 NA
ATOM     36  C   UNL     1       0.111 -10.575  -0.584  1.00  0.00     0.031 C 
ATOM     37  C   UNL     1       5.634  -9.239  -1.250  1.00  0.00     0.029 A 
ATOM     38  C   UNL     1       4.435  -9.945  -1.149  1.00  0.00     0.049 A 
ATOM     39  H   UNL     1       3.920 -11.089   0.543  1.00  0.00     0.167 HD
ATOM     40  C   UNL     1       2.104 -10.554  -1.782  1.00  0.00     0.074 A 
ATOM     41  C   UNL     1       1.439 -10.697  -0.489  1.00  0.00     0.031 C 
ATOM     42  C   UNL     1       3.394 -10.239  -2.106  1.00  0.00     0.037 A 
BRANCH  29  43
ATOM     43  C   UNL     1       4.007  -9.728   3.245  1.00  0.00     0.057 A 
ATOM     44  C   UNL     1       4.623 -10.988   3.359  1.00  0.00     0.134 A 
ATOM     45  C   UNL     1       2.843  -9.566   4.027  1.00  0.00     0.134 A 
ATOM     46  F   UNL     1       5.753 -11.266   2.692  1.00  0.00    -0.206 F 
ATOM     47  C   UNL     1       4.048 -12.043   4.079  1.00  0.00     0.040 A 
ATOM     48  C   UNL     1       2.282 -10.600   4.779  1.00  0.00     0.040 A 
ATOM     49  F   UNL     1       2.127  -8.438   4.048  1.00  0.00    -0.206 F 
ATOM     50  C   UNL     1       2.860 -11.857   4.772  1.00  0.00     0.006 A 
ENDBRANCH  29  43
BRANCH  30  51
ATOM     51  C   UNL     1      -2.488  -9.502  -2.357  1.00  0.00     0.057 A 
ATOM     52  C   UNL     1      -2.979 -10.747  -2.763  1.00  0.00     0.134 A 
ATOM     53  C   UNL     1      -3.411  -8.653  -1.714  1.00  0.00     0.134 A 
ATOM     54  F   UNL     1      -2.164 -11.641  -3.341  1.00  0.00    -0.206 F 
ATOM     55  C   UNL     1      -4.307 -11.132  -2.534  1.00  0.00     0.040 A 
ATOM     56  C   UNL     1      -4.739  -9.020  -1.488  1.00  0.00     0.040 A 
ATOM     57  F   UNL     1      -3.034  -7.471  -1.205  1.00  0.00    -0.206 F 
ATOM     58  C   UNL     1      -5.190 -10.270  -1.888  1.00  0.00     0.006 A 
ENDBRANCH  30  51
BRANCH  42  59
ATOM     59  C   UNL     1       3.702  -9.944  -3.548  1.00  0.00     0.057 A 
ATOM     60  C   UNL     1       3.188  -8.841  -4.247  1.00  0.00     0.134 A 
ATOM     61  C   UNL     1       4.675 -10.708  -4.200  1.00  0.00     0.134 A 
ATOM     62  F   UNL     1       2.332  -7.991  -3.663  1.00  0.00    -0.206 F 
ATOM     63  C   UNL     1       3.592  -8.540  -5.552  1.00  0.00     0.040 A 
ATOM     64  C   UNL     1       5.112 -10.399  -5.490  1.00  0.00     0.040 A 
ATOM     65  F   UNL     1       5.258 -11.739  -3.569  1.00  0.00    -0.206 F 
ATOM     66  C   UNL     1       4.562  -9.319  -6.175  1.00  0.00     0.006 A 
ENDBRANCH  42  59
ENDBRANCH  16  17
ENDBRANCH   9  11
ENDBRANCH   8   9
ENDBRANCH   7   8
ENDBRANCH   6   7
ENDBRANCH   5   6
ENDBRANCH   4   5
ENDBRANCH   3   4
ENDBRANCH   2   3
ENDBRANCH   1   2
BRANCH   1  67
ATOM     67  C   UNL     1       6.001   2.408   1.310  1.00  0.00     0.188 C 
BRANCH  67  68
ATOM     68  O   UNL     1       5.622   1.555   2.377  1.00  0.00    -0.376 OA
BRANCH  68  69
ATOM     69  C   UNL     1       5.119   2.165   3.561  1.00  0.00     0.202 C 
BRANCH  69  70
ATOM     70  C   UNL     1       4.190   3.375   3.499  1.00  0.00     0.261 C 
BRANCH  70  71
ATOM     71  O   UNL     1       4.441   4.364   2.505  1.00  0.00    -0.462 OA
BRANCH  71  72
ATOM     72  C   UNL     1       5.115   5.489   2.810  1.00  0.00     0.329 C 
ATOM     73  O   UNL     1       5.754   5.667   3.844  1.00  0.00    -0.250 OA
BRANCH  72  74
ATOM     74  C   UNL     1       4.870   6.526   1.721  1.00  0.00     0.203 C 
ATOM     75  C   UNL     1       4.729   5.897   0.310  1.00  0.00     0.093 C 
ATOM     76  N   UNL     1       3.876   7.608   1.958  1.00  0.00    -0.304 N 
ATOM     77  C   UNL     1       4.591   6.976  -0.686  1.00  0.00     0.042 A 
ATOM     78  C   UNL     1       4.016   8.772   1.024  1.00  0.00     0.180 C 
ATOM     79  N   UNL     1       4.746   6.918  -2.038  1.00  0.00    -0.348 N 
ATOM     80  C   UNL     1       4.268   8.275  -0.379  1.00  0.00     0.081 A 
ATOM     81  C   UNL     1       4.560   8.195  -2.500  1.00  0.00     0.197 A 
ATOM     82  H   UNL     1       4.951   6.119  -2.575  1.00  0.00     0.167 HD
ATOM     83  N   UNL     1       4.275   9.034  -1.523  1.00  0.00    -0.240 NA
BRANCH  76  84
ATOM     84  C   UNL     1       2.714   7.571   2.707  1.00  0.00     0.321 C 
ATOM     85  O   UNL     1       1.982   8.560   2.801  1.00  0.00    -0.248 OA
BRANCH  84  86
ATOM     86  N   UNL     1       2.324   6.380   3.333  1.00  0.00    -0.322 N 
ATOM     87  C   UNL     1       2.674   6.256   4.750  1.00  0.00     0.121 C 
ATOM     88  C   UNL     1       0.897   6.114   3.134  1.00  0.00     0.153 C 
ATOM     89  C   UNL     1       2.073   5.053   5.502  1.00  0.00     0.024 C 
ATOM     90  C   UNL     1       0.487   4.685   3.474  1.00  0.00     0.134 C 
ATOM     91  C   UNL     1       1.085   4.141   4.769  1.00  0.00     0.035 C 
BRANCH  90  92
ATOM     92  O   UNL     1       0.799   3.794   2.400  1.00  0.00    -0.391 OA
ATOM     93  H   UNL     1       1.760   3.760   2.276  1.00  0.00     0.211 HD
ENDBRANCH  90  92
ENDBRANCH  84  86
ENDBRANCH  76  84
ENDBRANCH  72  74
ENDBRANCH  71  72
ENDBRANCH  70  71
ENDBRANCH  69  70
ENDBRANCH  68  69
ENDBRANCH  67  68
ENDBRANCH   1  67
TORSDOF 23
