REMARK SMILES [NH3+]CCOCC(=O)N1C[C@@H](C(=O)OCCOCCOCCOCCOC(=O)c2ccc(-c3c4nc(c(-c5c(F)cccc5F)c5ccc([nH]5)c(-c5c(F)cccc5F)c5nc(c(-c6c(F)cccc6F)c6ccc3[nH]6)C=C5)C=C4)cc2)Oc2ccccc21
REMARK SMILES IDX 17 1 16 2 15 3 14 4 13 5 11 6 12 7 10 8 8 9 9 10 88 11 83 12
REMARK SMILES IDX 87 13 82 14 84 15 86 16 85 17 6 18 7 19 5 20 4 21 3 22 2 23
REMARK SMILES IDX 1 24 18 28 19 29 20 30 21 31 22 32 23 33 24 34 25 35 26 36
REMARK SMILES IDX 27 37 28 38 29 39 81 40 30 41 80 42 31 43 32 44 33 45 74 46
REMARK SMILES IDX 34 47 79 48 73 49 75 50 35 51 78 52 72 53 71 54 36 56 62 57
REMARK SMILES IDX 45 58 61 59 46 60 49 61 60 62 76 63 47 64 48 65 59 67 77 68
REMARK SMILES IDX 50 69 37 70 38 71 43 72 39 73 40 74 42 75 44 76 41 77 63 78
REMARK SMILES IDX 64 79 69 80 65 81 66 82 68 83 70 84 67 85 51 86 52 87 57 88
REMARK SMILES IDX 53 89 54 90 56 91 58 92 55 93
REMARK H PARENT 1 25 1 26 1 27 75 55 49 66
REMARK Flexibility Score: inf
ROOT
ATOM      1  C   UNL     1       6.443  -4.000  -3.581  1.00  0.00     0.188 C 
ENDROOT
BRANCH   1   2
ATOM      2  O   UNL     1       6.741  -2.638  -3.857  1.00  0.00    -0.376 OA
BRANCH   2   3
ATOM      3  C   UNL     1       6.582  -1.629  -2.869  1.00  0.00     0.202 C 
BRANCH   3   4
ATOM      4  C   UNL     1       5.288  -1.514  -2.046  1.00  0.00     0.261 C 
BRANCH   4   5
ATOM      5  O   UNL     1       4.902  -2.699  -1.327  1.00  0.00    -0.460 OA
BRANCH   5   6
ATOM      6  C   UNL     1       3.863  -3.414  -1.819  1.00  0.00     0.349 C 
ATOM      7  O   UNL     1       3.204  -3.084  -2.802  1.00  0.00    -0.248 OA
BRANCH   6   8
ATOM      8  C   UNL     1       3.550  -4.700  -1.022  1.00  0.00     0.302 C 
ATOM      9  N   UNL     1       2.697  -3.514   0.914  1.00  0.00    -0.303 N 
ATOM     10  C   UNL     1       2.329  -4.441  -0.164  1.00  0.00     0.183 C 
ATOM     11  C   UNL     1       3.918  -3.871   1.581  1.00  0.00     0.086 A 
ATOM     12  C   UNL     1       4.752  -4.842   0.996  1.00  0.00     0.144 A 
ATOM     13  C   UNL     1       4.286  -3.356   2.827  1.00  0.00     0.030 A 
ATOM     14  O   UNL     1       4.533  -5.375  -0.248  1.00  0.00    -0.475 OA
ATOM     15  C   UNL     1       5.882  -5.327   1.661  1.00  0.00     0.049 A 
ATOM     16  C   UNL     1       5.426  -3.834   3.490  1.00  0.00     0.002 A 
ATOM     17  C   UNL     1       6.216  -4.826   2.914  1.00  0.00     0.004 A 
BRANCH   9  18
ATOM     18  C   UNL     1       2.003  -2.335   1.165  1.00  0.00     0.253 C 
ATOM     19  O   UNL     1       2.494  -1.343   1.708  1.00  0.00    -0.272 OA
BRANCH  18  20
ATOM     20  C   UNL     1       0.513  -2.307   0.752  1.00  0.00     0.260 C 
BRANCH  20  21
ATOM     21  O   UNL     1       0.103  -2.335  -0.599  1.00  0.00    -0.366 OA
BRANCH  21  22
ATOM     22  C   UNL     1       0.798  -1.465  -1.490  1.00  0.00     0.222 C 
BRANCH  22  23
ATOM     23  C   UNL     1       0.349  -0.002  -1.427  1.00  0.00     0.287 C 
BRANCH  23  24
ATOM     24  N   UNL     1       0.950   0.755  -0.329  1.00  0.00    -0.356 N 
ATOM     25  H   UNL     1       0.606   1.715  -0.350  1.00  0.00     0.344 HD
ATOM     26  H   UNL     1       1.965   0.755  -0.431  1.00  0.00     0.344 HD
ATOM     27  H   UNL     1       0.697   0.323   0.560  1.00  0.00     0.344 HD
ENDBRANCH  23  24
ENDBRANCH  22  23
ENDBRANCH  21  22
ENDBRANCH  20  21
ENDBRANCH  18  20
ENDBRANCH   9  18
ENDBRANCH   6   8
ENDBRANCH   5   6
ENDBRANCH   4   5
ENDBRANCH   3   4
ENDBRANCH   2   3
ENDBRANCH   1   2
BRANCH   1  28
ATOM     28  C   UNL     1       6.865  -4.658  -2.258  1.00  0.00     0.188 C 
BRANCH  28  29
ATOM     29  O   UNL     1       7.297  -3.760  -1.259  1.00  0.00    -0.377 OA
BRANCH  29  30
ATOM     30  C   UNL     1       8.697  -3.580  -1.107  1.00  0.00     0.188 C 
BRANCH  30  31
ATOM     31  C   UNL     1       9.579  -3.651  -2.370  1.00  0.00     0.188 C 
BRANCH  31  32
ATOM     32  O   UNL     1       9.337  -4.783  -3.194  1.00  0.00    -0.376 OA
BRANCH  32  33
ATOM     33  C   UNL     1      10.112  -5.960  -3.016  1.00  0.00     0.202 C 
BRANCH  33  34
ATOM     34  C   UNL     1      10.035  -6.710  -1.672  1.00  0.00     0.261 C 
BRANCH  34  35
ATOM     35  O   UNL     1      10.377  -5.970  -0.490  1.00  0.00    -0.460 OA
BRANCH  35  36
ATOM     36  C   UNL     1      11.585  -5.380  -0.443  1.00  0.00     0.338 C 
ATOM     37  O   UNL     1      12.480  -5.468  -1.271  1.00  0.00    -0.246 OA
BRANCH  36  38
ATOM     38  C   UNL     1      11.597  -4.435   0.693  1.00  0.00     0.060 A 
ATOM     39  C   UNL     1      11.891  -3.088   0.443  1.00  0.00     0.016 A 
ATOM     40  C   UNL     1      11.356  -4.877   1.996  1.00  0.00     0.016 A 
ATOM     41  C   UNL     1      12.020  -2.193   1.504  1.00  0.00     0.010 A 
ATOM     42  C   UNL     1      11.509  -3.985   3.061  1.00  0.00     0.010 A 
ATOM     43  C   UNL     1      11.899  -2.654   2.820  1.00  0.00    -0.014 A 
BRANCH  43  44
ATOM     44  C   UNL     1      12.448  -1.829   3.924  1.00  0.00     0.031 A 
ATOM     45  C   UNL     1      13.841  -2.142   4.407  1.00  0.00     0.074 A 
ATOM     46  C   UNL     1      11.764  -0.800   4.452  1.00  0.00     0.049 A 
ATOM     47  N   UNL     1      14.531  -1.597   5.376  1.00  0.00    -0.248 NA
ATOM     48  C   UNL     1      14.550  -3.221   3.698  1.00  0.00     0.031 C 
ATOM     49  C   UNL     1      10.436  -0.360   4.032  1.00  0.00     0.029 A 
ATOM     50  N   UNL     1      12.103   0.061   5.465  1.00  0.00    -0.354 N 
ATOM     51  C   UNL     1      15.746  -2.272   5.396  1.00  0.00     0.074 A 
ATOM     52  C   UNL     1      15.686  -3.290   4.373  1.00  0.00     0.031 C 
ATOM     53  C   UNL     1      10.067   0.687   4.792  1.00  0.00     0.029 A 
ATOM     54  C   UNL     1      11.118   0.967   5.770  1.00  0.00     0.049 A 
ATOM     55  H   UNL     1      12.971   0.032   5.929  1.00  0.00     0.167 HD
ATOM     56  C   UNL     1      16.822  -2.056   6.189  1.00  0.00     0.037 A 
ATOM     57  C   UNL     1      11.067   1.899   6.742  1.00  0.00     0.037 A 
ATOM     58  C   UNL     1      16.880  -1.042   7.207  1.00  0.00     0.049 A 
ATOM     59  C   UNL     1      12.245   2.064   7.671  1.00  0.00     0.074 A 
ATOM     60  C   UNL     1      17.924  -0.739   8.063  1.00  0.00     0.029 A 
ATOM     61  N   UNL     1      15.847  -0.169   7.510  1.00  0.00    -0.354 N 
ATOM     62  N   UNL     1      13.393   1.430   7.678  1.00  0.00    -0.248 NA
ATOM     63  C   UNL     1      12.120   3.082   8.725  1.00  0.00     0.031 C 
ATOM     64  C   UNL     1      17.500   0.279   8.923  1.00  0.00     0.029 A 
ATOM     65  C   UNL     1      16.219   0.658   8.556  1.00  0.00     0.049 A 
ATOM     66  H   UNL     1      14.977  -0.141   7.049  1.00  0.00     0.167 HD
ATOM     67  C   UNL     1      14.139   2.000   8.704  1.00  0.00     0.074 A 
ATOM     68  C   UNL     1      13.316   3.035   9.292  1.00  0.00     0.031 C 
ATOM     69  C   UNL     1      15.395   1.698   9.118  1.00  0.00     0.037 A 
BRANCH  56  70
ATOM     70  C   UNL     1      18.010  -2.956   6.003  1.00  0.00     0.057 A 
ATOM     71  C   UNL     1      18.816  -2.898   4.859  1.00  0.00     0.134 A 
ATOM     72  C   UNL     1      18.362  -3.881   6.994  1.00  0.00     0.134 A 
ATOM     73  F   UNL     1      18.524  -2.048   3.862  1.00  0.00    -0.206 F 
ATOM     74  C   UNL     1      19.914  -3.746   4.695  1.00  0.00     0.040 A 
ATOM     75  C   UNL     1      19.475  -4.712   6.856  1.00  0.00     0.040 A 
ATOM     76  F   UNL     1      17.634  -3.989   8.116  1.00  0.00    -0.206 F 
ATOM     77  C   UNL     1      20.250  -4.651   5.700  1.00  0.00     0.006 A 
ENDBRANCH  56  70
BRANCH  57  78
ATOM     78  C   UNL     1       9.856   2.746   6.906  1.00  0.00     0.057 A 
ATOM     79  C   UNL     1       9.898   4.127   6.678  1.00  0.00     0.134 A 
ATOM     80  C   UNL     1       8.639   2.202   7.335  1.00  0.00     0.134 A 
ATOM     81  F   UNL     1      11.041   4.712   6.291  1.00  0.00    -0.206 F 
ATOM     82  C   UNL     1       8.783   4.939   6.895  1.00  0.00     0.040 A 
ATOM     83  C   UNL     1       7.508   2.998   7.526  1.00  0.00     0.040 A 
ATOM     84  F   UNL     1       8.531   0.886   7.573  1.00  0.00    -0.206 F 
ATOM     85  C   UNL     1       7.582   4.373   7.316  1.00  0.00     0.006 A 
ENDBRANCH  57  78
BRANCH  69  86
ATOM     86  C   UNL     1      15.985   2.536  10.217  1.00  0.00     0.057 A 
ATOM     87  C   UNL     1      15.532   2.463  11.541  1.00  0.00     0.134 A 
ATOM     88  C   UNL     1      17.058   3.399   9.950  1.00  0.00     0.134 A 
ATOM     89  F   UNL     1      14.504   1.665  11.865  1.00  0.00    -0.206 F 
ATOM     90  C   UNL     1      16.104   3.239  12.551  1.00  0.00     0.040 A 
ATOM     91  C   UNL     1      17.659   4.154  10.958  1.00  0.00     0.040 A 
ATOM     92  F   UNL     1      17.552   3.508   8.708  1.00  0.00    -0.206 F 
ATOM     93  C   UNL     1      17.176   4.082  12.262  1.00  0.00     0.006 A 
ENDBRANCH  69  86
ENDBRANCH  43  44
ENDBRANCH  36  38
ENDBRANCH  35  36
ENDBRANCH  34  35
ENDBRANCH  33  34
ENDBRANCH  32  33
ENDBRANCH  31  32
ENDBRANCH  30  31
ENDBRANCH  29  30
ENDBRANCH  28  29
ENDBRANCH   1  28
TORSDOF 26
