REMARK SMILES COC(=O)[C@H]1C(C)=NC2=C(C(=O)CCC2)[C@H]1c1ccc(C(=O)OCCOCCOCCOCCOC(=O)c2ccc(-c3c4nc(c(-c5c(F)cccc5F)c5ccc([nH]5)c(-c5c(F)cccc5F)c5nc(c(-c6c(F)cccc6F)c6ccc3[nH]6)C=C5)C=C4)cc2)cc1
REMARK SMILES IDX 28 1 27 2 26 3 25 4 24 5 23 6 21 7 22 8 20 9 17 10 18 11
REMARK SMILES IDX 93 12 19 13 92 14 16 15 5 16 6 17 7 18 8 19 10 20 9 21 11 22
REMARK SMILES IDX 15 23 12 24 13 25 14 26 3 27 4 28 2 29 1 30 29 31 30 32
REMARK SMILES IDX 31 33 32 34 33 35 34 36 35 37 36 38 37 39 38 40 39 41 91 42
REMARK SMILES IDX 40 43 90 44 41 45 42 46 43 47 84 48 44 49 89 50 83 51 85 52
REMARK SMILES IDX 45 53 88 54 82 55 81 56 46 58 72 59 55 60 71 61 56 62 59 63
REMARK SMILES IDX 70 64 86 65 57 66 58 67 69 69 87 70 60 71 47 72 48 73 53 74
REMARK SMILES IDX 49 75 50 76 52 77 54 78 51 79 73 80 74 81 79 82 75 83 76 84
REMARK SMILES IDX 78 85 80 86 77 87 61 88 62 89 67 90 63 91 64 92 66 93 68 94
REMARK SMILES IDX 65 95
REMARK H PARENT 85 57 59 68
REMARK Flexibility Score: inf
ROOT
ATOM      1  C   UNL     1       1.309  -4.998   2.228  1.00  0.00     0.188 C 
ENDROOT
BRANCH   1   2
ATOM      2  C   UNL     1       2.462  -4.218   2.894  1.00  0.00     0.188 C 
BRANCH   2   3
ATOM      3  O   UNL     1       2.355  -4.157   4.307  1.00  0.00    -0.376 OA
BRANCH   3   4
ATOM      4  C   UNL     1       1.923  -2.968   4.941  1.00  0.00     0.202 C 
BRANCH   4   5
ATOM      5  C   UNL     1       0.619  -2.258   4.534  1.00  0.00     0.261 C 
BRANCH   5   6
ATOM      6  O   UNL     1       0.259  -2.327   3.156  1.00  0.00    -0.460 OA
BRANCH   6   7
ATOM      7  C   UNL     1       0.922  -1.505   2.322  1.00  0.00     0.338 C 
ATOM      8  O   UNL     1       1.732  -0.646   2.624  1.00  0.00    -0.246 OA
BRANCH   7   9
ATOM      9  C   UNL     1       0.664  -1.948   0.937  1.00  0.00     0.060 A 
ATOM     10  C   UNL     1       0.260  -2.436  -1.766  1.00  0.00    -0.039 A 
ATOM     11  C   UNL     1       1.568  -2.383  -1.260  1.00  0.00     0.005 A 
ATOM     12  C   UNL     1      -0.830  -2.451  -0.877  1.00  0.00     0.005 A 
ATOM     13  C   UNL     1       1.766  -2.087   0.082  1.00  0.00     0.016 A 
ATOM     14  C   UNL     1      -0.628  -2.217   0.481  1.00  0.00     0.016 A 
BRANCH  10  15
ATOM     15  C   UNL     1       0.013  -2.214  -3.257  1.00  0.00     0.075 C 
ATOM     16  C   UNL     1       0.360  -0.746  -3.672  1.00  0.00     0.155 C 
ATOM     17  C   UNL     1       1.255  -0.680  -4.899  1.00  0.00     0.030 C 
ATOM     18  C   UNL     1       1.562   0.689  -5.470  1.00  0.00     0.063 C 
ATOM     19  N   UNL     1       1.802  -1.692  -5.497  1.00  0.00    -0.261 NA
ATOM     20  C   UNL     1       0.662  -3.269  -4.112  1.00  0.00     0.025 C 
ATOM     21  C   UNL     1       1.528  -2.969  -5.093  1.00  0.00     0.048 C 
ATOM     22  C   UNL     1       0.232  -4.694  -3.933  1.00  0.00     0.161 C 
ATOM     23  C   UNL     1       2.268  -4.020  -5.892  1.00  0.00     0.057 C 
ATOM     24  O   UNL     1      -0.663  -4.981  -3.139  1.00  0.00    -0.294 OA
ATOM     25  C   UNL     1       0.816  -5.752  -4.843  1.00  0.00     0.081 C 
ATOM     26  C   UNL     1       2.233  -5.396  -5.242  1.00  0.00     0.015 C 
BRANCH  16  27
ATOM     27  C   UNL     1       0.968   0.136  -2.576  1.00  0.00     0.315 C 
ATOM     28  O   UNL     1       2.149   0.461  -2.535  1.00  0.00    -0.251 OA
BRANCH  27  29
ATOM     29  O   UNL     1       0.038   0.517  -1.656  1.00  0.00    -0.468 OA
ATOM     30  C   UNL     1       0.576   1.146  -0.482  1.00  0.00     0.282 C 
ENDBRANCH  27  29
ENDBRANCH  16  27
ENDBRANCH  10  15
ENDBRANCH   7   9
ENDBRANCH   6   7
ENDBRANCH   5   6
ENDBRANCH   4   5
ENDBRANCH   3   4
ENDBRANCH   2   3
ENDBRANCH   1   2
BRANCH   1  31
ATOM     31  O   UNL     1       0.140  -5.167   3.012  1.00  0.00    -0.377 OA
BRANCH  31  32
ATOM     32  C   UNL     1       0.210  -5.946   4.204  1.00  0.00     0.188 C 
BRANCH  32  33
ATOM     33  C   UNL     1       1.485  -6.717   4.639  1.00  0.00     0.188 C 
BRANCH  33  34
ATOM     34  O   UNL     1       2.427  -6.971   3.611  1.00  0.00    -0.376 OA
BRANCH  34  35
ATOM     35  C   UNL     1       2.531  -8.285   3.097  1.00  0.00     0.202 C 
BRANCH  35  36
ATOM     36  C   UNL     1       1.308  -8.839   2.355  1.00  0.00     0.261 C 
BRANCH  36  37
ATOM     37  O   UNL     1       0.068  -8.794   3.075  1.00  0.00    -0.460 OA
BRANCH  37  38
ATOM     38  C   UNL     1      -0.013  -9.543   4.197  1.00  0.00     0.338 C 
ATOM     39  O   UNL     1       0.836 -10.273   4.662  1.00  0.00    -0.246 OA
BRANCH  38  40
ATOM     40  C   UNL     1      -1.269  -9.174   4.884  1.00  0.00     0.060 A 
ATOM     41  C   UNL     1      -1.205  -8.673   6.191  1.00  0.00     0.016 A 
ATOM     42  C   UNL     1      -2.498  -9.327   4.239  1.00  0.00     0.016 A 
ATOM     43  C   UNL     1      -2.380  -8.382   6.881  1.00  0.00     0.010 A 
ATOM     44  C   UNL     1      -3.675  -9.056   4.938  1.00  0.00     0.010 A 
ATOM     45  C   UNL     1      -3.618  -8.633   6.278  1.00  0.00    -0.014 A 
BRANCH  45  46
ATOM     46  C   UNL     1      -4.829  -8.720   7.127  1.00  0.00     0.031 A 
ATOM     47  C   UNL     1      -5.258 -10.083   7.599  1.00  0.00     0.074 A 
ATOM     48  C   UNL     1      -5.508  -7.626   7.509  1.00  0.00     0.049 A 
ATOM     49  N   UNL     1      -6.282 -10.429   8.334  1.00  0.00    -0.248 NA
ATOM     50  C   UNL     1      -4.412 -11.210   7.174  1.00  0.00     0.031 C 
ATOM     51  C   UNL     1      -5.162  -6.250   7.163  1.00  0.00     0.029 A 
ATOM     52  N   UNL     1      -6.637  -7.511   8.279  1.00  0.00    -0.354 N 
ATOM     53  C   UNL     1      -6.206 -11.812   8.453  1.00  0.00     0.074 A 
ATOM     54  C   UNL     1      -5.066 -12.244   7.677  1.00  0.00     0.031 C 
ATOM     55  C   UNL     1      -6.063  -5.424   7.722  1.00  0.00     0.029 A 
ATOM     56  C   UNL     1      -7.064  -6.216   8.436  1.00  0.00     0.049 A 
ATOM     57  H   UNL     1      -7.097  -8.283   8.680  1.00  0.00     0.167 HD
ATOM     58  C   UNL     1      -7.005 -12.648   9.157  1.00  0.00     0.037 A 
ATOM     59  C   UNL     1      -8.147  -5.734   9.076  1.00  0.00     0.037 A 
ATOM     60  C   UNL     1      -8.149 -12.216   9.915  1.00  0.00     0.049 A 
ATOM     61  C   UNL     1      -9.079  -6.690   9.775  1.00  0.00     0.074 A 
ATOM     62  C   UNL     1      -9.027 -12.978  10.663  1.00  0.00     0.029 A 
ATOM     63  N   UNL     1      -8.580 -10.900  10.008  1.00  0.00    -0.354 N 
ATOM     64  N   UNL     1      -8.995  -7.993   9.899  1.00  0.00    -0.248 NA
ATOM     65  C   UNL     1     -10.256  -6.102  10.431  1.00  0.00     0.031 C 
ATOM     66  C   UNL     1     -10.025 -12.131  11.159  1.00  0.00     0.029 A 
ATOM     67  C   UNL     1      -9.728 -10.831  10.780  1.00  0.00     0.049 A 
ATOM     68  H   UNL     1      -8.135 -10.129   9.587  1.00  0.00     0.167 HD
ATOM     69  C   UNL     1     -10.080  -8.376  10.680  1.00  0.00     0.074 A 
ATOM     70  C   UNL     1     -10.806  -7.165  11.002  1.00  0.00     0.031 C 
ATOM     71  C   UNL     1     -10.437  -9.616  11.100  1.00  0.00     0.037 A 
BRANCH  58  72
ATOM     72  C   UNL     1      -6.683 -14.114   9.089  1.00  0.00     0.057 A 
ATOM     73  C   UNL     1      -5.515 -14.649   9.653  1.00  0.00     0.134 A 
ATOM     74  C   UNL     1      -7.538 -15.000   8.422  1.00  0.00     0.134 A 
ATOM     75  F   UNL     1      -4.642 -13.854  10.291  1.00  0.00    -0.206 F 
ATOM     76  C   UNL     1      -5.188 -15.999   9.515  1.00  0.00     0.040 A 
ATOM     77  C   UNL     1      -7.238 -16.359   8.308  1.00  0.00     0.040 A 
ATOM     78  F   UNL     1      -8.674 -14.560   7.862  1.00  0.00    -0.206 F 
ATOM     79  C   UNL     1      -6.053 -16.859   8.843  1.00  0.00     0.006 A 
ENDBRANCH  58  72
BRANCH  59  80
ATOM     80  C   UNL     1      -8.401  -4.272   9.102  1.00  0.00     0.057 A 
ATOM     81  C   UNL     1      -8.282  -3.540  10.290  1.00  0.00     0.134 A 
ATOM     82  C   UNL     1      -8.771  -3.571   7.948  1.00  0.00     0.134 A 
ATOM     83  F   UNL     1      -7.955  -4.159  11.434  1.00  0.00    -0.206 F 
ATOM     84  C   UNL     1      -8.532  -2.167  10.332  1.00  0.00     0.040 A 
ATOM     85  C   UNL     1      -8.999  -2.194   7.970  1.00  0.00     0.040 A 
ATOM     86  F   UNL     1      -8.902  -4.214   6.779  1.00  0.00    -0.206 F 
ATOM     87  C   UNL     1      -8.885  -1.489   9.166  1.00  0.00     0.006 A 
ENDBRANCH  59  80
BRANCH  71  88
ATOM     88  C   UNL     1     -11.631  -9.723  12.007  1.00  0.00     0.057 A 
ATOM     89  C   UNL     1     -12.938  -9.493  11.558  1.00  0.00     0.134 A 
ATOM     90  C   UNL     1     -11.469 -10.100  13.348  1.00  0.00     0.134 A 
ATOM     91  F   UNL     1     -13.166  -9.120  10.290  1.00  0.00    -0.206 F 
ATOM     92  C   UNL     1     -14.035  -9.602  12.416  1.00  0.00     0.040 A 
ATOM     93  C   UNL     1     -12.560 -10.245  14.206  1.00  0.00     0.040 A 
ATOM     94  F   UNL     1     -10.247 -10.348  13.843  1.00  0.00    -0.206 F 
ATOM     95  C   UNL     1     -13.847  -9.987  13.742  1.00  0.00     0.006 A 
ENDBRANCH  71  88
ENDBRANCH  45  46
ENDBRANCH  38  40
ENDBRANCH  37  38
ENDBRANCH  36  37
ENDBRANCH  35  36
ENDBRANCH  34  35
ENDBRANCH  33  34
ENDBRANCH  32  33
ENDBRANCH  31  32
ENDBRANCH   1  31
TORSDOF 23
