REMARK SMILES O=C(OCCOCCOCCOCCOC(=O)c1cc(SC[C@H]2CCOC2)ccn1)c1ccc(-c2c3nc(c(-c4c(F)cccc4F)c4ccc([nH]4)c(-c4c(F)cccc4F)c4nc(c(-c5c(F)cccc5F)c5ccc2[nH]5)C=C4)C=C3)cc1
REMARK SMILES IDX 10 1 9 2 8 3 7 4 6 5 5 6 4 7 3 8 2 9 1 10 31 11 32 12 84 13
REMARK SMILES IDX 33 14 83 15 34 16 35 17 36 18 77 19 37 20 82 21 76 22 78 23
REMARK SMILES IDX 38 24 81 25 75 26 74 27 39 29 65 30 48 31 64 32 49 33 52 34
REMARK SMILES IDX 63 35 79 36 50 37 51 38 62 40 80 41 53 42 40 43 41 44 46 45
REMARK SMILES IDX 42 46 43 47 45 48 47 49 44 50 66 51 67 52 72 53 68 54 69 55
REMARK SMILES IDX 71 56 73 57 70 58 54 59 55 60 60 61 56 62 57 63 59 64 61 65
REMARK SMILES IDX 58 66 11 67 12 68 13 69 14 70 15 71 16 72 17 73 18 74 19 75
REMARK SMILES IDX 30 76 20 77 29 78 28 79 21 80 22 81 23 82 24 83 27 84 25 85
REMARK SMILES IDX 26 86
REMARK H PARENT 78 28 52 39
REMARK Flexibility Score: inf
ROOT
ATOM      1  C   UNL     1      -3.482  -1.605   7.882  1.00  0.00     0.188 C 
ENDROOT
BRANCH   1   2
ATOM      2  O   UNL     1      -2.770  -1.912   9.075  1.00  0.00    -0.377 OA
BRANCH   2   3
ATOM      3  C   UNL     1      -3.508  -1.904  10.298  1.00  0.00     0.188 C 
BRANCH   3   4
ATOM      4  C   UNL     1      -4.411  -0.686  10.506  1.00  0.00     0.188 C 
BRANCH   4   5
ATOM      5  O   UNL     1      -5.498  -0.729   9.584  1.00  0.00    -0.376 OA
BRANCH   5   6
ATOM      6  C   UNL     1      -5.991   0.526   9.129  1.00  0.00     0.202 C 
BRANCH   6   7
ATOM      7  C   UNL     1      -6.930   1.234  10.108  1.00  0.00     0.261 C 
BRANCH   7   8
ATOM      8  O   UNL     1      -6.682   0.884  11.477  1.00  0.00    -0.460 OA
BRANCH   8   9
ATOM      9  C   UNL     1      -7.306  -0.071  12.209  1.00  0.00     0.338 C 
ATOM     10  O   UNL     1      -7.061  -0.141  13.413  1.00  0.00    -0.246 OA
BRANCH   9  11
ATOM     11  C   UNL     1      -8.296  -1.041  11.649  1.00  0.00     0.060 A 
ATOM     12  C   UNL     1      -8.271  -1.557  10.353  1.00  0.00     0.016 A 
ATOM     13  C   UNL     1      -9.255  -1.555  12.538  1.00  0.00     0.016 A 
ATOM     14  C   UNL     1      -9.181  -2.514   9.926  1.00  0.00     0.010 A 
ATOM     15  C   UNL     1     -10.154  -2.545  12.130  1.00  0.00     0.010 A 
ATOM     16  C   UNL     1     -10.121  -3.019  10.814  1.00  0.00    -0.014 A 
BRANCH  16  17
ATOM     17  C   UNL     1     -11.125  -3.968  10.305  1.00  0.00     0.031 A 
ATOM     18  C   UNL     1     -12.518  -3.467  10.093  1.00  0.00     0.074 A 
ATOM     19  C   UNL     1     -10.757  -5.215   9.959  1.00  0.00     0.049 A 
ATOM     20  N   UNL     1     -13.598  -4.129   9.789  1.00  0.00    -0.248 NA
ATOM     21  C   UNL     1     -12.719  -2.013  10.237  1.00  0.00     0.031 C 
ATOM     22  C   UNL     1      -9.388  -5.738  10.009  1.00  0.00     0.029 A 
ATOM     23  N   UNL     1     -11.497  -6.266   9.489  1.00  0.00    -0.354 N 
ATOM     24  C   UNL     1     -14.615  -3.185   9.756  1.00  0.00     0.074 A 
ATOM     25  C   UNL     1     -14.025  -1.900  10.050  1.00  0.00     0.031 C 
ATOM     26  C   UNL     1      -9.390  -7.014   9.590  1.00  0.00     0.029 A 
ATOM     27  C   UNL     1     -10.765  -7.418   9.323  1.00  0.00     0.049 A 
ATOM     28  H   UNL     1     -12.459  -6.204   9.288  1.00  0.00     0.167 HD
ATOM     29  C   UNL     1     -15.928  -3.394   9.519  1.00  0.00     0.037 A 
ATOM     30  C   UNL     1     -11.183  -8.669   9.052  1.00  0.00     0.037 A 
ATOM     31  C   UNL     1     -16.470  -4.687   9.209  1.00  0.00     0.049 A 
ATOM     32  C   UNL     1     -12.663  -8.890   8.886  1.00  0.00     0.074 A 
ATOM     33  C   UNL     1     -17.782  -5.040   8.964  1.00  0.00     0.029 A 
ATOM     34  N   UNL     1     -15.710  -5.846   9.106  1.00  0.00    -0.354 N 
ATOM     35  N   UNL     1     -13.635  -8.007   8.897  1.00  0.00    -0.248 NA
ATOM     36  C   UNL     1     -13.113 -10.275   8.704  1.00  0.00     0.031 C 
ATOM     37  C   UNL     1     -17.823  -6.424   8.765  1.00  0.00     0.029 A 
ATOM     38  C   UNL     1     -16.531  -6.924   8.839  1.00  0.00     0.049 A 
ATOM     39  H   UNL     1     -14.732  -5.891   9.208  1.00  0.00     0.167 HD
ATOM     40  C   UNL     1     -14.808  -8.726   8.721  1.00  0.00     0.074 A 
ATOM     41  C   UNL     1     -14.422 -10.116   8.575  1.00  0.00     0.031 C 
ATOM     42  C   UNL     1     -16.091  -8.289   8.695  1.00  0.00     0.037 A 
BRANCH  29  43
ATOM     43  C   UNL     1     -16.853  -2.227   9.674  1.00  0.00     0.057 A 
ATOM     44  C   UNL     1     -16.921  -1.188   8.738  1.00  0.00     0.134 A 
ATOM     45  C   UNL     1     -17.689  -2.142  10.795  1.00  0.00     0.134 A 
ATOM     46  F   UNL     1     -16.125  -1.192   7.658  1.00  0.00    -0.206 F 
ATOM     47  C   UNL     1     -17.778  -0.100   8.919  1.00  0.00     0.040 A 
ATOM     48  C   UNL     1     -18.564  -1.071  10.977  1.00  0.00     0.040 A 
ATOM     49  F   UNL     1     -17.664  -3.099  11.736  1.00  0.00    -0.206 F 
ATOM     50  C   UNL     1     -18.607  -0.043  10.038  1.00  0.00     0.006 A 
ENDBRANCH  29  43
BRANCH  30  51
ATOM     51  C   UNL     1     -10.223  -9.806   9.027  1.00  0.00     0.057 A 
ATOM     52  C   UNL     1     -10.009 -10.563   7.870  1.00  0.00     0.134 A 
ATOM     53  C   UNL     1      -9.523 -10.192  10.180  1.00  0.00     0.134 A 
ATOM     54  F   UNL     1     -10.663 -10.265   6.738  1.00  0.00    -0.206 F 
ATOM     55  C   UNL     1      -9.156 -11.671   7.864  1.00  0.00     0.040 A 
ATOM     56  C   UNL     1      -8.644 -11.277  10.181  1.00  0.00     0.040 A 
ATOM     57  F   UNL     1      -9.681  -9.517  11.328  1.00  0.00    -0.206 F 
ATOM     58  C   UNL     1      -8.467 -12.028   9.022  1.00  0.00     0.006 A 
ENDBRANCH  30  51
BRANCH  42  59
ATOM     59  C   UNL     1     -17.153  -9.324   8.494  1.00  0.00     0.057 A 
ATOM     60  C   UNL     1     -17.532 -10.190   9.525  1.00  0.00     0.134 A 
ATOM     61  C   UNL     1     -17.851  -9.401   7.283  1.00  0.00     0.134 A 
ATOM     62  F   UNL     1     -16.888 -10.171  10.702  1.00  0.00    -0.206 F 
ATOM     63  C   UNL     1     -18.569 -11.107   9.356  1.00  0.00     0.040 A 
ATOM     64  C   UNL     1     -18.907 -10.294   7.111  1.00  0.00     0.040 A 
ATOM     65  F   UNL     1     -17.538  -8.588   6.263  1.00  0.00    -0.206 F 
ATOM     66  C   UNL     1     -19.266 -11.152   8.149  1.00  0.00     0.006 A 
ENDBRANCH  42  59
ENDBRANCH  16  17
ENDBRANCH   9  11
ENDBRANCH   8   9
ENDBRANCH   7   8
ENDBRANCH   6   7
ENDBRANCH   5   6
ENDBRANCH   4   5
ENDBRANCH   3   4
ENDBRANCH   2   3
ENDBRANCH   1   2
BRANCH   1  67
ATOM     67  C   UNL     1      -4.660  -2.513   7.465  1.00  0.00     0.188 C 
BRANCH  67  68
ATOM     68  O   UNL     1      -5.005  -3.507   8.419  1.00  0.00    -0.376 OA
BRANCH  68  69
ATOM     69  C   UNL     1      -4.642  -4.841   8.077  1.00  0.00     0.202 C 
BRANCH  69  70
ATOM     70  C   UNL     1      -3.137  -5.138   8.020  1.00  0.00     0.261 C 
BRANCH  70  71
ATOM     71  O   UNL     1      -2.379  -4.318   7.117  1.00  0.00    -0.459 OA
BRANCH  71  72
ATOM     72  C   UNL     1      -2.559  -4.471   5.775  1.00  0.00     0.357 C 
ATOM     73  O   UNL     1      -3.243  -5.286   5.217  1.00  0.00    -0.244 OA
BRANCH  72  74
ATOM     74  C   UNL     1      -1.820  -3.321   5.165  1.00  0.00     0.149 A 
ATOM     75  C   UNL     1      -0.451  -3.227   5.377  1.00  0.00     0.051 A 
ATOM     76  N   UNL     1      -2.582  -2.318   4.650  1.00  0.00    -0.249 NA
ATOM     77  C   UNL     1       0.174  -2.012   5.121  1.00  0.00     0.011 A 
ATOM     78  C   UNL     1      -1.943  -1.161   4.381  1.00  0.00     0.113 A 
ATOM     79  C   UNL     1      -0.591  -0.960   4.610  1.00  0.00     0.035 A 
BRANCH  77  80
ATOM     80  S   UNL     1       1.910  -1.712   5.394  1.00  0.00    -0.126 SA
BRANCH  80  81
ATOM     81  C   UNL     1       2.343  -2.791   6.811  1.00  0.00     0.081 C 
BRANCH  81  82
ATOM     82  C   UNL     1       1.918  -2.378   8.223  1.00  0.00     0.027 C 
ATOM     83  C   UNL     1       1.483  -0.952   8.497  1.00  0.00     0.035 C 
ATOM     84  C   UNL     1       0.738  -3.150   8.786  1.00  0.00     0.164 C 
ATOM     85  C   UNL     1       0.761  -1.078   9.829  1.00  0.00     0.160 C 
ATOM     86  O   UNL     1       0.374  -2.451   9.982  1.00  0.00    -0.381 OA
ENDBRANCH  81  82
ENDBRANCH  80  81
ENDBRANCH  77  80
ENDBRANCH  72  74
ENDBRANCH  71  72
ENDBRANCH  70  71
ENDBRANCH  69  70
ENDBRANCH  68  69
ENDBRANCH  67  68
ENDBRANCH   1  67
TORSDOF 23
