REMARK SMILES O=C(OCCOCCOCCOCCOC(=O)[C@H](c1c[nH]c2cc(F)ccc12)[NH+]1CC[NH+](CC(=O)N2CCOCC2)CC1)c1ccc(-c2c3nc(c(-c4c(F)cccc4F)c4ccc([nH]4)c(-c4c(F)cccc4F)c4nc(c(-c5c(F)cccc5F)c5ccc2[nH]5)C=C4)C=C3)cc1
REMARK SMILES IDX 10 1 9 2 8 3 7 4 6 5 5 6 4 7 3 8 2 9 1 10 44 11 45 12 97 13
REMARK SMILES IDX 46 14 96 15 47 16 48 17 49 18 90 19 50 20 95 21 89 22 91 23
REMARK SMILES IDX 51 24 94 25 88 26 87 27 52 29 78 30 61 31 77 32 62 33 65 34
REMARK SMILES IDX 76 35 92 36 63 37 64 38 75 40 93 41 66 42 53 43 54 44 59 45
REMARK SMILES IDX 55 46 56 47 58 48 60 49 57 50 79 51 80 52 85 53 81 54 82 55
REMARK SMILES IDX 84 56 86 57 83 58 67 59 68 60 73 61 69 62 70 63 72 64 74 65
REMARK SMILES IDX 71 66 11 67 12 68 13 69 14 70 15 71 16 72 17 73 18 74 29 75
REMARK SMILES IDX 30 76 43 77 31 79 42 80 32 81 33 83 34 84 35 85 36 86 37 87
REMARK SMILES IDX 41 88 38 89 40 90 39 91 19 92 20 93 28 94 21 95 22 96 27 97
REMARK SMILES IDX 23 99 26 100 24 101 25 102
REMARK H PARENT 91 28 65 39 29 78 32 82 21 98
REMARK Flexibility Score: inf
ROOT
ATOM      1  C   UNL     1       5.577  -1.007  -3.114  1.00  0.00     0.188 C 
ENDROOT
BRANCH   1   2
ATOM      2  O   UNL     1       6.642  -1.921  -2.908  1.00  0.00    -0.377 OA
BRANCH   2   3
ATOM      3  C   UNL     1       6.636  -2.591  -1.661  1.00  0.00     0.188 C 
BRANCH   3   4
ATOM      4  C   UNL     1       6.582  -1.665  -0.450  1.00  0.00     0.188 C 
BRANCH   4   5
ATOM      5  O   UNL     1       5.375  -0.901  -0.408  1.00  0.00    -0.376 OA
BRANCH   5   6
ATOM      6  C   UNL     1       5.521   0.508  -0.240  1.00  0.00     0.202 C 
BRANCH   6   7
ATOM      7  C   UNL     1       5.533   0.935   1.222  1.00  0.00     0.261 C 
BRANCH   7   8
ATOM      8  O   UNL     1       6.059  -0.068   2.103  1.00  0.00    -0.460 OA
BRANCH   8   9
ATOM      9  C   UNL     1       5.543  -1.283   2.415  1.00  0.00     0.338 C 
ATOM     10  O   UNL     1       6.285  -2.080   2.993  1.00  0.00    -0.246 OA
BRANCH   9  11
ATOM     11  C   UNL     1       4.131  -1.729   2.138  1.00  0.00     0.060 A 
ATOM     12  C   UNL     1       3.174  -1.043   1.384  1.00  0.00     0.016 A 
ATOM     13  C   UNL     1       3.742  -2.952   2.723  1.00  0.00     0.016 A 
ATOM     14  C   UNL     1       1.865  -1.489   1.287  1.00  0.00     0.010 A 
ATOM     15  C   UNL     1       2.418  -3.395   2.667  1.00  0.00     0.010 A 
ATOM     16  C   UNL     1       1.469  -2.610   2.009  1.00  0.00    -0.014 A 
BRANCH  16  17
ATOM     17  C   UNL     1       0.041  -2.669   2.361  1.00  0.00     0.031 A 
ATOM     18  C   UNL     1      -0.353  -2.026   3.664  1.00  0.00     0.074 A 
ATOM     19  C   UNL     1      -0.866  -3.062   1.454  1.00  0.00     0.049 A 
ATOM     20  N   UNL     1      -1.532  -1.881   4.202  1.00  0.00    -0.248 NA
ATOM     21  C   UNL     1       0.741  -1.429   4.457  1.00  0.00     0.031 C 
ATOM     22  C   UNL     1      -0.557  -3.525   0.100  1.00  0.00     0.029 A 
ATOM     23  N   UNL     1      -2.230  -3.088   1.520  1.00  0.00    -0.354 N 
ATOM     24  C   UNL     1      -1.315  -1.210   5.401  1.00  0.00     0.074 A 
ATOM     25  C   UNL     1       0.101  -0.970   5.517  1.00  0.00     0.031 C 
ATOM     26  C   UNL     1      -1.709  -3.777  -0.545  1.00  0.00     0.029 A 
ATOM     27  C   UNL     1      -2.823  -3.549   0.370  1.00  0.00     0.049 A 
ATOM     28  H   UNL     1      -2.739  -2.804   2.313  1.00  0.00     0.167 HD
ATOM     29  C   UNL     1      -2.226  -0.839   6.327  1.00  0.00     0.037 A 
ATOM     30  C   UNL     1      -4.124  -3.782   0.120  1.00  0.00     0.037 A 
ATOM     31  C   UNL     1      -3.628  -1.102   6.177  1.00  0.00     0.049 A 
ATOM     32  C   UNL     1      -5.109  -3.476   1.218  1.00  0.00     0.074 A 
ATOM     33  C   UNL     1      -4.658  -0.865   7.065  1.00  0.00     0.029 A 
ATOM     34  N   UNL     1      -4.191  -1.676   5.043  1.00  0.00    -0.354 N 
ATOM     35  N   UNL     1      -4.897  -2.924   2.392  1.00  0.00    -0.248 NA
ATOM     36  C   UNL     1      -6.509  -3.832   0.965  1.00  0.00     0.031 C 
ATOM     37  C   UNL     1      -5.838  -1.346   6.487  1.00  0.00     0.029 A 
ATOM     38  C   UNL     1      -5.553  -1.820   5.213  1.00  0.00     0.049 A 
ATOM     39  H   UNL     1      -3.691  -1.941   4.237  1.00  0.00     0.167 HD
ATOM     40  C   UNL     1      -6.138  -2.838   3.006  1.00  0.00     0.074 A 
ATOM     41  C   UNL     1      -7.099  -3.384   2.065  1.00  0.00     0.031 C 
ATOM     42  C   UNL     1      -6.465  -2.356   4.232  1.00  0.00     0.037 A 
BRANCH  29  43
ATOM     43  C   UNL     1      -1.700  -0.227   7.593  1.00  0.00     0.057 A 
ATOM     44  C   UNL     1      -1.137   1.057   7.637  1.00  0.00     0.134 A 
ATOM     45  C   UNL     1      -1.693  -0.972   8.780  1.00  0.00     0.134 A 
ATOM     46  F   UNL     1      -1.075   1.811   6.529  1.00  0.00    -0.206 F 
ATOM     47  C   UNL     1      -0.557   1.561   8.805  1.00  0.00     0.040 A 
ATOM     48  C   UNL     1      -1.141  -0.468   9.959  1.00  0.00     0.040 A 
ATOM     49  F   UNL     1      -2.202  -2.212   8.807  1.00  0.00    -0.206 F 
ATOM     50  C   UNL     1      -0.560   0.798   9.971  1.00  0.00     0.006 A 
ENDBRANCH  29  43
BRANCH  30  51
ATOM     51  C   UNL     1      -4.554  -4.369  -1.176  1.00  0.00     0.057 A 
ATOM     52  C   UNL     1      -5.388  -3.673  -2.058  1.00  0.00     0.134 A 
ATOM     53  C   UNL     1      -4.159  -5.659  -1.556  1.00  0.00     0.134 A 
ATOM     54  F   UNL     1      -5.819  -2.440  -1.750  1.00  0.00    -0.206 F 
ATOM     55  C   UNL     1      -5.830  -4.243  -3.256  1.00  0.00     0.040 A 
ATOM     56  C   UNL     1      -4.567  -6.230  -2.762  1.00  0.00     0.040 A 
ATOM     57  F   UNL     1      -3.360  -6.386  -0.760  1.00  0.00    -0.206 F 
ATOM     58  C   UNL     1      -5.414  -5.524  -3.612  1.00  0.00     0.006 A 
ENDBRANCH  30  51
BRANCH  42  59
ATOM     59  C   UNL     1      -7.921  -2.344   4.585  1.00  0.00     0.057 A 
ATOM     60  C   UNL     1      -8.627  -3.518   4.872  1.00  0.00     0.134 A 
ATOM     61  C   UNL     1      -8.610  -1.128   4.680  1.00  0.00     0.134 A 
ATOM     62  F   UNL     1      -8.023  -4.714   4.787  1.00  0.00    -0.206 F 
ATOM     63  C   UNL     1      -9.978  -3.485   5.212  1.00  0.00     0.040 A 
ATOM     64  C   UNL     1      -9.951  -1.080   5.053  1.00  0.00     0.040 A 
ATOM     65  F   UNL     1      -7.983   0.032   4.431  1.00  0.00    -0.206 F 
ATOM     66  C   UNL     1     -10.641  -2.263   5.311  1.00  0.00     0.006 A 
ENDBRANCH  42  59
ENDBRANCH  16  17
ENDBRANCH   9  11
ENDBRANCH   8   9
ENDBRANCH   7   8
ENDBRANCH   6   7
ENDBRANCH   5   6
ENDBRANCH   4   5
ENDBRANCH   3   4
ENDBRANCH   2   3
ENDBRANCH   1   2
BRANCH   1  67
ATOM     67  C   UNL     1       4.122  -1.469  -2.829  1.00  0.00     0.188 C 
BRANCH  67  68
ATOM     68  O   UNL     1       3.949  -2.876  -2.792  1.00  0.00    -0.376 OA
BRANCH  68  69
ATOM     69  C   UNL     1       3.502  -3.475  -4.001  1.00  0.00     0.202 C 
BRANCH  69  70
ATOM     70  C   UNL     1       4.472  -3.362  -5.186  1.00  0.00     0.261 C 
BRANCH  70  71
ATOM     71  O   UNL     1       4.777  -2.034  -5.661  1.00  0.00    -0.459 OA
BRANCH  71  72
ATOM     72  C   UNL     1       3.769  -1.122  -5.802  1.00  0.00     0.370 C 
ATOM     73  O   UNL     1       2.585  -1.408  -5.776  1.00  0.00    -0.245 OA
BRANCH  72  74
ATOM     74  C   UNL     1       4.354   0.317  -5.934  1.00  0.00     0.328 C 
BRANCH  74  75
ATOM     75  N   UNL     1       4.019   0.898  -7.241  1.00  0.00    -0.310 N 
ATOM     76  C   UNL     1       2.937   0.322  -8.058  1.00  0.00     0.325 C 
ATOM     77  C   UNL     1       3.923   2.345  -7.256  1.00  0.00     0.325 C 
ATOM     78  H   UNL     1       4.865   0.587  -7.719  1.00  0.00     0.349 HD
ATOM     79  C   UNL     1       1.535   0.917  -7.785  1.00  0.00     0.325 C 
ATOM     80  C   UNL     1       2.531   2.928  -6.923  1.00  0.00     0.325 C 
ATOM     81  N   UNL     1       1.468   2.391  -7.757  1.00  0.00    -0.318 N 
ATOM     82  H   UNL     1       0.562   2.592  -7.333  1.00  0.00     0.348 HD
BRANCH  81  83
ATOM     83  C   UNL     1       1.328   3.096  -9.040  1.00  0.00     0.364 C 
BRANCH  83  84
ATOM     84  C   UNL     1       2.444   2.962 -10.087  1.00  0.00     0.277 C 
ATOM     85  O   UNL     1       2.389   2.015 -10.883  1.00  0.00    -0.268 OA
ATOM     86  N   UNL     1       3.437   3.946 -10.219  1.00  0.00    -0.333 N 
ATOM     87  C   UNL     1       4.028   4.780  -9.154  1.00  0.00     0.148 C 
ATOM     88  C   UNL     1       4.287   3.850 -11.404  1.00  0.00     0.148 C 
ATOM     89  C   UNL     1       4.741   6.051  -9.609  1.00  0.00     0.181 C 
ATOM     90  C   UNL     1       4.811   5.228 -11.803  1.00  0.00     0.181 C 
ATOM     91  O   UNL     1       5.579   5.807 -10.741  1.00  0.00    -0.378 OA
ENDBRANCH  83  84
ENDBRANCH  81  83
ENDBRANCH  74  75
BRANCH  74  92
ATOM     92  C   UNL     1       4.053   1.265  -4.735  1.00  0.00     0.046 A 
ATOM     93  C   UNL     1       2.846   1.409  -4.065  1.00  0.00     0.094 A 
ATOM     94  C   UNL     1       4.943   2.253  -4.121  1.00  0.00     0.009 A 
ATOM     95  N   UNL     1       2.907   2.503  -3.244  1.00  0.00    -0.361 N 
ATOM     96  C   UNL     1       4.169   3.042  -3.260  1.00  0.00     0.049 A 
ATOM     97  C   UNL     1       6.313   2.597  -4.254  1.00  0.00     0.014 A 
ATOM     98  H   UNL     1       2.153   2.853  -2.717  1.00  0.00     0.166 HD
ATOM     99  C   UNL     1       4.664   4.172  -2.591  1.00  0.00     0.065 A 
ATOM    100  C   UNL     1       6.837   3.698  -3.550  1.00  0.00     0.040 A 
ATOM    101  C   UNL     1       6.012   4.476  -2.752  1.00  0.00     0.125 A 
ATOM    102  F   UNL     1       6.521   5.541  -2.116  1.00  0.00    -0.207 F 
ENDBRANCH  74  92
ENDBRANCH  72  74
ENDBRANCH  71  72
ENDBRANCH  70  71
ENDBRANCH  69  70
ENDBRANCH  68  69
ENDBRANCH  67  68
ENDBRANCH   1  67
TORSDOF 24
