REMARK SMILES CCCN1CCC[C@@]2(CCN(c3ccc(C(=O)OCCOCCOCCOCCOC(=O)c4ccc(-c5c6nc(c(-c7c(F)cccc7F)c7ccc([nH]7)c(-c7c(F)cccc7F)c7nc(c(-c8c(F)cccc8F)c8ccc5[nH]8)C=C7)C=C6)cc4)cn3)C2)C1=O
REMARK SMILES IDX 23 1 22 2 21 3 20 4 19 5 18 6 16 7 17 8 15 9 12 10 13 11
REMARK SMILES IDX 88 12 14 13 87 14 11 15 4 16 5 17 90 18 6 19 8 20 91 21 7 22
REMARK SMILES IDX 9 23 89 24 10 25 3 26 2 27 1 28 24 29 25 30 26 31 27 32
REMARK SMILES IDX 28 33 29 34 30 35 31 36 32 37 33 38 34 39 86 40 35 41 85 42
REMARK SMILES IDX 36 43 37 44 38 45 79 46 39 47 84 48 78 49 80 50 40 51 83 52
REMARK SMILES IDX 77 53 76 54 41 56 67 57 50 58 66 59 51 60 54 61 65 62 81 63
REMARK SMILES IDX 52 64 53 65 64 67 82 68 55 69 42 70 43 71 48 72 44 73 45 74
REMARK SMILES IDX 47 75 49 76 46 77 68 78 69 79 74 80 70 81 71 82 73 83 75 84
REMARK SMILES IDX 72 85 56 86 57 87 62 88 58 89 59 90 61 91 63 92 60 93
REMARK H PARENT 80 55 54 66
REMARK Flexibility Score: inf
ROOT
ATOM      1  C   UNL     1       2.310  -1.900 -12.374  1.00  0.00     0.188 C 
ENDROOT
BRANCH   1   2
ATOM      2  C   UNL     1       2.876  -0.478 -12.563  1.00  0.00     0.188 C 
BRANCH   2   3
ATOM      3  O   UNL     1       3.996  -0.437 -13.429  1.00  0.00    -0.376 OA
BRANCH   3   4
ATOM      4  C   UNL     1       5.304  -0.325 -12.905  1.00  0.00     0.202 C 
BRANCH   4   5
ATOM      5  C   UNL     1       5.811  -1.246 -11.784  1.00  0.00     0.261 C 
BRANCH   5   6
ATOM      6  O   UNL     1       4.871  -1.629 -10.779  1.00  0.00    -0.460 OA
BRANCH   6   7
ATOM      7  C   UNL     1       4.541  -0.715  -9.842  1.00  0.00     0.339 C 
ATOM      8  O   UNL     1       4.969   0.416  -9.739  1.00  0.00    -0.246 OA
BRANCH   7   9
ATOM      9  C   UNL     1       3.415  -1.272  -9.069  1.00  0.00     0.078 A 
ATOM     10  C   UNL     1       1.208  -2.178  -7.691  1.00  0.00     0.128 A 
ATOM     11  C   UNL     1       2.240  -3.064  -8.012  1.00  0.00     0.048 A 
ATOM     12  N   UNL     1       1.230  -0.891  -8.094  1.00  0.00    -0.238 NA
ATOM     13  C   UNL     1       3.351  -2.615  -8.716  1.00  0.00     0.021 A 
ATOM     14  C   UNL     1       2.335  -0.460  -8.755  1.00  0.00     0.129 A 
BRANCH  10  15
ATOM     15  N   UNL     1       0.248  -2.607  -6.793  1.00  0.00    -0.356 N 
ATOM     16  N   UNL     1       0.384  -1.235  -2.702  1.00  0.00    -0.342 N 
ATOM     17  C   UNL     1       0.613  -2.379  -1.830  1.00  0.00     0.119 C 
ATOM     18  C   UNL     1      -0.524  -1.313  -3.756  1.00  0.00     0.230 C 
ATOM     19  C   UNL     1       0.688  -3.701  -2.573  1.00  0.00     0.023 C 
ATOM     20  C   UNL     1      -0.510  -2.644  -4.518  1.00  0.00     0.069 C 
ATOM     21  O   UNL     1      -1.174  -0.342  -4.139  1.00  0.00    -0.274 OA
ATOM     22  C   UNL     1      -0.482  -3.828  -3.546  1.00  0.00     0.021 C 
ATOM     23  C   UNL     1      -1.676  -2.730  -5.526  1.00  0.00     0.040 C 
ATOM     24  C   UNL     1       0.748  -2.639  -5.418  1.00  0.00     0.135 C 
ATOM     25  C   UNL     1      -1.108  -2.088  -6.799  1.00  0.00     0.119 C 
BRANCH  16  26
ATOM     26  C   UNL     1       0.903   0.076  -2.316  1.00  0.00     0.119 C 
BRANCH  26  27
ATOM     27  C   UNL     1       0.262   0.716  -1.086  1.00  0.00     0.018 C 
ATOM     28  C   UNL     1       0.795   0.170   0.231  1.00  0.00     0.006 C 
ENDBRANCH  26  27
ENDBRANCH  16  26
ENDBRANCH  10  15
ENDBRANCH   7   9
ENDBRANCH   6   7
ENDBRANCH   5   6
ENDBRANCH   4   5
ENDBRANCH   3   4
ENDBRANCH   2   3
ENDBRANCH   1   2
BRANCH   1  29
ATOM     29  O   UNL     1       3.159  -2.967 -12.769  1.00  0.00    -0.377 OA
BRANCH  29  30
ATOM     30  C   UNL     1       3.526  -3.104 -14.142  1.00  0.00     0.188 C 
BRANCH  30  31
ATOM     31  C   UNL     1       2.970  -2.193 -15.268  1.00  0.00     0.188 C 
BRANCH  31  32
ATOM     32  O   UNL     1       1.764  -1.520 -14.955  1.00  0.00    -0.376 OA
BRANCH  32  33
ATOM     33  C   UNL     1       0.568  -1.957 -15.573  1.00  0.00     0.202 C 
BRANCH  33  34
ATOM     34  C   UNL     1       0.085  -3.368 -15.216  1.00  0.00     0.261 C 
BRANCH  34  35
ATOM     35  O   UNL     1       1.040  -4.424 -15.402  1.00  0.00    -0.460 OA
BRANCH  35  36
ATOM     36  C   UNL     1       1.417  -4.697 -16.673  1.00  0.00     0.338 C 
ATOM     37  O   UNL     1       1.037  -4.155 -17.687  1.00  0.00    -0.246 OA
BRANCH  36  38
ATOM     38  C   UNL     1       2.528  -5.671 -16.601  1.00  0.00     0.060 A 
ATOM     39  C   UNL     1       3.784  -5.313 -17.107  1.00  0.00     0.016 A 
ATOM     40  C   UNL     1       2.328  -6.927 -16.024  1.00  0.00     0.016 A 
ATOM     41  C   UNL     1       4.839  -6.226 -17.064  1.00  0.00     0.010 A 
ATOM     42  C   UNL     1       3.379  -7.847 -16.001  1.00  0.00     0.010 A 
ATOM     43  C   UNL     1       4.630  -7.511 -16.548  1.00  0.00    -0.014 A 
BRANCH  43  44
ATOM     44  C   UNL     1       5.657  -8.564 -16.743  1.00  0.00     0.031 A 
ATOM     45  C   UNL     1       5.472  -9.541 -17.873  1.00  0.00     0.074 A 
ATOM     46  C   UNL     1       6.734  -8.650 -15.944  1.00  0.00     0.049 A 
ATOM     47  N   UNL     1       6.193 -10.582 -18.198  1.00  0.00    -0.248 NA
ATOM     48  C   UNL     1       4.313  -9.311 -18.752  1.00  0.00     0.031 C 
ATOM     49  C   UNL     1       7.047  -7.743 -14.842  1.00  0.00     0.029 A 
ATOM     50  N   UNL     1       7.762  -9.561 -15.933  1.00  0.00    -0.354 N 
ATOM     51  C   UNL     1       5.571 -11.137 -19.310  1.00  0.00     0.074 A 
ATOM     52  C   UNL     1       4.400 -10.335 -19.587  1.00  0.00     0.031 C 
ATOM     53  C   UNL     1       8.182  -8.153 -14.249  1.00  0.00     0.029 A 
ATOM     54  C   UNL     1       8.655  -9.371 -14.905  1.00  0.00     0.049 A 
ATOM     55  H   UNL     1       7.851 -10.281 -16.598  1.00  0.00     0.167 HD
ATOM     56  C   UNL     1       5.947 -12.214 -20.038  1.00  0.00     0.037 A 
ATOM     57  C   UNL     1       9.712 -10.114 -14.524  1.00  0.00     0.037 A 
ATOM     58  C   UNL     1       7.113 -13.010 -19.761  1.00  0.00     0.049 A 
ATOM     59  C   UNL     1      10.065 -11.355 -15.307  1.00  0.00     0.074 A 
ATOM     60  C   UNL     1       7.591 -14.107 -20.455  1.00  0.00     0.029 A 
ATOM     61  N   UNL     1       7.978 -12.800 -18.698  1.00  0.00    -0.354 N 
ATOM     62  N   UNL     1       9.491 -11.853 -16.375  1.00  0.00    -0.248 NA
ATOM     63  C   UNL     1      11.217 -12.135 -14.830  1.00  0.00     0.031 C 
ATOM     64  C   UNL     1       8.710 -14.599 -19.777  1.00  0.00     0.029 A 
ATOM     65  C   UNL     1       8.969 -13.768 -18.699  1.00  0.00     0.049 A 
ATOM     66  H   UNL     1       7.899 -12.072 -18.040  1.00  0.00     0.167 HD
ATOM     67  C   UNL     1      10.230 -12.980 -16.717  1.00  0.00     0.074 A 
ATOM     68  C   UNL     1      11.303 -13.084 -15.751  1.00  0.00     0.031 C 
ATOM     69  C   UNL     1      10.040 -13.851 -17.739  1.00  0.00     0.037 A 
BRANCH  56  70
ATOM     70  C   UNL     1       5.073 -12.617 -21.190  1.00  0.00     0.057 A 
ATOM     71  C   UNL     1       4.997 -11.859 -22.366  1.00  0.00     0.134 A 
ATOM     72  C   UNL     1       4.337 -13.808 -21.140  1.00  0.00     0.134 A 
ATOM     73  F   UNL     1       5.664 -10.701 -22.474  1.00  0.00    -0.206 F 
ATOM     74  C   UNL     1       4.207 -12.264 -23.444  1.00  0.00     0.040 A 
ATOM     75  C   UNL     1       3.567 -14.237 -22.222  1.00  0.00     0.040 A 
ATOM     76  F   UNL     1       4.367 -14.582 -20.045  1.00  0.00    -0.206 F 
ATOM     77  C   UNL     1       3.497 -13.461 -23.377  1.00  0.00     0.006 A 
ENDBRANCH  56  70
BRANCH  57  78
ATOM     78  C   UNL     1      10.506  -9.734 -13.325  1.00  0.00     0.057 A 
ATOM     79  C   UNL     1      11.845  -9.341 -13.432  1.00  0.00     0.134 A 
ATOM     80  C   UNL     1       9.958  -9.804 -12.038  1.00  0.00     0.134 A 
ATOM     81  F   UNL     1      12.437  -9.280 -14.634  1.00  0.00    -0.206 F 
ATOM     82  C   UNL     1      12.619  -9.060 -12.303  1.00  0.00     0.040 A 
ATOM     83  C   UNL     1      10.711  -9.495 -10.903  1.00  0.00     0.040 A 
ATOM     84  F   UNL     1       8.681 -10.174 -11.863  1.00  0.00    -0.206 F 
ATOM     85  C   UNL     1      12.050  -9.133 -11.034  1.00  0.00     0.006 A 
ENDBRANCH  57  78
BRANCH  69  86
ATOM     86  C   UNL     1      11.037 -14.964 -17.898  1.00  0.00     0.057 A 
ATOM     87  C   UNL     1      11.110 -16.035 -16.998  1.00  0.00     0.134 A 
ATOM     88  C   UNL     1      11.908 -14.985 -18.997  1.00  0.00     0.134 A 
ATOM     89  F   UNL     1      10.313 -16.073 -15.920  1.00  0.00    -0.206 F 
ATOM     90  C   UNL     1      12.031 -17.071 -17.169  1.00  0.00     0.040 A 
ATOM     91  C   UNL     1      12.810 -16.032 -19.196  1.00  0.00     0.040 A 
ATOM     92  F   UNL     1      11.883 -13.998 -19.905  1.00  0.00    -0.206 F 
ATOM     93  C   UNL     1      12.879 -17.075 -18.276  1.00  0.00     0.006 A 
ENDBRANCH  69  86
ENDBRANCH  43  44
ENDBRANCH  36  38
ENDBRANCH  35  36
ENDBRANCH  34  35
ENDBRANCH  33  34
ENDBRANCH  32  33
ENDBRANCH  31  32
ENDBRANCH  30  31
ENDBRANCH  29  30
ENDBRANCH   1  29
TORSDOF 23
