REMARK SMILES CCc1ccc2nc(O)c(C(=O)OCCOCCOCCOCCOC(=O)c3ccc(-c4c5nc(c(-c6c(F)cccc6F)c6ccc([nH]6)c(-c6c(F)cccc6F)c6nc(c(-c7c(F)cccc7F)c7ccc4[nH]7)C=C6)C=C5)cc3)cc2c1
REMARK SMILES IDX 20 1 19 2 18 3 17 4 16 5 15 6 14 7 13 8 11 9 12 10 10 11
REMARK SMILES IDX 3 12 4 13 84 14 5 15 83 16 6 17 82 18 7 19 8 20 2 21 1 22
REMARK SMILES IDX 9 23 21 25 22 26 23 27 24 28 25 29 26 30 27 31 28 32 29 33
REMARK SMILES IDX 81 34 30 35 80 36 31 37 32 38 33 39 74 40 34 41 79 42 73 43
REMARK SMILES IDX 75 44 35 45 78 46 72 47 71 48 36 50 62 51 45 52 61 53 46 54
REMARK SMILES IDX 49 55 60 56 76 57 47 58 48 59 59 61 77 62 50 63 37 64 38 65
REMARK SMILES IDX 43 66 39 67 40 68 42 69 44 70 41 71 63 72 64 73 69 74 65 75
REMARK SMILES IDX 66 76 68 77 70 78 67 79 51 80 52 81 57 82 53 83 54 84 56 85
REMARK SMILES IDX 58 86 55 87
REMARK H PARENT 9 24 75 49 49 60
REMARK Flexibility Score: inf
ROOT
ATOM      1  C   UNL     1      -2.051 -10.681   1.105  1.00  0.00     0.188 C 
ENDROOT
BRANCH   1   2
ATOM      2  O   UNL     1      -0.932  -9.883   0.726  1.00  0.00    -0.377 OA
BRANCH   2   3
ATOM      3  C   UNL     1      -1.260  -8.575   0.279  1.00  0.00     0.188 C 
BRANCH   3   4
ATOM      4  C   UNL     1      -1.267  -8.461  -1.254  1.00  0.00     0.188 C 
BRANCH   4   5
ATOM      5  O   UNL     1      -1.231  -9.644  -2.028  1.00  0.00    -0.376 OA
BRANCH   5   6
ATOM      6  C   UNL     1      -0.206 -10.620  -1.938  1.00  0.00     0.202 C 
BRANCH   6   7
ATOM      7  C   UNL     1       1.164 -10.479  -1.240  1.00  0.00     0.261 C 
BRANCH   7   8
ATOM      8  O   UNL     1       1.434  -9.292  -0.498  1.00  0.00    -0.459 OA
BRANCH   8   9
ATOM      9  C   UNL     1       1.943  -8.261  -1.206  1.00  0.00     0.343 C 
ATOM     10  O   UNL     1       2.216  -8.256  -2.393  1.00  0.00    -0.246 OA
BRANCH   9  11
ATOM     11  C   UNL     1       1.921  -7.061  -0.353  1.00  0.00     0.122 A 
ATOM     12  C   UNL     1       1.071  -2.299   0.008  1.00  0.00    -0.048 A 
ATOM     13  C   UNL     1       1.524  -2.363   1.328  1.00  0.00     0.006 A 
ATOM     14  C   UNL     1       1.037  -3.487  -0.733  1.00  0.00     0.014 A 
ATOM     15  C   UNL     1       1.910  -3.587   1.893  1.00  0.00     0.029 A 
ATOM     16  C   UNL     1       1.469  -4.700  -0.175  1.00  0.00     0.002 A 
ATOM     17  C   UNL     1       1.877  -4.771   1.171  1.00  0.00     0.074 A 
ATOM     18  C   UNL     1       1.519  -5.864  -0.942  1.00  0.00     0.031 A 
ATOM     19  N   UNL     1       2.221  -5.934   1.755  1.00  0.00    -0.213 NA
ATOM     20  C   UNL     1       2.207  -7.055   1.004  1.00  0.00     0.226 A 
BRANCH  12  21
ATOM     21  C   UNL     1       0.584  -1.033  -0.657  1.00  0.00     0.032 C 
ATOM     22  C   UNL     1       1.005   0.278  -0.009  1.00  0.00     0.009 C 
ENDBRANCH  12  21
BRANCH  20  23
ATOM     23  O   UNL     1       2.448  -8.193   1.720  1.00  0.00    -0.493 OA
ATOM     24  H   UNL     1       2.637  -8.139   2.636  1.00  0.00     0.295 HD
ENDBRANCH  20  23
ENDBRANCH   9  11
ENDBRANCH   8   9
ENDBRANCH   7   8
ENDBRANCH   6   7
ENDBRANCH   5   6
ENDBRANCH   4   5
ENDBRANCH   3   4
ENDBRANCH   2   3
ENDBRANCH   1   2
BRANCH   1  25
ATOM     25  C   UNL     1      -3.247 -10.733   0.133  1.00  0.00     0.188 C 
BRANCH  25  26
ATOM     26  O   UNL     1      -3.844  -9.453  -0.081  1.00  0.00    -0.376 OA
BRANCH  26  27
ATOM     27  C   UNL     1      -5.107  -9.220   0.532  1.00  0.00     0.202 C 
BRANCH  27  28
ATOM     28  C   UNL     1      -5.031  -8.885   2.028  1.00  0.00     0.261 C 
BRANCH  28  29
ATOM     29  O   UNL     1      -4.475  -9.916   2.857  1.00  0.00    -0.460 OA
BRANCH  29  30
ATOM     30  C   UNL     1      -5.094 -11.123   2.854  1.00  0.00     0.338 C 
ATOM     31  O   UNL     1      -6.126 -11.414   2.300  1.00  0.00    -0.246 OA
BRANCH  30  32
ATOM     32  C   UNL     1      -4.165 -12.096   3.478  1.00  0.00     0.060 A 
ATOM     33  C   UNL     1      -3.514 -11.802   4.679  1.00  0.00     0.016 A 
ATOM     34  C   UNL     1      -3.934 -13.316   2.829  1.00  0.00     0.016 A 
ATOM     35  C   UNL     1      -2.674 -12.754   5.258  1.00  0.00     0.010 A 
ATOM     36  C   UNL     1      -3.089 -14.267   3.407  1.00  0.00     0.010 A 
ATOM     37  C   UNL     1      -2.486 -14.007   4.646  1.00  0.00    -0.014 A 
BRANCH  37  38
ATOM     38  C   UNL     1      -1.877 -15.109   5.430  1.00  0.00     0.031 A 
ATOM     39  C   UNL     1      -0.473 -15.580   5.221  1.00  0.00     0.074 A 
ATOM     40  C   UNL     1      -2.655 -15.696   6.359  1.00  0.00     0.049 A 
ATOM     41  N   UNL     1       0.214 -16.443   5.928  1.00  0.00    -0.248 NA
ATOM     42  C   UNL     1       0.249 -15.031   4.067  1.00  0.00     0.031 C 
ATOM     43  C   UNL     1      -4.060 -15.363   6.608  1.00  0.00     0.029 A 
ATOM     44  N   UNL     1      -2.378 -16.679   7.272  1.00  0.00    -0.354 N 
ATOM     45  C   UNL     1       1.462 -16.524   5.325  1.00  0.00     0.074 A 
ATOM     46  C   UNL     1       1.415 -15.661   4.160  1.00  0.00     0.031 C 
ATOM     47  C   UNL     1      -4.511 -16.102   7.632  1.00  0.00     0.029 A 
ATOM     48  C   UNL     1      -3.436 -16.968   8.098  1.00  0.00     0.049 A 
ATOM     49  H   UNL     1      -1.506 -17.134   7.330  1.00  0.00     0.167 HD
ATOM     50  C   UNL     1       2.545 -17.239   5.720  1.00  0.00     0.037 A 
ATOM     51  C   UNL     1      -3.526 -17.825   9.130  1.00  0.00     0.037 A 
ATOM     52  C   UNL     1       2.569 -18.124   6.863  1.00  0.00     0.049 A 
ATOM     53  C   UNL     1      -2.315 -18.613   9.533  1.00  0.00     0.074 A 
ATOM     54  C   UNL     1       3.631 -18.856   7.369  1.00  0.00     0.029 A 
ATOM     55  N   UNL     1       1.475 -18.415   7.665  1.00  0.00    -0.354 N 
ATOM     56  N   UNL     1      -1.109 -18.601   9.021  1.00  0.00    -0.248 NA
ATOM     57  C   UNL     1      -2.479 -19.523  10.673  1.00  0.00     0.031 C 
ATOM     58  C   UNL     1       3.167 -19.626   8.444  1.00  0.00     0.029 A 
ATOM     59  C   UNL     1       1.828 -19.334   8.643  1.00  0.00     0.049 A 
ATOM     60  H   UNL     1       0.577 -18.024   7.557  1.00  0.00     0.167 HD
ATOM     61  C   UNL     1      -0.364 -19.484   9.789  1.00  0.00     0.074 A 
ATOM     62  C   UNL     1      -1.248 -19.988  10.821  1.00  0.00     0.031 C 
ATOM     63  C   UNL     1       0.935 -19.849   9.652  1.00  0.00     0.037 A 
BRANCH  50  64
ATOM     64  C   UNL     1       3.803 -17.093   4.911  1.00  0.00     0.057 A 
ATOM     65  C   UNL     1       4.306 -18.160   4.155  1.00  0.00     0.134 A 
ATOM     66  C   UNL     1       4.549 -15.906   4.922  1.00  0.00     0.134 A 
ATOM     67  F   UNL     1       3.652 -19.330   4.109  1.00  0.00    -0.206 F 
ATOM     68  C   UNL     1       5.501 -18.052   3.440  1.00  0.00     0.040 A 
ATOM     69  C   UNL     1       5.732 -15.777   4.190  1.00  0.00     0.040 A 
ATOM     70  F   UNL     1       4.125 -14.844   5.623  1.00  0.00    -0.206 F 
ATOM     71  C   UNL     1       6.214 -16.855   3.451  1.00  0.00     0.006 A 
ENDBRANCH  50  64
BRANCH  51  72
ATOM     72  C   UNL     1      -4.796 -17.945   9.884  1.00  0.00     0.057 A 
ATOM     73  C   UNL     1      -5.928 -18.541   9.315  1.00  0.00     0.134 A 
ATOM     74  C   UNL     1      -4.901 -17.478  11.199  1.00  0.00     0.134 A 
ATOM     75  F   UNL     1      -5.894 -18.995   8.054  1.00  0.00    -0.206 F 
ATOM     76  C   UNL     1      -7.119 -18.669  10.029  1.00  0.00     0.040 A 
ATOM     77  C   UNL     1      -6.077 -17.625  11.934  1.00  0.00     0.040 A 
ATOM     78  F   UNL     1      -3.845 -16.909  11.799  1.00  0.00    -0.206 F 
ATOM     79  C   UNL     1      -7.192 -18.221  11.347  1.00  0.00     0.006 A 
ENDBRANCH  51  72
BRANCH  63  80
ATOM     80  C   UNL     1       1.462 -20.831  10.660  1.00  0.00     0.057 A 
ATOM     81  C   UNL     1       2.378 -20.429  11.640  1.00  0.00     0.134 A 
ATOM     82  C   UNL     1       1.029 -22.165  10.691  1.00  0.00     0.134 A 
ATOM     83  F   UNL     1       2.841 -19.170  11.666  1.00  0.00    -0.206 F 
ATOM     84  C   UNL     1       2.828 -21.310  12.625  1.00  0.00     0.040 A 
ATOM     85  C   UNL     1       1.447 -23.046  11.690  1.00  0.00     0.040 A 
ATOM     86  F   UNL     1       0.138 -22.611   9.793  1.00  0.00    -0.206 F 
ATOM     87  C   UNL     1       2.350 -22.619  12.661  1.00  0.00     0.006 A 
ENDBRANCH  63  80
ENDBRANCH  37  38
ENDBRANCH  30  32
ENDBRANCH  29  30
ENDBRANCH  28  29
ENDBRANCH  27  28
ENDBRANCH  26  27
ENDBRANCH  25  26
ENDBRANCH   1  25
TORSDOF 22
