REMARK SMILES COc1ccc(CNC(=O)[C@H]2CC(C)=C(C)C[C@@H]2C(=O)OCCOCCOCCOCCOC(=O)c2ccc(-c3c4nc(c(-c5c(F)cccc5F)c5ccc([nH]5)c(-c5c(F)cccc5F)c5nc(c(-c6c(F)cccc6F)c6ccc3[nH]6)C=C5)C=C4)cc2)cc1OC
REMARK SMILES IDX 26 1 25 2 24 3 23 4 22 5 21 6 19 7 20 8 18 9 11 10 12 11
REMARK SMILES IDX 13 12 17 13 14 14 15 15 16 16 9 17 8 18 10 20 7 21 6 22 3 23
REMARK SMILES IDX 4 24 91 25 5 26 90 27 2 28 1 29 92 30 93 31 27 32 28 33
REMARK SMILES IDX 29 34 30 35 31 36 32 37 33 38 34 39 35 40 36 41 37 42 89 43
REMARK SMILES IDX 38 44 88 45 39 46 40 47 41 48 82 49 42 50 87 51 81 52 83 53
REMARK SMILES IDX 43 54 86 55 80 56 79 57 44 59 70 60 53 61 69 62 54 63 57 64
REMARK SMILES IDX 68 65 84 66 55 67 56 68 67 70 85 71 58 72 45 73 46 74 51 75
REMARK SMILES IDX 47 76 48 77 50 78 52 79 49 80 71 81 72 82 77 83 73 84 74 85
REMARK SMILES IDX 76 86 78 87 75 88 59 89 60 90 65 91 61 92 62 93 64 94 66 95
REMARK SMILES IDX 63 96
REMARK H PARENT 8 19 83 58 57 69
REMARK Flexibility Score: inf
ROOT
ATOM      1  C   UNL     1      -2.692 -10.202  -2.172  1.00  0.00     0.188 C 
ENDROOT
BRANCH   1   2
ATOM      2  C   UNL     1      -3.395  -9.405  -3.300  1.00  0.00     0.188 C 
BRANCH   2   3
ATOM      3  O   UNL     1      -4.041 -10.066  -4.380  1.00  0.00    -0.376 OA
BRANCH   3   4
ATOM      4  C   UNL     1      -3.686 -11.398  -4.690  1.00  0.00     0.202 C 
BRANCH   4   5
ATOM      5  C   UNL     1      -2.250 -11.687  -5.154  1.00  0.00     0.261 C 
BRANCH   5   6
ATOM      6  O   UNL     1      -1.187 -10.954  -4.518  1.00  0.00    -0.463 OA
BRANCH   6   7
ATOM      7  C   UNL     1      -0.807  -9.779  -5.097  1.00  0.00     0.310 C 
ATOM      8  O   UNL     1      -1.339  -9.296  -6.087  1.00  0.00    -0.252 OA
BRANCH   7   9
ATOM      9  C   UNL     1       0.383  -9.159  -4.353  1.00  0.00     0.116 C 
ATOM     10  C   UNL     1      -0.023  -8.118  -3.291  1.00  0.00     0.097 C 
ATOM     11  C   UNL     1      -0.421  -6.761  -3.859  1.00  0.00     0.045 C 
ATOM     12  C   UNL     1       0.330  -6.310  -5.083  1.00  0.00    -0.074 C 
ATOM     13  C   UNL     1       1.355  -8.586  -5.387  1.00  0.00     0.046 C 
ATOM     14  C   UNL     1       0.122  -4.849  -5.397  1.00  0.00     0.039 C 
ATOM     15  C   UNL     1       1.107  -7.150  -5.800  1.00  0.00    -0.073 C 
ATOM     16  C   UNL     1       1.767  -6.755  -7.095  1.00  0.00     0.039 C 
BRANCH  10  17
ATOM     17  C   UNL     1       0.817  -8.216  -2.014  1.00  0.00     0.224 C 
ATOM     18  N   UNL     1       1.450  -7.181  -1.417  1.00  0.00    -0.352 N 
ATOM     19  H   UNL     1       1.515  -7.251  -0.437  1.00  0.00     0.163 HD
ATOM     20  O   UNL     1       0.845  -9.293  -1.405  1.00  0.00    -0.275 OA
BRANCH  18  21
ATOM     21  C   UNL     1       2.048  -5.990  -1.976  1.00  0.00     0.151 C 
BRANCH  21  22
ATOM     22  C   UNL     1       1.694  -4.720  -1.240  1.00  0.00    -0.025 A 
ATOM     23  C   UNL     1       1.149  -2.243   0.009  1.00  0.00     0.160 A 
ATOM     24  C   UNL     1       0.135  -3.197  -0.162  1.00  0.00     0.051 A 
ATOM     25  C   UNL     1       2.447  -2.523  -0.424  1.00  0.00     0.161 A 
ATOM     26  C   UNL     1       0.404  -4.424  -0.785  1.00  0.00     0.009 A 
ATOM     27  C   UNL     1       2.694  -3.752  -1.056  1.00  0.00     0.056 A 
BRANCH  23  28
ATOM     28  O   UNL     1       0.843  -1.105   0.707  1.00  0.00    -0.493 OA
ATOM     29  C   UNL     1       0.172  -0.143  -0.108  1.00  0.00     0.278 C 
ENDBRANCH  23  28
BRANCH  25  30
ATOM     30  O   UNL     1       3.579  -1.765  -0.313  1.00  0.00    -0.493 OA
ATOM     31  C   UNL     1       3.472  -0.431   0.152  1.00  0.00     0.278 C 
ENDBRANCH  25  30
ENDBRANCH  21  22
ENDBRANCH  18  21
ENDBRANCH  10  17
ENDBRANCH   7   9
ENDBRANCH   6   7
ENDBRANCH   5   6
ENDBRANCH   4   5
ENDBRANCH   3   4
ENDBRANCH   2   3
ENDBRANCH   1   2
BRANCH   1  32
ATOM     32  O   UNL     1      -3.270 -11.475  -1.935  1.00  0.00    -0.377 OA
BRANCH  32  33
ATOM     33  C   UNL     1      -4.129 -11.527  -0.812  1.00  0.00     0.188 C 
BRANCH  33  34
ATOM     34  C   UNL     1      -5.309 -10.549  -0.870  1.00  0.00     0.188 C 
BRANCH  34  35
ATOM     35  O   UNL     1      -4.866  -9.193  -0.828  1.00  0.00    -0.376 OA
BRANCH  35  36
ATOM     36  C   UNL     1      -5.112  -8.445   0.351  1.00  0.00     0.202 C 
BRANCH  36  37
ATOM     37  C   UNL     1      -4.080  -8.653   1.466  1.00  0.00     0.261 C 
BRANCH  37  38
ATOM     38  O   UNL     1      -3.893 -10.008   1.902  1.00  0.00    -0.460 OA
BRANCH  38  39
ATOM     39  C   UNL     1      -4.964 -10.669   2.389  1.00  0.00     0.338 C 
ATOM     40  O   UNL     1      -6.086 -10.229   2.566  1.00  0.00    -0.246 OA
BRANCH  39  41
ATOM     41  C   UNL     1      -4.598 -12.101   2.464  1.00  0.00     0.060 A 
ATOM     42  C   UNL     1      -5.424 -13.040   1.832  1.00  0.00     0.016 A 
ATOM     43  C   UNL     1      -3.415 -12.506   3.091  1.00  0.00     0.016 A 
ATOM     44  C   UNL     1      -5.075 -14.390   1.837  1.00  0.00     0.010 A 
ATOM     45  C   UNL     1      -3.085 -13.862   3.127  1.00  0.00     0.010 A 
ATOM     46  C   UNL     1      -3.930 -14.811   2.526  1.00  0.00    -0.014 A 
BRANCH  46  47
ATOM     47  C   UNL     1      -3.767 -16.247   2.846  1.00  0.00     0.031 A 
ATOM     48  C   UNL     1      -4.356 -16.737   4.140  1.00  0.00     0.074 A 
ATOM     49  C   UNL     1      -3.142 -17.099   2.016  1.00  0.00     0.049 A 
ATOM     50  N   UNL     1      -4.338 -17.934   4.665  1.00  0.00    -0.248 NA
ATOM     51  C   UNL     1      -5.062 -15.732   4.953  1.00  0.00     0.031 C 
ATOM     52  C   UNL     1      -2.568 -16.753   0.718  1.00  0.00     0.029 A 
ATOM     53  N   UNL     1      -2.885 -18.440   2.155  1.00  0.00    -0.354 N 
ATOM     54  C   UNL     1      -5.031 -17.825   5.864  1.00  0.00     0.074 A 
ATOM     55  C   UNL     1      -5.426 -16.442   6.007  1.00  0.00     0.031 C 
ATOM     56  C   UNL     1      -2.014 -17.856   0.182  1.00  0.00     0.029 A 
ATOM     57  C   UNL     1      -2.173 -18.975   1.110  1.00  0.00     0.049 A 
ATOM     58  H   UNL     1      -3.184 -18.968   2.930  1.00  0.00     0.167 HD
ATOM     59  C   UNL     1      -5.320 -18.792   6.764  1.00  0.00     0.037 A 
ATOM     60  C   UNL     1      -1.692 -20.222   0.940  1.00  0.00     0.037 A 
ATOM     61  C   UNL     1      -4.909 -20.163   6.630  1.00  0.00     0.049 A 
ATOM     62  C   UNL     1      -1.949 -21.265   1.998  1.00  0.00     0.074 A 
ATOM     63  C   UNL     1      -5.154 -21.223   7.482  1.00  0.00     0.029 A 
ATOM     64  N   UNL     1      -4.152 -20.657   5.578  1.00  0.00    -0.354 N 
ATOM     65  N   UNL     1      -2.630 -21.163   3.115  1.00  0.00    -0.248 NA
ATOM     66  C   UNL     1      -1.372 -22.598   1.771  1.00  0.00     0.031 C 
ATOM     67  C   UNL     1      -4.500 -22.350   6.973  1.00  0.00     0.029 A 
ATOM     68  C   UNL     1      -3.896 -22.003   5.774  1.00  0.00     0.049 A 
ATOM     69  H   UNL     1      -3.843 -20.128   4.807  1.00  0.00     0.167 HD
ATOM     70  C   UNL     1      -2.589 -22.421   3.707  1.00  0.00     0.074 A 
ATOM     71  C   UNL     1      -1.823 -23.272   2.820  1.00  0.00     0.031 C 
ATOM     72  C   UNL     1      -3.137 -22.836   4.875  1.00  0.00     0.037 A 
BRANCH  59  73
ATOM     73  C   UNL     1      -6.086 -18.380   7.985  1.00  0.00     0.057 A 
ATOM     74  C   UNL     1      -7.439 -18.017   7.924  1.00  0.00     0.134 A 
ATOM     75  C   UNL     1      -5.461 -18.338   9.237  1.00  0.00     0.134 A 
ATOM     76  F   UNL     1      -8.090 -18.013   6.751  1.00  0.00    -0.206 F 
ATOM     77  C   UNL     1      -8.133 -17.601   9.061  1.00  0.00     0.040 A 
ATOM     78  C   UNL     1      -6.152 -17.950  10.385  1.00  0.00     0.040 A 
ATOM     79  F   UNL     1      -4.167 -18.669   9.364  1.00  0.00    -0.206 F 
ATOM     80  C   UNL     1      -7.491 -17.572  10.297  1.00  0.00     0.006 A 
ENDBRANCH  59  73
BRANCH  60  81
ATOM     81  C   UNL     1      -0.907 -20.560  -0.275  1.00  0.00     0.057 A 
ATOM     82  C   UNL     1      -1.411 -21.432  -1.247  1.00  0.00     0.134 A 
ATOM     83  C   UNL     1       0.377 -20.041  -0.481  1.00  0.00     0.134 A 
ATOM     84  F   UNL     1      -2.623 -21.985  -1.094  1.00  0.00    -0.206 F 
ATOM     85  C   UNL     1      -0.664 -21.786  -2.373  1.00  0.00     0.040 A 
ATOM     86  C   UNL     1       1.126 -20.366  -1.614  1.00  0.00     0.040 A 
ATOM     87  F   UNL     1       0.921 -19.205   0.415  1.00  0.00    -0.206 F 
ATOM     88  C   UNL     1       0.607 -21.247  -2.561  1.00  0.00     0.006 A 
ENDBRANCH  60  81
BRANCH  72  89
ATOM     89  C   UNL     1      -2.966 -24.280   5.247  1.00  0.00     0.057 A 
ATOM     90  C   UNL     1      -1.736 -24.796   5.674  1.00  0.00     0.134 A 
ATOM     91  C   UNL     1      -4.061 -25.154   5.227  1.00  0.00     0.134 A 
ATOM     92  F   UNL     1      -0.645 -24.015   5.707  1.00  0.00    -0.206 F 
ATOM     93  C   UNL     1      -1.597 -26.134   6.048  1.00  0.00     0.040 A 
ATOM     94  C   UNL     1      -3.941 -26.486   5.626  1.00  0.00     0.040 A 
ATOM     95  F   UNL     1      -5.271 -24.721   4.840  1.00  0.00    -0.206 F 
ATOM     96  C   UNL     1      -2.704 -26.980   6.032  1.00  0.00     0.006 A 
ENDBRANCH  72  89
ENDBRANCH  46  47
ENDBRANCH  39  41
ENDBRANCH  38  39
ENDBRANCH  37  38
ENDBRANCH  36  37
ENDBRANCH  35  36
ENDBRANCH  34  35
ENDBRANCH  33  34
ENDBRANCH  32  33
ENDBRANCH   1  32
TORSDOF 25
