REMARK SMILES O=C(OCCOCCOCCOCCOC(=O)c1cc2c(c(S(=O)(=O)Nc3cc(C(F)(F)F)ccc3-n3cccn3)c1)CCC2)c1ccc(-c2c3nc(c(-c4c(F)cccc4F)c4ccc([nH]4)c(-c4c(F)cccc4F)c4nc(c(-c5c(F)cccc5F)c5ccc2[nH]5)C=C4)C=C3)cc1
REMARK SMILES IDX 10 1 9 2 8 3 7 4 6 5 5 6 4 7 3 8 2 9 1 10 46 11 47 12 99 13
REMARK SMILES IDX 48 14 98 15 49 16 50 17 51 18 92 19 52 20 97 21 91 22 93 23
REMARK SMILES IDX 53 24 96 25 90 26 89 27 54 29 80 30 63 31 79 32 64 33 67 34
REMARK SMILES IDX 78 35 94 36 65 37 66 38 77 40 95 41 68 42 55 43 56 44 61 45
REMARK SMILES IDX 57 46 58 47 60 48 62 49 59 50 81 51 82 52 87 53 83 54 84 55
REMARK SMILES IDX 86 56 88 57 85 58 69 59 70 60 75 61 71 62 72 63 74 64 76 65
REMARK SMILES IDX 73 66 11 67 12 68 13 69 14 70 15 71 16 72 17 73 18 74 19 75
REMARK SMILES IDX 42 76 20 77 22 78 21 79 45 80 43 81 44 82 23 83 24 84 25 85
REMARK SMILES IDX 26 86 27 88 28 89 36 90 29 91 35 92 34 93 37 94 38 95 41 96
REMARK SMILES IDX 39 97 40 98 30 99 31 100 32 101 33 102
REMARK H PARENT 93 28 67 39 26 87
REMARK Flexibility Score: inf
ROOT
ATOM      1  C   UNL     1       4.079   3.303   0.730  1.00  0.00     0.188 C 
ENDROOT
BRANCH   1   2
ATOM      2  O   UNL     1       2.748   3.158   1.165  1.00  0.00    -0.377 OA
BRANCH   2   3
ATOM      3  C   UNL     1       2.202   1.882   0.891  1.00  0.00     0.188 C 
BRANCH   3   4
ATOM      4  C   UNL     1       2.941   0.641   1.434  1.00  0.00     0.188 C 
BRANCH   4   5
ATOM      5  O   UNL     1       4.225   0.150   1.073  1.00  0.00    -0.376 OA
BRANCH   5   6
ATOM      6  C   UNL     1       5.009   0.327  -0.087  1.00  0.00     0.202 C 
BRANCH   6   7
ATOM      7  C   UNL     1       4.486   0.148  -1.510  1.00  0.00     0.261 C 
BRANCH   7   8
ATOM      8  O   UNL     1       3.117   0.461  -1.702  1.00  0.00    -0.460 OA
BRANCH   8   9
ATOM      9  C   UNL     1       2.058  -0.334  -1.464  1.00  0.00     0.338 C 
ATOM     10  O   UNL     1       0.942   0.070  -1.790  1.00  0.00    -0.246 OA
BRANCH   9  11
ATOM     11  C   UNL     1       2.131  -1.633  -0.746  1.00  0.00     0.060 A 
ATOM     12  C   UNL     1       3.257  -2.447  -0.603  1.00  0.00     0.016 A 
ATOM     13  C   UNL     1       0.902  -2.069  -0.213  1.00  0.00     0.016 A 
ATOM     14  C   UNL     1       3.114  -3.750  -0.187  1.00  0.00     0.010 A 
ATOM     15  C   UNL     1       0.757  -3.357   0.248  1.00  0.00     0.010 A 
ATOM     16  C   UNL     1       1.842  -4.210   0.127  1.00  0.00    -0.014 A 
BRANCH  16  17
ATOM     17  C   UNL     1       1.684  -5.638   0.270  1.00  0.00     0.031 A 
ATOM     18  C   UNL     1       2.432  -6.209   1.414  1.00  0.00     0.074 A 
ATOM     19  C   UNL     1       0.905  -6.298  -0.609  1.00  0.00     0.049 A 
ATOM     20  N   UNL     1       3.377  -7.090   1.385  1.00  0.00    -0.248 NA
ATOM     21  C   UNL     1       2.232  -5.587   2.734  1.00  0.00     0.031 C 
ATOM     22  C   UNL     1       0.023  -5.736  -1.640  1.00  0.00     0.029 A 
ATOM     23  N   UNL     1       0.656  -7.630  -0.693  1.00  0.00    -0.354 N 
ATOM     24  C   UNL     1       3.733  -7.298   2.716  1.00  0.00     0.074 A 
ATOM     25  C   UNL     1       3.137  -6.231   3.470  1.00  0.00     0.031 C 
ATOM     26  C   UNL     1      -0.845  -6.684  -2.055  1.00  0.00     0.029 A 
ATOM     27  C   UNL     1      -0.482  -7.940  -1.434  1.00  0.00     0.049 A 
ATOM     28  H   UNL     1       1.226  -8.312  -0.270  1.00  0.00     0.167 HD
ATOM     29  C   UNL     1       4.247  -8.493   3.112  1.00  0.00     0.037 A 
ATOM     30  C   UNL     1      -1.116  -9.138  -1.415  1.00  0.00     0.037 A 
ATOM     31  C   UNL     1       4.869  -9.175   2.004  1.00  0.00     0.049 A 
ATOM     32  C   UNL     1      -0.138 -10.136  -0.902  1.00  0.00     0.074 A 
ATOM     33  C   UNL     1       5.926  -8.887   1.161  1.00  0.00     0.029 A 
ATOM     34  N   UNL     1       4.160 -10.174   1.382  1.00  0.00    -0.354 N 
ATOM     35  N   UNL     1       0.936 -10.488  -1.557  1.00  0.00    -0.248 NA
ATOM     36  C   UNL     1      -0.085 -10.339   0.540  1.00  0.00     0.031 C 
ATOM     37  C   UNL     1       5.521  -9.369  -0.118  1.00  0.00     0.029 A 
ATOM     38  C   UNL     1       4.279  -9.989   0.030  1.00  0.00     0.049 A 
ATOM     39  H   UNL     1       3.656 -10.893   1.828  1.00  0.00     0.167 HD
ATOM     40  C   UNL     1       1.935 -10.550  -0.595  1.00  0.00     0.074 A 
ATOM     41  C   UNL     1       1.234 -10.501   0.687  1.00  0.00     0.031 C 
ATOM     42  C   UNL     1       3.245 -10.336  -0.917  1.00  0.00     0.037 A 
BRANCH  29  43
ATOM     43  C   UNL     1       3.767  -9.220   4.351  1.00  0.00     0.057 A 
ATOM     44  C   UNL     1       4.324 -10.477   4.651  1.00  0.00     0.134 A 
ATOM     45  C   UNL     1       2.585  -8.911   5.057  1.00  0.00     0.134 A 
ATOM     46  F   UNL     1       5.460 -10.885   4.066  1.00  0.00    -0.206 F 
ATOM     47  C   UNL     1       3.683 -11.402   5.484  1.00  0.00     0.040 A 
ATOM     48  C   UNL     1       1.960  -9.812   5.923  1.00  0.00     0.040 A 
ATOM     49  F   UNL     1       1.911  -7.769   4.891  1.00  0.00    -0.206 F 
ATOM     50  C   UNL     1       2.485 -11.078   6.106  1.00  0.00     0.006 A 
ENDBRANCH  29  43
BRANCH  30  51
ATOM     51  C   UNL     1      -2.579  -9.366  -1.415  1.00  0.00     0.057 A 
ATOM     52  C   UNL     1      -3.117 -10.630  -1.688  1.00  0.00     0.134 A 
ATOM     53  C   UNL     1      -3.475  -8.415  -0.891  1.00  0.00     0.134 A 
ATOM     54  F   UNL     1      -2.332 -11.617  -2.143  1.00  0.00    -0.206 F 
ATOM     55  C   UNL     1      -4.464 -10.935  -1.443  1.00  0.00     0.040 A 
ATOM     56  C   UNL     1      -4.822  -8.703  -0.649  1.00  0.00     0.040 A 
ATOM     57  F   UNL     1      -3.056  -7.199  -0.513  1.00  0.00    -0.206 F 
ATOM     58  C   UNL     1      -5.319  -9.971  -0.914  1.00  0.00     0.006 A 
ENDBRANCH  30  51
BRANCH  42  59
ATOM     59  C   UNL     1       3.602 -10.224  -2.374  1.00  0.00     0.057 A 
ATOM     60  C   UNL     1       3.165  -9.185  -3.212  1.00  0.00     0.134 A 
ATOM     61  C   UNL     1       4.553 -11.102  -2.903  1.00  0.00     0.134 A 
ATOM     62  F   UNL     1       2.336  -8.236  -2.760  1.00  0.00    -0.206 F 
ATOM     63  C   UNL     1       3.623  -9.053  -4.527  1.00  0.00     0.040 A 
ATOM     64  C   UNL     1       5.043 -10.963  -4.204  1.00  0.00     0.040 A 
ATOM     65  F   UNL     1       5.063 -12.082  -2.141  1.00  0.00    -0.206 F 
ATOM     66  C   UNL     1       4.571  -9.942  -5.024  1.00  0.00     0.006 A 
ENDBRANCH  42  59
ENDBRANCH  16  17
ENDBRANCH   9  11
ENDBRANCH   8   9
ENDBRANCH   7   8
ENDBRANCH   6   7
ENDBRANCH   5   6
ENDBRANCH   4   5
ENDBRANCH   3   4
ENDBRANCH   2   3
ENDBRANCH   1   2
BRANCH   1  67
ATOM     67  C   UNL     1       5.110   3.114   1.862  1.00  0.00     0.188 C 
BRANCH  67  68
ATOM     68  O   UNL     1       4.704   2.702   3.157  1.00  0.00    -0.376 OA
BRANCH  68  69
ATOM     69  C   UNL     1       3.565   3.261   3.791  1.00  0.00     0.202 C 
BRANCH  69  70
ATOM     70  C   UNL     1       3.231   4.763   3.750  1.00  0.00     0.261 C 
BRANCH  70  71
ATOM     71  O   UNL     1       3.577   5.484   2.565  1.00  0.00    -0.460 OA
BRANCH  71  72
ATOM     72  C   UNL     1       4.782   6.114   2.562  1.00  0.00     0.338 C 
ATOM     73  O   UNL     1       5.606   6.146   3.444  1.00  0.00    -0.246 OA
BRANCH  72  74
ATOM     74  C   UNL     1       4.991   6.653   1.196  1.00  0.00     0.061 A 
ATOM     75  C   UNL     1       4.061   7.561   0.710  1.00  0.00     0.019 A 
ATOM     76  C   UNL     1       6.092   6.232   0.403  1.00  0.00     0.038 A 
ATOM     77  C   UNL     1       4.285   8.073  -0.547  1.00  0.00    -0.043 A 
ATOM     78  C   UNL     1       6.268   6.704  -0.915  1.00  0.00     0.092 A 
ATOM     79  C   UNL     1       5.336   7.620  -1.380  1.00  0.00    -0.024 A 
ATOM     80  C   UNL     1       3.532   9.201  -1.186  1.00  0.00     0.036 C 
ATOM     81  C   UNL     1       5.204   8.333  -2.688  1.00  0.00     0.037 C 
ATOM     82  C   UNL     1       4.598   9.649  -2.185  1.00  0.00     0.010 C 
BRANCH  78  83
ATOM     83  S   UNL     1       7.503   5.938  -1.953  1.00  0.00     0.262 S 
ATOM     84  O   UNL     1       8.142   4.904  -1.159  1.00  0.00    -0.201 OA
ATOM     85  O   UNL     1       6.845   5.565  -3.188  1.00  0.00    -0.201 OA
BRANCH  83  86
ATOM     86  N   UNL     1       8.784   6.976  -2.417  1.00  0.00    -0.277 N 
ATOM     87  H   UNL     1       9.669   6.585  -2.595  1.00  0.00     0.180 HD
BRANCH  86  88
ATOM     88  C   UNL     1       8.615   8.396  -2.558  1.00  0.00     0.075 A 
ATOM     89  C   UNL     1       8.432   8.925  -3.850  1.00  0.00     0.042 A 
ATOM     90  C   UNL     1       8.509   9.248  -1.449  1.00  0.00     0.089 A 
ATOM     91  C   UNL     1       8.041  10.268  -4.036  1.00  0.00     0.058 A 
ATOM     92  C   UNL     1       8.142  10.590  -1.629  1.00  0.00     0.031 A 
ATOM     93  C   UNL     1       7.912  11.095  -2.912  1.00  0.00     0.015 A 
BRANCH  90  94
ATOM     94  N   UNL     1       8.714   8.775  -0.131  1.00  0.00    -0.239 N 
ATOM     95  C   UNL     1       9.559   7.774   0.291  1.00  0.00     0.115 A 
ATOM     96  N   UNL     1       7.936   9.226   0.886  1.00  0.00    -0.177 NA
ATOM     97  C   UNL     1       9.175   7.439   1.565  1.00  0.00     0.042 A 
ATOM     98  C   UNL     1       8.149   8.347   1.869  1.00  0.00     0.135 A 
ENDBRANCH  90  94
BRANCH  91  99
ATOM     99  C   UNL     1       7.677  10.778  -5.413  1.00  0.00     0.416 C 
ATOM    100  F   UNL     1       8.761  10.951  -6.214  1.00  0.00    -0.166 F 
ATOM    101  F   UNL     1       6.850   9.921  -6.075  1.00  0.00    -0.166 F 
ATOM    102  F   UNL     1       7.025  11.974  -5.393  1.00  0.00    -0.166 F 
ENDBRANCH  91  99
ENDBRANCH  86  88
ENDBRANCH  83  86
ENDBRANCH  78  83
ENDBRANCH  72  74
ENDBRANCH  71  72
ENDBRANCH  70  71
ENDBRANCH  69  70
ENDBRANCH  68  69
ENDBRANCH  67  68
ENDBRANCH   1  67
TORSDOF 25
