REMARK SMILES CC(C)COc1cccc(C(=O)Nc2ccc(O)c(C(=O)OCCOCCOCCOCCOC(=O)c3ccc(-c4c5nc(c(-c6c(F)cccc6F)c6ccc([nH]6)c(-c6c(F)cccc6F)c6nc(c(-c7c(F)cccc7F)c7ccc4[nH]7)C=C6)C=C5)cc3)c2)c1
REMARK SMILES IDX 26 1 25 2 24 3 23 4 22 5 20 6 21 7 19 8 14 9 15 10 91 11
REMARK SMILES IDX 16 12 17 13 13 14 11 15 12 16 10 18 6 19 7 20 92 21 8 22
REMARK SMILES IDX 9 23 5 24 4 25 2 26 1 27 3 28 18 29 27 31 28 32 29 33 30 34
REMARK SMILES IDX 31 35 32 36 33 37 34 38 35 39 36 40 37 41 38 42 90 43 39 44
REMARK SMILES IDX 89 45 40 46 41 47 42 48 83 49 43 50 88 51 82 52 84 53 44 54
REMARK SMILES IDX 87 55 81 56 80 57 45 59 71 60 54 61 70 62 55 63 58 64 69 65
REMARK SMILES IDX 85 66 56 67 57 68 68 70 86 71 59 72 46 73 47 74 52 75 48 76
REMARK SMILES IDX 49 77 51 78 53 79 50 80 72 81 73 82 78 83 74 84 75 85 77 86
REMARK SMILES IDX 79 87 76 88 60 89 61 90 66 91 62 92 63 93 65 94 67 95 64 96
REMARK H PARENT 13 17 18 30 84 58 58 69
REMARK Flexibility Score: inf
ROOT
ATOM      1  C   UNL     1       0.932   1.479  -5.163  1.00  0.00     0.188 C 
ENDROOT
BRANCH   1   2
ATOM      2  O   UNL     1      -0.267   2.164  -5.492  1.00  0.00    -0.376 OA
BRANCH   2   3
ATOM      3  C   UNL     1      -0.978   3.030  -4.621  1.00  0.00     0.202 C 
BRANCH   3   4
ATOM      4  C   UNL     1      -1.190   2.805  -3.114  1.00  0.00     0.261 C 
BRANCH   4   5
ATOM      5  O   UNL     1      -0.029   2.502  -2.344  1.00  0.00    -0.460 OA
BRANCH   5   6
ATOM      6  C   UNL     1       0.217   1.183  -2.228  1.00  0.00     0.342 C 
ATOM      7  O   UNL     1      -0.453   0.269  -2.692  1.00  0.00    -0.246 OA
BRANCH   6   8
ATOM      8  C   UNL     1       1.512   0.916  -1.568  1.00  0.00     0.103 A 
ATOM      9  C   UNL     1       2.835   1.162   0.401  1.00  0.00     0.042 A 
ATOM     10  C   UNL     1       3.621   0.062   0.026  1.00  0.00     0.030 A 
ATOM     11  C   UNL     1       1.915   1.700  -0.493  1.00  0.00     0.045 A 
ATOM     12  C   UNL     1       3.335  -0.627  -1.153  1.00  0.00     0.049 A 
ATOM     13  C   UNL     1       2.233  -0.245  -1.902  1.00  0.00     0.130 A 
BRANCH   9  14
ATOM     14  N   UNL     1       2.879   1.577   1.742  1.00  0.00    -0.322 N 
ATOM     15  C   UNL     1       1.881   2.090   2.564  1.00  0.00     0.255 C 
ATOM     16  O   UNL     1       2.213   2.563   3.652  1.00  0.00    -0.269 OA
ATOM     17  H   UNL     1       3.761   1.490   2.171  1.00  0.00     0.170 HD
BRANCH  15  18
ATOM     18  C   UNL     1       0.413   2.011   2.248  1.00  0.00     0.043 A 
ATOM     19  C   UNL     1      -1.471   1.029   1.033  1.00  0.00     0.120 A 
ATOM     20  C   UNL     1      -2.316   1.995   1.569  1.00  0.00     0.046 A 
ATOM     21  C   UNL     1      -0.135   1.023   1.420  1.00  0.00     0.060 A 
ATOM     22  C   UNL     1      -1.822   2.920   2.496  1.00  0.00     0.005 A 
ATOM     23  C   UNL     1      -0.460   2.937   2.824  1.00  0.00     0.014 A 
BRANCH  19  24
ATOM     24  O   UNL     1      -1.924   0.301  -0.031  1.00  0.00    -0.493 OA
BRANCH  24  25
ATOM     25  C   UNL     1      -1.877  -1.139   0.017  1.00  0.00     0.232 C 
BRANCH  25  26
ATOM     26  C   UNL     1      -0.495  -1.770  -0.247  1.00  0.00     0.020 C 
ATOM     27  C   UNL     1       0.159  -2.328   1.018  1.00  0.00     0.011 C 
ATOM     28  C   UNL     1      -0.523  -2.875  -1.307  1.00  0.00     0.011 C 
ENDBRANCH  25  26
ENDBRANCH  24  25
ENDBRANCH  19  24
ENDBRANCH  15  18
ENDBRANCH   9  14
BRANCH  13  29
ATOM     29  O   UNL     1       1.869  -1.076  -2.928  1.00  0.00    -0.507 OA
ATOM     30  H   UNL     1       2.378  -1.839  -3.116  1.00  0.00     0.293 HD
ENDBRANCH  13  29
ENDBRANCH   6   8
ENDBRANCH   5   6
ENDBRANCH   4   5
ENDBRANCH   3   4
ENDBRANCH   2   3
ENDBRANCH   1   2
BRANCH   1  31
ATOM     31  C   UNL     1       2.113   2.185  -4.478  1.00  0.00     0.188 C 
BRANCH  31  32
ATOM     32  O   UNL     1       1.821   3.467  -3.976  1.00  0.00    -0.377 OA
BRANCH  32  33
ATOM     33  C   UNL     1       1.978   4.554  -4.873  1.00  0.00     0.188 C 
BRANCH  33  34
ATOM     34  C   UNL     1       1.923   4.312  -6.401  1.00  0.00     0.188 C 
BRANCH  34  35
ATOM     35  O   UNL     1       2.547   3.125  -6.869  1.00  0.00    -0.376 OA
BRANCH  35  36
ATOM     36  C   UNL     1       3.893   3.137  -7.317  1.00  0.00     0.202 C 
BRANCH  36  37
ATOM     37  C   UNL     1       5.012   3.526  -6.334  1.00  0.00     0.261 C 
BRANCH  37  38
ATOM     38  O   UNL     1       4.860   4.784  -5.667  1.00  0.00    -0.460 OA
BRANCH  38  39
ATOM     39  C   UNL     1       4.782   5.883  -6.443  1.00  0.00     0.338 C 
ATOM     40  O   UNL     1       4.893   5.938  -7.657  1.00  0.00    -0.246 OA
BRANCH  39  41
ATOM     41  C   UNL     1       4.320   7.002  -5.598  1.00  0.00     0.060 A 
ATOM     42  C   UNL     1       3.140   7.667  -5.960  1.00  0.00     0.016 A 
ATOM     43  C   UNL     1       5.024   7.375  -4.450  1.00  0.00     0.016 A 
ATOM     44  C   UNL     1       2.690   8.745  -5.207  1.00  0.00     0.010 A 
ATOM     45  C   UNL     1       4.592   8.482  -3.715  1.00  0.00     0.010 A 
ATOM     46  C   UNL     1       3.452   9.197  -4.123  1.00  0.00    -0.014 A 
BRANCH  46  47
ATOM     47  C   UNL     1       3.209  10.565  -3.614  1.00  0.00     0.031 A 
ATOM     48  C   UNL     1       4.040  11.679  -4.193  1.00  0.00     0.074 A 
ATOM     49  C   UNL     1       2.243  10.826  -2.719  1.00  0.00     0.049 A 
ATOM     50  N   UNL     1       4.033  12.956  -3.912  1.00  0.00    -0.248 NA
ATOM     51  C   UNL     1       5.010  11.297  -5.234  1.00  0.00     0.031 C 
ATOM     52  C   UNL     1       1.339   9.838  -2.134  1.00  0.00     0.029 A 
ATOM     53  N   UNL     1       1.866  12.013  -2.146  1.00  0.00    -0.354 N 
ATOM     54  C   UNL     1       4.999  13.524  -4.733  1.00  0.00     0.074 A 
ATOM     55  C   UNL     1       5.594  12.454  -5.501  1.00  0.00     0.031 C 
ATOM     56  C   UNL     1       0.518  10.460  -1.269  1.00  0.00     0.029 A 
ATOM     57  C   UNL     1       0.861  11.881  -1.220  1.00  0.00     0.049 A 
ATOM     58  H   UNL     1       2.276  12.878  -2.376  1.00  0.00     0.167 HD
ATOM     59  C   UNL     1       5.353  14.825  -4.844  1.00  0.00     0.037 A 
ATOM     60  C   UNL     1       0.304  12.803  -0.411  1.00  0.00     0.037 A 
ATOM     61  C   UNL     1       4.758  15.885  -4.076  1.00  0.00     0.049 A 
ATOM     62  C   UNL     1       0.770  14.235  -0.497  1.00  0.00     0.074 A 
ATOM     63  C   UNL     1       5.039  17.239  -4.116  1.00  0.00     0.029 A 
ATOM     64  N   UNL     1       3.767  15.707  -3.123  1.00  0.00    -0.354 N 
ATOM     65  N   UNL     1       1.671  14.769  -1.288  1.00  0.00    -0.248 NA
ATOM     66  C   UNL     1       0.135  15.195   0.418  1.00  0.00     0.031 C 
ATOM     67  C   UNL     1       4.259  17.873  -3.145  1.00  0.00     0.029 A 
ATOM     68  C   UNL     1       3.443  16.925  -2.549  1.00  0.00     0.049 A 
ATOM     69  H   UNL     1       3.356  14.844  -2.889  1.00  0.00     0.167 HD
ATOM     70  C   UNL     1       1.682  16.128  -0.993  1.00  0.00     0.074 A 
ATOM     71  C   UNL     1       0.691  16.337   0.041  1.00  0.00     0.031 C 
ATOM     72  C   UNL     1       2.440  17.116  -1.532  1.00  0.00     0.037 A 
BRANCH  59  73
ATOM     73  C   UNL     1       6.456  15.165  -5.803  1.00  0.00     0.057 A 
ATOM     74  C   UNL     1       6.285  15.092  -7.191  1.00  0.00     0.134 A 
ATOM     75  C   UNL     1       7.700  15.598  -5.327  1.00  0.00     0.134 A 
ATOM     76  F   UNL     1       5.125  14.664  -7.713  1.00  0.00    -0.206 F 
ATOM     77  C   UNL     1       7.317  15.421  -8.072  1.00  0.00     0.040 A 
ATOM     78  C   UNL     1       8.730  15.957  -6.197  1.00  0.00     0.040 A 
ATOM     79  F   UNL     1       7.931  15.687  -4.008  1.00  0.00    -0.206 F 
ATOM     80  C   UNL     1       8.541  15.865  -7.574  1.00  0.00     0.006 A 
ENDBRANCH  59  73
BRANCH  60  81
ATOM     81  C   UNL     1      -0.743  12.408   0.567  1.00  0.00     0.057 A 
ATOM     82  C   UNL     1      -2.060  12.868   0.454  1.00  0.00     0.134 A 
ATOM     83  C   UNL     1      -0.439  11.592   1.664  1.00  0.00     0.134 A 
ATOM     84  F   UNL     1      -2.409  13.673  -0.561  1.00  0.00    -0.206 F 
ATOM     85  C   UNL     1      -3.030  12.554   1.408  1.00  0.00     0.040 A 
ATOM     86  C   UNL     1      -1.405  11.246   2.610  1.00  0.00     0.040 A 
ATOM     87  F   UNL     1       0.804  11.118   1.833  1.00  0.00    -0.206 F 
ATOM     88  C   UNL     1      -2.704  11.737   2.488  1.00  0.00     0.006 A 
ENDBRANCH  60  81
BRANCH  72  89
ATOM     89  C   UNL     1       2.187  18.519  -1.059  1.00  0.00     0.057 A 
ATOM     90  C   UNL     1       2.536  18.950   0.227  1.00  0.00     0.134 A 
ATOM     91  C   UNL     1       1.619  19.465  -1.924  1.00  0.00     0.134 A 
ATOM     92  F   UNL     1       3.076  18.094   1.108  1.00  0.00    -0.206 F 
ATOM     93  C   UNL     1       2.301  20.261   0.645  1.00  0.00     0.040 A 
ATOM     94  C   UNL     1       1.409  20.786  -1.528  1.00  0.00     0.040 A 
ATOM     95  F   UNL     1       1.273  19.124  -3.175  1.00  0.00    -0.206 F 
ATOM     96  C   UNL     1       1.742  21.185  -0.236  1.00  0.00     0.006 A 
ENDBRANCH  72  89
ENDBRANCH  46  47
ENDBRANCH  39  41
ENDBRANCH  38  39
ENDBRANCH  37  38
ENDBRANCH  36  37
ENDBRANCH  35  36
ENDBRANCH  34  35
ENDBRANCH  33  34
ENDBRANCH  32  33
ENDBRANCH  31  32
ENDBRANCH   1  31
TORSDOF 26
