REMARK SMILES CCOC(=O)c1c(S(=O)(=O)N2CCC[C@@H](C(=O)OCCOCCOCCOCCOC(=O)c3ccc(-c4c5nc(c(-c6c(F)cccc6F)c6ccc([nH]6)c(-c6c(F)cccc6F)c6nc(c(-c7c(F)cccc7F)c7ccc4[nH]7)C=C6)C=C5)cc3)C2)c(C)n(C)c1C
REMARK SMILES IDX 22 1 21 2 20 3 19 4 18 5 16 6 17 7 15 8 11 9 12 10 87 11
REMARK SMILES IDX 13 12 14 13 8 14 9 15 10 16 7 17 6 18 92 19 88 20 90 21
REMARK SMILES IDX 93 22 89 23 91 24 4 25 5 26 3 27 2 28 1 29 23 30 24 31 25 32
REMARK SMILES IDX 26 33 27 34 28 35 29 36 30 37 31 38 32 39 33 40 34 41 86 42
REMARK SMILES IDX 35 43 85 44 36 45 37 46 38 47 79 48 39 49 84 50 78 51 80 52
REMARK SMILES IDX 40 53 83 54 77 55 76 56 41 58 67 59 50 60 66 61 51 62 54 63
REMARK SMILES IDX 65 64 81 65 52 66 53 67 64 69 82 70 55 71 42 72 43 73 48 74
REMARK SMILES IDX 44 75 45 76 47 77 49 78 46 79 68 80 69 81 74 82 70 83 71 84
REMARK SMILES IDX 73 85 75 86 72 87 56 88 57 89 62 90 58 91 59 92 61 93 63 94
REMARK SMILES IDX 60 95
REMARK H PARENT 80 57 54 68
REMARK Flexibility Score: inf
ROOT
ATOM      1  C   UNL     1       0.736  -2.236   1.942  1.00  0.00     0.188 C 
ENDROOT
BRANCH   1   2
ATOM      2  O   UNL     1      -0.517  -2.849   1.703  1.00  0.00    -0.376 OA
BRANCH   2   3
ATOM      3  C   UNL     1      -0.890  -3.154   0.375  1.00  0.00     0.202 C 
BRANCH   3   4
ATOM      4  C   UNL     1       0.054  -4.018  -0.475  1.00  0.00     0.261 C 
BRANCH   4   5
ATOM      5  O   UNL     1       1.454  -3.732  -0.340  1.00  0.00    -0.463 OA
BRANCH   5   6
ATOM      6  C   UNL     1       1.874  -2.585  -0.919  1.00  0.00     0.310 C 
ATOM      7  O   UNL     1       1.149  -1.848  -1.571  1.00  0.00    -0.252 OA
BRANCH   6   8
ATOM      8  C   UNL     1       3.346  -2.322  -0.648  1.00  0.00     0.114 C 
ATOM      9  N   UNL     1       5.121  -1.399  -2.204  1.00  0.00    -0.197 NA
ATOM     10  C   UNL     1       5.559  -0.407  -1.220  1.00  0.00     0.102 C 
ATOM     11  C   UNL     1       3.962  -2.281  -2.025  1.00  0.00     0.117 C 
ATOM     12  C   UNL     1       5.055  -0.683   0.178  1.00  0.00     0.018 C 
ATOM     13  C   UNL     1       3.587  -1.056   0.171  1.00  0.00     0.018 C 
BRANCH   9  14
ATOM     14  S   UNL     1       5.428  -1.035  -3.816  1.00  0.00     0.245 S 
ATOM     15  O   UNL     1       5.458  -2.316  -4.497  1.00  0.00    -0.207 OA
ATOM     16  O   UNL     1       6.542  -0.117  -3.900  1.00  0.00    -0.207 OA
BRANCH  14  17
ATOM     17  C   UNL     1       4.115  -0.195  -4.621  1.00  0.00     0.118 A 
ATOM     18  C   UNL     1       2.981   0.544  -4.113  1.00  0.00     0.101 A 
ATOM     19  C   UNL     1       2.299   1.016  -5.245  1.00  0.00     0.030 A 
ATOM     20  C   UNL     1       4.032  -0.195  -6.012  1.00  0.00     0.035 A 
ATOM     21  N   UNL     1       2.949   0.565  -6.370  1.00  0.00    -0.350 N 
ATOM     22  C   UNL     1       1.107   1.917  -5.340  1.00  0.00     0.065 C 
ATOM     23  C   UNL     1       4.931  -0.871  -7.000  1.00  0.00     0.066 C 
ATOM     24  C   UNL     1       2.600   0.881  -7.741  1.00  0.00     0.149 C 
BRANCH  18  25
ATOM     25  C   UNL     1       2.555   0.921  -2.758  1.00  0.00     0.341 C 
ATOM     26  O   UNL     1       3.293   1.459  -1.949  1.00  0.00    -0.246 OA
BRANCH  25  27
ATOM     27  O   UNL     1       1.206   0.763  -2.565  1.00  0.00    -0.462 OA
BRANCH  27  28
ATOM     28  C   UNL     1       0.569   1.562  -1.548  1.00  0.00     0.230 C 
ATOM     29  C   UNL     1       0.160   0.762  -0.327  1.00  0.00     0.049 C 
ENDBRANCH  27  28
ENDBRANCH  25  27
ENDBRANCH  18  25
ENDBRANCH  14  17
ENDBRANCH   9  14
ENDBRANCH   6   8
ENDBRANCH   5   6
ENDBRANCH   4   5
ENDBRANCH   3   4
ENDBRANCH   2   3
ENDBRANCH   1   2
BRANCH   1  30
ATOM     30  C   UNL     1       1.825  -3.184   2.506  1.00  0.00     0.188 C 
BRANCH  30  31
ATOM     31  O   UNL     1       1.589  -4.578   2.632  1.00  0.00    -0.377 OA
BRANCH  31  32
ATOM     32  C   UNL     1       0.317  -5.040   3.061  1.00  0.00     0.188 C 
BRANCH  32  33
ATOM     33  C   UNL     1      -0.536  -4.233   4.077  1.00  0.00     0.188 C 
BRANCH  33  34
ATOM     34  O   UNL     1      -0.082  -2.917   4.356  1.00  0.00    -0.376 OA
BRANCH  34  35
ATOM     35  C   UNL     1       0.443  -2.544   5.615  1.00  0.00     0.202 C 
BRANCH  35  36
ATOM     36  C   UNL     1       1.762  -3.169   6.060  1.00  0.00     0.261 C 
BRANCH  36  37
ATOM     37  O   UNL     1       1.895  -4.521   5.679  1.00  0.00    -0.460 OA
BRANCH  37  38
ATOM     38  C   UNL     1       1.068  -5.355   6.319  1.00  0.00     0.338 C 
ATOM     39  O   UNL     1       0.179  -5.056   7.117  1.00  0.00    -0.246 OA
BRANCH  38  40
ATOM     40  C   UNL     1       1.454  -6.724   5.999  1.00  0.00     0.060 A 
ATOM     41  C   UNL     1       0.648  -7.709   6.565  1.00  0.00     0.016 A 
ATOM     42  C   UNL     1       2.790  -6.941   5.629  1.00  0.00     0.016 A 
ATOM     43  C   UNL     1       1.288  -8.786   7.112  1.00  0.00     0.010 A 
ATOM     44  C   UNL     1       3.433  -7.999   6.203  1.00  0.00     0.010 A 
ATOM     45  C   UNL     1       2.685  -8.828   7.032  1.00  0.00    -0.014 A 
BRANCH  45  46
ATOM     46  C   UNL     1       3.355  -9.825   7.819  1.00  0.00     0.031 A 
ATOM     47  C   UNL     1       3.236 -11.163   7.218  1.00  0.00     0.074 A 
ATOM     48  C   UNL     1       4.059  -9.507   8.919  1.00  0.00     0.049 A 
ATOM     49  N   UNL     1       2.570 -12.172   7.665  1.00  0.00    -0.248 NA
ATOM     50  C   UNL     1       3.747 -11.326   5.846  1.00  0.00     0.031 C 
ATOM     51  C   UNL     1       4.456  -8.182   9.405  1.00  0.00     0.029 A 
ATOM     52  N   UNL     1       4.668 -10.346   9.791  1.00  0.00    -0.354 N 
ATOM     53  C   UNL     1       2.779 -13.176   6.730  1.00  0.00     0.074 A 
ATOM     54  C   UNL     1       3.305 -12.546   5.550  1.00  0.00     0.031 C 
ATOM     55  C   UNL     1       5.429  -8.328  10.335  1.00  0.00     0.029 A 
ATOM     56  C   UNL     1       5.627  -9.744  10.593  1.00  0.00     0.049 A 
ATOM     57  H   UNL     1       4.449 -11.304   9.851  1.00  0.00     0.167 HD
ATOM     58  C   UNL     1       2.803 -14.478   7.112  1.00  0.00     0.037 A 
ATOM     59  C   UNL     1       6.568 -10.413  11.304  1.00  0.00     0.037 A 
ATOM     60  C   UNL     1       2.099 -14.678   8.354  1.00  0.00     0.049 A 
ATOM     61  C   UNL     1       6.106 -11.826  11.426  1.00  0.00     0.074 A 
ATOM     62  C   UNL     1       0.812 -14.405   8.783  1.00  0.00     0.029 A 
ATOM     63  N   UNL     1       2.835 -14.864   9.499  1.00  0.00    -0.354 N 
ATOM     64  N   UNL     1       5.079 -12.197  12.141  1.00  0.00    -0.248 NA
ATOM     65  C   UNL     1       6.496 -12.751  10.370  1.00  0.00     0.031 C 
ATOM     66  C   UNL     1       0.957 -13.950  10.126  1.00  0.00     0.029 A 
ATOM     67  C   UNL     1       2.309 -14.034  10.458  1.00  0.00     0.049 A 
ATOM     68  H   UNL     1       3.596 -15.478   9.611  1.00  0.00     0.167 HD
ATOM     69  C   UNL     1       4.444 -13.167  11.377  1.00  0.00     0.074 A 
ATOM     70  C   UNL     1       5.400 -13.513  10.327  1.00  0.00     0.031 C 
ATOM     71  C   UNL     1       3.101 -13.389  11.480  1.00  0.00     0.037 A 
BRANCH  58  72
ATOM     72  C   UNL     1       3.810 -15.450   6.557  1.00  0.00     0.057 A 
ATOM     73  C   UNL     1       3.674 -16.814   6.850  1.00  0.00     0.134 A 
ATOM     74  C   UNL     1       5.046 -15.079   5.980  1.00  0.00     0.134 A 
ATOM     75  F   UNL     1       2.560 -17.284   7.432  1.00  0.00    -0.206 F 
ATOM     76  C   UNL     1       4.710 -17.730   6.633  1.00  0.00     0.040 A 
ATOM     77  C   UNL     1       6.061 -15.994   5.703  1.00  0.00     0.040 A 
ATOM     78  F   UNL     1       5.385 -13.806   5.746  1.00  0.00    -0.206 F 
ATOM     79  C   UNL     1       5.908 -17.321   6.059  1.00  0.00     0.006 A 
ENDBRANCH  58  72
BRANCH  59  80
ATOM     80  C   UNL     1       7.980 -10.032  11.544  1.00  0.00     0.057 A 
ATOM     81  C   UNL     1       8.760 -10.733  12.475  1.00  0.00     0.134 A 
ATOM     82  C   UNL     1       8.681  -9.174  10.678  1.00  0.00     0.134 A 
ATOM     83  F   UNL     1       8.190 -11.604  13.322  1.00  0.00    -0.206 F 
ATOM     84  C   UNL     1      10.156 -10.618  12.518  1.00  0.00     0.040 A 
ATOM     85  C   UNL     1      10.073  -9.043  10.716  1.00  0.00     0.040 A 
ATOM     86  F   UNL     1       8.054  -8.504   9.701  1.00  0.00    -0.206 F 
ATOM     87  C   UNL     1      10.818  -9.780  11.627  1.00  0.00     0.006 A 
ENDBRANCH  59  80
BRANCH  71  88
ATOM     88  C   UNL     1       2.356 -12.713  12.600  1.00  0.00     0.057 A 
ATOM     89  C   UNL     1       2.264 -11.320  12.756  1.00  0.00     0.134 A 
ATOM     90  C   UNL     1       1.585 -13.494  13.467  1.00  0.00     0.134 A 
ATOM     91  F   UNL     1       2.877 -10.485  11.908  1.00  0.00    -0.206 F 
ATOM     92  C   UNL     1       1.485 -10.738  13.762  1.00  0.00     0.040 A 
ATOM     93  C   UNL     1       0.775 -12.925  14.453  1.00  0.00     0.040 A 
ATOM     94  F   UNL     1       1.572 -14.831  13.342  1.00  0.00    -0.206 F 
ATOM     95  C   UNL     1       0.733 -11.543  14.612  1.00  0.00     0.006 A 
ENDBRANCH  71  88
ENDBRANCH  45  46
ENDBRANCH  38  40
ENDBRANCH  37  38
ENDBRANCH  36  37
ENDBRANCH  35  36
ENDBRANCH  34  35
ENDBRANCH  33  34
ENDBRANCH  32  33
ENDBRANCH  31  32
ENDBRANCH  30  31
ENDBRANCH   1  30
TORSDOF 25
