REMARK SMILES CCCc1c(C(=O)OCCOCCOCCOCCOC(=O)c2ccc(-c3c4nc(c(-c5c(F)cccc5F)c5ccc([nH]5)c(-c5c(F)cccc5F)c5nc(c(-c6c(F)cccc6F)c6ccc3[nH]6)C=C5)C=C4)cc2)nnn1-c1cc(OC)ccc1F
REMARK SMILES IDX 14 1 13 2 12 3 11 4 10 5 9 6 8 7 6 8 7 9 5 10 4 11 79 12
REMARK SMILES IDX 77 13 78 14 3 15 2 16 1 17 80 18 81 19 87 20 82 21 86 22
REMARK SMILES IDX 88 23 85 24 83 25 84 26 15 27 16 28 17 29 18 30 19 31 20 32
REMARK SMILES IDX 21 33 22 34 23 35 24 36 76 37 25 38 75 39 26 40 27 41 28 42
REMARK SMILES IDX 69 43 29 44 74 45 68 46 70 47 30 48 73 49 67 50 66 51 31 53
REMARK SMILES IDX 57 54 40 55 56 56 41 57 44 58 55 59 71 60 42 61 43 62 54 64
REMARK SMILES IDX 72 65 45 66 32 67 33 68 38 69 34 70 35 71 37 72 39 73 36 74
REMARK SMILES IDX 58 75 59 76 64 77 60 78 61 79 63 80 65 81 62 82 46 83 47 84
REMARK SMILES IDX 52 85 48 86 49 87 51 88 53 89 50 90
REMARK H PARENT 70 52 44 63
REMARK Flexibility Score: inf
ROOT
ATOM      1  O   UNL     1      -1.597  -2.026  -0.462  1.00  0.00    -0.377 OA
ENDROOT
BRANCH   1   2
ATOM      2  C   UNL     1      -0.742  -1.740  -1.566  1.00  0.00     0.188 C 
BRANCH   2   3
ATOM      3  C   UNL     1       0.147  -2.889  -2.071  1.00  0.00     0.188 C 
BRANCH   3   4
ATOM      4  O   UNL     1       0.997  -3.363  -1.028  1.00  0.00    -0.376 OA
BRANCH   4   5
ATOM      5  C   UNL     1       2.387  -3.370  -1.297  1.00  0.00     0.202 C 
BRANCH   5   6
ATOM      6  C   UNL     1       3.065  -2.048  -0.916  1.00  0.00     0.261 C 
BRANCH   6   7
ATOM      7  O   UNL     1       2.401  -0.868  -1.398  1.00  0.00    -0.458 OA
BRANCH   7   8
ATOM      8  C   UNL     1       2.438  -0.657  -2.749  1.00  0.00     0.360 C 
ATOM      9  O   UNL     1       3.085  -1.319  -3.517  1.00  0.00    -0.244 OA
BRANCH   8  10
ATOM     10  C   UNL     1       1.466   0.363  -3.151  1.00  0.00     0.194 A 
ATOM     11  C   UNL     1       1.107   1.567  -2.554  1.00  0.00     0.080 A 
ATOM     12  N   UNL     1       0.236   2.126  -3.490  1.00  0.00    -0.214 N 
ATOM     13  N   UNL     1       0.637   0.134  -4.222  1.00  0.00    -0.122 NA
ATOM     14  N   UNL     1      -0.204   1.150  -4.318  1.00  0.00    -0.061 NA
BRANCH  11  15
ATOM     15  C   UNL     1       1.517   2.214  -1.266  1.00  0.00     0.059 C 
BRANCH  15  16
ATOM     16  C   UNL     1       0.581   1.928  -0.081  1.00  0.00     0.003 C 
ATOM     17  C   UNL     1       1.067   0.819   0.843  1.00  0.00     0.004 C 
ENDBRANCH  15  16
ENDBRANCH  11  15
BRANCH  12  18
ATOM     18  C   UNL     1      -0.124   3.467  -3.748  1.00  0.00     0.106 A 
ATOM     19  C   UNL     1      -1.384   3.768  -4.292  1.00  0.00     0.078 A 
ATOM     20  C   UNL     1       0.808   4.490  -3.592  1.00  0.00     0.149 A 
ATOM     21  C   UNL     1      -1.721   5.091  -4.612  1.00  0.00     0.121 A 
ATOM     22  C   UNL     1       0.480   5.804  -3.907  1.00  0.00     0.045 A 
ATOM     23  F   UNL     1       2.077   4.234  -3.247  1.00  0.00    -0.205 F 
ATOM     24  C   UNL     1      -0.788   6.109  -4.406  1.00  0.00     0.049 A 
BRANCH  21  25
ATOM     25  O   UNL     1      -2.982   5.262  -5.115  1.00  0.00    -0.497 OA
ATOM     26  C   UNL     1      -3.310   6.561  -5.599  1.00  0.00     0.278 C 
ENDBRANCH  21  25
ENDBRANCH  12  18
ENDBRANCH   8  10
ENDBRANCH   7   8
ENDBRANCH   6   7
ENDBRANCH   5   6
ENDBRANCH   4   5
ENDBRANCH   3   4
ENDBRANCH   2   3
ENDBRANCH   1   2
BRANCH   1  27
ATOM     27  C   UNL     1      -0.974  -2.623   0.661  1.00  0.00     0.188 C 
BRANCH  27  28
ATOM     28  C   UNL     1      -1.132  -4.157   0.781  1.00  0.00     0.188 C 
BRANCH  28  29
ATOM     29  O   UNL     1      -1.944  -4.965  -0.073  1.00  0.00    -0.376 OA
BRANCH  29  30
ATOM     30  C   UNL     1      -2.858  -4.446  -1.026  1.00  0.00     0.202 C 
BRANCH  30  31
ATOM     31  C   UNL     1      -4.168  -3.836  -0.540  1.00  0.00     0.261 C 
BRANCH  31  32
ATOM     32  O   UNL     1      -3.987  -3.013   0.591  1.00  0.00    -0.460 OA
BRANCH  32  33
ATOM     33  C   UNL     1      -3.906  -3.699   1.748  1.00  0.00     0.338 C 
ATOM     34  O   UNL     1      -4.061  -4.896   1.920  1.00  0.00    -0.246 OA
BRANCH  33  35
ATOM     35  C   UNL     1      -3.728  -2.727   2.835  1.00  0.00     0.060 A 
ATOM     36  C   UNL     1      -3.926  -3.257   4.106  1.00  0.00     0.016 A 
ATOM     37  C   UNL     1      -3.866  -1.358   2.549  1.00  0.00     0.016 A 
ATOM     38  C   UNL     1      -4.680  -2.511   4.967  1.00  0.00     0.010 A 
ATOM     39  C   UNL     1      -4.625  -0.612   3.406  1.00  0.00     0.010 A 
ATOM     40  C   UNL     1      -5.134  -1.265   4.523  1.00  0.00    -0.014 A 
BRANCH  40  41
ATOM     41  C   UNL     1      -6.265  -0.714   5.220  1.00  0.00     0.031 A 
ATOM     42  C   UNL     1      -5.912  -0.048   6.478  1.00  0.00     0.074 A 
ATOM     43  C   UNL     1      -7.503  -0.778   4.702  1.00  0.00     0.049 A 
ATOM     44  N   UNL     1      -6.230  -0.398   7.676  1.00  0.00    -0.248 NA
ATOM     45  C   UNL     1      -4.951   1.060   6.391  1.00  0.00     0.031 C 
ATOM     46  C   UNL     1      -7.908  -1.131   3.337  1.00  0.00     0.029 A 
ATOM     47  N   UNL     1      -8.670  -0.405   5.282  1.00  0.00    -0.354 N 
ATOM     48  C   UNL     1      -5.662   0.567   8.496  1.00  0.00     0.074 A 
ATOM     49  C   UNL     1      -4.744   1.317   7.681  1.00  0.00     0.031 C 
ATOM     50  C   UNL     1      -9.177  -0.706   3.138  1.00  0.00     0.029 A 
ATOM     51  C   UNL     1      -9.691  -0.159   4.383  1.00  0.00     0.049 A 
ATOM     52  H   UNL     1      -8.780  -0.317   6.256  1.00  0.00     0.167 HD
ATOM     53  C   UNL     1      -6.181   0.840   9.720  1.00  0.00     0.037 A 
ATOM     54  C   UNL     1     -10.798   0.576   4.647  1.00  0.00     0.037 A 
ATOM     55  C   UNL     1      -7.005  -0.239  10.202  1.00  0.00     0.049 A 
ATOM     56  C   UNL     1     -10.937   0.665   6.130  1.00  0.00     0.074 A 
ATOM     57  C   UNL     1      -6.795  -1.589  10.422  1.00  0.00     0.029 A 
ATOM     58  N   UNL     1      -8.370  -0.075  10.194  1.00  0.00    -0.354 N 
ATOM     59  N   UNL     1     -11.246  -0.343   6.902  1.00  0.00    -0.248 NA
ATOM     60  C   UNL     1     -10.276   1.777   6.805  1.00  0.00     0.031 C 
ATOM     61  C   UNL     1      -8.016  -2.222  10.048  1.00  0.00     0.029 A 
ATOM     62  C   UNL     1      -8.903  -1.219   9.655  1.00  0.00     0.049 A 
ATOM     63  H   UNL     1      -8.869   0.711  10.514  1.00  0.00     0.167 HD
ATOM     64  C   UNL     1     -10.472  -0.176   8.044  1.00  0.00     0.074 A 
ATOM     65  C   UNL     1      -9.962   1.190   7.963  1.00  0.00     0.031 C 
ATOM     66  C   UNL     1     -10.069  -1.239   8.803  1.00  0.00     0.037 A 
BRANCH  53  67
ATOM     67  C   UNL     1      -6.232   2.230  10.293  1.00  0.00     0.057 A 
ATOM     68  C   UNL     1      -6.638   2.400  11.626  1.00  0.00     0.134 A 
ATOM     69  C   UNL     1      -6.176   3.413   9.525  1.00  0.00     0.134 A 
ATOM     70  F   UNL     1      -6.748   1.348  12.451  1.00  0.00    -0.206 F 
ATOM     71  C   UNL     1      -7.031   3.642  12.133  1.00  0.00     0.040 A 
ATOM     72  C   UNL     1      -6.508   4.667  10.040  1.00  0.00     0.040 A 
ATOM     73  F   UNL     1      -5.899   3.416   8.216  1.00  0.00    -0.206 F 
ATOM     74  C   UNL     1      -6.972   4.780  11.338  1.00  0.00     0.006 A 
ENDBRANCH  53  67
BRANCH  54  75
ATOM     75  C   UNL     1     -11.502   1.481   3.708  1.00  0.00     0.057 A 
ATOM     76  C   UNL     1     -12.782   1.970   3.994  1.00  0.00     0.134 A 
ATOM     77  C   UNL     1     -10.854   2.071   2.604  1.00  0.00     0.134 A 
ATOM     78  F   UNL     1     -13.459   1.520   5.060  1.00  0.00    -0.206 F 
ATOM     79  C   UNL     1     -13.386   2.975   3.224  1.00  0.00     0.040 A 
ATOM     80  C   UNL     1     -11.451   3.060   1.817  1.00  0.00     0.040 A 
ATOM     81  F   UNL     1      -9.585   1.772   2.296  1.00  0.00    -0.206 F 
ATOM     82  C   UNL     1     -12.720   3.522   2.131  1.00  0.00     0.006 A 
ENDBRANCH  54  75
BRANCH  66  83
ATOM     83  C   UNL     1     -10.669  -2.588   8.525  1.00  0.00     0.057 A 
ATOM     84  C   UNL     1     -10.517  -3.266   7.307  1.00  0.00     0.134 A 
ATOM     85  C   UNL     1     -11.252  -3.304   9.578  1.00  0.00     0.134 A 
ATOM     86  F   UNL     1      -9.869  -2.705   6.279  1.00  0.00    -0.206 F 
ATOM     87  C   UNL     1     -10.966  -4.578   7.131  1.00  0.00     0.040 A 
ATOM     88  C   UNL     1     -11.673  -4.627   9.426  1.00  0.00     0.040 A 
ATOM     89  F   UNL     1     -11.370  -2.744  10.793  1.00  0.00    -0.206 F 
ATOM     90  C   UNL     1     -11.539  -5.266   8.196  1.00  0.00     0.006 A 
ENDBRANCH  66  83
ENDBRANCH  40  41
ENDBRANCH  33  35
ENDBRANCH  32  33
ENDBRANCH  31  32
ENDBRANCH  30  31
ENDBRANCH  29  30
ENDBRANCH  28  29
ENDBRANCH  27  28
ENDBRANCH   1  27
TORSDOF 24
