REMARK SMILES CC(=O)Nc1cccc(-c2cc(F)ccc2C(=O)OCCOCCOCCOCCOC(=O)c2ccc(-c3c4nc(c(-c5c(F)cccc5F)c5ccc([nH]5)c(-c5c(F)cccc5F)c5nc(c(-c6c(F)cccc6F)c6ccc3[nH]6)C=C5)C=C4)cc2)c1
REMARK SMILES IDX 25 1 24 2 23 3 22 4 21 5 20 6 19 7 17 8 18 9 16 10 10 11
REMARK SMILES IDX 11 12 12 13 15 14 13 15 14 16 9 17 5 18 6 19 88 20 7 21 8 22
REMARK SMILES IDX 4 23 1 24 2 25 3 26 26 28 27 29 28 30 29 31 30 32 31 33
REMARK SMILES IDX 32 34 33 35 34 36 35 37 87 38 36 39 86 40 37 41 38 42 39 43
REMARK SMILES IDX 80 44 40 45 85 46 79 47 81 48 41 49 84 50 78 51 77 52 42 54
REMARK SMILES IDX 68 55 51 56 67 57 52 58 55 59 66 60 82 61 53 62 54 63 65 65
REMARK SMILES IDX 83 66 56 67 43 68 44 69 49 70 45 71 46 72 48 73 50 74 47 75
REMARK SMILES IDX 69 76 70 77 75 78 71 79 72 80 74 81 76 82 73 83 57 84 58 85
REMARK SMILES IDX 63 86 59 87 60 88 62 89 64 90 61 91
REMARK H PARENT 4 27 81 53 55 64
REMARK Flexibility Score: inf
ROOT
ATOM      1  O   UNL     1       5.510   3.741   2.979  1.00  0.00    -0.377 OA
ENDROOT
BRANCH   1   2
ATOM      2  C   UNL     1       6.629   3.195   2.299  1.00  0.00     0.188 C 
BRANCH   2   3
ATOM      3  C   UNL     1       6.864   3.492   0.804  1.00  0.00     0.188 C 
BRANCH   3   4
ATOM      4  O   UNL     1       5.916   4.363   0.193  1.00  0.00    -0.376 OA
BRANCH   4   5
ATOM      5  C   UNL     1       5.125   3.778  -0.836  1.00  0.00     0.202 C 
BRANCH   5   6
ATOM      6  C   UNL     1       3.980   2.932  -0.289  1.00  0.00     0.261 C 
BRANCH   6   7
ATOM      7  O   UNL     1       4.453   1.918   0.609  1.00  0.00    -0.460 OA
BRANCH   7   8
ATOM      8  C   UNL     1       4.882   0.760   0.076  1.00  0.00     0.338 C 
ATOM      9  O   UNL     1       4.961   0.499  -1.114  1.00  0.00    -0.246 OA
BRANCH   8  10
ATOM     10  C   UNL     1       5.379  -0.132   1.160  1.00  0.00     0.068 A 
ATOM     11  C   UNL     1       4.733  -0.320   2.414  1.00  0.00    -0.001 A 
ATOM     12  C   UNL     1       5.364  -1.186   3.332  1.00  0.00     0.048 A 
ATOM     13  C   UNL     1       6.585  -1.791   3.040  1.00  0.00     0.123 A 
ATOM     14  C   UNL     1       6.610  -0.760   0.879  1.00  0.00     0.019 A 
ATOM     15  F   UNL     1       7.163  -2.580   3.955  1.00  0.00    -0.207 F 
ATOM     16  C   UNL     1       7.219  -1.577   1.827  1.00  0.00     0.040 A 
BRANCH  11  17
ATOM     17  C   UNL     1       3.491   0.385   2.830  1.00  0.00    -0.015 A 
ATOM     18  C   UNL     1       1.337   1.399   2.249  1.00  0.00     0.041 A 
ATOM     19  C   UNL     1       1.312   2.033   3.496  1.00  0.00     0.026 A 
ATOM     20  C   UNL     1       2.393   0.530   1.959  1.00  0.00     0.034 A 
ATOM     21  C   UNL     1       2.334   1.827   4.419  1.00  0.00     0.003 A 
ATOM     22  C   UNL     1       3.424   1.028   4.078  1.00  0.00     0.009 A 
BRANCH  18  23
ATOM     23  N   UNL     1       0.348   1.794   1.330  1.00  0.00    -0.326 N 
ATOM     24  C   UNL     1       0.497   0.079  -0.484  1.00  0.00     0.114 C 
ATOM     25  C   UNL     1       0.003   1.378   0.080  1.00  0.00     0.221 C 
ATOM     26  O   UNL     1      -0.763   2.090  -0.577  1.00  0.00    -0.275 OA
ATOM     27  H   UNL     1      -0.216   2.529   1.662  1.00  0.00     0.169 HD
ENDBRANCH  18  23
ENDBRANCH  11  17
ENDBRANCH   8  10
ENDBRANCH   7   8
ENDBRANCH   6   7
ENDBRANCH   5   6
ENDBRANCH   4   5
ENDBRANCH   3   4
ENDBRANCH   2   3
ENDBRANCH   1   2
BRANCH   1  28
ATOM     28  C   UNL     1       5.133   5.091   2.743  1.00  0.00     0.188 C 
BRANCH  28  29
ATOM     29  C   UNL     1       6.207   6.160   2.462  1.00  0.00     0.188 C 
BRANCH  29  30
ATOM     30  O   UNL     1       7.544   5.745   2.710  1.00  0.00    -0.376 OA
BRANCH  30  31
ATOM     31  C   UNL     1       8.159   6.284   3.873  1.00  0.00     0.202 C 
BRANCH  31  32
ATOM     32  C   UNL     1       7.638   5.692   5.188  1.00  0.00     0.261 C 
BRANCH  32  33
ATOM     33  O   UNL     1       6.266   6.002   5.482  1.00  0.00    -0.460 OA
BRANCH  33  34
ATOM     34  C   UNL     1       5.951   7.307   5.621  1.00  0.00     0.338 C 
ATOM     35  O   UNL     1       6.700   8.265   5.570  1.00  0.00    -0.246 OA
BRANCH  34  36
ATOM     36  C   UNL     1       4.484   7.404   5.690  1.00  0.00     0.060 A 
ATOM     37  C   UNL     1       3.811   8.180   4.739  1.00  0.00     0.016 A 
ATOM     38  C   UNL     1       3.786   6.737   6.699  1.00  0.00     0.016 A 
ATOM     39  C   UNL     1       2.427   8.323   4.820  1.00  0.00     0.010 A 
ATOM     40  C   UNL     1       2.404   6.895   6.790  1.00  0.00     0.010 A 
ATOM     41  C   UNL     1       1.726   7.716   5.872  1.00  0.00    -0.014 A 
BRANCH  41  42
ATOM     42  C   UNL     1       0.322   8.097   6.137  1.00  0.00     0.031 A 
ATOM     43  C   UNL     1       0.059   9.198   7.123  1.00  0.00     0.074 A 
ATOM     44  C   UNL     1      -0.697   7.465   5.532  1.00  0.00     0.049 A 
ATOM     45  N   UNL     1      -1.080   9.679   7.547  1.00  0.00    -0.248 NA
ATOM     46  C   UNL     1       1.245   9.836   7.717  1.00  0.00     0.031 C 
ATOM     47  C   UNL     1      -0.565   6.389   4.553  1.00  0.00     0.029 A 
ATOM     48  N   UNL     1      -2.050   7.634   5.675  1.00  0.00    -0.354 N 
ATOM     49  C   UNL     1      -0.749  10.673   8.459  1.00  0.00     0.074 A 
ATOM     50  C   UNL     1       0.694  10.704   8.551  1.00  0.00     0.031 C 
ATOM     51  C   UNL     1      -1.795   5.976   4.198  1.00  0.00     0.029 A 
ATOM     52  C   UNL     1      -2.793   6.745   4.941  1.00  0.00     0.049 A 
ATOM     53  H   UNL     1      -2.450   8.327   6.249  1.00  0.00     0.167 HD
ATOM     54  C   UNL     1      -1.574  11.491   9.154  1.00  0.00     0.037 A 
ATOM     55  C   UNL     1      -4.127   6.563   4.893  1.00  0.00     0.037 A 
ATOM     56  C   UNL     1      -3.008  11.451   9.070  1.00  0.00     0.049 A 
ATOM     57  C   UNL     1      -5.028   7.453   5.706  1.00  0.00     0.074 A 
ATOM     58  C   UNL     1      -3.932  12.266   9.698  1.00  0.00     0.029 A 
ATOM     59  N   UNL     1      -3.726  10.533   8.320  1.00  0.00    -0.354 N 
ATOM     60  N   UNL     1      -4.708   8.431   6.520  1.00  0.00    -0.248 NA
ATOM     61  C   UNL     1      -6.474   7.220   5.588  1.00  0.00     0.031 C 
ATOM     62  C   UNL     1      -5.213  11.808   9.366  1.00  0.00     0.029 A 
ATOM     63  C   UNL     1      -5.084  10.738   8.495  1.00  0.00     0.049 A 
ATOM     64  H   UNL     1      -3.329   9.837   7.747  1.00  0.00     0.167 HD
ATOM     65  C   UNL     1      -5.911   8.940   6.997  1.00  0.00     0.074 A 
ATOM     66  C   UNL     1      -6.966   8.170   6.371  1.00  0.00     0.031 C 
ATOM     67  C   UNL     1      -6.122   9.956   7.871  1.00  0.00     0.037 A 
BRANCH  54  68
ATOM     68  C   UNL     1      -0.929  12.470  10.088  1.00  0.00     0.057 A 
ATOM     69  C   UNL     1      -0.221  13.584   9.621  1.00  0.00     0.134 A 
ATOM     70  C   UNL     1      -1.006  12.286  11.474  1.00  0.00     0.134 A 
ATOM     71  F   UNL     1      -0.093  13.805   8.303  1.00  0.00    -0.206 F 
ATOM     72  C   UNL     1       0.416  14.464  10.498  1.00  0.00     0.040 A 
ATOM     73  C   UNL     1      -0.394  13.172  12.362  1.00  0.00     0.040 A 
ATOM     74  F   UNL     1      -1.668  11.238  11.987  1.00  0.00    -0.206 F 
ATOM     75  C   UNL     1       0.327  14.260  11.873  1.00  0.00     0.006 A 
ENDBRANCH  54  68
BRANCH  55  76
ATOM     76  C   UNL     1      -4.686   5.481   4.047  1.00  0.00     0.057 A 
ATOM     77  C   UNL     1      -5.366   5.764   2.858  1.00  0.00     0.134 A 
ATOM     78  C   UNL     1      -4.537   4.134   4.403  1.00  0.00     0.134 A 
ATOM     79  F   UNL     1      -5.558   7.036   2.478  1.00  0.00    -0.206 F 
ATOM     80  C   UNL     1      -5.884   4.747   2.055  1.00  0.00     0.040 A 
ATOM     81  C   UNL     1      -5.033   3.107   3.600  1.00  0.00     0.040 A 
ATOM     82  F   UNL     1      -3.890   3.799   5.529  1.00  0.00    -0.206 F 
ATOM     83  C   UNL     1      -5.712   3.414   2.422  1.00  0.00     0.006 A 
ENDBRANCH  55  76
BRANCH  67  84
ATOM     84  C   UNL     1      -7.545  10.303   8.193  1.00  0.00     0.057 A 
ATOM     85  C   UNL     1      -8.332   9.492   9.021  1.00  0.00     0.134 A 
ATOM     86  C   UNL     1      -8.118  11.487   7.713  1.00  0.00     0.134 A 
ATOM     87  F   UNL     1      -7.846   8.340   9.505  1.00  0.00    -0.206 F 
ATOM     88  C   UNL     1      -9.645   9.840   9.346  1.00  0.00     0.040 A 
ATOM     89  C   UNL     1      -9.421  11.857   8.050  1.00  0.00     0.040 A 
ATOM     90  F   UNL     1      -7.415  12.313   6.923  1.00  0.00    -0.206 F 
ATOM     91  C   UNL     1     -10.190  11.029   8.865  1.00  0.00     0.006 A 
ENDBRANCH  67  84
ENDBRANCH  41  42
ENDBRANCH  34  36
ENDBRANCH  33  34
ENDBRANCH  32  33
ENDBRANCH  31  32
ENDBRANCH  30  31
ENDBRANCH  29  30
ENDBRANCH  28  29
ENDBRANCH   1  28
TORSDOF 22
