REMARK SMILES COc1cccc([C@H]2CC(c3ccc(S(C)(=O)=O)cc3)=NN2c2ccc(C(=O)OCCOCCOCCOCCOC(=O)c3ccc(-c4c5nc(c(-c6c(F)cccc6F)c6ccc([nH]6)c(-c6c(F)cccc6F)c6nc(c(-c7c(F)cccc7F)c7ccc4[nH]7)C=C6)C=C5)cc3)cc2)c1
REMARK SMILES IDX 34 1 33 2 32 3 31 4 30 5 29 6 27 7 28 8 26 9 23 10 24 11
REMARK SMILES IDX 99 12 25 13 98 14 22 15 8 16 9 17 10 18 21 19 7 20 3 21 4 22
REMARK SMILES IDX 100 23 5 24 6 25 2 26 1 27 11 28 12 29 20 30 13 31 19 32
REMARK SMILES IDX 14 33 15 34 16 35 17 36 18 37 35 38 36 39 37 40 38 41 39 42
REMARK SMILES IDX 40 43 41 44 42 45 43 46 44 47 45 48 97 49 46 50 96 51 47 52
REMARK SMILES IDX 48 53 49 54 90 55 50 56 95 57 89 58 91 59 51 60 94 61 88 62
REMARK SMILES IDX 87 63 52 65 78 66 61 67 77 68 62 69 65 70 76 71 92 72 63 73
REMARK SMILES IDX 64 74 75 76 93 77 66 78 53 79 54 80 59 81 55 82 56 83 58 84
REMARK SMILES IDX 60 85 57 86 79 87 80 88 85 89 81 90 82 91 84 92 86 93 83 94
REMARK SMILES IDX 67 95 68 96 73 97 69 98 70 99 72 100 74 101 71 102
REMARK H PARENT 91 64 65 75
REMARK Flexibility Score: inf
ROOT
ATOM      1  C   UNL     1       5.302  -2.388  -8.666  1.00  0.00     0.188 C 
ENDROOT
BRANCH   1   2
ATOM      2  C   UNL     1       4.063  -3.310  -8.685  1.00  0.00     0.188 C 
BRANCH   2   3
ATOM      3  O   UNL     1       3.525  -3.518  -9.981  1.00  0.00    -0.376 OA
BRANCH   3   4
ATOM      4  C   UNL     1       2.281  -2.936 -10.313  1.00  0.00     0.202 C 
BRANCH   4   5
ATOM      5  C   UNL     1       2.141  -1.407 -10.267  1.00  0.00     0.261 C 
BRANCH   5   6
ATOM      6  O   UNL     1       2.736  -0.753  -9.143  1.00  0.00    -0.460 OA
BRANCH   6   7
ATOM      7  C   UNL     1       2.110  -0.894  -7.954  1.00  0.00     0.338 C 
ATOM      8  O   UNL     1       1.077  -1.504  -7.744  1.00  0.00    -0.246 OA
BRANCH   7   9
ATOM      9  C   UNL     1       2.991  -0.332  -6.903  1.00  0.00     0.060 A 
ATOM     10  C   UNL     1       4.523   0.760  -4.826  1.00  0.00     0.060 A 
ATOM     11  C   UNL     1       3.955  -0.513  -4.689  1.00  0.00     0.029 A 
ATOM     12  C   UNL     1       4.421   1.416  -6.062  1.00  0.00     0.029 A 
ATOM     13  C   UNL     1       3.159  -1.042  -5.709  1.00  0.00     0.018 A 
ATOM     14  C   UNL     1       3.673   0.871  -7.104  1.00  0.00     0.018 A 
BRANCH  10  15
ATOM     15  N   UNL     1       4.996   1.460  -3.715  1.00  0.00    -0.257 N 
ATOM     16  C   UNL     1       4.203   2.578  -3.181  1.00  0.00     0.144 C 
ATOM     17  C   UNL     1       4.874   2.852  -1.837  1.00  0.00     0.091 C 
ATOM     18  C   UNL     1       5.873   1.726  -1.802  1.00  0.00     0.071 C 
ATOM     19  N   UNL     1       5.892   0.939  -2.835  1.00  0.00    -0.176 NA
BRANCH  16  20
ATOM     20  C   UNL     1       2.717   2.244  -3.072  1.00  0.00    -0.019 A 
ATOM     21  C   UNL     1       0.886   0.905  -2.177  1.00  0.00     0.119 A 
ATOM     22  C   UNL     1       0.004   1.510  -3.070  1.00  0.00     0.046 A 
ATOM     23  C   UNL     1       2.238   1.254  -2.191  1.00  0.00     0.052 A 
ATOM     24  C   UNL     1       0.460   2.488  -3.951  1.00  0.00     0.004 A 
ATOM     25  C   UNL     1       1.806   2.856  -3.950  1.00  0.00     0.006 A 
BRANCH  21  26
ATOM     26  O   UNL     1       0.350  -0.073  -1.383  1.00  0.00    -0.497 OA
ATOM     27  C   UNL     1       0.868  -0.108  -0.058  1.00  0.00     0.278 C 
ENDBRANCH  21  26
ENDBRANCH  16  20
BRANCH  18  28
ATOM     28  C   UNL     1       6.810   1.619  -0.675  1.00  0.00    -0.002 A 
ATOM     29  C   UNL     1       8.183   1.657  -0.943  1.00  0.00     0.011 A 
ATOM     30  C   UNL     1       6.340   1.568   0.640  1.00  0.00     0.011 A 
ATOM     31  C   UNL     1       9.096   1.663   0.114  1.00  0.00     0.021 A 
ATOM     32  C   UNL     1       7.252   1.546   1.698  1.00  0.00     0.021 A 
ATOM     33  C   UNL     1       8.624   1.597   1.429  1.00  0.00     0.067 A 
BRANCH  33  34
ATOM     34  S   UNL     1       9.790   1.632   2.773  1.00  0.00     0.175 S 
ATOM     35  C   UNL     1      10.777   0.177   2.540  1.00  0.00     0.163 C 
ATOM     36  O   UNL     1      10.630   2.795   2.565  1.00  0.00    -0.224 OA
ATOM     37  O   UNL     1       9.043   1.460   4.004  1.00  0.00    -0.224 OA
ENDBRANCH  33  34
ENDBRANCH  18  28
ENDBRANCH  10  15
ENDBRANCH   7   9
ENDBRANCH   6   7
ENDBRANCH   5   6
ENDBRANCH   4   5
ENDBRANCH   3   4
ENDBRANCH   2   3
ENDBRANCH   1   2
BRANCH   1  38
ATOM     38  O   UNL     1       5.640  -1.660  -9.839  1.00  0.00    -0.377 OA
BRANCH  38  39
ATOM     39  C   UNL     1       5.680  -2.319 -11.102  1.00  0.00     0.188 C 
BRANCH  39  40
ATOM     40  C   UNL     1       5.931  -3.842 -11.226  1.00  0.00     0.188 C 
BRANCH  40  41
ATOM     41  O   UNL     1       6.262  -4.489 -10.011  1.00  0.00    -0.376 OA
BRANCH  41  42
ATOM     42  C   UNL     1       7.596  -4.921  -9.825  1.00  0.00     0.202 C 
BRANCH  42  43
ATOM     43  C   UNL     1       8.692  -3.847  -9.820  1.00  0.00     0.261 C 
BRANCH  43  44
ATOM     44  O   UNL     1       8.692  -2.932 -10.924  1.00  0.00    -0.460 OA
BRANCH  44  45
ATOM     45  C   UNL     1       8.992  -3.421 -12.145  1.00  0.00     0.338 C 
ATOM     46  O   UNL     1       9.257  -4.575 -12.438  1.00  0.00    -0.246 OA
BRANCH  45  47
ATOM     47  C   UNL     1       8.780  -2.329 -13.114  1.00  0.00     0.060 A 
ATOM     48  C   UNL     1       7.804  -2.462 -14.113  1.00  0.00     0.016 A 
ATOM     49  C   UNL     1       9.536  -1.160 -13.011  1.00  0.00     0.016 A 
ATOM     50  C   UNL     1       7.601  -1.429 -15.031  1.00  0.00     0.010 A 
ATOM     51  C   UNL     1       9.348  -0.140 -13.942  1.00  0.00     0.010 A 
ATOM     52  C   UNL     1       8.402  -0.282 -14.974  1.00  0.00    -0.014 A 
BRANCH  52  53
ATOM     53  C   UNL     1       8.421   0.686 -16.095  1.00  0.00     0.031 A 
ATOM     54  C   UNL     1       9.526   0.565 -17.107  1.00  0.00     0.074 A 
ATOM     55  C   UNL     1       7.511   1.669 -16.196  1.00  0.00     0.049 A 
ATOM     56  N   UNL     1       9.860   1.373 -18.078  1.00  0.00    -0.248 NA
ATOM     57  C   UNL     1      10.377  -0.633 -16.998  1.00  0.00     0.031 C 
ATOM     58  C   UNL     1       6.364   1.859 -15.312  1.00  0.00     0.029 A 
ATOM     59  N   UNL     1       7.430   2.714 -17.084  1.00  0.00    -0.354 N 
ATOM     60  C   UNL     1      10.967   0.792 -18.684  1.00  0.00     0.074 A 
ATOM     61  C   UNL     1      11.265  -0.421 -17.957  1.00  0.00     0.031 C 
ATOM     62  C   UNL     1       5.705   2.969 -15.687  1.00  0.00     0.029 A 
ATOM     63  C   UNL     1       6.411   3.592 -16.806  1.00  0.00     0.049 A 
ATOM     64  H   UNL     1       8.043   2.822 -17.847  1.00  0.00     0.167 HD
ATOM     65  C   UNL     1      11.669   1.232 -19.754  1.00  0.00     0.037 A 
ATOM     66  C   UNL     1       6.112   4.780 -17.369  1.00  0.00     0.037 A 
ATOM     67  C   UNL     1      11.372   2.445 -20.465  1.00  0.00     0.049 A 
ATOM     68  C   UNL     1       6.969   5.300 -18.497  1.00  0.00     0.074 A 
ATOM     69  C   UNL     1      12.021   2.981 -21.563  1.00  0.00     0.029 A 
ATOM     70  N   UNL     1      10.343   3.316 -20.141  1.00  0.00    -0.354 N 
ATOM     71  N   UNL     1       8.009   4.745 -19.072  1.00  0.00    -0.248 NA
ATOM     72  C   UNL     1       6.613   6.614 -19.053  1.00  0.00     0.031 C 
ATOM     73  C   UNL     1      11.420   4.205 -21.869  1.00  0.00     0.029 A 
ATOM     74  C   UNL     1      10.353   4.397 -21.005  1.00  0.00     0.049 A 
ATOM     75  H   UNL     1       9.701   3.185 -19.406  1.00  0.00     0.167 HD
ATOM     76  C   UNL     1       8.399   5.615 -20.083  1.00  0.00     0.074 A 
ATOM     77  C   UNL     1       7.488   6.739 -20.042  1.00  0.00     0.031 C 
ATOM     78  C   UNL     1       9.416   5.492 -20.971  1.00  0.00     0.037 A 
BRANCH  65  79
ATOM     79  C   UNL     1      12.845   0.411 -20.196  1.00  0.00     0.057 A 
ATOM     80  C   UNL     1      12.689  -0.845 -20.797  1.00  0.00     0.134 A 
ATOM     81  C   UNL     1      14.150   0.899 -20.048  1.00  0.00     0.134 A 
ATOM     82  F   UNL     1      11.468  -1.377 -20.954  1.00  0.00    -0.206 F 
ATOM     83  C   UNL     1      13.790  -1.596 -21.213  1.00  0.00     0.040 A 
ATOM     84  C   UNL     1      15.256   0.171 -20.487  1.00  0.00     0.040 A 
ATOM     85  F   UNL     1      14.370   2.096 -19.483  1.00  0.00    -0.206 F 
ATOM     86  C   UNL     1      15.078  -1.084 -21.066  1.00  0.00     0.006 A 
ENDBRANCH  65  79
BRANCH  66  87
ATOM     87  C   UNL     1       4.963   5.580 -16.869  1.00  0.00     0.057 A 
ATOM     88  C   UNL     1       3.836   5.807 -17.668  1.00  0.00     0.134 A 
ATOM     89  C   UNL     1       4.977   6.166 -15.597  1.00  0.00     0.134 A 
ATOM     90  F   UNL     1       3.772   5.294 -18.905  1.00  0.00    -0.206 F 
ATOM     91  C   UNL     1       2.777   6.605 -17.231  1.00  0.00     0.040 A 
ATOM     92  C   UNL     1       3.912   6.943 -15.136  1.00  0.00     0.040 A 
ATOM     93  F   UNL     1       6.026   5.990 -14.780  1.00  0.00    -0.206 F 
ATOM     94  C   UNL     1       2.812   7.172 -15.959  1.00  0.00     0.006 A 
ENDBRANCH  66  87
BRANCH  78  95
ATOM     95  C   UNL     1       9.562   6.551 -22.026  1.00  0.00     0.057 A 
ATOM     96  C   UNL     1      10.046   7.832 -21.738  1.00  0.00     0.134 A 
ATOM     97  C   UNL     1       9.296   6.246 -23.368  1.00  0.00     0.134 A 
ATOM     98  F   UNL     1      10.310   8.191 -20.472  1.00  0.00    -0.206 F 
ATOM     99  C   UNL     1      10.250   8.777 -22.746  1.00  0.00     0.040 A 
ATOM    100  C   UNL     1       9.524   7.171 -24.387  1.00  0.00     0.040 A 
ATOM    101  F   UNL     1       8.841   5.032 -23.714  1.00  0.00    -0.206 F 
ATOM    102  C   UNL     1      10.000   8.443 -24.076  1.00  0.00     0.006 A 
ENDBRANCH  78  95
ENDBRANCH  52  53
ENDBRANCH  45  47
ENDBRANCH  44  45
ENDBRANCH  43  44
ENDBRANCH  42  43
ENDBRANCH  41  42
ENDBRANCH  40  41
ENDBRANCH  39  40
ENDBRANCH  38  39
ENDBRANCH   1  38
TORSDOF 25
