REMARK SMILES C[C@]12C(=O)N(c3ccc(C(=O)OCCOCCOCCOCCOC(=O)c4ccc(-c5c6nc(c(-c7c(F)cccc7F)c7ccc([nH]7)c(-c7c(F)cccc7F)c7nc(c(-c8c(F)cccc8F)c8ccc5[nH]8)C=C7)C=C6)cc4)cc3)C(=O)[C@H]1[C@H]1c3ccccc3[C@@H]2c2ccccc21
REMARK SMILES IDX 19 1 18 2 17 3 16 4 15 5 14 6 13 7 12 8 10 9 11 10 9 11 6 12
REMARK SMILES IDX 7 13 82 14 8 15 81 16 5 17 1 18 2 19 3 20 85 21 93 22 4 23
REMARK SMILES IDX 83 24 86 25 92 26 94 27 84 28 87 29 99 30 91 31 95 32 88 33
REMARK SMILES IDX 98 34 90 35 96 36 89 37 97 38 20 39 21 40 22 41 23 42 24 43
REMARK SMILES IDX 25 44 26 45 27 46 28 47 80 48 29 49 79 50 30 51 31 52 32 53
REMARK SMILES IDX 73 54 33 55 78 56 72 57 74 58 34 59 77 60 71 61 70 62 35 64
REMARK SMILES IDX 61 65 44 66 60 67 45 68 48 69 59 70 75 71 46 72 47 73 58 75
REMARK SMILES IDX 76 76 49 77 36 78 37 79 42 80 38 81 39 82 41 83 43 84 40 85
REMARK SMILES IDX 62 86 63 87 68 88 64 89 65 90 67 91 69 92 66 93 50 94 51 95
REMARK SMILES IDX 56 96 52 97 53 98 55 99 57 100 54 101
REMARK H PARENT 74 63 48 74
REMARK Flexibility Score: inf
ROOT
ATOM      1  C   UNL     1       0.634  10.736  -4.174  1.00  0.00     0.188 C 
ENDROOT
BRANCH   1   2
ATOM      2  O   UNL     1       0.389   9.333  -4.184  1.00  0.00    -0.377 OA
BRANCH   2   3
ATOM      3  C   UNL     1       1.497   8.449  -4.165  1.00  0.00     0.188 C 
BRANCH   3   4
ATOM      4  C   UNL     1       2.241   8.349  -5.507  1.00  0.00     0.188 C 
BRANCH   4   5
ATOM      5  O   UNL     1       1.930   9.431  -6.369  1.00  0.00    -0.376 OA
BRANCH   5   6
ATOM      6  C   UNL     1       1.017   9.229  -7.433  1.00  0.00     0.202 C 
BRANCH   6   7
ATOM      7  C   UNL     1      -0.347   8.530  -7.253  1.00  0.00     0.261 C 
BRANCH   7   8
ATOM      8  O   UNL     1      -0.474   7.566  -6.204  1.00  0.00    -0.460 OA
BRANCH   8   9
ATOM      9  C   UNL     1      -0.147   6.292  -6.494  1.00  0.00     0.338 C 
ATOM     10  O   UNL     1       0.260   5.857  -7.557  1.00  0.00    -0.246 OA
BRANCH   9  11
ATOM     11  C   UNL     1      -0.158   5.521  -5.235  1.00  0.00     0.060 A 
ATOM     12  C   UNL     1      -0.095   3.860  -2.962  1.00  0.00     0.052 A 
ATOM     13  C   UNL     1       1.081   4.170  -3.671  1.00  0.00     0.028 A 
ATOM     14  C   UNL     1      -1.274   4.523  -3.332  1.00  0.00     0.028 A 
ATOM     15  C   UNL     1       1.041   4.941  -4.830  1.00  0.00     0.018 A 
ATOM     16  C   UNL     1      -1.303   5.373  -4.451  1.00  0.00     0.018 A 
BRANCH  12  17
ATOM     17  N   UNL     1      -0.089   2.723  -2.098  1.00  0.00    -0.250 N 
ATOM     18  C   UNL     1       1.406   0.137  -0.225  1.00  0.00     0.024 C 
ATOM     19  C   UNL     1       0.859   0.655  -1.561  1.00  0.00     0.071 C 
ATOM     20  C   UNL     1       1.070   2.140  -1.645  1.00  0.00     0.241 C 
ATOM     21  C   UNL     1      -0.686   0.489  -1.639  1.00  0.00     0.107 C 
ATOM     22  C   UNL     1       1.538   0.008  -2.826  1.00  0.00     0.066 C 
ATOM     23  O   UNL     1       2.137   2.679  -1.374  1.00  0.00    -0.273 OA
ATOM     24  C   UNL     1      -1.182   1.909  -1.869  1.00  0.00     0.238 C 
ATOM     25  C   UNL     1      -1.061  -0.447  -2.837  1.00  0.00     0.063 C 
ATOM     26  C   UNL     1       0.826   0.518  -4.094  1.00  0.00    -0.036 A 
ATOM     27  C   UNL     1       1.194  -1.470  -2.740  1.00  0.00    -0.036 A 
ATOM     28  O   UNL     1      -2.372   2.192  -1.891  1.00  0.00    -0.274 OA
ATOM     29  C   UNL     1      -0.573   0.270  -4.097  1.00  0.00    -0.036 A 
ATOM     30  C   UNL     1      -0.206  -1.721  -2.722  1.00  0.00    -0.036 A 
ATOM     31  C   UNL     1       1.414   1.200  -5.150  1.00  0.00     0.005 A 
ATOM     32  C   UNL     1       2.122  -2.502  -2.733  1.00  0.00     0.005 A 
ATOM     33  C   UNL     1      -1.383   0.732  -5.126  1.00  0.00     0.004 A 
ATOM     34  C   UNL     1      -0.667  -3.028  -2.714  1.00  0.00     0.004 A 
ATOM     35  C   UNL     1       0.595   1.669  -6.183  1.00  0.00     0.000 A 
ATOM     36  C   UNL     1       1.648  -3.811  -2.716  1.00  0.00     0.000 A 
ATOM     37  C   UNL     1      -0.790   1.444  -6.167  1.00  0.00     0.000 A 
ATOM     38  C   UNL     1       0.268  -4.070  -2.710  1.00  0.00     0.000 A 
ENDBRANCH  12  17
ENDBRANCH   9  11
ENDBRANCH   8   9
ENDBRANCH   7   8
ENDBRANCH   6   7
ENDBRANCH   5   6
ENDBRANCH   4   5
ENDBRANCH   3   4
ENDBRANCH   2   3
ENDBRANCH   1   2
BRANCH   1  39
ATOM     39  C   UNL     1       2.048  11.357  -4.287  1.00  0.00     0.188 C 
BRANCH  39  40
ATOM     40  O   UNL     1       3.093  10.609  -3.678  1.00  0.00    -0.376 OA
BRANCH  40  41
ATOM     41  C   UNL     1       3.626  11.119  -2.463  1.00  0.00     0.202 C 
BRANCH  41  42
ATOM     42  C   UNL     1       2.748  10.857  -1.235  1.00  0.00     0.261 C 
BRANCH  42  43
ATOM     43  O   UNL     1       1.454  11.478  -1.268  1.00  0.00    -0.460 OA
BRANCH  43  44
ATOM     44  C   UNL     1       1.405  12.826  -1.346  1.00  0.00     0.338 C 
ATOM     45  O   UNL     1       2.345  13.602  -1.354  1.00  0.00    -0.246 OA
BRANCH  44  46
ATOM     46  C   UNL     1       0.001  13.198  -1.613  1.00  0.00     0.060 A 
ATOM     47  C   UNL     1      -1.026  12.694  -0.811  1.00  0.00     0.016 A 
ATOM     48  C   UNL     1      -0.290  14.016  -2.712  1.00  0.00     0.016 A 
ATOM     49  C   UNL     1      -2.349  13.033  -1.093  1.00  0.00     0.010 A 
ATOM     50  C   UNL     1      -1.617  14.347  -2.998  1.00  0.00     0.010 A 
ATOM     51  C   UNL     1      -2.652  13.877  -2.176  1.00  0.00    -0.014 A 
BRANCH  51  52
ATOM     52  C   UNL     1      -4.028  14.407  -2.324  1.00  0.00     0.031 A 
ATOM     53  C   UNL     1      -5.001  13.846  -3.315  1.00  0.00     0.074 A 
ATOM     54  C   UNL     1      -4.388  15.431  -1.528  1.00  0.00     0.049 A 
ATOM     55  N   UNL     1      -6.259  14.161  -3.496  1.00  0.00    -0.248 NA
ATOM     56  C   UNL     1      -4.500  12.806  -4.223  1.00  0.00     0.031 C 
ATOM     57  C   UNL     1      -3.514  16.076  -0.546  1.00  0.00     0.029 A 
ATOM     58  N   UNL     1      -5.575  16.105  -1.415  1.00  0.00    -0.354 N 
ATOM     59  C   UNL     1      -6.714  13.343  -4.521  1.00  0.00     0.074 A 
ATOM     60  C   UNL     1      -5.579  12.551  -4.955  1.00  0.00     0.031 C 
ATOM     61  C   UNL     1      -4.200  17.042   0.082  1.00  0.00     0.029 A 
ATOM     62  C   UNL     1      -5.551  17.097  -0.466  1.00  0.00     0.049 A 
ATOM     63  H   UNL     1      -6.369  15.898  -1.960  1.00  0.00     0.167 HD
ATOM     64  C   UNL     1      -7.965  13.254  -5.038  1.00  0.00     0.037 A 
ATOM     65  C   UNL     1      -6.511  17.955  -0.080  1.00  0.00     0.037 A 
ATOM     66  C   UNL     1      -9.082  14.067  -4.619  1.00  0.00     0.049 A 
ATOM     67  C   UNL     1      -7.869  17.873  -0.713  1.00  0.00     0.074 A 
ATOM     68  C   UNL     1     -10.397  14.017  -5.053  1.00  0.00     0.029 A 
ATOM     69  N   UNL     1      -9.013  15.091  -3.686  1.00  0.00    -0.354 N 
ATOM     70  N   UNL     1      -8.311  17.033  -1.617  1.00  0.00    -0.248 NA
ATOM     71  C   UNL     1      -8.864  18.856  -0.264  1.00  0.00     0.031 C 
ATOM     72  C   UNL     1     -11.109  15.045  -4.423  1.00  0.00     0.029 A 
ATOM     73  C   UNL     1     -10.251  15.704  -3.558  1.00  0.00     0.049 A 
ATOM     74  H   UNL     1      -8.203  15.346  -3.188  1.00  0.00     0.167 HD
ATOM     75  C   UNL     1      -9.640  17.371  -1.830  1.00  0.00     0.074 A 
ATOM     76  C   UNL     1      -9.938  18.478  -0.943  1.00  0.00     0.031 C 
ATOM     77  C   UNL     1     -10.534  16.814  -2.683  1.00  0.00     0.037 A 
BRANCH  64  78
ATOM     78  C   UNL     1      -8.197  12.240  -6.121  1.00  0.00     0.057 A 
ATOM     79  C   UNL     1      -8.467  12.638  -7.436  1.00  0.00     0.134 A 
ATOM     80  C   UNL     1      -8.209  10.865  -5.849  1.00  0.00     0.134 A 
ATOM     81  F   UNL     1      -8.486  13.939  -7.764  1.00  0.00    -0.206 F 
ATOM     82  C   UNL     1      -8.741  11.707  -8.441  1.00  0.00     0.040 A 
ATOM     83  C   UNL     1      -8.457   9.923  -6.850  1.00  0.00     0.040 A 
ATOM     84  F   UNL     1      -7.956  10.415  -4.611  1.00  0.00    -0.206 F 
ATOM     85  C   UNL     1      -8.730  10.345  -8.150  1.00  0.00     0.006 A 
ENDBRANCH  64  78
BRANCH  65  86
ATOM     86  C   UNL     1      -6.226  18.957   0.976  1.00  0.00     0.057 A 
ATOM     87  C   UNL     1      -5.369  20.038   0.741  1.00  0.00     0.134 A 
ATOM     88  C   UNL     1      -6.820  18.862   2.239  1.00  0.00     0.134 A 
ATOM     89  F   UNL     1      -4.763  20.178  -0.447  1.00  0.00    -0.206 F 
ATOM     90  C   UNL     1      -5.110  20.990   1.728  1.00  0.00     0.040 A 
ATOM     91  C   UNL     1      -6.590  19.821   3.226  1.00  0.00     0.040 A 
ATOM     92  F   UNL     1      -7.662  17.856   2.515  1.00  0.00    -0.206 F 
ATOM     93  C   UNL     1      -5.730  20.887   2.971  1.00  0.00     0.006 A 
ENDBRANCH  65  86
BRANCH  77  94
ATOM     94  C   UNL     1     -11.921  17.391  -2.682  1.00  0.00     0.057 A 
ATOM     95  C   UNL     1     -12.996  16.671  -2.146  1.00  0.00     0.134 A 
ATOM     96  C   UNL     1     -12.193  18.661  -3.209  1.00  0.00     0.134 A 
ATOM     97  F   UNL     1     -12.807  15.448  -1.628  1.00  0.00    -0.206 F 
ATOM     98  C   UNL     1     -14.290  17.194  -2.132  1.00  0.00     0.040 A 
ATOM     99  C   UNL     1     -13.478  19.206  -3.175  1.00  0.00     0.040 A 
ATOM    100  F   UNL     1     -11.204  19.411  -3.719  1.00  0.00    -0.206 F 
ATOM    101  C   UNL     1     -14.532  18.469  -2.639  1.00  0.00     0.006 A 
ENDBRANCH  77  94
ENDBRANCH  51  52
ENDBRANCH  44  46
ENDBRANCH  43  44
ENDBRANCH  42  43
ENDBRANCH  41  42
ENDBRANCH  40  41
ENDBRANCH  39  40
ENDBRANCH   1  39
TORSDOF 21
