REMARK SMILES CC(C)Cc1ccc([C@H](CF)C(=O)OCCOCCOCCOCCOC(=O)c2ccc(-c3c4nc(c(-c5c(F)cccc5F)c5ccc([nH]5)c(-c5c(F)cccc5F)c5nc(c(-c6c(F)cccc6F)c6ccc3[nH]6)C=C5)C=C4)cc2)cc1
REMARK SMILES IDX 19 1 18 2 17 3 16 4 15 5 14 6 12 7 13 8 9 9 8 10 5 11 6 12
REMARK SMILES IDX 84 13 7 14 83 15 4 16 2 17 1 18 3 19 10 20 11 21 20 22 21 23
REMARK SMILES IDX 22 24 23 25 24 26 25 27 26 28 27 29 28 30 29 31 30 32 82 33
REMARK SMILES IDX 31 34 81 35 32 36 33 37 34 38 75 39 35 40 80 41 74 42 76 43
REMARK SMILES IDX 36 44 79 45 73 46 72 47 37 49 63 50 46 51 62 52 47 53 50 54
REMARK SMILES IDX 61 55 77 56 48 57 49 58 60 60 78 61 51 62 38 63 39 64 44 65
REMARK SMILES IDX 40 66 41 67 43 68 45 69 42 70 64 71 65 72 70 73 66 74 67 75
REMARK SMILES IDX 69 76 71 77 68 78 52 79 53 80 58 81 54 82 55 83 57 84 59 85
REMARK SMILES IDX 56 86
REMARK H PARENT 76 48 50 59
REMARK Flexibility Score: inf
ROOT
ATOM      1  C   UNL     1      -1.883  -3.467  -2.102  1.00  0.00     0.188 C 
ENDROOT
BRANCH   1   2
ATOM      2  C   UNL     1      -2.065  -4.796  -2.843  1.00  0.00     0.188 C 
BRANCH   2   3
ATOM      3  O   UNL     1      -3.167  -4.784  -3.730  1.00  0.00    -0.376 OA
BRANCH   3   4
ATOM      4  C   UNL     1      -4.396  -5.320  -3.278  1.00  0.00     0.202 C 
BRANCH   4   5
ATOM      5  C   UNL     1      -5.036  -4.840  -1.959  1.00  0.00     0.261 C 
BRANCH   5   6
ATOM      6  O   UNL     1      -4.192  -4.621  -0.812  1.00  0.00    -0.463 OA
BRANCH   6   7
ATOM      7  C   UNL     1      -3.618  -5.710  -0.250  1.00  0.00     0.316 C 
ATOM      8  O   UNL     1      -3.728  -6.844  -0.711  1.00  0.00    -0.251 OA
BRANCH   7   9
ATOM      9  C   UNL     1      -2.932  -5.422   1.090  1.00  0.00     0.160 C 
BRANCH   9  10
ATOM     10  C   UNL     1      -3.971  -5.636   2.164  1.00  0.00    -0.031 A 
ATOM     11  C   UNL     1      -6.118  -6.109   3.888  1.00  0.00    -0.048 A 
ATOM     12  C   UNL     1      -5.411  -7.181   3.328  1.00  0.00     0.004 A 
ATOM     13  C   UNL     1      -5.687  -4.804   3.634  1.00  0.00     0.004 A 
ATOM     14  C   UNL     1      -4.340  -6.947   2.480  1.00  0.00     0.005 A 
ATOM     15  C   UNL     1      -4.651  -4.565   2.748  1.00  0.00     0.005 A 
BRANCH  11  16
ATOM     16  C   UNL     1      -7.324  -6.415   4.739  1.00  0.00     0.038 C 
BRANCH  16  17
ATOM     17  C   UNL     1      -8.278  -5.238   5.021  1.00  0.00    -0.013 C 
ATOM     18  C   UNL     1      -8.987  -4.744   3.754  1.00  0.00     0.008 C 
ATOM     19  C   UNL     1      -9.311  -5.661   6.062  1.00  0.00     0.008 C 
ENDBRANCH  16  17
ENDBRANCH  11  16
ENDBRANCH   9  10
BRANCH   9  20
ATOM     20  C   UNL     1      -2.207  -4.089   1.265  1.00  0.00     0.234 C 
ATOM     21  F   UNL     1      -0.943  -4.194   0.761  1.00  0.00    -0.250 F 
ENDBRANCH   9  20
ENDBRANCH   7   9
ENDBRANCH   6   7
ENDBRANCH   5   6
ENDBRANCH   4   5
ENDBRANCH   3   4
ENDBRANCH   2   3
ENDBRANCH   1   2
BRANCH   1  22
ATOM     22  O   UNL     1      -2.893  -2.477  -2.204  1.00  0.00    -0.377 OA
BRANCH  22  23
ATOM     23  C   UNL     1      -3.290  -2.025  -3.492  1.00  0.00     0.188 C 
BRANCH  23  24
ATOM     24  C   UNL     1      -2.397  -2.244  -4.734  1.00  0.00     0.188 C 
BRANCH  24  25
ATOM     25  O   UNL     1      -1.082  -2.700  -4.471  1.00  0.00    -0.376 OA
BRANCH  25  26
ATOM     26  C   UNL     1      -0.021  -1.761  -4.484  1.00  0.00     0.202 C 
BRANCH  26  27
ATOM     27  C   UNL     1      -0.056  -0.620  -3.455  1.00  0.00     0.261 C 
BRANCH  27  28
ATOM     28  O   UNL     1      -1.243   0.184  -3.448  1.00  0.00    -0.460 OA
BRANCH  28  29
ATOM     29  C   UNL     1      -1.510   0.888  -4.573  1.00  0.00     0.338 C 
ATOM     30  O   UNL     1      -0.854   0.936  -5.587  1.00  0.00    -0.246 OA
BRANCH  29  31
ATOM     31  C   UNL     1      -2.865   1.458  -4.419  1.00  0.00     0.060 A 
ATOM     32  C   UNL     1      -3.871   1.057  -5.308  1.00  0.00     0.016 A 
ATOM     33  C   UNL     1      -3.137   2.373  -3.400  1.00  0.00     0.016 A 
ATOM     34  C   UNL     1      -5.151   1.595  -5.198  1.00  0.00     0.010 A 
ATOM     35  C   UNL     1      -4.411   2.936  -3.312  1.00  0.00     0.010 A 
ATOM     36  C   UNL     1      -5.411   2.574  -4.232  1.00  0.00    -0.014 A 
BRANCH  36  37
ATOM     37  C   UNL     1      -6.652   3.376  -4.333  1.00  0.00     0.031 A 
ATOM     38  C   UNL     1      -6.577   4.703  -5.037  1.00  0.00     0.074 A 
ATOM     39  C   UNL     1      -7.820   2.931  -3.838  1.00  0.00     0.049 A 
ATOM     40  N   UNL     1      -7.505   5.607  -5.209  1.00  0.00    -0.248 NA
ATOM     41  C   UNL     1      -5.274   5.058  -5.627  1.00  0.00     0.031 C 
ATOM     42  C   UNL     1      -8.024   1.645  -3.175  1.00  0.00     0.029 A 
ATOM     43  N   UNL     1      -9.056   3.527  -3.808  1.00  0.00    -0.354 N 
ATOM     44  C   UNL     1      -6.896   6.641  -5.908  1.00  0.00     0.074 A 
ATOM     45  C   UNL     1      -5.516   6.265  -6.115  1.00  0.00     0.031 C 
ATOM     46  C   UNL     1      -9.307   1.559  -2.781  1.00  0.00     0.029 A 
ATOM     47  C   UNL     1     -10.002   2.796  -3.134  1.00  0.00     0.049 A 
ATOM     48  H   UNL     1      -9.245   4.396  -4.230  1.00  0.00     0.167 HD
ATOM     49  C   UNL     1      -7.442   7.801  -6.341  1.00  0.00     0.037 A 
ATOM     50  C   UNL     1     -11.274   3.109  -2.813  1.00  0.00     0.037 A 
ATOM     51  C   UNL     1      -8.818   8.166  -6.140  1.00  0.00     0.049 A 
ATOM     52  C   UNL     1     -11.840   4.435  -3.256  1.00  0.00     0.074 A 
ATOM     53  C   UNL     1      -9.477   9.303  -6.573  1.00  0.00     0.029 A 
ATOM     54  N   UNL     1      -9.742   7.407  -5.440  1.00  0.00    -0.354 N 
ATOM     55  N   UNL     1     -11.269   5.390  -3.951  1.00  0.00    -0.248 NA
ATOM     56  C   UNL     1     -13.230   4.726  -2.873  1.00  0.00     0.031 C 
ATOM     57  C   UNL     1     -10.783   9.263  -6.077  1.00  0.00     0.029 A 
ATOM     58  C   UNL     1     -10.957   8.068  -5.397  1.00  0.00     0.049 A 
ATOM     59  H   UNL     1      -9.561   6.529  -5.033  1.00  0.00     0.167 HD
ATOM     60  C   UNL     1     -12.237   6.375  -4.116  1.00  0.00     0.074 A 
ATOM     61  C   UNL     1     -13.435   5.895  -3.462  1.00  0.00     0.031 C 
ATOM     62  C   UNL     1     -12.145   7.569  -4.752  1.00  0.00     0.037 A 
BRANCH  49  63
ATOM     63  C   UNL     1      -6.545   8.779  -7.040  1.00  0.00     0.057 A 
ATOM     64  C   UNL     1      -6.061   8.555  -8.335  1.00  0.00     0.134 A 
ATOM     65  C   UNL     1      -6.207   9.991  -6.424  1.00  0.00     0.134 A 
ATOM     66  F   UNL     1      -6.333   7.407  -8.974  1.00  0.00    -0.206 F 
ATOM     67  C   UNL     1      -5.264   9.498  -8.988  1.00  0.00     0.040 A 
ATOM     68  C   UNL     1      -5.435  10.952  -7.076  1.00  0.00     0.040 A 
ATOM     69  F   UNL     1      -6.637  10.267  -5.183  1.00  0.00    -0.206 F 
ATOM     70  C   UNL     1      -4.959  10.705  -8.362  1.00  0.00     0.006 A 
ENDBRANCH  49  63
BRANCH  50  71
ATOM     71  C   UNL     1     -12.094   2.176  -1.996  1.00  0.00     0.057 A 
ATOM     72  C   UNL     1     -13.238   1.558  -2.516  1.00  0.00     0.134 A 
ATOM     73  C   UNL     1     -11.781   1.921  -0.654  1.00  0.00     0.134 A 
ATOM     74  F   UNL     1     -13.606   1.779  -3.786  1.00  0.00    -0.206 F 
ATOM     75  C   UNL     1     -14.056   0.748  -1.726  1.00  0.00     0.040 A 
ATOM     76  C   UNL     1     -12.573   1.089   0.139  1.00  0.00     0.040 A 
ATOM     77  F   UNL     1     -10.700   2.481  -0.092  1.00  0.00    -0.206 F 
ATOM     78  C   UNL     1     -13.722   0.509  -0.394  1.00  0.00     0.006 A 
ENDBRANCH  50  71
BRANCH  62  79
ATOM     79  C   UNL     1     -13.382   8.419  -4.817  1.00  0.00     0.057 A 
ATOM     80  C   UNL     1     -13.901   9.066  -3.689  1.00  0.00     0.134 A 
ATOM     81  C   UNL     1     -14.032   8.632  -6.040  1.00  0.00     0.134 A 
ATOM     82  F   UNL     1     -13.332   8.898  -2.486  1.00  0.00    -0.206 F 
ATOM     83  C   UNL     1     -15.037   9.873  -3.770  1.00  0.00     0.040 A 
ATOM     84  C   UNL     1     -15.149   9.462  -6.140  1.00  0.00     0.040 A 
ATOM     85  F   UNL     1     -13.580   8.054  -7.163  1.00  0.00    -0.206 F 
ATOM     86  C   UNL     1     -15.659  10.080  -5.000  1.00  0.00     0.006 A 
ENDBRANCH  62  79
ENDBRANCH  36  37
ENDBRANCH  29  31
ENDBRANCH  28  29
ENDBRANCH  27  28
ENDBRANCH  26  27
ENDBRANCH  25  26
ENDBRANCH  24  25
ENDBRANCH  23  24
ENDBRANCH  22  23
ENDBRANCH   1  22
TORSDOF 24
