REMARK SMILES O=C(C[C@H]1CN(S(=O)(=O)N2CCCCC2)CCO1)OCCOCCOCCOCCOC(=O)c1ccc(-c2c3nc(c(-c4c(F)cccc4F)c4ccc([nH]4)c(-c4c(F)cccc4F)c4nc(c(-c5c(F)cccc5F)c5ccc2[nH]5)C=C4)C=C3)cc1
REMARK SMILES IDX 24 1 23 2 22 3 21 4 20 5 19 6 2 7 1 8 3 9 4 10 5 11 18 12
REMARK SMILES IDX 6 13 17 14 16 15 7 16 8 17 9 18 10 19 11 20 15 21 12 22
REMARK SMILES IDX 14 23 13 24 25 25 26 26 27 27 28 28 29 29 30 30 31 31 32 32
REMARK SMILES IDX 33 33 34 34 35 35 87 36 36 37 86 38 37 39 38 40 39 41 80 42
REMARK SMILES IDX 40 43 85 44 79 45 81 46 41 47 84 48 78 49 77 50 42 52 68 53
REMARK SMILES IDX 51 54 67 55 52 56 55 57 66 58 82 59 53 60 54 61 65 63 83 64
REMARK SMILES IDX 56 65 43 66 44 67 49 68 45 69 46 70 48 71 50 72 47 73 69 74
REMARK SMILES IDX 70 75 75 76 71 77 72 78 74 79 76 80 73 81 57 82 58 83 63 84
REMARK SMILES IDX 59 85 60 86 62 87 64 88 61 89
REMARK H PARENT 81 51 55 62
REMARK Flexibility Score: inf
ROOT
ATOM      1  C   UNL     1       3.619   0.397  -3.630  1.00  0.00     0.188 C 
ENDROOT
BRANCH   1   2
ATOM      2  C   UNL     1       2.865  -0.321  -2.499  1.00  0.00     0.188 C 
BRANCH   2   3
ATOM      3  O   UNL     1       2.538   0.165  -1.199  1.00  0.00    -0.376 OA
BRANCH   3   4
ATOM      4  C   UNL     1       3.214   0.997  -0.271  1.00  0.00     0.202 C 
BRANCH   4   5
ATOM      5  C   UNL     1       4.700   0.907   0.077  1.00  0.00     0.261 C 
BRANCH   5   6
ATOM      6  O   UNL     1       5.508   0.358  -0.944  1.00  0.00    -0.463 OA
BRANCH   6   7
ATOM      7  C   UNL     1       5.595  -0.984  -1.087  1.00  0.00     0.308 C 
ATOM      8  O   UNL     1       6.341  -1.426  -1.952  1.00  0.00    -0.252 OA
BRANCH   7   9
ATOM      9  C   UNL     1       4.634  -1.845  -0.287  1.00  0.00     0.156 C 
BRANCH   9  10
ATOM     10  C   UNL     1       5.139  -2.773   0.787  1.00  0.00     0.144 C 
ATOM     11  C   UNL     1       4.342  -4.095   0.770  1.00  0.00     0.136 C 
ATOM     12  O   UNL     1       6.544  -2.979   0.813  1.00  0.00    -0.375 OA
ATOM     13  N   UNL     1       4.769  -5.034  -0.297  1.00  0.00    -0.184 NA
ATOM     14  C   UNL     1       7.004  -3.870  -0.209  1.00  0.00     0.177 C 
ATOM     15  C   UNL     1       6.261  -5.207  -0.220  1.00  0.00     0.132 C 
BRANCH  13  16
ATOM     16  S   UNL     1       4.127  -5.085  -1.864  1.00  0.00     0.282 S 
ATOM     17  O   UNL     1       4.405  -3.857  -2.548  1.00  0.00    -0.195 OA
ATOM     18  O   UNL     1       4.589  -6.339  -2.437  1.00  0.00    -0.195 OA
BRANCH  16  19
ATOM     19  N   UNL     1       2.461  -5.220  -1.656  1.00  0.00    -0.189 NA
ATOM     20  C   UNL     1       1.955  -6.500  -1.130  1.00  0.00     0.103 C 
ATOM     21  C   UNL     1       1.631  -4.020  -1.398  1.00  0.00     0.103 C 
ATOM     22  C   UNL     1       0.500  -6.705  -1.536  1.00  0.00     0.017 C 
ATOM     23  C   UNL     1       0.145  -4.256  -1.673  1.00  0.00     0.017 C 
ATOM     24  C   UNL     1      -0.355  -5.549  -1.042  1.00  0.00     0.003 C 
ENDBRANCH  16  19
ENDBRANCH  13  16
ENDBRANCH   9  10
ENDBRANCH   7   9
ENDBRANCH   6   7
ENDBRANCH   5   6
ENDBRANCH   4   5
ENDBRANCH   3   4
ENDBRANCH   2   3
ENDBRANCH   1   2
BRANCH   1  25
ATOM     25  O   UNL     1       3.124   1.649  -4.067  1.00  0.00    -0.377 OA
BRANCH  25  26
ATOM     26  C   UNL     1       2.980   2.576  -3.019  1.00  0.00     0.188 C 
BRANCH  26  27
ATOM     27  C   UNL     1       1.517   2.729  -2.549  1.00  0.00     0.188 C 
BRANCH  27  28
ATOM     28  O   UNL     1       0.548   1.761  -2.905  1.00  0.00    -0.376 OA
BRANCH  28  29
ATOM     29  C   UNL     1       0.333   1.414  -4.266  1.00  0.00     0.202 C 
BRANCH  29  30
ATOM     30  C   UNL     1       0.458   2.397  -5.450  1.00  0.00     0.261 C 
BRANCH  30  31
ATOM     31  O   UNL     1       1.426   3.444  -5.350  1.00  0.00    -0.460 OA
BRANCH  31  32
ATOM     32  C   UNL     1       0.971   4.654  -4.950  1.00  0.00     0.338 C 
ATOM     33  O   UNL     1      -0.176   4.968  -4.687  1.00  0.00    -0.246 OA
BRANCH  32  34
ATOM     34  C   UNL     1       2.153   5.485  -4.635  1.00  0.00     0.060 A 
ATOM     35  C   UNL     1       2.314   5.978  -3.327  1.00  0.00     0.016 A 
ATOM     36  C   UNL     1       3.131   5.708  -5.604  1.00  0.00     0.016 A 
ATOM     37  C   UNL     1       3.456   6.699  -2.984  1.00  0.00     0.010 A 
ATOM     38  C   UNL     1       4.242   6.483  -5.278  1.00  0.00     0.010 A 
ATOM     39  C   UNL     1       4.388   7.006  -3.980  1.00  0.00    -0.014 A 
BRANCH  39  40
ATOM     40  C   UNL     1       5.330   8.127  -3.781  1.00  0.00     0.031 A 
ATOM     41  C   UNL     1       4.865   9.482  -4.226  1.00  0.00     0.074 A 
ATOM     42  C   UNL     1       6.566   7.946  -3.293  1.00  0.00     0.049 A 
ATOM     43  N   UNL     1       5.540  10.591  -4.366  1.00  0.00    -0.248 NA
ATOM     44  C   UNL     1       3.441   9.588  -4.587  1.00  0.00     0.031 C 
ATOM     45  C   UNL     1       7.103   6.688  -2.784  1.00  0.00     0.029 A 
ATOM     46  N   UNL     1       7.607   8.833  -3.188  1.00  0.00    -0.354 N 
ATOM     47  C   UNL     1       4.630  11.516  -4.861  1.00  0.00     0.074 A 
ATOM     48  C   UNL     1       3.364  10.837  -5.013  1.00  0.00     0.031 C 
ATOM     49  C   UNL     1       8.395   6.872  -2.461  1.00  0.00     0.029 A 
ATOM     50  C   UNL     1       8.780   8.245  -2.788  1.00  0.00     0.049 A 
ATOM     51  H   UNL     1       7.521   9.794  -3.381  1.00  0.00     0.167 HD
ATOM     52  C   UNL     1       4.836  12.815  -5.174  1.00  0.00     0.037 A 
ATOM     53  C   UNL     1      10.029   8.751  -2.745  1.00  0.00     0.037 A 
ATOM     54  C   UNL     1       6.108  13.470  -5.041  1.00  0.00     0.049 A 
ATOM     55  C   UNL     1      10.262  10.180  -3.163  1.00  0.00     0.074 A 
ATOM     56  C   UNL     1       6.431  14.787  -5.307  1.00  0.00     0.029 A 
ATOM     57  N   UNL     1       7.274  12.843  -4.623  1.00  0.00    -0.354 N 
ATOM     58  N   UNL     1       9.399  11.062  -3.611  1.00  0.00    -0.248 NA
ATOM     59  C   UNL     1      11.639  10.684  -3.072  1.00  0.00     0.031 C 
ATOM     60  C   UNL     1       7.807  14.941  -5.112  1.00  0.00     0.029 A 
ATOM     61  C   UNL     1       8.327  13.740  -4.652  1.00  0.00     0.049 A 
ATOM     62  H   UNL     1       7.341  11.901  -4.346  1.00  0.00     0.167 HD
ATOM     63  C   UNL     1      10.120  12.232  -3.823  1.00  0.00     0.074 A 
ATOM     64  C   UNL     1      11.492  11.946  -3.456  1.00  0.00     0.031 C 
ATOM     65  C   UNL     1       9.685  13.437  -4.271  1.00  0.00     0.037 A 
BRANCH  52  66
ATOM     66  C   UNL     1       3.674  13.571  -5.748  1.00  0.00     0.057 A 
ATOM     67  C   UNL     1       2.529  13.870  -4.997  1.00  0.00     0.134 A 
ATOM     68  C   UNL     1       3.688  13.974  -7.090  1.00  0.00     0.134 A 
ATOM     69  F   UNL     1       2.440  13.491  -3.713  1.00  0.00    -0.206 F 
ATOM     70  C   UNL     1       1.423  14.501  -5.570  1.00  0.00     0.040 A 
ATOM     71  C   UNL     1       2.603  14.638  -7.664  1.00  0.00     0.040 A 
ATOM     72  F   UNL     1       4.750  13.720  -7.868  1.00  0.00    -0.206 F 
ATOM     73  C   UNL     1       1.461  14.891  -6.907  1.00  0.00     0.006 A 
ENDBRANCH  52  66
BRANCH  53  74
ATOM     74  C   UNL     1      11.153   7.883  -2.315  1.00  0.00     0.057 A 
ATOM     75  C   UNL     1      11.793   8.079  -1.086  1.00  0.00     0.134 A 
ATOM     76  C   UNL     1      11.597   6.818  -3.110  1.00  0.00     0.134 A 
ATOM     77  F   UNL     1      11.429   9.095  -0.291  1.00  0.00    -0.206 F 
ATOM     78  C   UNL     1      12.833   7.249  -0.663  1.00  0.00     0.040 A 
ATOM     79  C   UNL     1      12.618   5.966  -2.689  1.00  0.00     0.040 A 
ATOM     80  F   UNL     1      11.026   6.578  -4.300  1.00  0.00    -0.206 F 
ATOM     81  C   UNL     1      13.241   6.182  -1.461  1.00  0.00     0.006 A 
ENDBRANCH  53  74
BRANCH  65  82
ATOM     82  C   UNL     1      10.679  14.561  -4.336  1.00  0.00     0.057 A 
ATOM     83  C   UNL     1      11.682  14.617  -5.310  1.00  0.00     0.134 A 
ATOM     84  C   UNL     1      10.571  15.648  -3.457  1.00  0.00     0.134 A 
ATOM     85  F   UNL     1      11.846  13.606  -6.177  1.00  0.00    -0.206 F 
ATOM     86  C   UNL     1      12.550  15.707  -5.400  1.00  0.00     0.040 A 
ATOM     87  C   UNL     1      11.412  16.756  -3.556  1.00  0.00     0.040 A 
ATOM     88  F   UNL     1       9.623  15.663  -2.507  1.00  0.00    -0.206 F 
ATOM     89  C   UNL     1      12.408  16.786  -4.528  1.00  0.00     0.006 A 
ENDBRANCH  65  82
ENDBRANCH  39  40
ENDBRANCH  32  34
ENDBRANCH  31  32
ENDBRANCH  30  31
ENDBRANCH  29  30
ENDBRANCH  28  29
ENDBRANCH  27  28
ENDBRANCH  26  27
ENDBRANCH  25  26
ENDBRANCH   1  25
TORSDOF 23
