REMARK SMILES C[C@@H]1[C@@H](C(=O)OCCOCCOCCOCCOC(=O)c2ccc(-c3c4nc(c(-c5c(F)cccc5F)c5ccc([nH]5)c(-c5c(F)cccc5F)c5nc(c(-c6c(F)cccc6F)c6ccc3[nH]6)C=C5)C=C4)cc2)CCN1C(=O)N1CCC[C@H]2CCC[C@@H]21
REMARK SMILES IDX 12 1 11 2 10 3 9 4 8 5 7 6 6 7 4 8 5 9 3 10 1 11 2 12 77 13
REMARK SMILES IDX 75 14 76 15 78 16 79 17 80 18 81 19 88 20 82 21 84 22 87 23
REMARK SMILES IDX 83 24 85 25 86 26 13 27 14 28 15 29 16 30 17 31 18 32 19 33
REMARK SMILES IDX 20 34 21 35 22 36 74 37 23 38 73 39 24 40 25 41 26 42 67 43
REMARK SMILES IDX 27 44 72 45 66 46 68 47 28 48 71 49 65 50 64 51 29 53 55 54
REMARK SMILES IDX 38 55 54 56 39 57 42 58 53 59 69 60 40 61 41 62 52 64 70 65
REMARK SMILES IDX 43 66 30 67 31 68 36 69 32 70 33 71 35 72 37 73 34 74 56 75
REMARK SMILES IDX 57 76 62 77 58 78 59 79 61 80 63 81 60 82 44 83 45 84 50 85
REMARK SMILES IDX 46 86 47 87 49 88 51 89 48 90
REMARK H PARENT 68 52 42 63
REMARK Flexibility Score: inf
ROOT
ATOM      1  O   UNL     1      -1.089   3.776  -2.470  1.00  0.00    -0.377 OA
ENDROOT
BRANCH   1   2
ATOM      2  C   UNL     1       0.231   3.333  -2.227  1.00  0.00     0.188 C 
BRANCH   2   3
ATOM      3  C   UNL     1       0.654   2.178  -3.150  1.00  0.00     0.188 C 
BRANCH   3   4
ATOM      4  O   UNL     1      -0.018   2.018  -4.384  1.00  0.00    -0.376 OA
BRANCH   4   5
ATOM      5  C   UNL     1      -1.387   1.671  -4.525  1.00  0.00     0.202 C 
BRANCH   5   6
ATOM      6  C   UNL     1      -2.391   1.277  -3.422  1.00  0.00     0.261 C 
BRANCH   6   7
ATOM      7  O   UNL     1      -1.943   1.281  -2.074  1.00  0.00    -0.463 OA
BRANCH   7   8
ATOM      8  C   UNL     1      -1.267   0.171  -1.700  1.00  0.00     0.311 C 
ATOM      9  O   UNL     1      -1.109  -0.809  -2.409  1.00  0.00    -0.252 OA
BRANCH   8  10
ATOM     10  C   UNL     1      -0.657   0.398  -0.331  1.00  0.00     0.123 C 
ATOM     11  C   UNL     1       1.556   0.179   0.834  1.00  0.00     0.032 C 
ATOM     12  C   UNL     1       0.590  -0.470  -0.164  1.00  0.00     0.098 C 
ATOM     13  N   UNL     1       0.027  -1.745   0.298  1.00  0.00    -0.321 N 
ATOM     14  C   UNL     1      -1.574  -0.053   0.789  1.00  0.00     0.039 C 
ATOM     15  C   UNL     1      -1.315  -1.551   0.841  1.00  0.00     0.122 C 
BRANCH  13  16
ATOM     16  C   UNL     1       0.307  -2.978  -0.294  1.00  0.00     0.320 C 
ATOM     17  O   UNL     1      -0.489  -3.915  -0.266  1.00  0.00    -0.248 OA
BRANCH  16  18
ATOM     18  N   UNL     1       1.485  -3.035  -1.006  1.00  0.00    -0.321 N 
ATOM     19  C   UNL     1       2.768  -2.897  -0.328  1.00  0.00     0.121 C 
ATOM     20  C   UNL     1       1.581  -3.702  -2.293  1.00  0.00     0.090 C 
ATOM     21  C   UNL     1       3.776  -2.125  -1.186  1.00  0.00     0.022 C 
ATOM     22  C   UNL     1       2.448  -2.816  -3.195  1.00  0.00     0.012 C 
ATOM     23  C   UNL     1       0.339  -3.898  -3.157  1.00  0.00     0.025 C 
ATOM     24  C   UNL     1       3.854  -2.674  -2.621  1.00  0.00     0.007 C 
ATOM     25  C   UNL     1       2.324  -3.478  -4.556  1.00  0.00     0.006 C 
ATOM     26  C   UNL     1       0.879  -3.990  -4.593  1.00  0.00     0.002 C 
ENDBRANCH  16  18
ENDBRANCH  13  16
ENDBRANCH   8  10
ENDBRANCH   7   8
ENDBRANCH   6   7
ENDBRANCH   5   6
ENDBRANCH   4   5
ENDBRANCH   3   4
ENDBRANCH   2   3
ENDBRANCH   1   2
BRANCH   1  27
ATOM     27  C   UNL     1      -1.240   4.866  -3.372  1.00  0.00     0.188 C 
BRANCH  27  28
ATOM     28  C   UNL     1      -0.271   5.023  -4.569  1.00  0.00     0.188 C 
BRANCH  28  29
ATOM     29  O   UNL     1       1.099   4.813  -4.256  1.00  0.00    -0.376 OA
BRANCH  29  30
ATOM     30  C   UNL     1       1.954   5.937  -4.131  1.00  0.00     0.202 C 
BRANCH  30  31
ATOM     31  C   UNL     1       1.724   6.845  -2.914  1.00  0.00     0.261 C 
BRANCH  31  32
ATOM     32  O   UNL     1       0.399   7.377  -2.775  1.00  0.00    -0.460 OA
BRANCH  32  33
ATOM     33  C   UNL     1      -0.036   8.200  -3.757  1.00  0.00     0.338 C 
ATOM     34  O   UNL     1       0.586   8.580  -4.726  1.00  0.00    -0.246 OA
BRANCH  33  35
ATOM     35  C   UNL     1      -1.486   8.409  -3.556  1.00  0.00     0.060 A 
ATOM     36  C   UNL     1      -2.369   8.038  -4.579  1.00  0.00     0.016 A 
ATOM     37  C   UNL     1      -1.970   8.959  -2.367  1.00  0.00     0.016 A 
ATOM     38  C   UNL     1      -3.738   8.256  -4.432  1.00  0.00     0.010 A 
ATOM     39  C   UNL     1      -3.339   9.199  -2.230  1.00  0.00     0.010 A 
ATOM     40  C   UNL     1      -4.224   8.883  -3.277  1.00  0.00    -0.014 A 
BRANCH  40  41
ATOM     41  C   UNL     1      -5.612   9.403  -3.256  1.00  0.00     0.031 A 
ATOM     42  C   UNL     1      -5.830  10.858  -3.568  1.00  0.00     0.074 A 
ATOM     43  C   UNL     1      -6.660   8.603  -2.991  1.00  0.00     0.049 A 
ATOM     44  N   UNL     1      -6.936  11.556  -3.560  1.00  0.00    -0.248 NA
ATOM     45  C   UNL     1      -4.632  11.632  -3.936  1.00  0.00     0.031 C 
ATOM     46  C   UNL     1      -6.585   7.169  -2.721  1.00  0.00     0.029 A 
ATOM     47  N   UNL     1      -7.997   8.896  -2.899  1.00  0.00    -0.354 N 
ATOM     48  C   UNL     1      -6.566  12.848  -3.913  1.00  0.00     0.074 A 
ATOM     49  C   UNL     1      -5.132  12.847  -4.095  1.00  0.00     0.031 C 
ATOM     50  C   UNL     1      -7.824   6.708  -2.479  1.00  0.00     0.029 A 
ATOM     51  C   UNL     1      -8.773   7.819  -2.542  1.00  0.00     0.049 A 
ATOM     52  H   UNL     1      -8.366   9.792  -3.071  1.00  0.00     0.167 HD
ATOM     53  C   UNL     1      -7.354  13.937  -4.080  1.00  0.00     0.037 A 
ATOM     54  C   UNL     1     -10.091   7.750  -2.274  1.00  0.00     0.037 A 
ATOM     55  C   UNL     1      -8.780  13.936  -3.893  1.00  0.00     0.049 A 
ATOM     56  C   UNL     1     -10.934   8.996  -2.382  1.00  0.00     0.074 A 
ATOM     57  C   UNL     1      -9.670  14.984  -4.050  1.00  0.00     0.029 A 
ATOM     58  N   UNL     1      -9.524  12.835  -3.498  1.00  0.00    -0.354 N 
ATOM     59  N   UNL     1     -10.583  10.208  -2.738  1.00  0.00    -0.248 NA
ATOM     60  C   UNL     1     -12.361   8.862  -2.052  1.00  0.00     0.031 C 
ATOM     61  C   UNL     1     -10.943  14.533  -3.690  1.00  0.00     0.029 A 
ATOM     62  C   UNL     1     -10.858  13.186  -3.376  1.00  0.00     0.049 A 
ATOM     63  H   UNL     1      -9.158  11.937  -3.329  1.00  0.00     0.167 HD
ATOM     64  C   UNL     1     -11.746  10.969  -2.710  1.00  0.00     0.074 A 
ATOM     65  C   UNL     1     -12.816  10.079  -2.313  1.00  0.00     0.031 C 
ATOM     66  C   UNL     1     -11.915  12.286  -2.990  1.00  0.00     0.037 A 
BRANCH  53  67
ATOM     67  C   UNL     1      -6.681  15.226  -4.452  1.00  0.00     0.057 A 
ATOM     68  C   UNL     1      -6.107  15.430  -5.714  1.00  0.00     0.134 A 
ATOM     69  C   UNL     1      -6.630  16.290  -3.541  1.00  0.00     0.134 A 
ATOM     70  F   UNL     1      -6.105  14.447  -6.627  1.00  0.00    -0.206 F 
ATOM     71  C   UNL     1      -5.485  16.635  -6.047  1.00  0.00     0.040 A 
ATOM     72  C   UNL     1      -6.038  17.509  -3.874  1.00  0.00     0.040 A 
ATOM     73  F   UNL     1      -7.161  16.164  -2.316  1.00  0.00    -0.206 F 
ATOM     74  C   UNL     1      -5.457  17.682  -5.128  1.00  0.00     0.006 A 
ENDBRANCH  53  67
BRANCH  54  75
ATOM     75  C   UNL     1     -10.703   6.462  -1.856  1.00  0.00     0.057 A 
ATOM     76  C   UNL     1     -11.636   5.803  -2.667  1.00  0.00     0.134 A 
ATOM     77  C   UNL     1     -10.399   5.876  -0.621  1.00  0.00     0.134 A 
ATOM     78  F   UNL     1     -11.990   6.325  -3.850  1.00  0.00    -0.206 F 
ATOM     79  C   UNL     1     -12.259   4.623  -2.256  1.00  0.00     0.040 A 
ATOM     80  C   UNL     1     -10.992   4.681  -0.210  1.00  0.00     0.040 A 
ATOM     81  F   UNL     1      -9.515   6.456   0.204  1.00  0.00    -0.206 F 
ATOM     82  C   UNL     1     -11.933   4.056  -1.025  1.00  0.00     0.006 A 
ENDBRANCH  54  75
BRANCH  66  83
ATOM     83  C   UNL     1     -13.313  12.835  -2.926  1.00  0.00     0.057 A 
ATOM     84  C   UNL     1     -13.994  13.005  -1.714  1.00  0.00     0.134 A 
ATOM     85  C   UNL     1     -13.969  13.242  -4.096  1.00  0.00     0.134 A 
ATOM     86  F   UNL     1     -13.428  12.629  -0.558  1.00  0.00    -0.206 F 
ATOM     87  C   UNL     1     -15.286  13.534  -1.671  1.00  0.00     0.040 A 
ATOM     88  C   UNL     1     -15.247  13.801  -4.062  1.00  0.00     0.040 A 
ATOM     89  F   UNL     1     -13.371  13.119  -5.291  1.00  0.00    -0.206 F 
ATOM     90  C   UNL     1     -15.913  13.941  -2.847  1.00  0.00     0.006 A 
ENDBRANCH  66  83
ENDBRANCH  40  41
ENDBRANCH  33  35
ENDBRANCH  32  33
ENDBRANCH  31  32
ENDBRANCH  30  31
ENDBRANCH  29  30
ENDBRANCH  28  29
ENDBRANCH  27  28
ENDBRANCH   1  27
TORSDOF 22
