REMARK SMILES Cc1c(CC(=O)N[C@H](CO)C(=O)OCCOCCOCCOCCOC(=O)c2ccc(-c3c4nc(c(-c5c(F)cccc5F)c5ccc([nH]5)c(-c5c(F)cccc5F)c5nc(c(-c6c(F)cccc6F)c6ccc3[nH]6)C=C5)C=C4)cc2)cc(-c2ccc(S(C)(=O)=O)cc2)n1-c1cccc(F)c1
REMARK SMILES IDX 17 1 16 2 15 3 14 4 13 5 11 6 12 7 8 8 7 9 5 10 6 11 4 13
REMARK SMILES IDX 3 14 1 15 2 16 94 17 82 18 83 19 95 20 96 21 101 22 97 23
REMARK SMILES IDX 99 24 98 25 100 26 84 27 85 28 93 29 86 30 92 31 87 32 88 33
REMARK SMILES IDX 89 34 90 35 91 36 9 37 10 38 18 40 19 41 20 42 21 43 22 44
REMARK SMILES IDX 23 45 24 46 25 47 26 48 27 49 28 50 29 51 81 52 30 53 80 54
REMARK SMILES IDX 31 55 32 56 33 57 74 58 34 59 79 60 73 61 75 62 35 63 78 64
REMARK SMILES IDX 72 65 71 66 36 68 62 69 45 70 61 71 46 72 49 73 60 74 76 75
REMARK SMILES IDX 47 76 48 77 59 79 77 80 50 81 37 82 38 83 43 84 39 85 40 86
REMARK SMILES IDX 42 87 44 88 41 89 63 90 64 91 69 92 65 93 66 94 68 95 70 96
REMARK SMILES IDX 67 97 51 98 52 99 57 100 53 101 54 102 56 103 58 104 55 105
REMARK H PARENT 7 12 10 39 75 67 49 78
REMARK Flexibility Score: inf
ROOT
ATOM      1  C   UNL     1      -0.280  -6.939  -0.791  1.00  0.00     0.188 C 
ENDROOT
BRANCH   1   2
ATOM      2  O   UNL     1      -1.103  -8.100  -0.705  1.00  0.00    -0.376 OA
BRANCH   2   3
ATOM      3  C   UNL     1      -2.433  -8.044  -1.220  1.00  0.00     0.202 C 
BRANCH   3   4
ATOM      4  C   UNL     1      -3.381  -6.932  -0.736  1.00  0.00     0.261 C 
BRANCH   4   5
ATOM      5  O   UNL     1      -2.866  -5.597  -0.905  1.00  0.00    -0.462 OA
BRANCH   5   6
ATOM      6  C   UNL     1      -2.796  -4.822   0.203  1.00  0.00     0.331 C 
ATOM      7  O   UNL     1      -3.205  -5.164   1.309  1.00  0.00    -0.250 OA
BRANCH   6   8
ATOM      8  C   UNL     1      -2.144  -3.446  -0.033  1.00  0.00     0.218 C 
BRANCH   8   9
ATOM      9  N   UNL     1      -3.048  -2.453   0.557  1.00  0.00    -0.341 N 
ATOM     10  C   UNL     1      -2.806  -1.155   0.885  1.00  0.00     0.225 C 
ATOM     11  O   UNL     1      -3.748  -0.485   1.316  1.00  0.00    -0.275 OA
ATOM     12  H   UNL     1      -3.961  -2.771   0.742  1.00  0.00     0.164 HD
BRANCH  10  13
ATOM     13  C   UNL     1      -1.413  -0.566   0.732  1.00  0.00     0.137 C 
BRANCH  13  14
ATOM     14  C   UNL     1      -0.428  -1.105   1.734  1.00  0.00    -0.017 A 
ATOM     15  C   UNL     1      -1.782  -0.784   3.917  1.00  0.00     0.065 C 
ATOM     16  C   UNL     1      -0.603  -1.228   3.107  1.00  0.00     0.024 A 
ATOM     17  N   UNL     1       0.561  -1.754   3.655  1.00  0.00    -0.313 N 
ATOM     18  C   UNL     1       0.898  -1.530   1.454  1.00  0.00     0.033 A 
ATOM     19  C   UNL     1       1.501  -1.923   2.637  1.00  0.00     0.053 A 
BRANCH  17  20
ATOM     20  C   UNL     1       0.769  -2.047   5.028  1.00  0.00     0.049 A 
ATOM     21  C   UNL     1       1.889  -1.523   5.690  1.00  0.00     0.027 A 
ATOM     22  C   UNL     1      -0.121  -2.893   5.695  1.00  0.00     0.065 A 
ATOM     23  C   UNL     1       2.119  -1.850   7.027  1.00  0.00     0.005 A 
ATOM     24  C   UNL     1       0.135  -3.220   7.021  1.00  0.00     0.125 A 
ATOM     25  C   UNL     1       1.242  -2.707   7.691  1.00  0.00     0.039 A 
ATOM     26  F   UNL     1      -0.691  -4.057   7.663  1.00  0.00    -0.207 F 
ENDBRANCH  17  20
BRANCH  19  27
ATOM     27  C   UNL     1       2.851  -2.475   2.824  1.00  0.00    -0.001 A 
ATOM     28  C   UNL     1       3.042  -3.738   3.409  1.00  0.00     0.011 A 
ATOM     29  C   UNL     1       3.972  -1.724   2.446  1.00  0.00     0.011 A 
ATOM     30  C   UNL     1       4.330  -4.222   3.657  1.00  0.00     0.021 A 
ATOM     31  C   UNL     1       5.263  -2.201   2.690  1.00  0.00     0.021 A 
ATOM     32  C   UNL     1       5.434  -3.441   3.311  1.00  0.00     0.067 A 
BRANCH  32  33
ATOM     33  S   UNL     1       7.070  -4.061   3.628  1.00  0.00     0.175 S 
ATOM     34  C   UNL     1       7.184  -4.122   5.397  1.00  0.00     0.163 C 
ATOM     35  O   UNL     1       7.112  -5.418   3.120  1.00  0.00    -0.224 OA
ATOM     36  O   UNL     1       8.017  -3.062   3.167  1.00  0.00    -0.224 OA
ENDBRANCH  32  33
ENDBRANCH  19  27
ENDBRANCH  13  14
ENDBRANCH  10  13
ENDBRANCH   8   9
BRANCH   8  37
ATOM     37  C   UNL     1      -1.734  -3.103  -1.479  1.00  0.00     0.193 C 
BRANCH  37  38
ATOM     38  O   UNL     1      -2.545  -2.096  -2.085  1.00  0.00    -0.394 OA
ATOM     39  H   UNL     1      -3.461  -2.410  -2.143  1.00  0.00     0.210 HD
ENDBRANCH  37  38
ENDBRANCH   8  37
ENDBRANCH   6   8
ENDBRANCH   5   6
ENDBRANCH   4   5
ENDBRANCH   3   4
ENDBRANCH   2   3
ENDBRANCH   1   2
BRANCH   1  40
ATOM     40  C   UNL     1      -0.063  -6.290  -2.173  1.00  0.00     0.188 C 
BRANCH  40  41
ATOM     41  O   UNL     1      -1.259  -6.254  -2.936  1.00  0.00    -0.377 OA
BRANCH  41  42
ATOM     42  C   UNL     1      -1.248  -6.692  -4.296  1.00  0.00     0.188 C 
BRANCH  42  43
ATOM     43  C   UNL     1      -0.448  -7.958  -4.628  1.00  0.00     0.188 C 
BRANCH  43  44
ATOM     44  O   UNL     1       0.935  -7.644  -4.711  1.00  0.00    -0.376 OA
BRANCH  44  45
ATOM     45  C   UNL     1       1.527  -7.454  -6.001  1.00  0.00     0.202 C 
BRANCH  45  46
ATOM     46  C   UNL     1       0.916  -6.421  -6.994  1.00  0.00     0.261 C 
BRANCH  46  47
ATOM     47  O   UNL     1       0.403  -6.757  -8.371  1.00  0.00    -0.460 OA
BRANCH  47  48
ATOM     48  C   UNL     1      -0.581  -7.645  -8.765  1.00  0.00     0.338 C 
ATOM     49  O   UNL     1      -1.040  -8.494  -8.018  1.00  0.00    -0.246 OA
BRANCH  48  50
ATOM     50  C   UNL     1      -1.097  -7.432 -10.257  1.00  0.00     0.060 A 
ATOM     51  C   UNL     1      -2.202  -8.029 -10.943  1.00  0.00     0.016 A 
ATOM     52  C   UNL     1      -0.563  -6.454 -11.030  1.00  0.00     0.016 A 
ATOM     53  C   UNL     1      -2.784  -7.607 -12.350  1.00  0.00     0.010 A 
ATOM     54  C   UNL     1      -1.172  -6.111 -12.328  1.00  0.00     0.010 A 
ATOM     55  C   UNL     1      -2.273  -6.580 -13.180  1.00  0.00    -0.014 A 
BRANCH  55  56
ATOM     56  C   UNL     1      -3.171  -5.422 -14.287  1.00  0.00     0.031 A 
ATOM     57  C   UNL     1      -3.707  -4.487 -13.237  1.00  0.00     0.074 A 
ATOM     58  C   UNL     1      -3.294  -4.797 -15.653  1.00  0.00     0.049 A 
ATOM     59  N   UNL     1      -2.846  -4.254 -12.282  1.00  0.00    -0.248 NA
ATOM     60  C   UNL     1      -4.512  -3.304 -13.456  1.00  0.00     0.031 C 
ATOM     61  C   UNL     1      -2.755  -5.225 -16.988  1.00  0.00     0.029 A 
ATOM     62  N   UNL     1      -3.875  -3.461 -16.181  1.00  0.00    -0.354 N 
ATOM     63  C   UNL     1      -2.290  -3.125 -12.795  1.00  0.00     0.074 A 
ATOM     64  C   UNL     1      -3.556  -2.406 -13.137  1.00  0.00     0.031 C 
ATOM     65  C   UNL     1      -2.965  -4.324 -18.006  1.00  0.00     0.029 A 
ATOM     66  C   UNL     1      -3.683  -3.081 -17.584  1.00  0.00     0.049 A 
ATOM     67  H   UNL     1      -4.372  -2.867 -15.574  1.00  0.00     0.167 HD
ATOM     68  C   UNL     1      -1.026  -2.989 -13.374  1.00  0.00     0.037 A 
ATOM     69  C   UNL     1      -3.986  -2.049 -18.561  1.00  0.00     0.037 A 
ATOM     70  C   UNL     1      -0.717  -1.622 -13.524  1.00  0.00     0.049 A 
ATOM     71  C   UNL     1      -2.991  -1.175 -17.759  1.00  0.00     0.074 A 
ATOM     72  C   UNL     1      -1.223  -0.447 -13.032  1.00  0.00     0.029 A 
ATOM     73  N   UNL     1       0.271  -1.264 -14.396  1.00  0.00    -0.354 N 
ATOM     74  N   UNL     1      -1.782  -0.933 -18.173  1.00  0.00    -0.248 NA
ATOM     75  C   UNL     1      -3.512  -0.319 -16.666  1.00  0.00     0.031 C 
ATOM     76  C   UNL     1      -1.099   0.405 -14.156  1.00  0.00     0.029 A 
ATOM     77  C   UNL     1      -0.289  -0.244 -15.103  1.00  0.00     0.049 A 
ATOM     78  H   UNL     1       1.172  -1.649 -14.490  1.00  0.00     0.167 HD
ATOM     79  C   UNL     1      -1.314  -0.087 -17.199  1.00  0.00     0.074 A 
ATOM     80  C   UNL     1      -2.466   0.501 -16.575  1.00  0.00     0.031 C 
ATOM     81  C   UNL     1      -0.170  -0.361 -16.537  1.00  0.00     0.037 A 
BRANCH  68  82
ATOM     82  C   UNL     1       0.178  -4.023 -13.775  1.00  0.00     0.057 A 
ATOM     83  C   UNL     1       0.166  -5.172 -14.627  1.00  0.00     0.134 A 
ATOM     84  C   UNL     1       1.430  -3.849 -13.170  1.00  0.00     0.134 A 
ATOM     85  F   UNL     1      -0.878  -5.501 -15.369  1.00  0.00    -0.206 F 
ATOM     86  C   UNL     1       1.195  -6.135 -14.715  1.00  0.00     0.040 A 
ATOM     87  C   UNL     1       2.506  -4.752 -13.319  1.00  0.00     0.040 A 
ATOM     88  F   UNL     1       1.652  -2.777 -12.402  1.00  0.00    -0.206 F 
ATOM     89  C   UNL     1       2.378  -5.929 -14.046  1.00  0.00     0.006 A 
ENDBRANCH  68  82
BRANCH  69  90
ATOM     90  C   UNL     1      -4.458  -0.648 -19.476  1.00  0.00     0.057 A 
ATOM     91  C   UNL     1      -5.055  -0.871 -20.759  1.00  0.00     0.134 A 
ATOM     92  C   UNL     1      -4.292   0.783 -19.330  1.00  0.00     0.134 A 
ATOM     93  F   UNL     1      -5.189  -2.111 -21.225  1.00  0.00    -0.206 F 
ATOM     94  C   UNL     1      -5.482   0.189 -21.654  1.00  0.00     0.040 A 
ATOM     95  C   UNL     1      -4.753   1.830 -20.170  1.00  0.00     0.040 A 
ATOM     96  F   UNL     1      -3.542   1.362 -18.392  1.00  0.00    -0.206 F 
ATOM     97  C   UNL     1      -5.371   1.540 -21.350  1.00  0.00     0.006 A 
ENDBRANCH  69  90
BRANCH  81  98
ATOM     98  C   UNL     1       0.720  -1.293 -17.320  1.00  0.00     0.057 A 
ATOM     99  C   UNL     1       1.588  -0.770 -18.276  1.00  0.00     0.134 A 
ATOM    100  C   UNL     1       0.564  -2.691 -17.321  1.00  0.00     0.134 A 
ATOM    101  F   UNL     1       1.732   0.558 -18.390  1.00  0.00    -0.206 F 
ATOM    102  C   UNL     1       2.289  -1.593 -19.166  1.00  0.00     0.040 A 
ATOM    103  C   UNL     1       1.270  -3.533 -18.188  1.00  0.00     0.040 A 
ATOM    104  F   UNL     1      -0.336  -3.258 -16.511  1.00  0.00    -0.206 F 
ATOM    105  C   UNL     1       2.137  -2.978 -19.121  1.00  0.00     0.006 A 
ENDBRANCH  81  98
ENDBRANCH  55  56
ENDBRANCH  48  50
ENDBRANCH  47  48
ENDBRANCH  46  47
ENDBRANCH  45  46
ENDBRANCH  44  45
ENDBRANCH  43  44
ENDBRANCH  42  43
ENDBRANCH  41  42
ENDBRANCH  40  41
ENDBRANCH   1  40
TORSDOF 28
