REMARK SMILES CSCc1ccc(C(=O)N[C@H]2C=C[C@@H](C(=O)OCCOCCOCCOCCOC(=O)c3ccc(-c4c5nc(c(-c6c(F)cccc6F)c6ccc([nH]6)c(-c6c(F)cccc6F)c6nc(c(-c7c(F)cccc7F)c7ccc4[nH]7)C=C6)C=C5)cc3)C2)o1
REMARK SMILES IDX 22 1 21 2 20 3 19 4 18 5 17 6 15 7 16 8 14 9 11 10 12 11
REMARK SMILES IDX 86 12 13 13 10 14 8 15 9 16 7 18 4 19 5 20 87 21 6 22 3 23
REMARK SMILES IDX 2 24 1 25 23 26 24 27 25 28 26 29 27 30 28 31 29 32 30 33
REMARK SMILES IDX 31 34 32 35 33 36 85 37 34 38 84 39 35 40 36 41 37 42 78 43
REMARK SMILES IDX 38 44 83 45 77 46 79 47 39 48 82 49 76 50 75 51 40 53 66 54
REMARK SMILES IDX 49 55 65 56 50 57 53 58 64 59 80 60 51 61 52 62 63 64 81 65
REMARK SMILES IDX 54 66 41 67 42 68 47 69 43 70 44 71 46 72 48 73 45 74 67 75
REMARK SMILES IDX 68 76 73 77 69 78 70 79 72 80 74 81 71 82 55 83 56 84 61 85
REMARK SMILES IDX 57 86 58 87 60 88 62 89 59 90
REMARK H PARENT 10 17 79 52 53 63
REMARK Flexibility Score: inf
ROOT
ATOM      1  C   UNL     1      -4.932   6.524  -3.648  1.00  0.00     0.188 C 
ENDROOT
BRANCH   1   2
ATOM      2  C   UNL     1      -6.202   5.676  -3.819  1.00  0.00     0.188 C 
BRANCH   2   3
ATOM      3  O   UNL     1      -6.939   5.259  -2.678  1.00  0.00    -0.376 OA
BRANCH   3   4
ATOM      4  C   UNL     1      -6.295   4.530  -1.635  1.00  0.00     0.202 C 
BRANCH   4   5
ATOM      5  C   UNL     1      -5.254   3.438  -1.949  1.00  0.00     0.261 C 
BRANCH   5   6
ATOM      6  O   UNL     1      -4.242   3.864  -2.875  1.00  0.00    -0.463 OA
BRANCH   6   7
ATOM      7  C   UNL     1      -3.916   3.031  -3.898  1.00  0.00     0.312 C 
ATOM      8  O   UNL     1      -4.285   1.867  -3.987  1.00  0.00    -0.252 OA
BRANCH   7   9
ATOM      9  C   UNL     1      -3.186   3.799  -5.016  1.00  0.00     0.124 C 
ATOM     10  C   UNL     1      -0.788   4.346  -5.197  1.00  0.00     0.106 C 
ATOM     11  C   UNL     1      -1.140   3.179  -6.032  1.00  0.00    -0.006 C 
ATOM     12  C   UNL     1      -2.094   4.766  -4.533  1.00  0.00     0.048 C 
ATOM     13  C   UNL     1      -2.449   2.903  -5.968  1.00  0.00    -0.014 C 
BRANCH  10  14
ATOM     14  N   UNL     1       0.290   4.189  -4.250  1.00  0.00    -0.343 N 
ATOM     15  C   UNL     1       0.756   3.253  -3.370  1.00  0.00     0.287 C 
ATOM     16  O   UNL     1       1.590   3.696  -2.571  1.00  0.00    -0.266 OA
ATOM     17  H   UNL     1       0.856   4.994  -4.233  1.00  0.00     0.164 HD
BRANCH  15  18
ATOM     18  C   UNL     1       0.392   1.854  -3.392  1.00  0.00     0.191 A 
ATOM     19  C   UNL     1       0.840  -0.271  -2.927  1.00  0.00     0.114 A 
ATOM     20  C   UNL     1      -0.376  -0.269  -3.564  1.00  0.00     0.047 A 
ATOM     21  O   UNL     1       1.323   0.997  -2.846  1.00  0.00    -0.455 OA
ATOM     22  C   UNL     1      -0.690   1.093  -3.786  1.00  0.00     0.056 A 
BRANCH  19  23
ATOM     23  C   UNL     1       1.650  -1.327  -2.283  1.00  0.00     0.144 C 
BRANCH  23  24
ATOM     24  S   UNL     1       0.949  -1.789  -0.660  1.00  0.00    -0.157 SA
ATOM     25  C   UNL     1       1.129  -0.200   0.197  1.00  0.00     0.085 C 
ENDBRANCH  23  24
ENDBRANCH  19  23
ENDBRANCH  15  18
ENDBRANCH  10  14
ENDBRANCH   7   9
ENDBRANCH   6   7
ENDBRANCH   5   6
ENDBRANCH   4   5
ENDBRANCH   3   4
ENDBRANCH   2   3
ENDBRANCH   1   2
BRANCH   1  26
ATOM     26  O   UNL     1      -4.319   6.450  -2.379  1.00  0.00    -0.377 OA
BRANCH  26  27
ATOM     27  C   UNL     1      -4.639   7.460  -1.430  1.00  0.00     0.188 C 
BRANCH  27  28
ATOM     28  C   UNL     1      -5.984   8.206  -1.544  1.00  0.00     0.188 C 
BRANCH  28  29
ATOM     29  O   UNL     1      -6.301   8.671  -2.849  1.00  0.00    -0.376 OA
BRANCH  29  30
ATOM     30  C   UNL     1      -5.939   9.995  -3.220  1.00  0.00     0.202 C 
BRANCH  30  31
ATOM     31  C   UNL     1      -4.442  10.347  -3.284  1.00  0.00     0.261 C 
BRANCH  31  32
ATOM     32  O   UNL     1      -3.703  10.237  -2.058  1.00  0.00    -0.460 OA
BRANCH  32  33
ATOM     33  C   UNL     1      -4.148  10.930  -0.987  1.00  0.00     0.338 C 
ATOM     34  O   UNL     1      -5.070  11.717  -0.951  1.00  0.00    -0.246 OA
BRANCH  33  35
ATOM     35  C   UNL     1      -3.442  10.413   0.206  1.00  0.00     0.060 A 
ATOM     36  C   UNL     1      -4.199   9.863   1.249  1.00  0.00     0.016 A 
ATOM     37  C   UNL     1      -2.050  10.475   0.300  1.00  0.00     0.016 A 
ATOM     38  C   UNL     1      -3.569   9.415   2.409  1.00  0.00     0.010 A 
ATOM     39  C   UNL     1      -1.421  10.047   1.473  1.00  0.00     0.010 A 
ATOM     40  C   UNL     1      -2.182   9.552   2.547  1.00  0.00    -0.014 A 
BRANCH  40  41
ATOM     41  C   UNL     1      -1.561   9.384   3.884  1.00  0.00     0.031 A 
ATOM     42  C   UNL     1      -1.302  10.617   4.706  1.00  0.00     0.074 A 
ATOM     43  C   UNL     1      -1.260   8.170   4.375  1.00  0.00     0.049 A 
ATOM     44  N   UNL     1      -0.729  10.734   5.876  1.00  0.00    -0.248 NA
ATOM     45  C   UNL     1      -1.752  11.894   4.126  1.00  0.00     0.031 C 
ATOM     46  C   UNL     1      -1.504   6.898   3.699  1.00  0.00     0.029 A 
ATOM     47  N   UNL     1      -0.669   7.815   5.562  1.00  0.00    -0.354 N 
ATOM     48  C   UNL     1      -0.743  12.092   6.167  1.00  0.00     0.074 A 
ATOM     49  C   UNL     1      -1.351  12.764   5.040  1.00  0.00     0.031 C 
ATOM     50  C   UNL     1      -1.051   5.899   4.477  1.00  0.00     0.029 A 
ATOM     51  C   UNL     1      -0.456   6.464   5.688  1.00  0.00     0.049 A 
ATOM     52  H   UNL     1      -0.422   8.467   6.258  1.00  0.00     0.167 HD
ATOM     53  C   UNL     1      -0.296  12.724   7.278  1.00  0.00     0.037 A 
ATOM     54  C   UNL     1       0.173   5.770   6.657  1.00  0.00     0.037 A 
ATOM     55  C   UNL     1       0.314  12.056   8.397  1.00  0.00     0.049 A 
ATOM     56  C   UNL     1       0.739   6.505   7.846  1.00  0.00     0.074 A 
ATOM     57  C   UNL     1       0.790  12.606   9.574  1.00  0.00     0.029 A 
ATOM     58  N   UNL     1       0.544  10.691   8.471  1.00  0.00    -0.354 N 
ATOM     59  N   UNL     1       0.703   7.786   8.125  1.00  0.00    -0.248 NA
ATOM     60  C   UNL     1       1.433   5.694   8.858  1.00  0.00     0.031 C 
ATOM     61  C   UNL     1       1.360  11.582  10.335  1.00  0.00     0.029 A 
ATOM     62  C   UNL     1       1.180  10.384   9.662  1.00  0.00     0.049 A 
ATOM     63  H   UNL     1       0.292  10.037   7.780  1.00  0.00     0.167 HD
ATOM     64  C   UNL     1       1.336   7.929   9.354  1.00  0.00     0.074 A 
ATOM     65  C   UNL     1       1.737   6.603   9.774  1.00  0.00     0.031 C 
ATOM     66  C   UNL     1       1.564   9.057  10.073  1.00  0.00     0.037 A 
BRANCH  53  67
ATOM     67  C   UNL     1      -0.422  14.220   7.321  1.00  0.00     0.057 A 
ATOM     68  C   UNL     1      -1.663  14.858   7.446  1.00  0.00     0.134 A 
ATOM     69  C   UNL     1       0.718  15.031   7.261  1.00  0.00     0.134 A 
ATOM     70  F   UNL     1      -2.796  14.140   7.491  1.00  0.00    -0.206 F 
ATOM     71  C   UNL     1      -1.768  16.249   7.487  1.00  0.00     0.040 A 
ATOM     72  C   UNL     1       0.628  16.422   7.331  1.00  0.00     0.040 A 
ATOM     73  F   UNL     1       1.937  14.486   7.143  1.00  0.00    -0.206 F 
ATOM     74  C   UNL     1      -0.618  17.035   7.437  1.00  0.00     0.006 A 
ENDBRANCH  53  67
BRANCH  54  75
ATOM     75  C   UNL     1       0.325   4.296   6.541  1.00  0.00     0.057 A 
ATOM     76  C   UNL     1      -0.327   3.425   7.421  1.00  0.00     0.134 A 
ATOM     77  C   UNL     1       1.154   3.725   5.567  1.00  0.00     0.134 A 
ATOM     78  F   UNL     1      -1.113   3.910   8.393  1.00  0.00    -0.206 F 
ATOM     79  C   UNL     1      -0.146   2.042   7.350  1.00  0.00     0.040 A 
ATOM     80  C   UNL     1       1.321   2.343   5.465  1.00  0.00     0.040 A 
ATOM     81  F   UNL     1       1.810   4.505   4.695  1.00  0.00    -0.206 F 
ATOM     82  C   UNL     1       0.676   1.497   6.365  1.00  0.00     0.006 A 
ENDBRANCH  54  75
BRANCH  66  83
ATOM     83  C   UNL     1       2.236   8.905  11.409  1.00  0.00     0.057 A 
ATOM     84  C   UNL     1       3.589   8.564  11.529  1.00  0.00     0.134 A 
ATOM     85  C   UNL     1       1.526   9.153  12.592  1.00  0.00     0.134 A 
ATOM     86  F   UNL     1       4.324   8.304  10.437  1.00  0.00    -0.206 F 
ATOM     87  C   UNL     1       4.205   8.448  12.777  1.00  0.00     0.040 A 
ATOM     88  C   UNL     1       2.139   9.071  13.844  1.00  0.00     0.040 A 
ATOM     89  F   UNL     1       0.230   9.498  12.551  1.00  0.00    -0.206 F 
ATOM     90  C   UNL     1       3.480   8.710  13.939  1.00  0.00     0.006 A 
ENDBRANCH  66  83
ENDBRANCH  40  41
ENDBRANCH  33  35
ENDBRANCH  32  33
ENDBRANCH  31  32
ENDBRANCH  30  31
ENDBRANCH  29  30
ENDBRANCH  28  29
ENDBRANCH  27  28
ENDBRANCH  26  27
ENDBRANCH   1  26
TORSDOF 24
