REMARK SMILES O=C(CSc1ccnc(C(=O)OCCOCCOCCOCCOC(=O)c2ccc(-c3c4nc(c(-c5c(F)cccc5F)c5ccc([nH]5)c(-c5c(F)cccc5F)c5nc(c(-c6c(F)cccc6F)c6ccc3[nH]6)C=C5)C=C4)cc2)c1)NC[C@@H]1CCCO1
REMARK SMILES IDX 16 1 15 2 14 3 13 4 12 5 10 6 11 7 9 8 5 9 6 10 81 11 7 12
REMARK SMILES IDX 8 13 4 14 3 15 2 16 1 17 82 18 83 20 84 21 85 22 88 23 86 24
REMARK SMILES IDX 87 25 17 26 18 27 19 28 20 29 21 30 22 31 23 32 24 33 25 34
REMARK SMILES IDX 26 35 27 36 28 37 80 38 29 39 79 40 30 41 31 42 32 43 73 44
REMARK SMILES IDX 33 45 78 46 72 47 74 48 34 49 77 50 71 51 70 52 35 54 61 55
REMARK SMILES IDX 44 56 60 57 45 58 48 59 59 60 75 61 46 62 47 63 58 65 76 66
REMARK SMILES IDX 49 67 36 68 37 69 42 70 38 71 39 72 41 73 43 74 40 75 62 76
REMARK SMILES IDX 63 77 68 78 64 79 65 80 67 81 69 82 66 83 50 84 51 85 56 86
REMARK SMILES IDX 52 87 53 88 55 89 57 90 54 91
REMARK H PARENT 82 19 74 53 48 64
REMARK Flexibility Score: inf
ROOT
ATOM      1  C   UNL     1      -1.146   2.101  -5.683  1.00  0.00     0.188 C 
ENDROOT
BRANCH   1   2
ATOM      2  O   UNL     1      -1.949   1.347  -6.577  1.00  0.00    -0.376 OA
BRANCH   2   3
ATOM      3  C   UNL     1      -1.343   0.494  -7.531  1.00  0.00     0.202 C 
BRANCH   3   4
ATOM      4  C   UNL     1      -0.177  -0.458  -7.194  1.00  0.00     0.261 C 
BRANCH   4   5
ATOM      5  O   UNL     1       0.747  -0.048  -6.180  1.00  0.00    -0.459 OA
BRANCH   5   6
ATOM      6  C   UNL     1       1.724   0.815  -6.540  1.00  0.00     0.357 C 
ATOM      7  O   UNL     1       1.948   1.217  -7.668  1.00  0.00    -0.244 OA
BRANCH   6   8
ATOM      8  C   UNL     1       2.358   1.328  -5.286  1.00  0.00     0.149 A 
ATOM      9  C   UNL     1       3.416   1.028  -3.167  1.00  0.00     0.012 A 
ATOM     10  C   UNL     1       3.439   2.415  -3.026  1.00  0.00     0.035 A 
ATOM     11  C   UNL     1       2.841   0.464  -4.307  1.00  0.00     0.051 A 
ATOM     12  C   UNL     1       2.903   3.192  -4.037  1.00  0.00     0.113 A 
ATOM     13  N   UNL     1       2.379   2.684  -5.168  1.00  0.00    -0.249 NA
BRANCH   9  14
ATOM     14  S   UNL     1       4.289   0.036  -1.964  1.00  0.00    -0.116 SA
BRANCH  14  15
ATOM     15  C   UNL     1       2.911  -0.741  -1.060  1.00  0.00     0.174 C 
BRANCH  15  16
ATOM     16  C   UNL     1       2.139   0.259  -0.216  1.00  0.00     0.230 C 
ATOM     17  O   UNL     1       0.920   0.375  -0.311  1.00  0.00    -0.274 OA
ATOM     18  N   UNL     1       2.897   0.961   0.698  1.00  0.00    -0.353 N 
ATOM     19  H   UNL     1       3.876   0.859   0.683  1.00  0.00     0.163 HD
BRANCH  18  20
ATOM     20  C   UNL     1       2.298   1.849   1.686  1.00  0.00     0.147 C 
BRANCH  20  21
ATOM     21  C   UNL     1       2.748   1.557   3.124  1.00  0.00     0.137 C 
ATOM     22  C   UNL     1       4.192   1.931   3.426  1.00  0.00     0.036 C 
ATOM     23  O   UNL     1       2.611   0.158   3.442  1.00  0.00    -0.376 OA
ATOM     24  C   UNL     1       4.529   0.980   4.549  1.00  0.00     0.031 C 
ATOM     25  C   UNL     1       3.793  -0.272   4.128  1.00  0.00     0.160 C 
ENDBRANCH  20  21
ENDBRANCH  18  20
ENDBRANCH  15  16
ENDBRANCH  14  15
ENDBRANCH   9  14
ENDBRANCH   6   8
ENDBRANCH   5   6
ENDBRANCH   4   5
ENDBRANCH   3   4
ENDBRANCH   2   3
ENDBRANCH   1   2
BRANCH   1  26
ATOM     26  C   UNL     1      -1.016   1.438  -4.298  1.00  0.00     0.188 C 
BRANCH  26  27
ATOM     27  O   UNL     1      -1.286   0.044  -4.289  1.00  0.00    -0.377 OA
BRANCH  27  28
ATOM     28  C   UNL     1      -2.641  -0.398  -4.390  1.00  0.00     0.188 C 
BRANCH  28  29
ATOM     29  C   UNL     1      -3.824   0.550  -4.711  1.00  0.00     0.188 C 
BRANCH  29  30
ATOM     30  O   UNL     1      -3.659   1.886  -4.266  1.00  0.00    -0.376 OA
BRANCH  30  31
ATOM     31  C   UNL     1      -4.399   2.320  -3.140  1.00  0.00     0.202 C 
BRANCH  31  32
ATOM     32  C   UNL     1      -4.065   1.658  -1.797  1.00  0.00     0.261 C 
BRANCH  32  33
ATOM     33  O   UNL     1      -4.123   0.225  -1.774  1.00  0.00    -0.460 OA
BRANCH  33  34
ATOM     34  C   UNL     1      -5.329  -0.353  -1.945  1.00  0.00     0.338 C 
ATOM     35  O   UNL     1      -6.402   0.205  -2.109  1.00  0.00    -0.246 OA
BRANCH  34  36
ATOM     36  C   UNL     1      -5.108  -1.807  -2.082  1.00  0.00     0.060 A 
ATOM     37  C   UNL     1      -5.494  -2.449  -3.266  1.00  0.00     0.016 A 
ATOM     38  C   UNL     1      -4.509  -2.530  -1.047  1.00  0.00     0.016 A 
ATOM     39  C   UNL     1      -5.317  -3.827  -3.401  1.00  0.00     0.010 A 
ATOM     40  C   UNL     1      -4.350  -3.911  -1.177  1.00  0.00     0.010 A 
ATOM     41  C   UNL     1      -4.786  -4.572  -2.339  1.00  0.00    -0.014 A 
BRANCH  41  42
ATOM     42  C   UNL     1      -4.871  -6.052  -2.360  1.00  0.00     0.031 A 
ATOM     43  C   UNL     1      -5.995  -6.711  -1.607  1.00  0.00     0.074 A 
ATOM     44  C   UNL     1      -3.986  -6.800  -3.042  1.00  0.00     0.049 A 
ATOM     45  N   UNL     1      -6.251  -7.982  -1.435  1.00  0.00    -0.248 NA
ATOM     46  C   UNL     1      -6.959  -5.809  -0.955  1.00  0.00     0.031 C 
ATOM     47  C   UNL     1      -2.878  -6.283  -3.841  1.00  0.00     0.029 A 
ATOM     48  N   UNL     1      -3.880  -8.164  -3.159  1.00  0.00    -0.354 N 
ATOM     49  C   UNL     1      -7.398  -8.031  -0.652  1.00  0.00     0.074 A 
ATOM     50  C   UNL     1      -7.767  -6.666  -0.352  1.00  0.00     0.031 C 
ATOM     51  C   UNL     1      -2.195  -7.320  -4.359  1.00  0.00     0.029 A 
ATOM     52  C   UNL     1      -2.797  -8.571  -3.899  1.00  0.00     0.049 A 
ATOM     53  H   UNL     1      -4.520  -8.792  -2.751  1.00  0.00     0.167 HD
ATOM     54  C   UNL     1      -8.087  -9.117  -0.228  1.00  0.00     0.037 A 
ATOM     55  C   UNL     1      -2.334  -9.811  -4.153  1.00  0.00     0.037 A 
ATOM     56  C   UNL     1      -7.715 -10.475  -0.524  1.00  0.00     0.049 A 
ATOM     57  C   UNL     1      -3.071 -11.005  -3.600  1.00  0.00     0.074 A 
ATOM     58  C   UNL     1      -8.358 -11.643  -0.156  1.00  0.00     0.029 A 
ATOM     59  N   UNL     1      -6.593 -10.846  -1.248  1.00  0.00    -0.354 N 
ATOM     60  N   UNL     1      -4.171 -11.044  -2.887  1.00  0.00    -0.248 NA
ATOM     61  C   UNL     1      -2.502 -12.330  -3.890  1.00  0.00     0.031 C 
ATOM     62  C   UNL     1      -7.591 -12.723  -0.605  1.00  0.00     0.029 A 
ATOM     63  C   UNL     1      -6.507 -12.227  -1.311  1.00  0.00     0.049 A 
ATOM     64  H   UNL     1      -5.951 -10.220  -1.657  1.00  0.00     0.167 HD
ATOM     65  C   UNL     1      -4.443 -12.391  -2.674  1.00  0.00     0.074 A 
ATOM     66  C   UNL     1      -3.399 -13.138  -3.342  1.00  0.00     0.031 C 
ATOM     67  C   UNL     1      -5.467 -12.959  -1.989  1.00  0.00     0.037 A 
BRANCH  54  68
ATOM     68  C   UNL     1      -9.297  -8.876   0.628  1.00  0.00     0.057 A 
ATOM     69  C   UNL     1     -10.471  -8.307   0.115  1.00  0.00     0.134 A 
ATOM     70  C   UNL     1      -9.296  -9.242   1.980  1.00  0.00     0.134 A 
ATOM     71  F   UNL     1     -10.535  -7.920  -1.169  1.00  0.00    -0.206 F 
ATOM     72  C   UNL     1     -11.588  -8.086   0.922  1.00  0.00     0.040 A 
ATOM     73  C   UNL     1     -10.417  -9.054   2.789  1.00  0.00     0.040 A 
ATOM     74  F   UNL     1      -8.207  -9.796   2.535  1.00  0.00    -0.206 F 
ATOM     75  C   UNL     1     -11.566  -8.467   2.262  1.00  0.00     0.006 A 
ENDBRANCH  54  68
BRANCH  55  76
ATOM     76  C   UNL     1      -1.098  -9.997  -4.957  1.00  0.00     0.057 A 
ATOM     77  C   UNL     1      -1.135 -10.600  -6.220  1.00  0.00     0.134 A 
ATOM     78  C   UNL     1       0.156  -9.607  -4.469  1.00  0.00     0.134 A 
ATOM     79  F   UNL     1      -2.301 -11.020  -6.733  1.00  0.00    -0.206 F 
ATOM     80  C   UNL     1       0.028 -10.828  -6.958  1.00  0.00     0.040 A 
ATOM     81  C   UNL     1       1.324  -9.802  -5.209  1.00  0.00     0.040 A 
ATOM     82  F   UNL     1       0.264  -9.026  -3.265  1.00  0.00    -0.206 F 
ATOM     83  C   UNL     1       1.262 -10.423  -6.454  1.00  0.00     0.006 A 
ENDBRANCH  55  76
BRANCH  67  84
ATOM     84  C   UNL     1      -5.540 -14.460  -1.962  1.00  0.00     0.057 A 
ATOM     85  C   UNL     1      -4.631 -15.237  -1.233  1.00  0.00     0.134 A 
ATOM     86  C   UNL     1      -6.569 -15.133  -2.635  1.00  0.00     0.134 A 
ATOM     87  F   UNL     1      -3.616 -14.658  -0.574  1.00  0.00    -0.206 F 
ATOM     88  C   UNL     1      -4.731 -16.629  -1.191  1.00  0.00     0.040 A 
ATOM     89  C   UNL     1      -6.697 -16.521  -2.575  1.00  0.00     0.040 A 
ATOM     90  F   UNL     1      -7.481 -14.450  -3.343  1.00  0.00    -0.206 F 
ATOM     91  C   UNL     1      -5.772 -17.274  -1.857  1.00  0.00     0.006 A 
ENDBRANCH  67  84
ENDBRANCH  41  42
ENDBRANCH  34  36
ENDBRANCH  33  34
ENDBRANCH  32  33
ENDBRANCH  31  32
ENDBRANCH  30  31
ENDBRANCH  29  30
ENDBRANCH  28  29
ENDBRANCH  27  28
ENDBRANCH  26  27
ENDBRANCH   1  26
TORSDOF 25
