REMARK SMILES C[C@H]1OCC[C@@H]1C(=O)Nc1sc2c(c1C(=O)OCCOCCOCCOCCOC(=O)c1ccc(-c3c4nc(c(-c5c(F)cccc5F)c5ccc([nH]5)c(-c5c(F)cccc5F)c5nc(c(-c6c(F)cccc6F)c6ccc3[nH]6)C=C5)C=C4)cc1)CCC2
REMARK SMILES IDX 23 1 22 2 21 3 20 4 19 5 18 6 17 7 15 8 16 9 14 10 10 11
REMARK SMILES IDX 11 12 12 13 13 14 88 15 86 16 87 17 9 18 7 19 8 20 6 22 1 23
REMARK SMILES IDX 2 24 3 25 4 26 5 27 24 28 25 29 26 30 27 31 28 32 29 33
REMARK SMILES IDX 30 34 31 35 32 36 33 37 85 38 34 39 84 40 35 41 36 42 37 43
REMARK SMILES IDX 78 44 38 45 83 46 77 47 79 48 39 49 82 50 76 51 75 52 40 54
REMARK SMILES IDX 66 55 49 56 65 57 50 58 53 59 64 60 80 61 51 62 52 63 63 65
REMARK SMILES IDX 81 66 54 67 41 68 42 69 47 70 43 71 44 72 46 73 48 74 45 75
REMARK SMILES IDX 67 76 68 77 73 78 69 79 70 80 72 81 74 82 71 83 55 84 56 85
REMARK SMILES IDX 61 86 57 87 58 88 60 89 62 90 59 91
REMARK H PARENT 9 21 79 53 53 64
REMARK Flexibility Score: inf
ROOT
ATOM      1  O   UNL     1      -1.595   0.379  -2.086  1.00  0.00    -0.377 OA
ENDROOT
BRANCH   1   2
ATOM      2  C   UNL     1      -1.666  -0.964  -2.556  1.00  0.00     0.188 C 
BRANCH   2   3
ATOM      3  C   UNL     1      -2.720  -1.742  -1.787  1.00  0.00     0.188 C 
BRANCH   3   4
ATOM      4  O   UNL     1      -4.040  -1.339  -2.134  1.00  0.00    -0.376 OA
BRANCH   4   5
ATOM      5  C   UNL     1      -4.548  -0.212  -1.408  1.00  0.00     0.202 C 
BRANCH   5   6
ATOM      6  C   UNL     1      -4.873  -0.509   0.068  1.00  0.00     0.261 C 
BRANCH   6   7
ATOM      7  O   UNL     1      -3.832  -0.107   1.000  1.00  0.00    -0.460 OA
BRANCH   7   8
ATOM      8  C   UNL     1      -3.671  -0.933   2.093  1.00  0.00     0.341 C 
ATOM      9  O   UNL     1      -4.240  -2.005   2.223  1.00  0.00    -0.246 OA
BRANCH   8  10
ATOM     10  C   UNL     1      -2.737  -0.425   3.109  1.00  0.00     0.098 A 
ATOM     11  C   UNL     1      -1.663  -1.154   3.625  1.00  0.00     0.110 A 
ATOM     12  S   UNL     1      -0.914  -0.434   4.992  1.00  0.00    -0.122 S 
ATOM     13  C   UNL     1      -1.733   0.979   4.681  1.00  0.00     0.011 A 
ATOM     14  C   UNL     1      -2.670   0.885   3.683  1.00  0.00    -0.017 A 
ATOM     15  C   UNL     1      -1.548   2.332   5.243  1.00  0.00     0.047 C 
ATOM     16  C   UNL     1      -3.280   2.218   3.434  1.00  0.00     0.038 C 
ATOM     17  C   UNL     1      -2.280   3.180   4.166  1.00  0.00     0.010 C 
BRANCH  11  18
ATOM     18  N   UNL     1      -1.080  -2.353   3.262  1.00  0.00    -0.317 N 
ATOM     19  C   UNL     1       0.180  -2.375   2.699  1.00  0.00     0.230 C 
ATOM     20  O   UNL     1       0.997  -3.184   3.156  1.00  0.00    -0.274 OA
ATOM     21  H   UNL     1      -1.566  -3.197   3.405  1.00  0.00     0.170 HD
BRANCH  19  22
ATOM     22  C   UNL     1       0.569  -1.546   1.469  1.00  0.00     0.110 C 
ATOM     23  C   UNL     1       2.743  -0.535   0.671  1.00  0.00     0.039 C 
ATOM     24  C   UNL     1       1.592  -0.430   1.669  1.00  0.00     0.127 C 
ATOM     25  O   UNL     1       0.965   0.832   1.359  1.00  0.00    -0.378 OA
ATOM     26  C   UNL     1      -0.392   0.599   1.007  1.00  0.00     0.161 C 
ATOM     27  C   UNL     1      -0.516  -0.869   0.696  1.00  0.00     0.044 C 
ENDBRANCH  19  22
ENDBRANCH  11  18
ENDBRANCH   8  10
ENDBRANCH   7   8
ENDBRANCH   6   7
ENDBRANCH   5   6
ENDBRANCH   4   5
ENDBRANCH   3   4
ENDBRANCH   2   3
ENDBRANCH   1   2
BRANCH   1  28
ATOM     28  C   UNL     1      -1.613   1.395  -3.083  1.00  0.00     0.188 C 
BRANCH  28  29
ATOM     29  C   UNL     1      -0.984   1.065  -4.445  1.00  0.00     0.188 C 
BRANCH  29  30
ATOM     30  O   UNL     1       0.283   0.403  -4.513  1.00  0.00    -0.376 OA
BRANCH  30  31
ATOM     31  C   UNL     1       1.208   0.421  -3.425  1.00  0.00     0.202 C 
BRANCH  31  32
ATOM     32  C   UNL     1       2.179   1.591  -3.378  1.00  0.00     0.261 C 
BRANCH  32  33
ATOM     33  O   UNL     1       1.425   2.771  -3.180  1.00  0.00    -0.460 OA
BRANCH  33  34
ATOM     34  C   UNL     1       0.982   3.295  -4.343  1.00  0.00     0.338 C 
ATOM     35  O   UNL     1       1.289   2.955  -5.470  1.00  0.00    -0.246 OA
BRANCH  34  36
ATOM     36  C   UNL     1       0.049   4.411  -4.028  1.00  0.00     0.060 A 
ATOM     37  C   UNL     1      -0.220   5.109  -5.199  1.00  0.00     0.016 A 
ATOM     38  C   UNL     1       0.373   5.069  -2.833  1.00  0.00     0.016 A 
ATOM     39  C   UNL     1       0.466   6.283  -5.337  1.00  0.00     0.010 A 
ATOM     40  C   UNL     1       1.064   6.244  -2.958  1.00  0.00     0.010 A 
ATOM     41  C   UNL     1       1.189   6.775  -4.236  1.00  0.00    -0.014 A 
BRANCH  41  42
ATOM     42  C   UNL     1       1.857   8.030  -4.440  1.00  0.00     0.031 A 
ATOM     43  C   UNL     1       0.855   9.096  -4.633  1.00  0.00     0.074 A 
ATOM     44  C   UNL     1       3.185   8.205  -4.413  1.00  0.00     0.049 A 
ATOM     45  N   UNL     1       0.568   9.710  -5.729  1.00  0.00    -0.248 NA
ATOM     46  C   UNL     1      -0.125   9.286  -3.548  1.00  0.00     0.031 C 
ATOM     47  C   UNL     1       4.236   7.298  -3.958  1.00  0.00     0.029 A 
ATOM     48  N   UNL     1       3.862   9.334  -4.731  1.00  0.00    -0.354 N 
ATOM     49  C   UNL     1      -0.515  10.518  -5.413  1.00  0.00     0.074 A 
ATOM     50  C   UNL     1      -1.028  10.050  -4.157  1.00  0.00     0.031 C 
ATOM     51  C   UNL     1       5.386   8.002  -3.813  1.00  0.00     0.029 A 
ATOM     52  C   UNL     1       5.171   9.363  -4.283  1.00  0.00     0.049 A 
ATOM     53  H   UNL     1       3.457  10.073  -5.238  1.00  0.00     0.167 HD
ATOM     54  C   UNL     1      -0.716  11.687  -6.070  1.00  0.00     0.037 A 
ATOM     55  C   UNL     1       5.938  10.480  -4.226  1.00  0.00     0.037 A 
ATOM     56  C   UNL     1      -0.066  11.671  -7.359  1.00  0.00     0.049 A 
ATOM     57  C   UNL     1       5.308  11.499  -5.114  1.00  0.00     0.074 A 
ATOM     58  C   UNL     1      -0.176  10.872  -8.483  1.00  0.00     0.029 A 
ATOM     59  N   UNL     1       1.138  12.323  -7.483  1.00  0.00    -0.354 N 
ATOM     60  N   UNL     1       5.285  11.419  -6.415  1.00  0.00    -0.248 NA
ATOM     61  C   UNL     1       4.298  12.375  -4.531  1.00  0.00     0.031 C 
ATOM     62  C   UNL     1       1.155  10.732  -8.976  1.00  0.00     0.029 A 
ATOM     63  C   UNL     1       1.994  11.490  -8.159  1.00  0.00     0.049 A 
ATOM     64  H   UNL     1       1.348  13.224  -7.148  1.00  0.00     0.167 HD
ATOM     65  C   UNL     1       4.028  11.881  -6.783  1.00  0.00     0.074 A 
ATOM     66  C   UNL     1       3.497  12.533  -5.589  1.00  0.00     0.031 C 
ATOM     67  C   UNL     1       3.419  11.441  -7.924  1.00  0.00     0.037 A 
BRANCH  54  68
ATOM     68  C   UNL     1      -1.120  12.952  -5.353  1.00  0.00     0.057 A 
ATOM     69  C   UNL     1      -1.324  14.115  -6.112  1.00  0.00     0.134 A 
ATOM     70  C   UNL     1      -1.038  13.159  -3.957  1.00  0.00     0.134 A 
ATOM     71  F   UNL     1      -1.421  14.057  -7.449  1.00  0.00    -0.206 F 
ATOM     72  C   UNL     1      -1.345  15.390  -5.536  1.00  0.00     0.040 A 
ATOM     73  C   UNL     1      -1.109  14.422  -3.369  1.00  0.00     0.040 A 
ATOM     74  F   UNL     1      -0.790  12.181  -3.081  1.00  0.00    -0.206 F 
ATOM     75  C   UNL     1      -1.225  15.547  -4.161  1.00  0.00     0.006 A 
ENDBRANCH  54  68
BRANCH  55  76
ATOM     76  C   UNL     1       6.963  10.849  -3.224  1.00  0.00     0.057 A 
ATOM     77  C   UNL     1       7.815  11.941  -3.445  1.00  0.00     0.134 A 
ATOM     78  C   UNL     1       6.948  10.335  -1.916  1.00  0.00     0.134 A 
ATOM     79  F   UNL     1       7.874  12.525  -4.651  1.00  0.00    -0.206 F 
ATOM     80  C   UNL     1       8.579  12.512  -2.419  1.00  0.00     0.040 A 
ATOM     81  C   UNL     1       7.713  10.889  -0.885  1.00  0.00     0.040 A 
ATOM     82  F   UNL     1       6.122   9.338  -1.567  1.00  0.00    -0.206 F 
ATOM     83  C   UNL     1       8.519  11.993  -1.130  1.00  0.00     0.006 A 
ENDBRANCH  55  76
BRANCH  67  84
ATOM     84  C   UNL     1       4.244  10.636  -8.890  1.00  0.00     0.057 A 
ATOM     85  C   UNL     1       4.832   9.399  -8.581  1.00  0.00     0.134 A 
ATOM     86  C   UNL     1       4.336  11.063 -10.219  1.00  0.00     0.134 A 
ATOM     87  F   UNL     1       4.707   8.856  -7.363  1.00  0.00    -0.206 F 
ATOM     88  C   UNL     1       5.526   8.652  -9.539  1.00  0.00     0.040 A 
ATOM     89  C   UNL     1       4.993  10.309 -11.193  1.00  0.00     0.040 A 
ATOM     90  F   UNL     1       3.748  12.207 -10.604  1.00  0.00    -0.206 F 
ATOM     91  C   UNL     1       5.603   9.105 -10.852  1.00  0.00     0.006 A 
ENDBRANCH  67  84
ENDBRANCH  41  42
ENDBRANCH  34  36
ENDBRANCH  33  34
ENDBRANCH  32  33
ENDBRANCH  31  32
ENDBRANCH  30  31
ENDBRANCH  29  30
ENDBRANCH  28  29
ENDBRANCH   1  28
TORSDOF 22
