REMARK SMILES O=C(CCc1cccnc1)Nc1cccc(F)c1C(=O)OCCOCCOCCOCCOC(=O)c1ccc(-c2c3nc(c(-c4c(F)cccc4F)c4ccc([nH]4)c(-c4c(F)cccc4F)c4nc(c(-c5c(F)cccc5F)c5ccc2[nH]5)C=C4)C=C3)cc1
REMARK SMILES IDX 26 1 25 2 24 3 23 4 22 5 21 6 19 7 20 8 18 9 12 10 13 11
REMARK SMILES IDX 14 12 16 13 15 14 17 15 11 16 1 17 2 18 3 20 4 21 5 22 6 23
REMARK SMILES IDX 10 24 7 25 9 26 8 27 27 28 28 29 29 30 30 31 31 32 32 33
REMARK SMILES IDX 33 34 34 35 35 36 36 37 37 38 89 39 38 40 88 41 39 42 40 43
REMARK SMILES IDX 41 44 82 45 42 46 87 47 81 48 83 49 43 50 86 51 80 52 79 53
REMARK SMILES IDX 44 55 70 56 53 57 69 58 54 59 57 60 68 61 84 62 55 63 56 64
REMARK SMILES IDX 67 66 85 67 58 68 45 69 46 70 51 71 47 72 48 73 50 74 52 75
REMARK SMILES IDX 49 76 71 77 72 78 77 79 73 80 74 81 76 82 78 83 75 84 59 85
REMARK SMILES IDX 60 86 65 87 61 88 62 89 64 90 66 91 63 92
REMARK H PARENT 11 19 83 54 57 65
REMARK Flexibility Score: inf
ROOT
ATOM      1  C   UNL     1       5.112  -4.602  -0.239  1.00  0.00     0.188 C 
ENDROOT
BRANCH   1   2
ATOM      2  C   UNL     1       5.510  -3.502   0.772  1.00  0.00     0.188 C 
BRANCH   2   3
ATOM      3  O   UNL     1       6.142  -4.015   1.936  1.00  0.00    -0.376 OA
BRANCH   3   4
ATOM      4  C   UNL     1       5.501  -3.853   3.187  1.00  0.00     0.202 C 
BRANCH   4   5
ATOM      5  C   UNL     1       4.294  -4.760   3.395  1.00  0.00     0.261 C 
BRANCH   5   6
ATOM      6  O   UNL     1       3.298  -4.643   2.369  1.00  0.00    -0.460 OA
BRANCH   6   7
ATOM      7  C   UNL     1       2.609  -3.484   2.267  1.00  0.00     0.343 C 
ATOM      8  O   UNL     1       2.736  -2.500   2.977  1.00  0.00    -0.246 OA
BRANCH   7   9
ATOM      9  C   UNL     1       1.828  -3.506   1.010  1.00  0.00     0.119 A 
ATOM     10  C   UNL     1       1.680  -2.349   0.215  1.00  0.00     0.058 A 
ATOM     11  C   UNL     1       0.936  -2.456  -0.974  1.00  0.00     0.027 A 
ATOM     12  C   UNL     1       0.371  -3.670  -1.377  1.00  0.00     0.005 A 
ATOM     13  C   UNL     1       1.236  -4.711   0.602  1.00  0.00     0.139 A 
ATOM     14  C   UNL     1       0.526  -4.802  -0.589  1.00  0.00     0.040 A 
ATOM     15  F   UNL     1       1.337  -5.824   1.345  1.00  0.00    -0.206 F 
BRANCH  10  16
ATOM     16  N   UNL     1       2.346  -1.126   0.526  1.00  0.00    -0.325 N 
ATOM     17  O   UNL     1       0.835   0.368  -0.371  1.00  0.00    -0.275 OA
ATOM     18  C   UNL     1       1.955   0.121   0.075  1.00  0.00     0.224 C 
ATOM     19  H   UNL     1       3.142  -1.173   1.104  1.00  0.00     0.169 HD
BRANCH  18  20
ATOM     20  C   UNL     1       3.023   1.205   0.050  1.00  0.00     0.105 C 
BRANCH  20  21
ATOM     21  C   UNL     1       3.695   1.553   1.375  1.00  0.00     0.047 C 
BRANCH  21  22
ATOM     22  C   UNL     1       5.025   0.872   1.552  1.00  0.00    -0.029 A 
ATOM     23  C   UNL     1       6.132   1.191   0.757  1.00  0.00     0.007 A 
ATOM     24  C   UNL     1       5.200  -0.111   2.513  1.00  0.00     0.114 A 
ATOM     25  C   UNL     1       7.318   0.475   0.894  1.00  0.00     0.020 A 
ATOM     26  N   UNL     1       6.345  -0.807   2.674  1.00  0.00    -0.264 NA
ATOM     27  C   UNL     1       7.368  -0.526   1.844  1.00  0.00     0.111 A 
ENDBRANCH  21  22
ENDBRANCH  20  21
ENDBRANCH  18  20
ENDBRANCH  10  16
ENDBRANCH   7   9
ENDBRANCH   6   7
ENDBRANCH   5   6
ENDBRANCH   4   5
ENDBRANCH   3   4
ENDBRANCH   2   3
ENDBRANCH   1   2
BRANCH   1  28
ATOM     28  O   UNL     1       5.948  -5.731  -0.496  1.00  0.00    -0.377 OA
BRANCH  28  29
ATOM     29  C   UNL     1       7.022  -5.988   0.398  1.00  0.00     0.188 C 
BRANCH  29  30
ATOM     30  C   UNL     1       8.200  -5.002   0.247  1.00  0.00     0.188 C 
BRANCH  30  31
ATOM     31  O   UNL     1       7.906  -3.916  -0.619  1.00  0.00    -0.376 OA
BRANCH  31  32
ATOM     32  C   UNL     1       8.279  -3.986  -1.983  1.00  0.00     0.202 C 
BRANCH  32  33
ATOM     33  C   UNL     1       7.965  -5.218  -2.849  1.00  0.00     0.261 C 
BRANCH  33  34
ATOM     34  O   UNL     1       8.185  -6.508  -2.270  1.00  0.00    -0.460 OA
BRANCH  34  35
ATOM     35  C   UNL     1       9.454  -6.890  -2.026  1.00  0.00     0.338 C 
ATOM     36  O   UNL     1      10.473  -6.269  -2.274  1.00  0.00    -0.246 OA
BRANCH  35  37
ATOM     37  C   UNL     1       9.378  -8.106  -1.184  1.00  0.00     0.060 A 
ATOM     38  C   UNL     1      10.036  -8.109   0.054  1.00  0.00     0.016 A 
ATOM     39  C   UNL     1       8.596  -9.200  -1.572  1.00  0.00     0.016 A 
ATOM     40  C   UNL     1       9.943  -9.221   0.889  1.00  0.00     0.010 A 
ATOM     41  C   UNL     1       8.525 -10.325  -0.746  1.00  0.00     0.010 A 
ATOM     42  C   UNL     1       9.229 -10.351   0.469  1.00  0.00    -0.014 A 
BRANCH  42  43
ATOM     43  C   UNL     1       9.423 -11.629   1.192  1.00  0.00     0.031 A 
ATOM     44  C   UNL     1      10.477 -12.570   0.678  1.00  0.00     0.074 A 
ATOM     45  C   UNL     1       8.730 -11.923   2.305  1.00  0.00     0.049 A 
ATOM     46  N   UNL     1      10.854 -13.732   1.145  1.00  0.00    -0.248 NA
ATOM     47  C   UNL     1      11.208 -12.139  -0.526  1.00  0.00     0.031 C 
ATOM     48  C   UNL     1       7.714 -11.072   2.921  1.00  0.00     0.029 A 
ATOM     49  N   UNL     1       8.788 -13.026   3.120  1.00  0.00    -0.354 N 
ATOM     50  C   UNL     1      11.868 -14.162   0.299  1.00  0.00     0.074 A 
ATOM     51  C   UNL     1      12.022 -13.162  -0.733  1.00  0.00     0.031 C 
ATOM     52  C   UNL     1       7.244 -11.685   4.022  1.00  0.00     0.029 A 
ATOM     53  C   UNL     1       7.908 -12.980   4.173  1.00  0.00     0.049 A 
ATOM     54  H   UNL     1       9.402 -13.779   2.965  1.00  0.00     0.167 HD
ATOM     55  C   UNL     1      12.618 -15.284   0.386  1.00  0.00     0.037 A 
ATOM     56  C   UNL     1       7.665 -13.885   5.141  1.00  0.00     0.037 A 
ATOM     57  C   UNL     1      12.460 -16.281   1.410  1.00  0.00     0.049 A 
ATOM     58  C   UNL     1       8.459 -15.166   5.171  1.00  0.00     0.074 A 
ATOM     59  C   UNL     1      13.174 -17.452   1.587  1.00  0.00     0.029 A 
ATOM     60  N   UNL     1      11.519 -16.225   2.427  1.00  0.00    -0.354 N 
ATOM     61  N   UNL     1       9.429 -15.557   4.378  1.00  0.00    -0.248 NA
ATOM     62  C   UNL     1       8.129 -16.128   6.232  1.00  0.00     0.031 C 
ATOM     63  C   UNL     1      12.629 -18.132   2.680  1.00  0.00     0.029 A 
ATOM     64  C   UNL     1      11.616 -17.356   3.220  1.00  0.00     0.049 A 
ATOM     65  H   UNL     1      10.877 -15.491   2.565  1.00  0.00     0.167 HD
ATOM     66  C   UNL     1       9.837 -16.797   4.856  1.00  0.00     0.074 A 
ATOM     67  C   UNL     1       9.025 -17.082   6.021  1.00  0.00     0.031 C 
ATOM     68  C   UNL     1      10.795 -17.627   4.374  1.00  0.00     0.037 A 
BRANCH  55  69
ATOM     69  C   UNL     1      13.669 -15.502  -0.661  1.00  0.00     0.057 A 
ATOM     70  C   UNL     1      13.529 -16.521  -1.611  1.00  0.00     0.134 A 
ATOM     71  C   UNL     1      14.844 -14.741  -0.697  1.00  0.00     0.134 A 
ATOM     72  F   UNL     1      12.426 -17.284  -1.634  1.00  0.00    -0.206 F 
ATOM     73  C   UNL     1      14.530 -16.790  -2.546  1.00  0.00     0.040 A 
ATOM     74  C   UNL     1      15.841 -14.983  -1.643  1.00  0.00     0.040 A 
ATOM     75  F   UNL     1      15.030 -13.736   0.172  1.00  0.00    -0.206 F 
ATOM     76  C   UNL     1      15.690 -16.018  -2.564  1.00  0.00     0.006 A 
ENDBRANCH  55  69
BRANCH  56  77
ATOM     77  C   UNL     1       6.626 -13.612   6.168  1.00  0.00     0.057 A 
ATOM     78  C   UNL     1       5.266 -13.575   5.838  1.00  0.00     0.134 A 
ATOM     79  C   UNL     1       6.969 -13.387   7.507  1.00  0.00     0.134 A 
ATOM     80  F   UNL     1       4.870 -13.787   4.574  1.00  0.00    -0.206 F 
ATOM     81  C   UNL     1       4.286 -13.305   6.795  1.00  0.00     0.040 A 
ATOM     82  C   UNL     1       5.998 -13.142   8.480  1.00  0.00     0.040 A 
ATOM     83  F   UNL     1       8.252 -13.437   7.892  1.00  0.00    -0.206 F 
ATOM     84  C   UNL     1       4.652 -13.092   8.123  1.00  0.00     0.006 A 
ENDBRANCH  56  77
BRANCH  68  85
ATOM     85  C   UNL     1      11.031 -18.917   5.107  1.00  0.00     0.057 A 
ATOM     86  C   UNL     1      12.227 -19.134   5.806  1.00  0.00     0.134 A 
ATOM     87  C   UNL     1      10.103 -19.965   5.075  1.00  0.00     0.134 A 
ATOM     88  F   UNL     1      13.167 -18.179   5.864  1.00  0.00    -0.206 F 
ATOM     89  C   UNL     1      12.492 -20.349   6.439  1.00  0.00     0.040 A 
ATOM     90  C   UNL     1      10.344 -21.173   5.732  1.00  0.00     0.040 A 
ATOM     91  F   UNL     1       8.936 -19.820   4.430  1.00  0.00    -0.206 F 
ATOM     92  C   UNL     1      11.545 -21.370   6.410  1.00  0.00     0.006 A 
ENDBRANCH  68  85
ENDBRANCH  42  43
ENDBRANCH  35  37
ENDBRANCH  34  35
ENDBRANCH  33  34
ENDBRANCH  32  33
ENDBRANCH  31  32
ENDBRANCH  30  31
ENDBRANCH  29  30
ENDBRANCH  28  29
ENDBRANCH   1  28
TORSDOF 24
