REMARK SMILES C[C@H]1CCCC[C@H]1[N@@H+]1[C@@H](C(=O)OCCOCCOCCOCCOC(=O)c2ccc(-c3c4nc(c(-c5c(F)cccc5F)c5ccc([nH]5)c(-c5c(F)cccc5F)c5nc(c(-c6c(F)cccc6F)c6ccc3[nH]6)C=C5)C=C4)cc2)CC[C@@H]2CCCC[C@@H]21
REMARK SMILES IDX 19 1 18 2 17 3 16 4 15 5 14 6 13 7 12 8 10 9 11 10 9 11 8 12
REMARK SMILES IDX 88 13 81 15 83 16 87 17 82 18 84 19 86 20 85 21 7 22 1 23
REMARK SMILES IDX 2 24 3 25 4 26 6 27 5 28 20 29 21 30 22 31 23 32 24 33 25 34
REMARK SMILES IDX 26 35 27 36 28 37 80 38 29 39 79 40 30 41 31 42 32 43 73 44
REMARK SMILES IDX 33 45 78 46 72 47 74 48 34 49 77 50 71 51 70 52 35 54 61 55
REMARK SMILES IDX 44 56 60 57 45 58 48 59 59 60 75 61 46 62 47 63 58 65 76 66
REMARK SMILES IDX 49 67 36 68 37 69 42 70 38 71 39 72 41 73 43 74 40 75 62 76
REMARK SMILES IDX 63 77 68 78 64 79 65 80 67 81 69 82 66 83 50 84 51 85 56 86
REMARK SMILES IDX 52 87 53 88 55 89 57 90 54 91
REMARK H PARENT 8 14 74 53 48 64
REMARK Flexibility Score: inf
ROOT
ATOM      1  C   UNL     1      -3.961  -2.255   1.611  1.00  0.00     0.188 C 
ENDROOT
BRANCH   1   2
ATOM      2  O   UNL     1      -3.631  -1.075   0.895  1.00  0.00    -0.377 OA
BRANCH   2   3
ATOM      3  C   UNL     1      -4.295   0.124   1.292  1.00  0.00     0.188 C 
BRANCH   3   4
ATOM      4  C   UNL     1      -4.144   1.192   0.196  1.00  0.00     0.188 C 
BRANCH   4   5
ATOM      5  O   UNL     1      -4.923   0.953  -0.973  1.00  0.00    -0.376 OA
BRANCH   5   6
ATOM      6  C   UNL     1      -4.601  -0.218  -1.726  1.00  0.00     0.202 C 
BRANCH   6   7
ATOM      7  C   UNL     1      -3.404  -0.136  -2.703  1.00  0.00     0.261 C 
BRANCH   7   8
ATOM      8  O   UNL     1      -2.061  -0.453  -2.226  1.00  0.00    -0.459 OA
BRANCH   8   9
ATOM      9  C   UNL     1      -1.114   0.548  -2.341  1.00  0.00     0.365 C 
ATOM     10  O   UNL     1      -1.431   1.734  -2.404  1.00  0.00    -0.245 OA
BRANCH   9  11
ATOM     11  C   UNL     1       0.338   0.016  -2.598  1.00  0.00     0.295 C 
ATOM     12  N   UNL     1       1.434  -0.113  -1.560  1.00  0.00    -0.318 N 
ATOM     13  C   UNL     1       2.818  -0.258  -2.138  1.00  0.00     0.188 C 
ATOM     14  H   UNL     1       1.110   0.791  -1.216  1.00  0.00     0.349 HD
ATOM     15  C   UNL     1       0.880   1.064  -3.615  1.00  0.00     0.078 C 
ATOM     16  C   UNL     1       2.859  -0.484  -3.669  1.00  0.00     0.048 C 
ATOM     17  C   UNL     1       3.847  -1.279  -1.545  1.00  0.00     0.065 C 
ATOM     18  C   UNL     1       2.100   0.613  -4.395  1.00  0.00     0.016 C 
ATOM     19  C   UNL     1       2.414  -1.902  -4.095  1.00  0.00     0.010 C 
ATOM     20  C   UNL     1       3.927  -2.638  -2.246  1.00  0.00     0.006 C 
ATOM     21  C   UNL     1       2.664  -2.956  -3.019  1.00  0.00     0.001 C 
BRANCH  12  22
ATOM     22  C   UNL     1       1.311  -0.552  -0.165  1.00  0.00     0.187 C 
ATOM     23  C   UNL     1       3.406   0.705   0.960  1.00  0.00     0.014 C 
ATOM     24  C   UNL     1       1.911   0.421   0.931  1.00  0.00     0.044 C 
ATOM     25  C   UNL     1       1.148   1.750   0.940  1.00  0.00     0.009 C 
ATOM     26  C   UNL     1      -0.266   1.504   1.407  1.00  0.00     0.001 C 
ATOM     27  C   UNL     1      -0.088  -0.881   0.333  1.00  0.00     0.065 C 
ATOM     28  C   UNL     1      -0.909   0.343   0.689  1.00  0.00     0.006 C 
ENDBRANCH  12  22
ENDBRANCH   9  11
ENDBRANCH   8   9
ENDBRANCH   7   8
ENDBRANCH   6   7
ENDBRANCH   5   6
ENDBRANCH   4   5
ENDBRANCH   3   4
ENDBRANCH   2   3
ENDBRANCH   1   2
BRANCH   1  29
ATOM     29  C   UNL     1      -4.056  -2.136   3.141  1.00  0.00     0.188 C 
BRANCH  29  30
ATOM     30  O   UNL     1      -2.959  -1.577   3.859  1.00  0.00    -0.376 OA
BRANCH  30  31
ATOM     31  C   UNL     1      -1.643  -1.865   3.409  1.00  0.00     0.202 C 
BRANCH  31  32
ATOM     32  C   UNL     1      -1.057  -3.226   3.777  1.00  0.00     0.261 C 
BRANCH  32  33
ATOM     33  O   UNL     1      -1.583  -4.252   2.920  1.00  0.00    -0.460 OA
BRANCH  33  34
ATOM     34  C   UNL     1      -2.513  -5.047   3.473  1.00  0.00     0.338 C 
ATOM     35  O   UNL     1      -2.929  -5.036   4.630  1.00  0.00    -0.246 OA
BRANCH  34  36
ATOM     36  C   UNL     1      -3.105  -5.878   2.425  1.00  0.00     0.060 A 
ATOM     37  C   UNL     1      -4.461  -5.704   2.116  1.00  0.00     0.016 A 
ATOM     38  C   UNL     1      -2.353  -6.896   1.838  1.00  0.00     0.016 A 
ATOM     39  C   UNL     1      -5.092  -6.585   1.250  1.00  0.00     0.010 A 
ATOM     40  C   UNL     1      -2.994  -7.799   0.996  1.00  0.00     0.010 A 
ATOM     41  C   UNL     1      -4.372  -7.671   0.746  1.00  0.00    -0.014 A 
BRANCH  41  42
ATOM     42  C   UNL     1      -5.105  -8.829   0.202  1.00  0.00     0.031 A 
ATOM     43  C   UNL     1      -5.407  -9.958   1.144  1.00  0.00     0.074 A 
ATOM     44  C   UNL     1      -5.471  -8.870  -1.088  1.00  0.00     0.049 A 
ATOM     45  N   UNL     1      -5.869 -11.152   0.889  1.00  0.00    -0.248 NA
ATOM     46  C   UNL     1      -5.139  -9.706   2.571  1.00  0.00     0.031 C 
ATOM     47  C   UNL     1      -5.293  -7.788  -2.053  1.00  0.00     0.029 A 
ATOM     48  N   UNL     1      -6.047  -9.882  -1.808  1.00  0.00    -0.354 N 
ATOM     49  C   UNL     1      -5.918 -11.801   2.117  1.00  0.00     0.074 A 
ATOM     50  C   UNL     1      -5.430 -10.877   3.114  1.00  0.00     0.031 C 
ATOM     51  C   UNL     1      -5.724  -8.208  -3.256  1.00  0.00     0.029 A 
ATOM     52  C   UNL     1      -6.157  -9.599  -3.146  1.00  0.00     0.049 A 
ATOM     53  H   UNL     1      -6.353 -10.727  -1.406  1.00  0.00     0.167 HD
ATOM     54  C   UNL     1      -6.327 -13.063   2.379  1.00  0.00     0.037 A 
ATOM     55  C   UNL     1      -6.524 -10.400  -4.163  1.00  0.00     0.037 A 
ATOM     56  C   UNL     1      -6.803 -13.964   1.365  1.00  0.00     0.049 A 
ATOM     57  C   UNL     1      -6.898 -11.827  -3.860  1.00  0.00     0.074 A 
ATOM     58  C   UNL     1      -7.245 -15.266   1.504  1.00  0.00     0.029 A 
ATOM     59  N   UNL     1      -6.892 -13.647   0.017  1.00  0.00    -0.354 N 
ATOM     60  N   UNL     1      -6.931 -12.447  -2.704  1.00  0.00    -0.248 NA
ATOM     61  C   UNL     1      -7.280 -12.669  -5.002  1.00  0.00     0.031 C 
ATOM     62  C   UNL     1      -7.552 -15.754   0.231  1.00  0.00     0.029 A 
ATOM     63  C   UNL     1      -7.363 -14.736  -0.692  1.00  0.00     0.049 A 
ATOM     64  H   UNL     1      -6.654 -12.776  -0.376  1.00  0.00     0.167 HD
ATOM     65  C   UNL     1      -7.379 -13.734  -2.971  1.00  0.00     0.074 A 
ATOM     66  C   UNL     1      -7.600 -13.807  -4.401  1.00  0.00     0.031 C 
ATOM     67  C   UNL     1      -7.597 -14.763  -2.115  1.00  0.00     0.037 A 
BRANCH  54  68
ATOM     68  C   UNL     1      -6.226 -13.546   3.796  1.00  0.00     0.057 A 
ATOM     69  C   UNL     1      -7.054 -13.056   4.814  1.00  0.00     0.134 A 
ATOM     70  C   UNL     1      -5.284 -14.522   4.147  1.00  0.00     0.134 A 
ATOM     71  F   UNL     1      -7.962 -12.103   4.552  1.00  0.00    -0.206 F 
ATOM     72  C   UNL     1      -6.935 -13.502   6.132  1.00  0.00     0.040 A 
ATOM     73  C   UNL     1      -5.174 -14.997   5.455  1.00  0.00     0.040 A 
ATOM     74  F   UNL     1      -4.455 -15.032   3.223  1.00  0.00    -0.206 F 
ATOM     75  C   UNL     1      -5.997 -14.481   6.453  1.00  0.00     0.006 A 
ENDBRANCH  54  68
BRANCH  55  76
ATOM     76  C   UNL     1      -6.537  -9.880  -5.554  1.00  0.00     0.057 A 
ATOM     77  C   UNL     1      -7.738  -9.710  -6.250  1.00  0.00     0.134 A 
ATOM     78  C   UNL     1      -5.352  -9.545  -6.222  1.00  0.00     0.134 A 
ATOM     79  F   UNL     1      -8.904 -10.030  -5.671  1.00  0.00    -0.206 F 
ATOM     80  C   UNL     1      -7.761  -9.242  -7.565  1.00  0.00     0.040 A 
ATOM     81  C   UNL     1      -5.362  -9.051  -7.527  1.00  0.00     0.040 A 
ATOM     82  F   UNL     1      -4.166  -9.680  -5.609  1.00  0.00    -0.206 F 
ATOM     83  C   UNL     1      -6.570  -8.905  -8.205  1.00  0.00     0.006 A 
ENDBRANCH  55  76
BRANCH  67  84
ATOM     84  C   UNL     1      -8.168 -16.027  -2.686  1.00  0.00     0.057 A 
ATOM     85  C   UNL     1      -7.405 -16.905  -3.462  1.00  0.00     0.134 A 
ATOM     86  C   UNL     1      -9.486 -16.399  -2.386  1.00  0.00     0.134 A 
ATOM     87  F   UNL     1      -6.141 -16.601  -3.792  1.00  0.00    -0.206 F 
ATOM     88  C   UNL     1      -7.939 -18.105  -3.936  1.00  0.00     0.040 A 
ATOM     89  C   UNL     1     -10.020 -17.608  -2.829  1.00  0.00     0.040 A 
ATOM     90  F   UNL     1     -10.264 -15.605  -1.635  1.00  0.00    -0.206 F 
ATOM     91  C   UNL     1      -9.246 -18.463  -3.610  1.00  0.00     0.006 A 
ENDBRANCH  67  84
ENDBRANCH  41  42
ENDBRANCH  34  36
ENDBRANCH  33  34
ENDBRANCH  32  33
ENDBRANCH  31  32
ENDBRANCH  30  31
ENDBRANCH  29  30
ENDBRANCH   1  29
TORSDOF 21
