REMARK SMILES Cc1cc(C(=O)Nc2ccn(C)n2)sc1/C=C/C(=O)OCCOCCOCCOCCOC(=O)c1ccc(-c2c3nc(c(-c4c(F)cccc4F)c4ccc([nH]4)c(-c4c(F)cccc4F)c4nc(c(-c5c(F)cccc5F)c5ccc2[nH]5)C=C4)C=C3)cc1
REMARK SMILES IDX 25 1 24 2 23 3 22 4 21 5 20 6 18 7 19 8 17 9 16 10 15 11
REMARK SMILES IDX 1 12 2 13 3 14 4 15 14 16 5 17 6 18 7 19 8 21 9 22 13 23
REMARK SMILES IDX 10 24 11 25 12 26 26 27 27 28 28 29 29 30 30 31 31 32 32 33
REMARK SMILES IDX 33 34 34 35 35 36 36 37 88 38 37 39 87 40 38 41 39 42 40 43
REMARK SMILES IDX 81 44 41 45 86 46 80 47 82 48 42 49 85 50 79 51 78 52 43 54
REMARK SMILES IDX 69 55 52 56 68 57 53 58 56 59 67 60 83 61 54 62 55 63 66 65
REMARK SMILES IDX 84 66 57 67 44 68 45 69 50 70 46 71 47 72 49 73 51 74 48 75
REMARK SMILES IDX 70 76 71 77 76 78 72 79 73 80 75 81 77 82 74 83 58 84 59 85
REMARK SMILES IDX 64 86 60 87 61 88 63 89 65 90 62 91
REMARK H PARENT 7 20 82 53 56 64
REMARK Flexibility Score: inf
ROOT
ATOM      1  C   UNL     1      -0.262  -4.917   1.942  1.00  0.00     0.188 C 
ENDROOT
BRANCH   1   2
ATOM      2  C   UNL     1      -1.119  -5.878   1.096  1.00  0.00     0.188 C 
BRANCH   2   3
ATOM      3  O   UNL     1      -0.536  -7.158   0.939  1.00  0.00    -0.376 OA
BRANCH   3   4
ATOM      4  C   UNL     1       0.062  -7.518  -0.290  1.00  0.00     0.202 C 
BRANCH   4   5
ATOM      5  C   UNL     1       1.134  -6.625  -0.938  1.00  0.00     0.261 C 
BRANCH   5   6
ATOM      6  O   UNL     1       0.934  -5.210  -0.869  1.00  0.00    -0.460 OA
BRANCH   6   7
ATOM      7  C   UNL     1       0.016  -4.690  -1.708  1.00  0.00     0.330 C 
ATOM      8  O   UNL     1      -0.675  -5.317  -2.495  1.00  0.00    -0.247 OA
BRANCH   7   9
ATOM      9  C   UNL     1      -0.185  -3.248  -1.449  1.00  0.00     0.095 C 
ATOM     10  C   UNL     1       0.726  -2.429  -0.892  1.00  0.00     0.027 C 
BRANCH  10  11
ATOM     11  C   UNL     1       0.478  -1.041  -0.610  1.00  0.00     0.031 A 
ATOM     12  C   UNL     1       2.804  -0.236   0.171  1.00  0.00     0.046 C 
ATOM     13  C   UNL     1       1.337  -0.076  -0.085  1.00  0.00    -0.032 A 
ATOM     14  C   UNL     1       0.646   1.159   0.191  1.00  0.00     0.029 A 
ATOM     15  C   UNL     1      -0.692   1.138  -0.152  1.00  0.00     0.093 A 
ATOM     16  S   UNL     1      -1.032  -0.306  -0.987  1.00  0.00    -0.130 S 
BRANCH  15  17
ATOM     17  C   UNL     1      -1.643   2.248  -0.049  1.00  0.00     0.266 C 
ATOM     18  O   UNL     1      -1.249   3.414   0.056  1.00  0.00    -0.268 OA
ATOM     19  N   UNL     1      -3.000   2.054  -0.180  1.00  0.00    -0.304 N 
ATOM     20  H   UNL     1      -3.507   2.834  -0.503  1.00  0.00     0.171 HD
BRANCH  19  21
ATOM     21  C   UNL     1      -3.749   0.935   0.072  1.00  0.00     0.154 A 
ATOM     22  C   UNL     1      -3.545  -0.083   1.033  1.00  0.00     0.068 A 
ATOM     23  N   UNL     1      -4.854   0.710  -0.642  1.00  0.00    -0.155 NA
ATOM     24  C   UNL     1      -4.500  -1.033   0.756  1.00  0.00     0.110 A 
ATOM     25  N   UNL     1      -5.196  -0.548  -0.312  1.00  0.00    -0.274 N 
ATOM     26  C   UNL     1      -6.134  -1.269  -1.137  1.00  0.00     0.173 C 
ENDBRANCH  19  21
ENDBRANCH  15  17
ENDBRANCH  10  11
ENDBRANCH   7   9
ENDBRANCH   6   7
ENDBRANCH   5   6
ENDBRANCH   4   5
ENDBRANCH   3   4
ENDBRANCH   2   3
ENDBRANCH   1   2
BRANCH   1  27
ATOM     27  O   UNL     1       1.108  -5.247   2.116  1.00  0.00    -0.377 OA
BRANCH  27  28
ATOM     28  C   UNL     1       1.474  -6.484   2.730  1.00  0.00     0.188 C 
BRANCH  28  29
ATOM     29  C   UNL     1       0.464  -7.402   3.463  1.00  0.00     0.188 C 
BRANCH  29  30
ATOM     30  O   UNL     1      -0.760  -6.778   3.808  1.00  0.00    -0.376 OA
BRANCH  30  31
ATOM     31  C   UNL     1      -1.008  -6.530   5.179  1.00  0.00     0.202 C 
BRANCH  31  32
ATOM     32  C   UNL     1      -0.094  -5.501   5.856  1.00  0.00     0.261 C 
BRANCH  32  33
ATOM     33  O   UNL     1       1.317  -5.737   5.732  1.00  0.00    -0.460 OA
BRANCH  33  34
ATOM     34  C   UNL     1       1.823  -6.813   6.370  1.00  0.00     0.338 C 
ATOM     35  O   UNL     1       1.213  -7.624   7.050  1.00  0.00    -0.246 OA
BRANCH  34  36
ATOM     36  C   UNL     1       3.234  -6.954   5.960  1.00  0.00     0.060 A 
ATOM     37  C   UNL     1       3.642  -8.116   5.290  1.00  0.00     0.016 A 
ATOM     38  C   UNL     1       4.150  -5.934   6.230  1.00  0.00     0.016 A 
ATOM     39  C   UNL     1       4.978  -8.274   4.918  1.00  0.00     0.010 A 
ATOM     40  C   UNL     1       5.490  -6.102   5.874  1.00  0.00     0.010 A 
ATOM     41  C   UNL     1       5.917  -7.286   5.246  1.00  0.00    -0.014 A 
BRANCH  41  42
ATOM     42  C   UNL     1       7.367  -7.566   5.111  1.00  0.00     0.031 A 
ATOM     43  C   UNL     1       8.131  -7.980   6.340  1.00  0.00     0.074 A 
ATOM     44  C   UNL     1       7.996  -7.465   3.928  1.00  0.00     0.049 A 
ATOM     45  N   UNL     1       9.409  -8.211   6.488  1.00  0.00    -0.248 NA
ATOM     46  C   UNL     1       7.340  -8.152   7.570  1.00  0.00     0.031 C 
ATOM     47  C   UNL     1       7.362  -7.113   2.659  1.00  0.00     0.029 A 
ATOM     48  N   UNL     1       9.320  -7.640   3.608  1.00  0.00    -0.354 N 
ATOM     49  C   UNL     1       9.578  -8.547   7.825  1.00  0.00     0.074 A 
ATOM     50  C   UNL     1       8.278  -8.456   8.453  1.00  0.00     0.031 C 
ATOM     51  C   UNL     1       8.303  -7.083   1.698  1.00  0.00     0.029 A 
ATOM     52  C   UNL     1       9.607  -7.377   2.290  1.00  0.00     0.049 A 
ATOM     53  H   UNL     1       9.999  -7.926   4.261  1.00  0.00     0.167 HD
ATOM     54  C   UNL     1      10.712  -8.908   8.471  1.00  0.00     0.037 A 
ATOM     55  C   UNL     1      10.791  -7.351   1.647  1.00  0.00     0.037 A 
ATOM     56  C   UNL     1      12.005  -8.990   7.845  1.00  0.00     0.049 A 
ATOM     57  C   UNL     1      12.053  -7.675   2.406  1.00  0.00     0.074 A 
ATOM     58  C   UNL     1      13.214  -9.359   8.409  1.00  0.00     0.029 A 
ATOM     59  N   UNL     1      12.260  -8.688   6.516  1.00  0.00    -0.354 N 
ATOM     60  N   UNL     1      12.201  -8.015   3.663  1.00  0.00    -0.248 NA
ATOM     61  C   UNL     1      13.315  -7.612   1.653  1.00  0.00     0.031 C 
ATOM     62  C   UNL     1      14.209  -9.221   7.438  1.00  0.00     0.029 A 
ATOM     63  C   UNL     1      13.611  -8.833   6.249  1.00  0.00     0.049 A 
ATOM     64  H   UNL     1      11.581  -8.411   5.859  1.00  0.00     0.167 HD
ATOM     65  C   UNL     1      13.562  -8.240   3.842  1.00  0.00     0.074 A 
ATOM     66  C   UNL     1      14.194  -8.009   2.561  1.00  0.00     0.031 C 
ATOM     67  C   UNL     1      14.228  -8.608   4.965  1.00  0.00     0.037 A 
BRANCH  54  68
ATOM     68  C   UNL     1      10.607  -9.208   9.938  1.00  0.00     0.057 A 
ATOM     69  C   UNL     1       9.946 -10.347  10.419  1.00  0.00     0.134 A 
ATOM     70  C   UNL     1      11.195  -8.358  10.883  1.00  0.00     0.134 A 
ATOM     71  F   UNL     1       9.347 -11.195   9.569  1.00  0.00    -0.206 F 
ATOM     72  C   UNL     1       9.852 -10.614  11.786  1.00  0.00     0.040 A 
ATOM     73  C   UNL     1      11.135  -8.631  12.251  1.00  0.00     0.040 A 
ATOM     74  F   UNL     1      11.846  -7.251  10.493  1.00  0.00    -0.206 F 
ATOM     75  C   UNL     1      10.455  -9.758  12.706  1.00  0.00     0.006 A 
ENDBRANCH  54  68
BRANCH  55  76
ATOM     76  C   UNL     1      10.850  -6.989   0.206  1.00  0.00     0.057 A 
ATOM     77  C   UNL     1      11.230  -7.923  -0.764  1.00  0.00     0.134 A 
ATOM     78  C   UNL     1      10.560  -5.691  -0.231  1.00  0.00     0.134 A 
ATOM     79  F   UNL     1      11.546  -9.177  -0.407  1.00  0.00    -0.206 F 
ATOM     80  C   UNL     1      11.340  -7.576  -2.112  1.00  0.00     0.040 A 
ATOM     81  C   UNL     1      10.637  -5.337  -1.579  1.00  0.00     0.040 A 
ATOM     82  F   UNL     1      10.191  -4.746   0.647  1.00  0.00    -0.206 F 
ATOM     83  C   UNL     1      11.037  -6.280  -2.523  1.00  0.00     0.006 A 
ENDBRANCH  55  76
BRANCH  67  84
ATOM     84  C   UNL     1      15.710  -8.832   4.853  1.00  0.00     0.057 A 
ATOM     85  C   UNL     1      16.612  -7.777   4.665  1.00  0.00     0.134 A 
ATOM     86  C   UNL     1      16.245 -10.122   4.980  1.00  0.00     0.134 A 
ATOM     87  F   UNL     1      16.168  -6.519   4.525  1.00  0.00    -0.206 F 
ATOM     88  C   UNL     1      17.988  -8.000   4.581  1.00  0.00     0.040 A 
ATOM     89  C   UNL     1      17.620 -10.352   4.931  1.00  0.00     0.040 A 
ATOM     90  F   UNL     1      15.440 -11.178   5.175  1.00  0.00    -0.206 F 
ATOM     91  C   UNL     1      18.496  -9.290   4.723  1.00  0.00     0.006 A 
ENDBRANCH  67  84
ENDBRANCH  41  42
ENDBRANCH  34  36
ENDBRANCH  33  34
ENDBRANCH  32  33
ENDBRANCH  31  32
ENDBRANCH  30  31
ENDBRANCH  29  30
ENDBRANCH  28  29
ENDBRANCH  27  28
ENDBRANCH   1  27
TORSDOF 23
