REMARK SMILES O=C(OCCOCCOCCOCCOC(=O)[C@H](CCc1ccccn1)c1ccccc1Br)c1ccc(-c2c3nc(c(-c4c(F)cccc4F)c4ccc([nH]4)c(-c4c(F)cccc4F)c4nc(c(-c5c(F)cccc5F)c5ccc2[nH]5)C=C4)C=C3)cc1
REMARK SMILES IDX 10 1 9 2 8 3 7 4 6 5 5 6 4 7 3 8 2 9 1 10 34 11 35 12 87 13
REMARK SMILES IDX 36 14 86 15 37 16 38 17 39 18 80 19 40 20 85 21 79 22 81 23
REMARK SMILES IDX 41 24 84 25 78 26 77 27 42 29 68 30 51 31 67 32 52 33 55 34
REMARK SMILES IDX 66 35 82 36 53 37 54 38 65 40 83 41 56 42 43 43 44 44 49 45
REMARK SMILES IDX 45 46 46 47 48 48 50 49 47 50 69 51 70 52 75 53 71 54 72 55
REMARK SMILES IDX 74 56 76 57 73 58 57 59 58 60 63 61 59 62 60 63 62 64 64 65
REMARK SMILES IDX 61 66 11 67 12 68 13 69 14 70 15 71 16 72 17 73 18 74 27 75
REMARK SMILES IDX 28 76 32 77 29 78 31 79 33 80 30 81 19 82 20 83 21 84 22 85
REMARK SMILES IDX 26 86 23 87 25 88 24 89
REMARK H PARENT 81 28 55 39
REMARK Flexibility Score: inf
ROOT
ATOM      1  C   UNL     1       6.461  -4.024  -3.382  1.00  0.00     0.188 C 
ENDROOT
BRANCH   1   2
ATOM      2  O   UNL     1       6.539  -5.411  -3.677  1.00  0.00    -0.377 OA
BRANCH   2   3
ATOM      3  C   UNL     1       7.162  -6.213  -2.672  1.00  0.00     0.188 C 
BRANCH   3   4
ATOM      4  C   UNL     1       8.497  -5.674  -2.147  1.00  0.00     0.188 C 
BRANCH   4   5
ATOM      5  O   UNL     1       8.317  -4.441  -1.444  1.00  0.00    -0.376 OA
BRANCH   5   6
ATOM      6  C   UNL     1       9.251  -3.404  -1.763  1.00  0.00     0.202 C 
BRANCH   6   7
ATOM      7  C   UNL     1      10.545  -3.474  -0.959  1.00  0.00     0.261 C 
BRANCH   7   8
ATOM      8  O   UNL     1      10.891  -4.819  -0.608  1.00  0.00    -0.460 OA
BRANCH   8   9
ATOM      9  C   UNL     1      10.443  -5.533   0.454  1.00  0.00     0.338 C 
ATOM     10  O   UNL     1      10.811  -6.702   0.565  1.00  0.00    -0.246 OA
BRANCH   9  11
ATOM     11  C   UNL     1       9.566  -4.980   1.535  1.00  0.00     0.060 A 
ATOM     12  C   UNL     1       8.627  -3.956   1.390  1.00  0.00     0.016 A 
ATOM     13  C   UNL     1       9.661  -5.603   2.791  1.00  0.00     0.016 A 
ATOM     14  C   UNL     1       7.847  -3.521   2.448  1.00  0.00     0.010 A 
ATOM     15  C   UNL     1       8.874  -5.180   3.866  1.00  0.00     0.010 A 
ATOM     16  C   UNL     1       7.987  -4.114   3.694  1.00  0.00    -0.014 A 
BRANCH  16  17
ATOM     17  C   UNL     1       7.354  -3.431   4.830  1.00  0.00     0.031 A 
ATOM     18  C   UNL     1       8.228  -2.557   5.673  1.00  0.00     0.074 A 
ATOM     19  C   UNL     1       6.018  -3.458   4.972  1.00  0.00     0.049 A 
ATOM     20  N   UNL     1       7.941  -1.894   6.758  1.00  0.00    -0.248 NA
ATOM     21  C   UNL     1       9.620  -2.390   5.215  1.00  0.00     0.031 C 
ATOM     22  C   UNL     1       5.087  -4.145   4.074  1.00  0.00     0.029 A 
ATOM     23  N   UNL     1       5.211  -2.862   5.901  1.00  0.00    -0.354 N 
ATOM     24  C   UNL     1       9.123  -1.269   7.133  1.00  0.00     0.074 A 
ATOM     25  C   UNL     1      10.131  -1.621   6.161  1.00  0.00     0.031 C 
ATOM     26  C   UNL     1       3.830  -3.920   4.492  1.00  0.00     0.029 A 
ATOM     27  C   UNL     1       3.878  -3.142   5.724  1.00  0.00     0.049 A 
ATOM     28  H   UNL     1       5.552  -2.289   6.625  1.00  0.00     0.167 HD
ATOM     29  C   UNL     1       9.338  -0.480   8.209  1.00  0.00     0.037 A 
ATOM     30  C   UNL     1       2.832  -2.834   6.511  1.00  0.00     0.037 A 
ATOM     31  C   UNL     1       8.303  -0.154   9.149  1.00  0.00     0.049 A 
ATOM     32  C   UNL     1       3.115  -2.056   7.769  1.00  0.00     0.074 A 
ATOM     33  C   UNL     1       8.390   0.558  10.328  1.00  0.00     0.029 A 
ATOM     34  N   UNL     1       6.973  -0.531   8.998  1.00  0.00    -0.354 N 
ATOM     35  N   UNL     1       4.253  -1.551   8.189  1.00  0.00    -0.248 NA
ATOM     36  C   UNL     1       1.985  -1.826   8.675  1.00  0.00     0.031 C 
ATOM     37  C   UNL     1       7.119   0.572  10.913  1.00  0.00     0.029 A 
ATOM     38  C   UNL     1       6.230  -0.084  10.072  1.00  0.00     0.049 A 
ATOM     39  H   UNL     1       6.614  -1.043   8.237  1.00  0.00     0.167 HD
ATOM     40  C   UNL     1       3.976  -0.931   9.398  1.00  0.00     0.074 A 
ATOM     41  C   UNL     1       2.554  -1.108   9.632  1.00  0.00     0.031 C 
ATOM     42  C   UNL     1       4.811  -0.281  10.247  1.00  0.00     0.037 A 
BRANCH  29  43
ATOM     43  C   UNL     1      10.747  -0.026   8.446  1.00  0.00     0.057 A 
ATOM     44  C   UNL     1      11.376   0.930   7.637  1.00  0.00     0.134 A 
ATOM     45  C   UNL     1      11.512  -0.613   9.463  1.00  0.00     0.134 A 
ATOM     46  F   UNL     1      10.714   1.503   6.620  1.00  0.00    -0.206 F 
ATOM     47  C   UNL     1      12.722   1.263   7.812  1.00  0.00     0.040 A 
ATOM     48  C   UNL     1      12.850  -0.270   9.663  1.00  0.00     0.040 A 
ATOM     49  F   UNL     1      10.977  -1.546  10.264  1.00  0.00    -0.206 F 
ATOM     50  C   UNL     1      13.462   0.663   8.829  1.00  0.00     0.006 A 
ENDBRANCH  29  43
BRANCH  30  51
ATOM     51  C   UNL     1       1.465  -3.316   6.179  1.00  0.00     0.057 A 
ATOM     52  C   UNL     1       0.423  -2.429   5.890  1.00  0.00     0.134 A 
ATOM     53  C   UNL     1       1.162  -4.685   6.158  1.00  0.00     0.134 A 
ATOM     54  F   UNL     1       0.637  -1.105   5.912  1.00  0.00    -0.206 F 
ATOM     55  C   UNL     1      -0.869  -2.881   5.607  1.00  0.00     0.040 A 
ATOM     56  C   UNL     1      -0.116  -5.153   5.849  1.00  0.00     0.040 A 
ATOM     57  F   UNL     1       2.111  -5.594   6.428  1.00  0.00    -0.206 F 
ATOM     58  C   UNL     1      -1.140  -4.248   5.580  1.00  0.00     0.006 A 
ENDBRANCH  30  51
BRANCH  42  59
ATOM     59  C   UNL     1       4.193   0.308  11.476  1.00  0.00     0.057 A 
ATOM     60  C   UNL     1       3.787  -0.491  12.552  1.00  0.00     0.134 A 
ATOM     61  C   UNL     1       4.057   1.696  11.602  1.00  0.00     0.134 A 
ATOM     62  F   UNL     1       3.882  -1.827  12.481  1.00  0.00    -0.206 F 
ATOM     63  C   UNL     1       3.248   0.072  13.707  1.00  0.00     0.040 A 
ATOM     64  C   UNL     1       3.547   2.271  12.764  1.00  0.00     0.040 A 
ATOM     65  F   UNL     1       4.439   2.511  10.608  1.00  0.00    -0.206 F 
ATOM     66  C   UNL     1       3.136   1.458  13.819  1.00  0.00     0.006 A 
ENDBRANCH  42  59
ENDBRANCH  16  17
ENDBRANCH   9  11
ENDBRANCH   8   9
ENDBRANCH   7   8
ENDBRANCH   6   7
ENDBRANCH   5   6
ENDBRANCH   4   5
ENDBRANCH   3   4
ENDBRANCH   2   3
ENDBRANCH   1   2
BRANCH   1  67
ATOM     67  C   UNL     1       5.592  -3.571  -2.192  1.00  0.00     0.188 C 
BRANCH  67  68
ATOM     68  O   UNL     1       5.148  -4.611  -1.323  1.00  0.00    -0.376 OA
BRANCH  68  69
ATOM     69  C   UNL     1       3.727  -4.761  -1.262  1.00  0.00     0.202 C 
BRANCH  69  70
ATOM     70  C   UNL     1       3.132  -5.471  -2.484  1.00  0.00     0.261 C 
BRANCH  70  71
ATOM     71  O   UNL     1       3.472  -4.828  -3.725  1.00  0.00    -0.463 OA
BRANCH  71  72
ATOM     72  C   UNL     1       2.807  -3.717  -4.145  1.00  0.00     0.313 C 
ATOM     73  O   UNL     1       1.831  -3.241  -3.578  1.00  0.00    -0.252 OA
BRANCH  72  74
ATOM     74  C   UNL     1       3.560  -3.084  -5.335  1.00  0.00     0.131 C 
BRANCH  74  75
ATOM     75  C   UNL     1       3.520  -3.952  -6.604  1.00  0.00    -0.020 A 
ATOM     76  C   UNL     1       4.207  -5.197  -6.525  1.00  0.00     0.006 A 
ATOM     77  C   UNL     1       2.939  -3.643  -7.843  1.00  0.00     0.022 A 
ATOM     78  C   UNL     1       4.295  -6.087  -7.596  1.00  0.00     0.000 A 
ATOM     79  C   UNL     1       3.071  -4.524  -8.934  1.00  0.00     0.016 A 
ATOM     80  Br  UNL     1       1.923  -2.084  -8.218  1.00  0.00    -0.051 Br
ATOM     81  C   UNL     1       3.736  -5.742  -8.812  1.00  0.00     0.001 A 
ENDBRANCH  74  75
BRANCH  74  82
ATOM     82  C   UNL     1       3.375  -1.550  -5.411  1.00  0.00     0.026 C 
BRANCH  82  83
ATOM     83  C   UNL     1       3.951  -0.740  -4.223  1.00  0.00     0.057 C 
BRANCH  83  84
ATOM     84  C   UNL     1       5.298  -0.079  -4.453  1.00  0.00     0.040 A 
ATOM     85  C   UNL     1       5.425   0.909  -5.432  1.00  0.00     0.024 A 
ATOM     86  N   UNL     1       6.315  -0.385  -3.606  1.00  0.00    -0.261 NA
ATOM     87  C   UNL     1       6.620   1.616  -5.543  1.00  0.00     0.003 A 
ATOM     88  C   UNL     1       7.460   0.336  -3.728  1.00  0.00     0.111 A 
ATOM     89  C   UNL     1       7.658   1.334  -4.667  1.00  0.00     0.020 A 
ENDBRANCH  83  84
ENDBRANCH  82  83
ENDBRANCH  74  82
ENDBRANCH  72  74
ENDBRANCH  71  72
ENDBRANCH  70  71
ENDBRANCH  69  70
ENDBRANCH  68  69
ENDBRANCH  67  68
ENDBRANCH   1  67
TORSDOF 24
