REMARK SMILES CC[C@@H]1CCCN(S(=O)(=O)c2cc(C(=O)OCCOCCOCCOCCOC(=O)c3ccc(-c4c5nc(c(-c6c(F)cccc6F)c6ccc([nH]6)c(-c6c(F)cccc6F)c6nc(c(-c7c(F)cccc7F)c7ccc4[nH]7)C=C6)C=C5)cc3)ccc2F)C1
REMARK SMILES IDX 21 1 20 2 19 3 18 4 17 5 16 6 14 7 15 8 13 9 11 10 12 11
REMARK SMILES IDX 87 12 86 13 88 14 85 15 8 16 9 17 10 18 7 19 3 20 4 21 89 22
REMARK SMILES IDX 5 23 6 24 2 25 1 26 22 27 23 28 24 29 25 30 26 31 27 32
REMARK SMILES IDX 28 33 29 34 30 35 31 36 32 37 84 38 33 39 83 40 34 41 35 42
REMARK SMILES IDX 36 43 77 44 37 45 82 46 76 47 78 48 38 49 81 50 75 51 74 52
REMARK SMILES IDX 39 54 65 55 48 56 64 57 49 58 52 59 63 60 79 61 50 62 51 63
REMARK SMILES IDX 62 65 80 66 53 67 40 68 41 69 46 70 42 71 43 72 45 73 47 74
REMARK SMILES IDX 44 75 66 76 67 77 72 78 68 79 69 80 71 81 73 82 70 83 54 84
REMARK SMILES IDX 55 85 60 86 56 87 57 88 59 89 61 90 58 91
REMARK H PARENT 78 53 52 64
REMARK Flexibility Score: inf
ROOT
ATOM      1  C   UNL     1      -4.944   8.422   4.065  1.00  0.00     0.188 C 
ENDROOT
BRANCH   1   2
ATOM      2  C   UNL     1      -5.908   7.286   3.676  1.00  0.00     0.188 C 
BRANCH   2   3
ATOM      3  O   UNL     1      -7.002   7.162   4.576  1.00  0.00    -0.376 OA
BRANCH   3   4
ATOM      4  C   UNL     1      -7.031   6.034   5.434  1.00  0.00     0.202 C 
BRANCH   4   5
ATOM      5  C   UNL     1      -5.926   5.904   6.493  1.00  0.00     0.261 C 
BRANCH   5   6
ATOM      6  O   UNL     1      -4.585   6.072   6.019  1.00  0.00    -0.460 OA
BRANCH   6   7
ATOM      7  C   UNL     1      -4.043   5.083   5.279  1.00  0.00     0.338 C 
ATOM      8  O   UNL     1      -4.555   4.014   4.995  1.00  0.00    -0.246 OA
BRANCH   7   9
ATOM      9  C   UNL     1      -2.790   5.615   4.683  1.00  0.00     0.061 A 
ATOM     10  C   UNL     1      -1.405   5.915   2.724  1.00  0.00     0.119 A 
ATOM     11  C   UNL     1      -2.501   5.306   3.348  1.00  0.00     0.040 A 
ATOM     12  C   UNL     1      -0.618   6.827   3.417  1.00  0.00     0.143 A 
ATOM     13  C   UNL     1      -0.885   7.115   4.752  1.00  0.00     0.041 A 
ATOM     14  F   UNL     1       0.442   7.416   2.848  1.00  0.00    -0.206 F 
ATOM     15  C   UNL     1      -1.972   6.512   5.388  1.00  0.00     0.019 A 
BRANCH  10  16
ATOM     16  S   UNL     1      -1.080   5.583   1.023  1.00  0.00     0.246 S 
ATOM     17  O   UNL     1      -0.404   6.716   0.429  1.00  0.00    -0.207 OA
ATOM     18  O   UNL     1      -2.315   5.093   0.444  1.00  0.00    -0.207 OA
BRANCH  16  19
ATOM     19  N   UNL     1       0.031   4.264   1.082  1.00  0.00    -0.197 NA
ATOM     20  C   UNL     1       1.103   2.409  -0.226  1.00  0.00     0.004 C 
ATOM     21  C   UNL     1       2.427   2.704   0.496  1.00  0.00     0.006 C 
ATOM     22  C   UNL     1       0.236   3.677  -0.279  1.00  0.00     0.106 C 
ATOM     23  C   UNL     1       2.201   3.359   1.853  1.00  0.00     0.017 C 
ATOM     24  C   UNL     1       1.334   4.603   1.725  1.00  0.00     0.102 C 
BRANCH  20  25
ATOM     25  C   UNL     1       0.339   1.219   0.392  1.00  0.00     0.001 C 
ATOM     26  C   UNL     1       0.936  -0.122  -0.021  1.00  0.00     0.004 C 
ENDBRANCH  20  25
ENDBRANCH  16  19
ENDBRANCH  10  16
ENDBRANCH   7   9
ENDBRANCH   6   7
ENDBRANCH   5   6
ENDBRANCH   4   5
ENDBRANCH   3   4
ENDBRANCH   2   3
ENDBRANCH   1   2
BRANCH   1  27
ATOM     27  O   UNL     1      -5.092   8.929   5.382  1.00  0.00    -0.377 OA
BRANCH  27  28
ATOM     28  C   UNL     1      -6.291   9.627   5.725  1.00  0.00     0.188 C 
BRANCH  28  29
ATOM     29  C   UNL     1      -7.430   9.909   4.713  1.00  0.00     0.188 C 
BRANCH  29  30
ATOM     30  O   UNL     1      -7.025   9.972   3.354  1.00  0.00    -0.376 OA
BRANCH  30  31
ATOM     31  C   UNL     1      -7.036  11.246   2.731  1.00  0.00     0.202 C 
BRANCH  31  32
ATOM     32  C   UNL     1      -5.924  12.194   3.195  1.00  0.00     0.261 C 
BRANCH  32  33
ATOM     33  O   UNL     1      -5.936  12.511   4.596  1.00  0.00    -0.460 OA
BRANCH  33  34
ATOM     34  C   UNL     1      -7.021  13.163   5.068  1.00  0.00     0.338 C 
ATOM     35  O   UNL     1      -7.991  13.542   4.439  1.00  0.00    -0.246 OA
BRANCH  34  36
ATOM     36  C   UNL     1      -6.917  13.194   6.540  1.00  0.00     0.060 A 
ATOM     37  C   UNL     1      -7.937  12.619   7.309  1.00  0.00     0.016 A 
ATOM     38  C   UNL     1      -5.813  13.790   7.152  1.00  0.00     0.016 A 
ATOM     39  C   UNL     1      -7.872  12.676   8.702  1.00  0.00     0.010 A 
ATOM     40  C   UNL     1      -5.757  13.861   8.545  1.00  0.00     0.010 A 
ATOM     41  C   UNL     1      -6.803  13.335   9.324  1.00  0.00    -0.014 A 
BRANCH  41  42
ATOM     42  C   UNL     1      -6.867  13.654  10.770  1.00  0.00     0.031 A 
ATOM     43  C   UNL     1      -7.337  15.024  11.176  1.00  0.00     0.074 A 
ATOM     44  C   UNL     1      -6.535  12.747  11.706  1.00  0.00     0.049 A 
ATOM     45  N   UNL     1      -7.415  15.556  12.367  1.00  0.00    -0.248 NA
ATOM     46  C   UNL     1      -7.783  15.912  10.088  1.00  0.00     0.031 C 
ATOM     47  C   UNL     1      -6.121  11.371  11.442  1.00  0.00     0.029 A 
ATOM     48  N   UNL     1      -6.495  12.856  13.074  1.00  0.00    -0.354 N 
ATOM     49  C   UNL     1      -7.920  16.836  12.174  1.00  0.00     0.074 A 
ATOM     50  C   UNL     1      -8.096  17.016  10.750  1.00  0.00     0.031 C 
ATOM     51  C   UNL     1      -5.868  10.761  12.614  1.00  0.00     0.029 A 
ATOM     52  C   UNL     1      -6.066  11.715  13.706  1.00  0.00     0.049 A 
ATOM     53  H   UNL     1      -6.751  13.675  13.556  1.00  0.00     0.167 HD
ATOM     54  C   UNL     1      -8.225  17.771  13.102  1.00  0.00     0.037 A 
ATOM     55  C   UNL     1      -5.843  11.477  15.014  1.00  0.00     0.037 A 
ATOM     56  C   UNL     1      -8.045  17.594  14.517  1.00  0.00     0.049 A 
ATOM     57  C   UNL     1      -6.088  12.573  16.019  1.00  0.00     0.074 A 
ATOM     58  C   UNL     1      -8.312  18.491  15.536  1.00  0.00     0.029 A 
ATOM     59  N   UNL     1      -7.554  16.443  15.113  1.00  0.00    -0.354 N 
ATOM     60  N   UNL     1      -6.559  13.783  15.827  1.00  0.00    -0.248 NA
ATOM     61  C   UNL     1      -5.768  12.274  17.423  1.00  0.00     0.031 C 
ATOM     62  C   UNL     1      -7.938  17.900  16.745  1.00  0.00     0.029 A 
ATOM     63  C   UNL     1      -7.492  16.614  16.485  1.00  0.00     0.049 A 
ATOM     64  H   UNL     1      -7.288  15.626  14.632  1.00  0.00     0.167 HD
ATOM     65  C   UNL     1      -6.623  14.373  17.084  1.00  0.00     0.074 A 
ATOM     66  C   UNL     1      -6.150  13.387  18.034  1.00  0.00     0.031 C 
ATOM     67  C   UNL     1      -7.037  15.619  17.421  1.00  0.00     0.037 A 
BRANCH  54  68
ATOM     68  C   UNL     1      -8.782  19.077  12.620  1.00  0.00     0.057 A 
ATOM     69  C   UNL     1      -8.030  20.255  12.713  1.00  0.00     0.134 A 
ATOM     70  C   UNL     1     -10.091  19.181  12.132  1.00  0.00     0.134 A 
ATOM     71  F   UNL     1      -6.770  20.224  13.174  1.00  0.00    -0.206 F 
ATOM     72  C   UNL     1      -8.567  21.493  12.357  1.00  0.00     0.040 A 
ATOM     73  C   UNL     1     -10.630  20.410  11.749  1.00  0.00     0.040 A 
ATOM     74  F   UNL     1     -10.857  18.088  12.003  1.00  0.00    -0.206 F 
ATOM     75  C   UNL     1      -9.871  21.572  11.873  1.00  0.00     0.006 A 
ENDBRANCH  54  68
BRANCH  55  76
ATOM     76  C   UNL     1      -5.361  10.143  15.458  1.00  0.00     0.057 A 
ATOM     77  C   UNL     1      -4.076   9.685  15.145  1.00  0.00     0.134 A 
ATOM     78  C   UNL     1      -6.175   9.301  16.226  1.00  0.00     0.134 A 
ATOM     79  F   UNL     1      -3.244  10.444  14.416  1.00  0.00    -0.206 F 
ATOM     80  C   UNL     1      -3.622   8.433  15.566  1.00  0.00     0.040 A 
ATOM     81  C   UNL     1      -5.725   8.059  16.676  1.00  0.00     0.040 A 
ATOM     82  F   UNL     1      -7.406   9.694  16.582  1.00  0.00    -0.206 F 
ATOM     83  C   UNL     1      -4.446   7.619  16.340  1.00  0.00     0.006 A 
ENDBRANCH  55  76
BRANCH  67  84
ATOM     84  C   UNL     1      -7.043  15.989  18.877  1.00  0.00     0.057 A 
ATOM     85  C   UNL     1      -8.253  16.183  19.556  1.00  0.00     0.134 A 
ATOM     86  C   UNL     1      -5.859  16.239  19.581  1.00  0.00     0.134 A 
ATOM     87  F   UNL     1      -9.424  15.974  18.936  1.00  0.00    -0.206 F 
ATOM     88  C   UNL     1      -8.286  16.630  20.878  1.00  0.00     0.040 A 
ATOM     89  C   UNL     1      -5.878  16.659  20.912  1.00  0.00     0.040 A 
ATOM     90  F   UNL     1      -4.667  16.065  18.991  1.00  0.00    -0.206 F 
ATOM     91  C   UNL     1      -7.095  16.866  21.560  1.00  0.00     0.006 A 
ENDBRANCH  67  84
ENDBRANCH  41  42
ENDBRANCH  34  36
ENDBRANCH  33  34
ENDBRANCH  32  33
ENDBRANCH  31  32
ENDBRANCH  30  31
ENDBRANCH  29  30
ENDBRANCH  28  29
ENDBRANCH  27  28
ENDBRANCH   1  27
TORSDOF 23
