REMARK SMILES CC(=O)NCCc1c[nH]c2ccc(C(=O)OCCOCCOCCOCCOC(=O)c3ccc(-c4c5nc(c(-c6c(F)cccc6F)c6ccc([nH]6)c(-c6c(F)cccc6F)c6nc(c(-c7c(F)cccc7F)c7ccc4[nH]7)C=C6)C=C5)cc3)cc12
REMARK SMILES IDX 21 1 20 2 19 3 18 4 17 5 16 6 14 7 15 8 13 9 7 10 8 11 86 12
REMARK SMILES IDX 9 13 10 14 85 15 11 17 12 18 6 19 5 20 4 21 1 22 2 23 3 24
REMARK SMILES IDX 22 26 23 27 24 28 25 29 26 30 27 31 28 32 29 33 30 34 31 35
REMARK SMILES IDX 32 36 84 37 33 38 83 39 34 40 35 41 36 42 77 43 37 44 82 45
REMARK SMILES IDX 76 46 78 47 38 48 81 49 75 50 74 51 39 53 65 54 48 55 64 56
REMARK SMILES IDX 49 57 52 58 63 59 79 60 50 61 51 62 62 64 80 65 53 66 40 67
REMARK SMILES IDX 41 68 46 69 42 70 43 71 45 72 47 73 44 74 66 75 67 76 72 77
REMARK SMILES IDX 68 78 69 79 71 80 73 81 70 82 54 83 55 84 60 85 56 86 57 87
REMARK SMILES IDX 59 88 61 89 58 90
REMARK H PARENT 9 16 4 25 78 52 52 63
REMARK Flexibility Score: inf
ROOT
ATOM      1  C   UNL     1      -0.242   5.165  -6.461  1.00  0.00     0.188 C 
ENDROOT
BRANCH   1   2
ATOM      2  C   UNL     1       0.691   6.101  -5.664  1.00  0.00     0.188 C 
BRANCH   2   3
ATOM      3  O   UNL     1       0.712   7.439  -6.138  1.00  0.00    -0.376 OA
BRANCH   3   4
ATOM      4  C   UNL     1       1.897   7.911  -6.751  1.00  0.00     0.202 C 
BRANCH   4   5
ATOM      5  C   UNL     1       2.302   7.269  -8.086  1.00  0.00     0.261 C 
BRANCH   5   6
ATOM      6  O   UNL     1       2.304   5.835  -8.109  1.00  0.00    -0.460 OA
BRANCH   6   7
ATOM      7  C   UNL     1       3.284   5.218  -7.412  1.00  0.00     0.338 C 
ATOM      8  O   UNL     1       4.184   5.758  -6.795  1.00  0.00    -0.246 OA
BRANCH   7   9
ATOM      9  C   UNL     1       2.970   3.769  -7.341  1.00  0.00     0.060 A 
ATOM     10  C   UNL     1       2.811   0.823  -4.899  1.00  0.00    -0.021 A 
ATOM     11  C   UNL     1       2.489  -0.408  -5.439  1.00  0.00     0.087 A 
ATOM     12  C   UNL     1       2.816   1.758  -5.985  1.00  0.00     0.003 A 
ATOM     13  N   UNL     1       2.216  -0.240  -6.769  1.00  0.00    -0.361 N 
ATOM     14  C   UNL     1       2.377   1.080  -7.123  1.00  0.00     0.046 A 
ATOM     15  C   UNL     1       3.134   3.126  -6.102  1.00  0.00     0.026 A 
ATOM     16  H   UNL     1       1.945  -0.959  -7.384  1.00  0.00     0.166 HD
ATOM     17  C   UNL     1       2.170   1.712  -8.356  1.00  0.00     0.027 A 
ATOM     18  C   UNL     1       2.464   3.077  -8.445  1.00  0.00     0.018 A 
BRANCH  10  19
ATOM     19  C   UNL     1       3.099   1.107  -3.453  1.00  0.00     0.059 C 
BRANCH  19  20
ATOM     20  C   UNL     1       1.828   1.397  -2.639  1.00  0.00     0.120 C 
BRANCH  20  21
ATOM     21  N   UNL     1       0.963   0.231  -2.522  1.00  0.00    -0.356 N 
ATOM     22  C   UNL     1       1.107  -0.004  -0.075  1.00  0.00     0.114 C 
ATOM     23  C   UNL     1       0.603  -0.471  -1.411  1.00  0.00     0.216 C 
ATOM     24  O   UNL     1      -0.123  -1.456  -1.523  1.00  0.00    -0.275 OA
ATOM     25  H   UNL     1       0.584  -0.098  -3.369  1.00  0.00     0.163 HD
ENDBRANCH  20  21
ENDBRANCH  19  20
ENDBRANCH  10  19
ENDBRANCH   7   9
ENDBRANCH   6   7
ENDBRANCH   5   6
ENDBRANCH   4   5
ENDBRANCH   3   4
ENDBRANCH   2   3
ENDBRANCH   1   2
BRANCH   1  26
ATOM     26  O   UNL     1      -0.822   5.634  -7.670  1.00  0.00    -0.377 OA
BRANCH  26  27
ATOM     27  C   UNL     1      -1.424   6.924  -7.716  1.00  0.00     0.188 C 
BRANCH  27  28
ATOM     28  C   UNL     1      -2.024   7.584  -6.452  1.00  0.00     0.188 C 
BRANCH  28  29
ATOM     29  O   UNL     1      -2.108   6.731  -5.323  1.00  0.00    -0.376 OA
BRANCH  29  30
ATOM     30  C   UNL     1      -3.401   6.298  -4.936  1.00  0.00     0.202 C 
BRANCH  30  31
ATOM     31  C   UNL     1      -4.131   5.381  -5.925  1.00  0.00     0.261 C 
BRANCH  31  32
ATOM     32  O   UNL     1      -4.291   5.891  -7.259  1.00  0.00    -0.460 OA
BRANCH  32  33
ATOM     33  C   UNL     1      -5.071   6.980  -7.429  1.00  0.00     0.338 C 
ATOM     34  O   UNL     1      -5.675   7.601  -6.572  1.00  0.00    -0.246 OA
BRANCH  33  35
ATOM     35  C   UNL     1      -4.920   7.404  -8.836  1.00  0.00     0.060 A 
ATOM     36  C   UNL     1      -4.356   8.655  -9.127  1.00  0.00     0.016 A 
ATOM     37  C   UNL     1      -5.295   6.540  -9.866  1.00  0.00     0.016 A 
ATOM     38  C   UNL     1      -4.174   9.046 -10.456  1.00  0.00     0.010 A 
ATOM     39  C   UNL     1      -5.136   6.943 -11.193  1.00  0.00     0.010 A 
ATOM     40  C   UNL     1      -4.593   8.205 -11.494  1.00  0.00    -0.014 A 
BRANCH  40  41
ATOM     41  C   UNL     1      -4.633   8.693 -12.893  1.00  0.00     0.031 A 
ATOM     42  C   UNL     1      -5.941   9.199 -13.432  1.00  0.00     0.074 A 
ATOM     43  C   UNL     1      -3.543   8.662 -13.681  1.00  0.00     0.049 A 
ATOM     44  N   UNL     1      -6.257   9.558 -14.649  1.00  0.00    -0.248 NA
ATOM     45  C   UNL     1      -7.044   9.306 -12.464  1.00  0.00     0.031 C 
ATOM     46  C   UNL     1      -2.209   8.236 -13.265  1.00  0.00     0.029 A 
ATOM     47  N   UNL     1      -3.399   8.978 -15.009  1.00  0.00    -0.354 N 
ATOM     48  C   UNL     1      -7.596   9.923 -14.595  1.00  0.00     0.074 A 
ATOM     49  C   UNL     1      -8.040   9.717 -13.234  1.00  0.00     0.031 C 
ATOM     50  C   UNL     1      -1.384   8.296 -14.326  1.00  0.00     0.029 A 
ATOM     51  C   UNL     1      -2.142   8.724 -15.501  1.00  0.00     0.049 A 
ATOM     52  H   UNL     1      -4.127   9.351 -15.557  1.00  0.00     0.167 HD
ATOM     53  C   UNL     1      -8.385  10.390 -15.592  1.00  0.00     0.037 A 
ATOM     54  C   UNL     1      -1.671   8.794 -16.762  1.00  0.00     0.037 A 
ATOM     55  C   UNL     1      -7.943  10.584 -16.947  1.00  0.00     0.049 A 
ATOM     56  C   UNL     1      -2.593   9.226 -17.875  1.00  0.00     0.074 A 
ATOM     57  C   UNL     1      -8.660  11.070 -18.025  1.00  0.00     0.029 A 
ATOM     58  N   UNL     1      -6.670  10.287 -17.412  1.00  0.00    -0.354 N 
ATOM     59  N   UNL     1      -3.851   9.595 -17.813  1.00  0.00    -0.248 NA
ATOM     60  C   UNL     1      -2.032   9.247 -19.234  1.00  0.00     0.031 C 
ATOM     61  C   UNL     1      -7.840  11.012 -19.156  1.00  0.00     0.029 A 
ATOM     62  C   UNL     1      -6.592  10.548 -18.770  1.00  0.00     0.049 A 
ATOM     63  H   UNL     1      -5.933   9.943 -16.859  1.00  0.00     0.167 HD
ATOM     64  C   UNL     1      -4.220   9.919 -19.114  1.00  0.00     0.074 A 
ATOM     65  C   UNL     1      -3.050   9.714 -19.943  1.00  0.00     0.031 C 
ATOM     66  C   UNL     1      -5.418  10.349 -19.581  1.00  0.00     0.037 A 
BRANCH  53  67
ATOM     67  C   UNL     1      -9.816  10.690 -15.257  1.00  0.00     0.057 A 
ATOM     68  C   UNL     1     -10.179  11.778 -14.452  1.00  0.00     0.134 A 
ATOM     69  C   UNL     1     -10.848   9.894 -15.770  1.00  0.00     0.134 A 
ATOM     70  F   UNL     1      -9.238  12.570 -13.915  1.00  0.00    -0.206 F 
ATOM     71  C   UNL     1     -11.514  12.048 -14.149  1.00  0.00     0.040 A 
ATOM     72  C   UNL     1     -12.189  10.171 -15.498  1.00  0.00     0.040 A 
ATOM     73  F   UNL     1     -10.571   8.838 -16.550  1.00  0.00    -0.206 F 
ATOM     74  C   UNL     1     -12.524  11.248 -14.680  1.00  0.00     0.006 A 
ENDBRANCH  53  67
BRANCH  54  75
ATOM     75  C   UNL     1      -0.263   8.420 -17.057  1.00  0.00     0.057 A 
ATOM     76  C   UNL     1       0.666   9.374 -17.487  1.00  0.00     0.134 A 
ATOM     77  C   UNL     1       0.179   7.096 -16.950  1.00  0.00     0.134 A 
ATOM     78  F   UNL     1       0.298  10.655 -17.637  1.00  0.00    -0.206 F 
ATOM     79  C   UNL     1       1.978   9.024 -17.816  1.00  0.00     0.040 A 
ATOM     80  C   UNL     1       1.494   6.736 -17.248  1.00  0.00     0.040 A 
ATOM     81  F   UNL     1      -0.661   6.131 -16.547  1.00  0.00    -0.206 F 
ATOM     82  C   UNL     1       2.396   7.701 -17.691  1.00  0.00     0.006 A 
ENDBRANCH  54  75
BRANCH  66  83
ATOM     83  C   UNL     1      -5.523  10.666 -21.046  1.00  0.00     0.057 A 
ATOM     84  C   UNL     1      -5.533   9.664 -22.023  1.00  0.00     0.134 A 
ATOM     85  C   UNL     1      -5.680  11.990 -21.477  1.00  0.00     0.134 A 
ATOM     86  F   UNL     1      -5.375   8.377 -21.680  1.00  0.00    -0.206 F 
ATOM     87  C   UNL     1      -5.679   9.969 -23.378  1.00  0.00     0.040 A 
ATOM     88  C   UNL     1      -5.856  12.305 -22.825  1.00  0.00     0.040 A 
ATOM     89  F   UNL     1      -5.691  12.999 -20.591  1.00  0.00    -0.206 F 
ATOM     90  C   UNL     1      -5.851  11.292 -23.781  1.00  0.00     0.006 A 
ENDBRANCH  66  83
ENDBRANCH  40  41
ENDBRANCH  33  35
ENDBRANCH  32  33
ENDBRANCH  31  32
ENDBRANCH  30  31
ENDBRANCH  29  30
ENDBRANCH  28  29
ENDBRANCH  27  28
ENDBRANCH  26  27
ENDBRANCH   1  26
TORSDOF 23
