REMARK SMILES CC(C)[C@@](C)(CC(=O)N[C@H]1CCCC1(C)C)C(=O)OCCOCCOCCOCCOC(=O)c1ccc(-c2c3nc(c(-c4c(F)cccc4F)c4ccc([nH]4)c(-c4c(F)cccc4F)c4nc(c(-c5c(F)cccc5F)c5ccc2[nH]5)C=C4)C=C3)cc1
REMARK SMILES IDX 24 1 23 2 22 3 21 4 20 5 19 6 17 7 18 8 4 9 5 10 2 11 1 12
REMARK SMILES IDX 3 13 6 14 7 15 8 16 9 17 10 19 11 20 14 21 12 22 13 23 15 24
REMARK SMILES IDX 16 25 25 26 26 27 27 28 28 29 29 30 30 31 31 32 32 33 33 34
REMARK SMILES IDX 34 35 35 36 87 37 36 38 86 39 37 40 38 41 39 42 80 43 40 44
REMARK SMILES IDX 85 45 79 46 81 47 41 48 84 49 78 50 77 51 42 53 68 54 51 55
REMARK SMILES IDX 67 56 52 57 55 58 66 59 82 60 53 61 54 62 65 64 83 65 56 66
REMARK SMILES IDX 43 67 44 68 49 69 45 70 46 71 48 72 50 73 47 74 69 75 70 76
REMARK SMILES IDX 75 77 71 78 72 79 74 80 76 81 73 82 57 83 58 84 63 85 59 86
REMARK SMILES IDX 60 87 62 88 64 89 61 90
REMARK H PARENT 9 18 81 52 55 63
REMARK Flexibility Score: inf
ROOT
ATOM      1  C   UNL     1      -2.094  -0.615  -3.874  1.00  0.00     0.188 C 
ENDROOT
BRANCH   1   2
ATOM      2  C   UNL     1      -1.712  -2.037  -3.407  1.00  0.00     0.188 C 
BRANCH   2   3
ATOM      3  O   UNL     1      -2.791  -2.957  -3.417  1.00  0.00    -0.376 OA
BRANCH   3   4
ATOM      4  C   UNL     1      -3.397  -3.175  -2.152  1.00  0.00     0.202 C 
BRANCH   4   5
ATOM      5  C   UNL     1      -3.939  -1.957  -1.371  1.00  0.00     0.261 C 
BRANCH   5   6
ATOM      6  O   UNL     1      -3.091  -0.776  -1.383  1.00  0.00    -0.463 OA
BRANCH   6   7
ATOM      7  C   UNL     1      -2.521  -0.380  -0.234  1.00  0.00     0.312 C 
ATOM      8  O   UNL     1      -2.741  -0.978   0.820  1.00  0.00    -0.252 OA
BRANCH   7   9
ATOM      9  C   UNL     1      -1.467   0.789  -0.316  1.00  0.00     0.076 C 
ATOM     10  C   UNL     1      -1.797   1.533   1.030  1.00  0.00     0.024 C 
BRANCH   9  11
ATOM     11  C   UNL     1      -0.065   0.132  -0.297  1.00  0.00     0.000 C 
ATOM     12  C   UNL     1       0.196  -0.890   0.815  1.00  0.00     0.008 C 
ATOM     13  C   UNL     1       0.447  -0.453  -1.629  1.00  0.00     0.008 C 
ENDBRANCH   9  11
BRANCH   9  14
ATOM     14  C   UNL     1      -1.518   1.987  -1.354  1.00  0.00     0.118 C 
BRANCH  14  15
ATOM     15  C   UNL     1      -0.534   2.239  -2.530  1.00  0.00     0.221 C 
ATOM     16  O   UNL     1      -1.058   2.328  -3.659  1.00  0.00    -0.275 OA
ATOM     17  N   UNL     1       0.806   2.414  -2.616  1.00  0.00    -0.353 N 
ATOM     18  H   UNL     1       1.083   1.973  -3.451  1.00  0.00     0.163 HD
BRANCH  17  19
ATOM     19  C   UNL     1       2.066   2.980  -2.008  1.00  0.00     0.087 C 
ATOM     20  C   UNL     1       1.888   4.490  -1.848  1.00  0.00     0.025 C 
ATOM     21  C   UNL     1       2.695   2.581  -0.635  1.00  0.00    -0.015 C 
ATOM     22  C   UNL     1       1.441   4.652  -0.392  1.00  0.00     0.003 C 
ATOM     23  C   UNL     1       1.715   3.297   0.301  1.00  0.00     0.008 C 
ATOM     24  C   UNL     1       3.089   1.109  -0.459  1.00  0.00     0.013 C 
ATOM     25  C   UNL     1       4.092   3.246  -0.384  1.00  0.00     0.013 C 
ENDBRANCH  17  19
ENDBRANCH  14  15
ENDBRANCH   9  14
ENDBRANCH   7   9
ENDBRANCH   6   7
ENDBRANCH   5   6
ENDBRANCH   4   5
ENDBRANCH   3   4
ENDBRANCH   2   3
ENDBRANCH   1   2
BRANCH   1  26
ATOM     26  O   UNL     1      -3.377  -0.409  -4.422  1.00  0.00    -0.377 OA
BRANCH  26  27
ATOM     27  C   UNL     1      -3.837  -1.380  -5.334  1.00  0.00     0.188 C 
BRANCH  27  28
ATOM     28  C   UNL     1      -2.845  -1.985  -6.350  1.00  0.00     0.188 C 
BRANCH  28  29
ATOM     29  O   UNL     1      -1.520  -1.471  -6.304  1.00  0.00    -0.376 OA
BRANCH  29  30
ATOM     30  C   UNL     1      -1.144  -0.527  -7.298  1.00  0.00     0.202 C 
BRANCH  30  31
ATOM     31  C   UNL     1      -1.800   0.862  -7.255  1.00  0.00     0.261 C 
BRANCH  31  32
ATOM     32  O   UNL     1      -3.233   0.888  -7.253  1.00  0.00    -0.460 OA
BRANCH  32  33
ATOM     33  C   UNL     1      -3.889   0.394  -8.322  1.00  0.00     0.338 C 
ATOM     34  O   UNL     1      -3.408  -0.082  -9.335  1.00  0.00    -0.246 OA
BRANCH  33  35
ATOM     35  C   UNL     1      -5.316   0.331  -7.943  1.00  0.00     0.060 A 
ATOM     36  C   UNL     1      -5.942  -0.924  -7.881  1.00  0.00     0.016 A 
ATOM     37  C   UNL     1      -5.985   1.480  -7.513  1.00  0.00     0.016 A 
ATOM     38  C   UNL     1      -7.224  -1.035  -7.349  1.00  0.00     0.010 A 
ATOM     39  C   UNL     1      -7.297   1.377  -7.047  1.00  0.00     0.010 A 
ATOM     40  C   UNL     1      -7.923   0.121  -6.977  1.00  0.00    -0.014 A 
BRANCH  40  41
ATOM     41  C   UNL     1      -9.391   0.037  -6.816  1.00  0.00     0.031 A 
ATOM     42  C   UNL     1     -10.214   0.164  -8.067  1.00  0.00     0.074 A 
ATOM     43  C   UNL     1      -9.977  -0.174  -5.625  1.00  0.00     0.049 A 
ATOM     44  N   UNL     1     -11.510   0.141  -8.220  1.00  0.00    -0.248 NA
ATOM     45  C   UNL     1      -9.461   0.338  -9.323  1.00  0.00     0.031 C 
ATOM     46  C   UNL     1      -9.281  -0.359  -4.354  1.00  0.00     0.029 A 
ATOM     47  N   UNL     1     -11.307  -0.263  -5.298  1.00  0.00    -0.354 N 
ATOM     48  C   UNL     1     -11.725   0.288  -9.584  1.00  0.00     0.074 A 
ATOM     49  C   UNL     1     -10.433   0.429 -10.214  1.00  0.00     0.031 C 
ATOM     50  C   UNL     1     -10.195  -0.522  -3.378  1.00  0.00     0.029 A 
ATOM     51  C   UNL     1     -11.536  -0.427  -3.954  1.00  0.00     0.049 A 
ATOM     52  H   UNL     1     -12.030  -0.213  -5.965  1.00  0.00     0.167 HD
ATOM     53  C   UNL     1     -12.898   0.298 -10.256  1.00  0.00     0.037 A 
ATOM     54  C   UNL     1     -12.700  -0.470  -3.275  1.00  0.00     0.037 A 
ATOM     55  C   UNL     1     -14.181   0.189  -9.623  1.00  0.00     0.049 A 
ATOM     56  C   UNL     1     -13.998  -0.360  -4.037  1.00  0.00     0.074 A 
ATOM     57  C   UNL     1     -15.434   0.200 -10.207  1.00  0.00     0.029 A 
ATOM     58  N   UNL     1     -14.373   0.065  -8.255  1.00  0.00    -0.354 N 
ATOM     59  N   UNL     1     -14.196  -0.247  -5.329  1.00  0.00    -0.248 NA
ATOM     60  C   UNL     1     -15.237  -0.385  -3.245  1.00  0.00     0.031 C 
ATOM     61  C   UNL     1     -16.387   0.136  -9.187  1.00  0.00     0.029 A 
ATOM     62  C   UNL     1     -15.727   0.023  -7.973  1.00  0.00     0.049 A 
ATOM     63  H   UNL     1     -13.654   0.015  -7.585  1.00  0.00     0.167 HD
ATOM     64  C   UNL     1     -15.575  -0.221  -5.507  1.00  0.00     0.074 A 
ATOM     65  C   UNL     1     -16.166  -0.341  -4.190  1.00  0.00     0.031 C 
ATOM     66  C   UNL     1     -16.290  -0.109  -6.653  1.00  0.00     0.037 A 
BRANCH  53  67
ATOM     67  C   UNL     1     -12.832   0.473 -11.743  1.00  0.00     0.057 A 
ATOM     68  C   UNL     1     -12.350  -0.536 -12.587  1.00  0.00     0.134 A 
ATOM     69  C   UNL     1     -13.255   1.668 -12.338  1.00  0.00     0.134 A 
ATOM     70  F   UNL     1     -11.903  -1.694 -12.076  1.00  0.00    -0.206 F 
ATOM     71  C   UNL     1     -12.274  -0.356 -13.969  1.00  0.00     0.040 A 
ATOM     72  C   UNL     1     -13.209   1.849 -13.721  1.00  0.00     0.040 A 
ATOM     73  F   UNL     1     -13.719   2.677 -11.586  1.00  0.00    -0.206 F 
ATOM     74  C   UNL     1     -12.712   0.837 -14.539  1.00  0.00     0.006 A 
ENDBRANCH  53  67
BRANCH  54  75
ATOM     75  C   UNL     1     -12.704  -0.601  -1.794  1.00  0.00     0.057 A 
ATOM     76  C   UNL     1     -13.207  -1.745  -1.162  1.00  0.00     0.134 A 
ATOM     77  C   UNL     1     -12.246   0.436  -0.972  1.00  0.00     0.134 A 
ATOM     78  F   UNL     1     -13.688  -2.762  -1.892  1.00  0.00    -0.206 F 
ATOM     79  C   UNL     1     -13.273  -1.845   0.230  1.00  0.00     0.040 A 
ATOM     80  C   UNL     1     -12.281   0.339   0.421  1.00  0.00     0.040 A 
ATOM     81  F   UNL     1     -11.758   1.563  -1.510  1.00  0.00    -0.206 F 
ATOM     82  C   UNL     1     -12.805  -0.802   1.025  1.00  0.00     0.006 A 
ENDBRANCH  54  75
BRANCH  66  83
ATOM     83  C   UNL     1     -17.787  -0.156  -6.544  1.00  0.00     0.057 A 
ATOM     84  C   UNL     1     -18.527   0.903  -6.004  1.00  0.00     0.134 A 
ATOM     85  C   UNL     1     -18.500  -1.257  -7.039  1.00  0.00     0.134 A 
ATOM     86  F   UNL     1     -17.905   1.982  -5.505  1.00  0.00    -0.206 F 
ATOM     87  C   UNL     1     -19.921   0.859  -5.940  1.00  0.00     0.040 A 
ATOM     88  C   UNL     1     -19.893  -1.299  -7.008  1.00  0.00     0.040 A 
ATOM     89  F   UNL     1     -17.853  -2.299  -7.582  1.00  0.00    -0.206 F 
ATOM     90  C   UNL     1     -20.608  -0.241  -6.450  1.00  0.00     0.006 A 
ENDBRANCH  66  83
ENDBRANCH  40  41
ENDBRANCH  33  35
ENDBRANCH  32  33
ENDBRANCH  31  32
ENDBRANCH  30  31
ENDBRANCH  29  30
ENDBRANCH  28  29
ENDBRANCH  27  28
ENDBRANCH  26  27
ENDBRANCH   1  26
TORSDOF 24
