REMARK SMILES CCOC[C@@H](O)C[C@]1(C(=O)OCCOCCOCCOCCOC(=O)c2ccc(-c3c4nc(c(-c5c(F)cccc5F)c5ccc([nH]5)c(-c5c(F)cccc5F)c5nc(c(-c6c(F)cccc6F)c6ccc3[nH]6)C=C5)C=C4)cc2)CCc2ccccc21
REMARK SMILES IDX 15 1 14 2 13 3 12 4 11 5 9 6 10 7 8 8 80 9 87 10 81 11 82 12
REMARK SMILES IDX 86 13 83 14 85 15 84 16 7 17 5 18 4 19 3 20 2 21 1 22 6 23
REMARK SMILES IDX 16 25 17 26 18 27 19 28 20 29 21 30 22 31 23 32 24 33 25 34
REMARK SMILES IDX 26 35 27 36 79 37 28 38 78 39 29 40 30 41 31 42 72 43 32 44
REMARK SMILES IDX 77 45 71 46 73 47 33 48 76 49 70 50 69 51 34 53 60 54 43 55
REMARK SMILES IDX 59 56 44 57 47 58 58 59 74 60 45 61 46 62 57 64 75 65 48 66
REMARK SMILES IDX 35 67 36 68 41 69 37 70 38 71 40 72 42 73 39 74 61 75 62 76
REMARK SMILES IDX 67 77 63 78 64 79 66 80 68 81 65 82 49 83 50 84 55 85 51 86
REMARK SMILES IDX 52 87 54 88 56 89 53 90
REMARK H PARENT 6 24 73 52 47 63
REMARK Flexibility Score: inf
ROOT
ATOM      1  C   UNL     1       1.301  -1.349   4.363  1.00  0.00     0.188 C 
ENDROOT
BRANCH   1   2
ATOM      2  O   UNL     1       1.125  -1.776   5.713  1.00  0.00    -0.376 OA
BRANCH   2   3
ATOM      3  C   UNL     1       1.697  -3.048   6.003  1.00  0.00     0.202 C 
BRANCH   3   4
ATOM      4  C   UNL     1       3.201  -3.027   6.308  1.00  0.00     0.261 C 
BRANCH   4   5
ATOM      5  O   UNL     1       4.075  -2.565   5.259  1.00  0.00    -0.463 OA
BRANCH   5   6
ATOM      6  C   UNL     1       4.149  -3.285   4.112  1.00  0.00     0.316 C 
ATOM      7  O   UNL     1       3.452  -4.267   3.880  1.00  0.00    -0.251 OA
BRANCH   6   8
ATOM      8  C   UNL     1       5.264  -2.774   3.155  1.00  0.00     0.096 C 
ATOM      9  C   UNL     1       5.887  -1.370   3.456  1.00  0.00     0.028 C 
ATOM     10  C   UNL     1       6.491  -3.628   3.479  1.00  0.00    -0.027 A 
ATOM     11  C   UNL     1       6.942  -1.543   4.558  1.00  0.00     0.037 C 
ATOM     12  C   UNL     1       7.405  -2.934   4.282  1.00  0.00    -0.044 A 
ATOM     13  C   UNL     1       6.685  -4.973   3.195  1.00  0.00     0.005 A 
ATOM     14  C   UNL     1       8.529  -3.557   4.795  1.00  0.00     0.004 A 
ATOM     15  C   UNL     1       7.818  -5.608   3.702  1.00  0.00     0.000 A 
ATOM     16  C   UNL     1       8.736  -4.904   4.494  1.00  0.00     0.000 A 
BRANCH   8  17
ATOM     17  C   UNL     1       4.847  -2.890   1.650  1.00  0.00     0.057 C 
BRANCH  17  18
ATOM     18  C   UNL     1       3.401  -2.543   1.228  1.00  0.00     0.141 C 
BRANCH  18  19
ATOM     19  C   UNL     1       3.122  -1.057   0.938  1.00  0.00     0.191 C 
BRANCH  19  20
ATOM     20  O   UNL     1       1.769  -0.717   1.281  1.00  0.00    -0.379 OA
BRANCH  20  21
ATOM     21  C   UNL     1       0.772  -0.964   0.295  1.00  0.00     0.157 C 
ATOM     22  C   UNL     1       0.700   0.159  -0.723  1.00  0.00     0.035 C 
ENDBRANCH  20  21
ENDBRANCH  19  20
ENDBRANCH  18  19
BRANCH  18  23
ATOM     23  O   UNL     1       3.174  -3.257  -0.005  1.00  0.00    -0.391 OA
ATOM     24  H   UNL     1       3.799  -2.945  -0.678  1.00  0.00     0.211 HD
ENDBRANCH  18  23
ENDBRANCH  17  18
ENDBRANCH   8  17
ENDBRANCH   6   8
ENDBRANCH   5   6
ENDBRANCH   4   5
ENDBRANCH   3   4
ENDBRANCH   2   3
ENDBRANCH   1   2
BRANCH   1  25
ATOM     25  C   UNL     1       2.465  -0.374   4.198  1.00  0.00     0.188 C 
BRANCH  25  26
ATOM     26  O   UNL     1       2.970   0.246   5.366  1.00  0.00    -0.377 OA
BRANCH  26  27
ATOM     27  C   UNL     1       2.051   0.984   6.163  1.00  0.00     0.188 C 
BRANCH  27  28
ATOM     28  C   UNL     1       0.707   1.442   5.557  1.00  0.00     0.188 C 
BRANCH  28  29
ATOM     29  O   UNL     1       0.717   1.645   4.151  1.00  0.00    -0.376 OA
BRANCH  29  30
ATOM     30  C   UNL     1       0.862   2.961   3.644  1.00  0.00     0.202 C 
BRANCH  30  31
ATOM     31  C   UNL     1       2.209   3.652   3.888  1.00  0.00     0.261 C 
BRANCH  31  32
ATOM     32  O   UNL     1       2.565   3.858   5.263  1.00  0.00    -0.460 OA
BRANCH  32  33
ATOM     33  C   UNL     1       1.702   4.532   6.051  1.00  0.00     0.338 C 
ATOM     34  O   UNL     1       0.665   5.082   5.724  1.00  0.00    -0.246 OA
BRANCH  33  35
ATOM     35  C   UNL     1       2.124   4.295   7.445  1.00  0.00     0.060 A 
ATOM     36  C   UNL     1       1.214   3.703   8.332  1.00  0.00     0.016 A 
ATOM     37  C   UNL     1       3.428   4.590   7.852  1.00  0.00     0.016 A 
ATOM     38  C   UNL     1       1.602   3.425   9.640  1.00  0.00     0.010 A 
ATOM     39  C   UNL     1       3.805   4.344   9.172  1.00  0.00     0.010 A 
ATOM     40  C   UNL     1       2.882   3.792  10.077  1.00  0.00    -0.014 A 
BRANCH  40  41
ATOM     41  C   UNL     1       3.149   3.852  11.531  1.00  0.00     0.031 A 
ATOM     42  C   UNL     1       2.867   5.153  12.231  1.00  0.00     0.074 A 
ATOM     43  C   UNL     1       3.589   2.785  12.218  1.00  0.00     0.049 A 
ATOM     44  N   UNL     1       3.014   5.470  13.490  1.00  0.00    -0.248 NA
ATOM     45  C   UNL     1       2.346   6.245  11.390  1.00  0.00     0.031 C 
ATOM     46  C   UNL     1       3.858   1.464  11.655  1.00  0.00     0.029 A 
ATOM     47  N   UNL     1       3.888   2.655  13.550  1.00  0.00    -0.354 N 
ATOM     48  C   UNL     1       2.601   6.793  13.591  1.00  0.00     0.074 A 
ATOM     49  C   UNL     1       2.231   7.230  12.264  1.00  0.00     0.031 C 
ATOM     50  C   UNL     1       4.296   0.656  12.638  1.00  0.00     0.029 A 
ATOM     51  C   UNL     1       4.358   1.410  13.889  1.00  0.00     0.049 A 
ATOM     52  H   UNL     1       3.777   3.384  14.202  1.00  0.00     0.167 HD
ATOM     53  C   UNL     1       2.529   7.572  14.694  1.00  0.00     0.037 A 
ATOM     54  C   UNL     1       4.801   0.947  15.074  1.00  0.00     0.037 A 
ATOM     55  C   UNL     1       2.912   7.140  16.009  1.00  0.00     0.049 A 
ATOM     56  C   UNL     1       4.781   1.858  16.276  1.00  0.00     0.074 A 
ATOM     57  C   UNL     1       2.875   7.850  17.195  1.00  0.00     0.029 A 
ATOM     58  N   UNL     1       3.416   5.883  16.306  1.00  0.00    -0.354 N 
ATOM     59  N   UNL     1       4.363   3.098  16.370  1.00  0.00    -0.248 NA
ATOM     60  C   UNL     1       5.291   1.302  17.538  1.00  0.00     0.031 C 
ATOM     61  C   UNL     1       3.403   7.037  18.203  1.00  0.00     0.029 A 
ATOM     62  C   UNL     1       3.717   5.803  17.655  1.00  0.00     0.049 A 
ATOM     63  H   UNL     1       3.541   5.155  15.655  1.00  0.00     0.167 HD
ATOM     64  C   UNL     1       4.529   3.459  17.702  1.00  0.00     0.074 A 
ATOM     65  C   UNL     1       5.075   2.302  18.381  1.00  0.00     0.031 C 
ATOM     66  C   UNL     1       4.253   4.638  18.312  1.00  0.00     0.037 A 
BRANCH  53  67
ATOM     67  C   UNL     1       2.048   8.980  14.506  1.00  0.00     0.057 A 
ATOM     68  C   UNL     1       0.709   9.273  14.212  1.00  0.00     0.134 A 
ATOM     69  C   UNL     1       2.935  10.056  14.623  1.00  0.00     0.134 A 
ATOM     70  F   UNL     1      -0.186   8.285  14.062  1.00  0.00    -0.206 F 
ATOM     71  C   UNL     1       0.276  10.586  14.020  1.00  0.00     0.040 A 
ATOM     72  C   UNL     1       2.508  11.374  14.459  1.00  0.00     0.040 A 
ATOM     73  F   UNL     1       4.231   9.844  14.898  1.00  0.00    -0.206 F 
ATOM     74  C   UNL     1       1.176  11.641  14.151  1.00  0.00     0.006 A 
ENDBRANCH  53  67
BRANCH  54  75
ATOM     75  C   UNL     1       5.313  -0.443  15.191  1.00  0.00     0.057 A 
ATOM     76  C   UNL     1       4.629  -1.412  15.934  1.00  0.00     0.134 A 
ATOM     77  C   UNL     1       6.519  -0.826  14.590  1.00  0.00     0.134 A 
ATOM     78  F   UNL     1       3.482  -1.101  16.555  1.00  0.00    -0.206 F 
ATOM     79  C   UNL     1       5.133  -2.705  16.091  1.00  0.00     0.040 A 
ATOM     80  C   UNL     1       7.022  -2.121  14.718  1.00  0.00     0.040 A 
ATOM     81  F   UNL     1       7.226   0.056  13.868  1.00  0.00    -0.206 F 
ATOM     82  C   UNL     1       6.332  -3.063  15.478  1.00  0.00     0.006 A 
ENDBRANCH  54  75
BRANCH  66  83
ATOM     83  C   UNL     1       4.497   4.725  19.791  1.00  0.00     0.057 A 
ATOM     84  C   UNL     1       5.789   4.770  20.329  1.00  0.00     0.134 A 
ATOM     85  C   UNL     1       3.421   4.810  20.684  1.00  0.00     0.134 A 
ATOM     86  F   UNL     1       6.862   4.684  19.529  1.00  0.00    -0.206 F 
ATOM     87  C   UNL     1       6.002   4.870  21.705  1.00  0.00     0.040 A 
ATOM     88  C   UNL     1       3.621   4.939  22.059  1.00  0.00     0.040 A 
ATOM     89  F   UNL     1       2.157   4.786  20.234  1.00  0.00    -0.206 F 
ATOM     90  C   UNL     1       4.916   4.961  22.573  1.00  0.00     0.006 A 
ENDBRANCH  66  83
ENDBRANCH  40  41
ENDBRANCH  33  35
ENDBRANCH  32  33
ENDBRANCH  31  32
ENDBRANCH  30  31
ENDBRANCH  29  30
ENDBRANCH  28  29
ENDBRANCH  27  28
ENDBRANCH  26  27
ENDBRANCH  25  26
ENDBRANCH   1  25
TORSDOF 26
