REMARK SMILES O=C(OCCOCCOCCOCCOC(=O)[C@H](c1c[nH]c2cc(F)ccc12)[NH+]1CCN(c2ccccc2)CC1)c1ccc(-c2c3nc(c(-c4c(F)cccc4F)c4ccc([nH]4)c(-c4c(F)cccc4F)c4nc(c(-c5c(F)cccc5F)c5ccc2[nH]5)C=C4)C=C3)cc1
REMARK SMILES IDX 9 1 8 2 7 3 6 4 5 5 4 6 3 7 2 8 1 9 41 10 42 11 94 12 43 13
REMARK SMILES IDX 93 14 44 15 45 16 46 17 87 18 47 19 92 20 86 21 88 22 48 23
REMARK SMILES IDX 91 24 85 25 84 26 49 28 75 29 58 30 74 31 59 32 62 33 73 34
REMARK SMILES IDX 89 35 60 36 61 37 72 39 90 40 63 41 50 42 51 43 56 44 52 45
REMARK SMILES IDX 53 46 55 47 57 48 54 49 76 50 77 51 82 52 78 53 79 54 81 55
REMARK SMILES IDX 83 56 80 57 64 58 65 59 70 60 66 61 67 62 69 63 71 64 68 65
REMARK SMILES IDX 10 66 11 67 12 68 13 69 14 70 15 71 16 72 17 73 18 74 29 75
REMARK SMILES IDX 30 76 40 77 31 79 39 80 32 81 33 82 34 83 38 84 35 85 37 86
REMARK SMILES IDX 36 87 19 88 20 89 28 90 21 91 22 92 27 93 23 95 26 96 24 97
REMARK SMILES IDX 25 98
REMARK H PARENT 88 27 62 38 29 78 21 94
REMARK Flexibility Score: inf
ROOT
ATOM      1  O   UNL     1       2.303  -2.267   3.510  1.00  0.00    -0.377 OA
ENDROOT
BRANCH   1   2
ATOM      2  C   UNL     1       1.400  -2.288   2.417  1.00  0.00     0.188 C 
BRANCH   2   3
ATOM      3  C   UNL     1       1.081  -3.687   1.857  1.00  0.00     0.188 C 
BRANCH   3   4
ATOM      4  O   UNL     1       1.336  -4.710   2.817  1.00  0.00    -0.376 OA
BRANCH   4   5
ATOM      5  C   UNL     1       0.573  -5.889   2.989  1.00  0.00     0.202 C 
BRANCH   5   6
ATOM      6  C   UNL     1      -0.131  -6.508   1.796  1.00  0.00     0.261 C 
BRANCH   6   7
ATOM      7  O   UNL     1      -0.732  -5.610   0.834  1.00  0.00    -0.460 OA
BRANCH   7   8
ATOM      8  C   UNL     1      -1.851  -4.863   0.878  1.00  0.00     0.338 C 
ATOM      9  O   UNL     1      -2.337  -4.442  -0.188  1.00  0.00    -0.246 OA
BRANCH   8  10
ATOM     10  C   UNL     1      -2.489  -4.414   2.138  1.00  0.00     0.060 A 
ATOM     11  C   UNL     1      -1.772  -4.013   3.261  1.00  0.00     0.016 A 
ATOM     12  C   UNL     1      -3.868  -4.210   2.158  1.00  0.00     0.016 A 
ATOM     13  C   UNL     1      -2.367  -3.637   4.440  1.00  0.00     0.010 A 
ATOM     14  C   UNL     1      -4.487  -3.710   3.308  1.00  0.00     0.010 A 
ATOM     15  C   UNL     1      -3.734  -3.471   4.469  1.00  0.00    -0.014 A 
BRANCH  15  16
ATOM     16  C   UNL     1      -4.351  -3.239   5.780  1.00  0.00     0.031 A 
ATOM     17  C   UNL     1      -5.223  -4.330   6.304  1.00  0.00     0.074 A 
ATOM     18  C   UNL     1      -4.021  -2.169   6.525  1.00  0.00     0.049 A 
ATOM     19  N   UNL     1      -6.102  -4.296   7.260  1.00  0.00    -0.248 NA
ATOM     20  C   UNL     1      -5.100  -5.642   5.638  1.00  0.00     0.031 C 
ATOM     21  C   UNL     1      -3.009  -1.162   6.181  1.00  0.00     0.029 A 
ATOM     22  N   UNL     1      -4.487  -1.762   7.744  1.00  0.00    -0.354 N 
ATOM     23  C   UNL     1      -6.713  -5.542   7.238  1.00  0.00     0.074 A 
ATOM     24  C   UNL     1      -6.081  -6.325   6.204  1.00  0.00     0.031 C 
ATOM     25  C   UNL     1      -2.921  -0.266   7.176  1.00  0.00     0.029 A 
ATOM     26  C   UNL     1      -3.961  -0.558   8.151  1.00  0.00     0.049 A 
ATOM     27  H   UNL     1      -5.134  -2.278   8.277  1.00  0.00     0.167 HD
ATOM     28  C   UNL     1      -7.742  -5.954   8.007  1.00  0.00     0.037 A 
ATOM     29  C   UNL     1      -4.358   0.253   9.148  1.00  0.00     0.037 A 
ATOM     30  C   UNL     1      -8.285  -5.136   9.054  1.00  0.00     0.049 A 
ATOM     31  C   UNL     1      -5.557  -0.186   9.943  1.00  0.00     0.074 A 
ATOM     32  C   UNL     1      -9.351  -5.388   9.892  1.00  0.00     0.029 A 
ATOM     33  N   UNL     1      -7.770  -3.893   9.409  1.00  0.00    -0.354 N 
ATOM     34  N   UNL     1      -6.243  -1.304   9.851  1.00  0.00    -0.248 NA
ATOM     35  C   UNL     1      -6.068   0.754  10.944  1.00  0.00     0.031 C 
ATOM     36  C   UNL     1      -9.507  -4.275  10.726  1.00  0.00     0.029 A 
ATOM     37  C   UNL     1      -8.508  -3.353  10.441  1.00  0.00     0.049 A 
ATOM     38  H   UNL     1      -6.992  -3.463   8.986  1.00  0.00     0.167 HD
ATOM     39  C   UNL     1      -7.263  -1.206  10.784  1.00  0.00     0.074 A 
ATOM     40  C   UNL     1      -7.088   0.073  11.449  1.00  0.00     0.031 C 
ATOM     41  C   UNL     1      -8.264  -2.076  11.067  1.00  0.00     0.037 A 
BRANCH  28  42
ATOM     42  C   UNL     1      -8.380  -7.262   7.653  1.00  0.00     0.057 A 
ATOM     43  C   UNL     1      -7.755  -8.496   7.864  1.00  0.00     0.134 A 
ATOM     44  C   UNL     1      -9.635  -7.274   7.028  1.00  0.00     0.134 A 
ATOM     45  F   UNL     1      -6.533  -8.554   8.416  1.00  0.00    -0.206 F 
ATOM     46  C   UNL     1      -8.342  -9.693   7.445  1.00  0.00     0.040 A 
ATOM     47  C   UNL     1     -10.244  -8.464   6.628  1.00  0.00     0.040 A 
ATOM     48  F   UNL     1     -10.281  -6.125   6.777  1.00  0.00    -0.206 F 
ATOM     49  C   UNL     1      -9.593  -9.679   6.830  1.00  0.00     0.006 A 
ENDBRANCH  28  42
BRANCH  29  50
ATOM     50  C   UNL     1      -3.715   1.579   9.353  1.00  0.00     0.057 A 
ATOM     51  C   UNL     1      -3.045   1.890  10.541  1.00  0.00     0.134 A 
ATOM     52  C   UNL     1      -3.766   2.579   8.370  1.00  0.00     0.134 A 
ATOM     53  F   UNL     1      -2.976   0.990  11.533  1.00  0.00    -0.206 F 
ATOM     54  C   UNL     1      -2.463   3.144  10.749  1.00  0.00     0.040 A 
ATOM     55  C   UNL     1      -3.160   3.824   8.550  1.00  0.00     0.040 A 
ATOM     56  F   UNL     1      -4.394   2.356   7.206  1.00  0.00    -0.206 F 
ATOM     57  C   UNL     1      -2.514   4.113   9.748  1.00  0.00     0.006 A 
ENDBRANCH  29  50
BRANCH  41  58
ATOM     58  C   UNL     1      -9.206  -1.678  12.157  1.00  0.00     0.057 A 
ATOM     59  C   UNL     1     -10.195  -0.710  11.953  1.00  0.00     0.134 A 
ATOM     60  C   UNL     1      -9.165  -2.328  13.395  1.00  0.00     0.134 A 
ATOM     61  F   UNL     1     -10.269  -0.046  10.790  1.00  0.00    -0.206 F 
ATOM     62  C   UNL     1     -11.111  -0.393  12.955  1.00  0.00     0.040 A 
ATOM     63  C   UNL     1     -10.092  -2.041  14.393  1.00  0.00     0.040 A 
ATOM     64  F   UNL     1      -8.243  -3.272  13.639  1.00  0.00    -0.206 F 
ATOM     65  C   UNL     1     -11.067  -1.068  14.174  1.00  0.00     0.006 A 
ENDBRANCH  41  58
ENDBRANCH  15  16
ENDBRANCH   8  10
ENDBRANCH   7   8
ENDBRANCH   6   7
ENDBRANCH   5   6
ENDBRANCH   4   5
ENDBRANCH   3   4
ENDBRANCH   2   3
ENDBRANCH   1   2
BRANCH   1  66
ATOM     66  C   UNL     1       1.798  -2.698   4.768  1.00  0.00     0.188 C 
BRANCH  66  67
ATOM     67  C   UNL     1       2.403  -1.884   5.913  1.00  0.00     0.188 C 
BRANCH  67  68
ATOM     68  O   UNL     1       2.230  -0.474   5.789  1.00  0.00    -0.376 OA
BRANCH  68  69
ATOM     69  C   UNL     1       2.901   0.150   4.686  1.00  0.00     0.202 C 
BRANCH  69  70
ATOM     70  C   UNL     1       4.410  -0.153   4.519  1.00  0.00     0.261 C 
BRANCH  70  71
ATOM     71  O   UNL     1       4.715  -1.451   3.928  1.00  0.00    -0.459 OA
BRANCH  71  72
ATOM     72  C   UNL     1       5.707  -2.186   4.510  1.00  0.00     0.370 C 
ATOM     73  O   UNL     1       6.364  -1.762   5.465  1.00  0.00    -0.245 OA
BRANCH  72  74
ATOM     74  C   UNL     1       5.919  -3.649   3.978  1.00  0.00     0.328 C 
BRANCH  74  75
ATOM     75  N   UNL     1       5.354  -4.574   5.025  1.00  0.00    -0.316 N 
ATOM     76  C   UNL     1       4.396  -5.633   4.674  1.00  0.00     0.284 C 
ATOM     77  C   UNL     1       6.409  -5.191   5.867  1.00  0.00     0.284 C 
ATOM     78  H   UNL     1       4.780  -3.884   5.510  1.00  0.00     0.349 HD
ATOM     79  C   UNL     1       4.994  -6.840   3.934  1.00  0.00     0.178 C 
ATOM     80  C   UNL     1       7.057  -6.491   5.304  1.00  0.00     0.178 C 
ATOM     81  N   UNL     1       6.048  -7.409   4.765  1.00  0.00    -0.360 N 
BRANCH  81  82
ATOM     82  C   UNL     1       6.109  -8.779   4.877  1.00  0.00     0.037 A 
ATOM     83  C   UNL     1       6.107  -9.599   3.739  1.00  0.00     0.026 A 
ATOM     84  C   UNL     1       6.028  -9.394   6.129  1.00  0.00     0.026 A 
ATOM     85  C   UNL     1       5.990 -10.987   3.844  1.00  0.00     0.002 A 
ATOM     86  C   UNL     1       5.892 -10.781   6.241  1.00  0.00     0.002 A 
ATOM     87  C   UNL     1       5.867 -11.577   5.098  1.00  0.00     0.000 A 
ENDBRANCH  81  82
ENDBRANCH  74  75
BRANCH  74  88
ATOM     88  C   UNL     1       5.525  -3.947   2.538  1.00  0.00     0.046 A 
ATOM     89  C   UNL     1       4.245  -4.095   2.079  1.00  0.00     0.094 A 
ATOM     90  C   UNL     1       6.337  -4.248   1.379  1.00  0.00     0.009 A 
ATOM     91  N   UNL     1       4.207  -4.533   0.801  1.00  0.00    -0.361 N 
ATOM     92  C   UNL     1       5.480  -4.617   0.328  1.00  0.00     0.049 A 
ATOM     93  C   UNL     1       7.720  -4.290   1.118  1.00  0.00     0.014 A 
ATOM     94  H   UNL     1       3.392  -4.755   0.295  1.00  0.00     0.166 HD
ATOM     95  C   UNL     1       5.905  -5.018  -0.939  1.00  0.00     0.065 A 
ATOM     96  C   UNL     1       8.170  -4.689  -0.152  1.00  0.00     0.040 A 
ATOM     97  C   UNL     1       7.272  -5.045  -1.151  1.00  0.00     0.125 A 
ATOM     98  F   UNL     1       7.731  -5.434  -2.348  1.00  0.00    -0.207 F 
ENDBRANCH  74  88
ENDBRANCH  72  74
ENDBRANCH  71  72
ENDBRANCH  70  71
ENDBRANCH  69  70
ENDBRANCH  68  69
ENDBRANCH  67  68
ENDBRANCH  66  67
ENDBRANCH   1  66
TORSDOF 23
