REMARK SMILES O=C(OCCOCCOCCOCCOC(=O)[C@@H]1[C@@H](C(=O)Nc2nc(-c3ccc(F)cc3)cs2)[C@H]2C=C[C@@H]1O2)c1ccc(-c2c3nc(c(-c4c(F)cccc4F)c4ccc([nH]4)c(-c4c(F)cccc4F)c4nc(c(-c5c(F)cccc5F)c5ccc2[nH]5)C=C4)C=C3)cc1
REMARK SMILES IDX 10 1 9 2 8 3 7 4 6 5 5 6 4 7 3 8 2 9 1 10 40 11 41 12 93 13
REMARK SMILES IDX 42 14 92 15 43 16 44 17 45 18 86 19 46 20 91 21 85 22 87 23
REMARK SMILES IDX 47 24 90 25 84 26 83 27 48 29 74 30 57 31 73 32 58 33 61 34
REMARK SMILES IDX 72 35 88 36 59 37 60 38 71 40 89 41 62 42 49 43 50 44 55 45
REMARK SMILES IDX 51 46 52 47 54 48 56 49 53 50 75 51 76 52 81 53 77 54 78 55
REMARK SMILES IDX 80 56 82 57 79 58 63 59 64 60 69 61 65 62 66 63 68 64 70 65
REMARK SMILES IDX 67 66 11 67 12 68 13 69 14 70 15 71 16 72 17 73 18 74 19 75
REMARK SMILES IDX 38 76 35 77 37 78 39 79 36 80 20 81 21 82 22 83 23 85 24 86
REMARK SMILES IDX 34 87 25 88 33 89 26 90 27 91 32 92 28 93 31 94 29 95 30 96
REMARK H PARENT 87 28 61 39 22 84
REMARK Flexibility Score: inf
ROOT
ATOM      1  C   UNL     1       3.807   3.731  -0.095  1.00  0.00     0.188 C 
ENDROOT
BRANCH   1   2
ATOM      2  O   UNL     1       2.412   3.805   0.118  1.00  0.00    -0.377 OA
BRANCH   2   3
ATOM      3  C   UNL     1       1.731   2.586   0.362  1.00  0.00     0.188 C 
BRANCH   3   4
ATOM      4  C   UNL     1       2.250   1.344  -0.353  1.00  0.00     0.188 C 
BRANCH   4   5
ATOM      5  O   UNL     1       3.602   1.071   0.008  1.00  0.00    -0.376 OA
BRANCH   5   6
ATOM      6  C   UNL     1       4.447   0.587  -1.040  1.00  0.00     0.202 C 
BRANCH   6   7
ATOM      7  C   UNL     1       4.219  -0.878  -1.414  1.00  0.00     0.261 C 
BRANCH   7   8
ATOM      8  O   UNL     1       2.880  -1.334  -1.164  1.00  0.00    -0.460 OA
BRANCH   8   9
ATOM      9  C   UNL     1       2.343  -1.804  -0.009  1.00  0.00     0.338 C 
ATOM     10  O   UNL     1       1.164  -2.157  -0.024  1.00  0.00    -0.246 OA
BRANCH   9  11
ATOM     11  C   UNL     1       3.072  -1.891   1.296  1.00  0.00     0.060 A 
ATOM     12  C   UNL     1       4.233  -1.194   1.621  1.00  0.00     0.016 A 
ATOM     13  C   UNL     1       2.504  -2.701   2.297  1.00  0.00     0.016 A 
ATOM     14  C   UNL     1       4.847  -1.312   2.849  1.00  0.00     0.010 A 
ATOM     15  C   UNL     1       3.115  -2.836   3.549  1.00  0.00     0.010 A 
ATOM     16  C   UNL     1       4.310  -2.159   3.806  1.00  0.00    -0.014 A 
BRANCH  16  17
ATOM     17  C   UNL     1       5.192  -2.470   4.938  1.00  0.00     0.031 A 
ATOM     18  C   UNL     1       5.957  -3.756   4.867  1.00  0.00     0.074 A 
ATOM     19  C   UNL     1       5.481  -1.509   5.834  1.00  0.00     0.049 A 
ATOM     20  N   UNL     1       6.805  -4.261   5.717  1.00  0.00    -0.248 NA
ATOM     21  C   UNL     1       5.766  -4.574   3.652  1.00  0.00     0.031 C 
ATOM     22  C   UNL     1       4.929  -0.149   5.820  1.00  0.00     0.029 A 
ATOM     23  N   UNL     1       6.353  -1.502   6.886  1.00  0.00    -0.354 N 
ATOM     24  C   UNL     1       7.221  -5.461   5.156  1.00  0.00     0.074 A 
ATOM     25  C   UNL     1       6.538  -5.620   3.897  1.00  0.00     0.031 C 
ATOM     26  C   UNL     1       5.499   0.565   6.804  1.00  0.00     0.029 A 
ATOM     27  C   UNL     1       6.388  -0.306   7.561  1.00  0.00     0.049 A 
ATOM     28  H   UNL     1       6.903  -2.280   7.136  1.00  0.00     0.167 HD
ATOM     29  C   UNL     1       8.102  -6.346   5.667  1.00  0.00     0.037 A 
ATOM     30  C   UNL     1       7.045   0.018   8.690  1.00  0.00     0.037 A 
ATOM     31  C   UNL     1       8.773  -6.135   6.917  1.00  0.00     0.049 A 
ATOM     32  C   UNL     1       7.898  -1.051   9.318  1.00  0.00     0.074 A 
ATOM     33  C   UNL     1       9.610  -6.990   7.604  1.00  0.00     0.029 A 
ATOM     34  N   UNL     1       8.681  -4.965   7.661  1.00  0.00    -0.354 N 
ATOM     35  N   UNL     1       8.196  -2.245   8.858  1.00  0.00    -0.248 NA
ATOM     36  C   UNL     1       8.488  -0.746  10.626  1.00  0.00     0.031 C 
ATOM     37  C   UNL     1       9.985  -6.355   8.791  1.00  0.00     0.029 A 
ATOM     38  C   UNL     1       9.432  -5.081   8.813  1.00  0.00     0.049 A 
ATOM     39  H   UNL     1       8.157  -4.171   7.404  1.00  0.00     0.167 HD
ATOM     40  C   UNL     1       9.023  -2.826   9.806  1.00  0.00     0.074 A 
ATOM     41  C   UNL     1       9.197  -1.842  10.858  1.00  0.00     0.031 C 
ATOM     42  C   UNL     1       9.585  -4.060   9.819  1.00  0.00     0.037 A 
BRANCH  29  43
ATOM     43  C   UNL     1       8.322  -7.624   4.918  1.00  0.00     0.057 A 
ATOM     44  C   UNL     1       7.790  -8.824   5.405  1.00  0.00     0.134 A 
ATOM     45  C   UNL     1       9.065  -7.680   3.732  1.00  0.00     0.134 A 
ATOM     46  F   UNL     1       7.052  -8.836   6.526  1.00  0.00    -0.206 F 
ATOM     47  C   UNL     1       8.008 -10.039   4.754  1.00  0.00     0.040 A 
ATOM     48  C   UNL     1       9.272  -8.886   3.059  1.00  0.00     0.040 A 
ATOM     49  F   UNL     1       9.568  -6.560   3.191  1.00  0.00    -0.206 F 
ATOM     50  C   UNL     1       8.752 -10.072   3.577  1.00  0.00     0.006 A 
ENDBRANCH  29  43
BRANCH  30  51
ATOM     51  C   UNL     1       6.871   1.354   9.319  1.00  0.00     0.057 A 
ATOM     52  C   UNL     1       5.622   1.784   9.790  1.00  0.00     0.134 A 
ATOM     53  C   UNL     1       7.951   2.228   9.494  1.00  0.00     0.134 A 
ATOM     54  F   UNL     1       4.541   1.001   9.660  1.00  0.00    -0.206 F 
ATOM     55  C   UNL     1       5.450   3.030  10.398  1.00  0.00     0.040 A 
ATOM     56  C   UNL     1       7.800   3.464  10.129  1.00  0.00     0.040 A 
ATOM     57  F   UNL     1       9.178   1.874   9.086  1.00  0.00    -0.206 F 
ATOM     58  C   UNL     1       6.545   3.870  10.579  1.00  0.00     0.006 A 
ENDBRANCH  30  51
BRANCH  42  59
ATOM     59  C   UNL     1      10.464  -4.396  10.983  1.00  0.00     0.057 A 
ATOM     60  C   UNL     1      11.844  -4.553  10.804  1.00  0.00     0.134 A 
ATOM     61  C   UNL     1       9.934  -4.656  12.252  1.00  0.00     0.134 A 
ATOM     62  F   UNL     1      12.406  -4.334   9.606  1.00  0.00    -0.206 F 
ATOM     63  C   UNL     1      12.665  -4.979  11.845  1.00  0.00     0.040 A 
ATOM     64  C   UNL     1      10.751  -5.050  13.309  1.00  0.00     0.040 A 
ATOM     65  F   UNL     1       8.620  -4.513  12.484  1.00  0.00    -0.206 F 
ATOM     66  C   UNL     1      12.119  -5.226  13.103  1.00  0.00     0.006 A 
ENDBRANCH  42  59
ENDBRANCH  16  17
ENDBRANCH   9  11
ENDBRANCH   8   9
ENDBRANCH   7   8
ENDBRANCH   6   7
ENDBRANCH   5   6
ENDBRANCH   4   5
ENDBRANCH   3   4
ENDBRANCH   2   3
ENDBRANCH   1   2
BRANCH   1  67
ATOM     67  C   UNL     1       4.787   3.467   1.068  1.00  0.00     0.188 C 
BRANCH  67  68
ATOM     68  O   UNL     1       4.311   3.322   2.385  1.00  0.00    -0.376 OA
BRANCH  68  69
ATOM     69  C   UNL     1       3.411   4.277   2.915  1.00  0.00     0.202 C 
BRANCH  69  70
ATOM     70  C   UNL     1       3.469   5.780   2.570  1.00  0.00     0.261 C 
BRANCH  70  71
ATOM     71  O   UNL     1       3.829   6.145   1.227  1.00  0.00    -0.463 OA
BRANCH  71  72
ATOM     72  C   UNL     1       5.081   6.646   0.987  1.00  0.00     0.312 C 
ATOM     73  O   UNL     1       5.923   6.819   1.862  1.00  0.00    -0.252 OA
BRANCH  72  74
ATOM     74  C   UNL     1       5.260   6.913  -0.508  1.00  0.00     0.147 C 
ATOM     75  C   UNL     1       6.087   5.870  -1.322  1.00  0.00     0.129 C 
ATOM     76  C   UNL     1       6.086   8.181  -0.705  1.00  0.00     0.157 C 
ATOM     77  C   UNL     1       7.298   6.719  -1.758  1.00  0.00     0.155 C 
ATOM     78  C   UNL     1       6.085   8.587  -2.155  1.00  0.00     0.004 C 
ATOM     79  O   UNL     1       7.423   7.620  -0.631  1.00  0.00    -0.365 OA
ATOM     80  C   UNL     1       6.861   7.703  -2.797  1.00  0.00     0.004 C 
BRANCH  75  81
ATOM     81  C   UNL     1       5.648   5.031  -2.551  1.00  0.00     0.233 C 
ATOM     82  O   UNL     1       6.485   4.228  -3.003  1.00  0.00    -0.274 OA
ATOM     83  N   UNL     1       4.423   4.931  -3.127  1.00  0.00    -0.302 N 
ATOM     84  H   UNL     1       4.308   4.170  -3.740  1.00  0.00     0.172 HD
BRANCH  83  85
ATOM     85  C   UNL     1       3.335   5.727  -2.979  1.00  0.00     0.189 A 
ATOM     86  N   UNL     1       3.297   6.984  -2.659  1.00  0.00    -0.220 NA
ATOM     87  S   UNL     1       1.818   4.966  -3.168  1.00  0.00    -0.105 S 
ATOM     88  C   UNL     1       2.051   7.272  -2.135  1.00  0.00     0.084 A 
ATOM     89  C   UNL     1       1.099   6.287  -2.310  1.00  0.00     0.097 A 
BRANCH  88  90
ATOM     90  C   UNL     1       1.921   8.467  -1.321  1.00  0.00     0.001 A 
ATOM     91  C   UNL     1       2.404   9.683  -1.825  1.00  0.00     0.013 A 
ATOM     92  C   UNL     1       1.562   8.373   0.032  1.00  0.00     0.013 A 
ATOM     93  C   UNL     1       2.527  10.793  -0.989  1.00  0.00     0.040 A 
ATOM     94  C   UNL     1       1.696   9.484   0.869  1.00  0.00     0.040 A 
ATOM     95  C   UNL     1       2.178  10.681   0.351  1.00  0.00     0.123 A 
ATOM     96  F   UNL     1       2.335  11.735   1.162  1.00  0.00    -0.207 F 
ENDBRANCH  88  90
ENDBRANCH  83  85
ENDBRANCH  75  81
ENDBRANCH  72  74
ENDBRANCH  71  72
ENDBRANCH  70  71
ENDBRANCH  69  70
ENDBRANCH  68  69
ENDBRANCH  67  68
ENDBRANCH   1  67
TORSDOF 23
