REMARK SMILES O=C(OCCOCCOCCOCCOC(=O)[C@@H](Cc1ccc(O)cc1)Nc1c2ccccc2nc2ccccc12)c1ccc(-c2c3nc(c(-c4c(F)cccc4F)c4ccc([nH]4)c(-c4c(F)cccc4F)c4nc(c(-c5c(F)cccc5F)c5ccc2[nH]5)C=C4)C=C3)cc1
REMARK SMILES IDX 10 1 9 2 8 3 7 4 6 5 5 6 4 7 3 8 2 9 1 10 42 11 43 12 95 13
REMARK SMILES IDX 44 14 94 15 45 16 46 17 47 18 88 19 48 20 93 21 87 22 89 23
REMARK SMILES IDX 49 24 92 25 86 26 85 27 50 29 76 30 59 31 75 32 60 33 63 34
REMARK SMILES IDX 74 35 90 36 61 37 62 38 73 40 91 41 64 42 51 43 52 44 57 45
REMARK SMILES IDX 53 46 54 47 56 48 58 49 55 50 77 51 78 52 83 53 79 54 80 55
REMARK SMILES IDX 82 56 84 57 81 58 65 59 66 60 71 61 67 62 68 63 70 64 72 65
REMARK SMILES IDX 69 66 11 67 12 68 13 69 14 70 15 71 16 72 17 73 18 74 19 75
REMARK SMILES IDX 20 76 21 77 26 78 22 79 25 80 23 81 24 82 27 84 28 86 29 87
REMARK SMILES IDX 41 88 30 89 34 90 36 91 40 92 31 93 33 94 35 95 37 96 39 97
REMARK SMILES IDX 32 98 38 99
REMARK H PARENT 89 28 63 39 24 83 27 85
REMARK Flexibility Score: inf
ROOT
ATOM      1  C   UNL     1       5.269  -2.896  -1.953  1.00  0.00     0.188 C 
ENDROOT
BRANCH   1   2
ATOM      2  O   UNL     1       4.075  -3.111  -1.214  1.00  0.00    -0.377 OA
BRANCH   2   3
ATOM      3  C   UNL     1       3.072  -2.101  -1.161  1.00  0.00     0.188 C 
BRANCH   3   4
ATOM      4  C   UNL     1       3.497  -0.641  -1.239  1.00  0.00     0.188 C 
BRANCH   4   5
ATOM      5  O   UNL     1       4.736  -0.334  -0.602  1.00  0.00    -0.376 OA
BRANCH   5   6
ATOM      6  C   UNL     1       4.889  -0.746   0.751  1.00  0.00     0.202 C 
BRANCH   6   7
ATOM      7  C   UNL     1       4.228   0.165   1.789  1.00  0.00     0.261 C 
BRANCH   7   8
ATOM      8  O   UNL     1       2.908   0.570   1.402  1.00  0.00    -0.460 OA
BRANCH   8   9
ATOM      9  C   UNL     1       2.669   1.902   1.283  1.00  0.00     0.338 C 
ATOM     10  O   UNL     1       1.883   2.498   2.006  1.00  0.00    -0.246 OA
BRANCH   9  11
ATOM     11  C   UNL     1       3.149   2.501   0.005  1.00  0.00     0.060 A 
ATOM     12  C   UNL     1       4.479   2.405  -0.410  1.00  0.00     0.016 A 
ATOM     13  C   UNL     1       2.230   3.194  -0.796  1.00  0.00     0.016 A 
ATOM     14  C   UNL     1       4.879   2.900  -1.643  1.00  0.00     0.010 A 
ATOM     15  C   UNL     1       2.650   3.785  -1.992  1.00  0.00     0.010 A 
ATOM     16  C   UNL     1       3.984   3.654  -2.402  1.00  0.00    -0.014 A 
BRANCH  16  17
ATOM     17  C   UNL     1       4.573   4.566  -3.399  1.00  0.00     0.031 A 
ATOM     18  C   UNL     1       5.257   5.792  -2.861  1.00  0.00     0.074 A 
ATOM     19  C   UNL     1       4.597   4.268  -4.707  1.00  0.00     0.049 A 
ATOM     20  N   UNL     1       5.918   6.724  -3.492  1.00  0.00    -0.248 NA
ATOM     21  C   UNL     1       5.230   5.963  -1.395  1.00  0.00     0.031 C 
ATOM     22  C   UNL     1       4.071   3.045  -5.308  1.00  0.00     0.029 A 
ATOM     23  N   UNL     1       5.097   4.980  -5.764  1.00  0.00    -0.354 N 
ATOM     24  C   UNL     1       6.406   7.564  -2.501  1.00  0.00     0.074 A 
ATOM     25  C   UNL     1       5.986   7.032  -1.228  1.00  0.00     0.031 C 
ATOM     26  C   UNL     1       4.252   3.105  -6.640  1.00  0.00     0.029 A 
ATOM     27  C   UNL     1       4.876   4.383  -6.980  1.00  0.00     0.049 A 
ATOM     28  H   UNL     1       5.570   5.838  -5.662  1.00  0.00     0.167 HD
ATOM     29  C   UNL     1       7.113   8.708  -2.639  1.00  0.00     0.037 A 
ATOM     30  C   UNL     1       5.124   4.848  -8.220  1.00  0.00     0.037 A 
ATOM     31  C   UNL     1       7.409   9.295  -3.911  1.00  0.00     0.049 A 
ATOM     32  C   UNL     1       5.771   6.202  -8.363  1.00  0.00     0.074 A 
ATOM     33  C   UNL     1       7.986  10.517  -4.190  1.00  0.00     0.029 A 
ATOM     34  N   UNL     1       7.101   8.698  -5.126  1.00  0.00    -0.354 N 
ATOM     35  N   UNL     1       6.201   7.014  -7.424  1.00  0.00    -0.248 NA
ATOM     36  C   UNL     1       5.953   6.715  -9.727  1.00  0.00     0.031 C 
ATOM     37  C   UNL     1       7.983  10.681  -5.580  1.00  0.00     0.029 A 
ATOM     38  C   UNL     1       7.450   9.540  -6.163  1.00  0.00     0.049 A 
ATOM     39  H   UNL     1       6.695   7.808  -5.233  1.00  0.00     0.167 HD
ATOM     40  C   UNL     1       6.717   8.124  -8.081  1.00  0.00     0.074 A 
ATOM     41  C   UNL     1       6.552   7.878  -9.501  1.00  0.00     0.031 C 
ATOM     42  C   UNL     1       7.274   9.246  -7.563  1.00  0.00     0.037 A 
BRANCH  29  43
ATOM     43  C   UNL     1       7.471   9.416  -1.370  1.00  0.00     0.057 A 
ATOM     44  C   UNL     1       8.485   8.946  -0.524  1.00  0.00     0.134 A 
ATOM     45  C   UNL     1       6.709  10.504  -0.928  1.00  0.00     0.134 A 
ATOM     46  F   UNL     1       9.220   7.878  -0.871  1.00  0.00    -0.206 F 
ATOM     47  C   UNL     1       8.707   9.515   0.732  1.00  0.00     0.040 A 
ATOM     48  C   UNL     1       6.932  11.091   0.318  1.00  0.00     0.040 A 
ATOM     49  F   UNL     1       5.708  10.983  -1.681  1.00  0.00    -0.206 F 
ATOM     50  C   UNL     1       7.926  10.589   1.156  1.00  0.00     0.006 A 
ENDBRANCH  29  43
BRANCH  30  51
ATOM     51  C   UNL     1       4.709   4.057  -9.406  1.00  0.00     0.057 A 
ATOM     52  C   UNL     1       5.646   3.475 -10.267  1.00  0.00     0.134 A 
ATOM     53  C   UNL     1       3.354   3.858  -9.704  1.00  0.00     0.134 A 
ATOM     54  F   UNL     1       6.958   3.647 -10.052  1.00  0.00    -0.206 F 
ATOM     55  C   UNL     1       5.251   2.725 -11.379  1.00  0.00     0.040 A 
ATOM     56  C   UNL     1       2.945   3.095 -10.799  1.00  0.00     0.040 A 
ATOM     57  F   UNL     1       2.404   4.394  -8.923  1.00  0.00    -0.206 F 
ATOM     58  C   UNL     1       3.897   2.527 -11.643  1.00  0.00     0.006 A 
ENDBRANCH  30  51
BRANCH  42  59
ATOM     59  C   UNL     1       7.768  10.279  -8.527  1.00  0.00     0.057 A 
ATOM     60  C   UNL     1       6.894  11.171  -9.156  1.00  0.00     0.134 A 
ATOM     61  C   UNL     1       9.143  10.454  -8.730  1.00  0.00     0.134 A 
ATOM     62  F   UNL     1       5.567  11.048  -8.999  1.00  0.00    -0.206 F 
ATOM     63  C   UNL     1       7.371  12.207  -9.959  1.00  0.00     0.040 A 
ATOM     64  C   UNL     1       9.632  11.496  -9.516  1.00  0.00     0.040 A 
ATOM     65  F   UNL     1      10.027   9.636  -8.141  1.00  0.00    -0.206 F 
ATOM     66  C   UNL     1       8.745  12.378 -10.131  1.00  0.00     0.006 A 
ENDBRANCH  42  59
ENDBRANCH  16  17
ENDBRANCH   9  11
ENDBRANCH   8   9
ENDBRANCH   7   8
ENDBRANCH   6   7
ENDBRANCH   5   6
ENDBRANCH   4   5
ENDBRANCH   3   4
ENDBRANCH   2   3
ENDBRANCH   1   2
BRANCH   1  67
ATOM     67  C   UNL     1       5.174  -2.538  -3.443  1.00  0.00     0.188 C 
BRANCH  67  68
ATOM     68  O   UNL     1       3.946  -1.951  -3.820  1.00  0.00    -0.376 OA
BRANCH  68  69
ATOM     69  C   UNL     1       2.982  -2.734  -4.508  1.00  0.00     0.202 C 
BRANCH  69  70
ATOM     70  C   UNL     1       3.007  -4.264  -4.437  1.00  0.00     0.261 C 
BRANCH  70  71
ATOM     71  O   UNL     1       3.239  -4.823  -3.128  1.00  0.00    -0.462 OA
BRANCH  71  72
ATOM     72  C   UNL     1       4.023  -5.934  -3.148  1.00  0.00     0.328 C 
ATOM     73  O   UNL     1       4.483  -6.385  -4.198  1.00  0.00    -0.250 OA
BRANCH  72  74
ATOM     74  C   UNL     1       4.389  -6.566  -1.782  1.00  0.00     0.194 C 
BRANCH  74  75
ATOM     75  C   UNL     1       3.668  -6.151  -0.482  1.00  0.00     0.072 C 
BRANCH  75  76
ATOM     76  C   UNL     1       2.165  -6.040  -0.417  1.00  0.00    -0.045 A 
ATOM     77  C   UNL     1       1.602  -4.920   0.218  1.00  0.00     0.007 A 
ATOM     78  C   UNL     1       1.304  -7.046  -0.861  1.00  0.00     0.007 A 
ATOM     79  C   UNL     1       0.222  -4.745   0.301  1.00  0.00     0.046 A 
ATOM     80  C   UNL     1      -0.082  -6.886  -0.763  1.00  0.00     0.046 A 
ATOM     81  C   UNL     1      -0.612  -5.728  -0.209  1.00  0.00     0.115 A 
BRANCH  81  82
ATOM     82  O   UNL     1      -1.967  -5.598  -0.170  1.00  0.00    -0.508 OA
ATOM     83  H   UNL     1      -2.354  -4.828   0.198  1.00  0.00     0.293 HD
ENDBRANCH  81  82
ENDBRANCH  75  76
ENDBRANCH  74  75
BRANCH  74  84
ATOM     84  N   UNL     1       4.355  -8.050  -1.880  1.00  0.00    -0.371 N 
ATOM     85  H   UNL     1       3.539  -8.535  -1.617  1.00  0.00     0.161 HD
BRANCH  84  86
ATOM     86  C   UNL     1       5.473  -8.774  -2.344  1.00  0.00     0.054 A 
ATOM     87  C   UNL     1       6.685  -8.830  -1.596  1.00  0.00     0.024 A 
ATOM     88  C   UNL     1       5.399  -9.443  -3.604  1.00  0.00     0.024 A 
ATOM     89  C   UNL     1       6.907  -8.181  -0.353  1.00  0.00     0.012 A 
ATOM     90  C   UNL     1       7.726  -9.620  -2.120  1.00  0.00     0.073 A 
ATOM     91  C   UNL     1       6.513 -10.203  -4.000  1.00  0.00     0.073 A 
ATOM     92  C   UNL     1       4.293  -9.373  -4.496  1.00  0.00     0.012 A 
ATOM     93  C   UNL     1       8.127  -8.269   0.317  1.00  0.00     0.001 A 
ATOM     94  C   UNL     1       8.923  -9.719  -1.421  1.00  0.00     0.029 A 
ATOM     95  N   UNL     1       7.630 -10.298  -3.269  1.00  0.00    -0.248 NA
ATOM     96  C   UNL     1       6.478 -10.882  -5.213  1.00  0.00     0.029 A 
ATOM     97  C   UNL     1       4.294 -10.028  -5.726  1.00  0.00     0.001 A 
ATOM     98  C   UNL     1       9.140  -9.046  -0.219  1.00  0.00     0.002 A 
ATOM     99  C   UNL     1       5.387 -10.800  -6.080  1.00  0.00     0.002 A 
ENDBRANCH  84  86
ENDBRANCH  74  84
ENDBRANCH  72  74
ENDBRANCH  71  72
ENDBRANCH  70  71
ENDBRANCH  69  70
ENDBRANCH  68  69
ENDBRANCH  67  68
ENDBRANCH   1  67
TORSDOF 25
