REMARK SMILES CC/C(=C/C(=O)[C@H](Cc1ccc(Cl)cc1Cl)C(=O)OCCOCCOCCOCCOC(=O)c1ccc(-c2c3nc(c(-c4c(F)cccc4F)c4ccc([nH]4)c(-c4c(F)cccc4F)c4nc(c(-c5c(F)cccc5F)c5ccc2[nH]5)C=C4)C=C3)cc1)N(C)C
REMARK SMILES IDX 24 1 23 2 22 3 21 4 20 5 19 6 17 7 18 8 7 9 5 10 6 11 4 12
REMARK SMILES IDX 3 13 2 14 1 15 88 16 89 17 90 18 8 19 9 20 10 21 15 22 11 23
REMARK SMILES IDX 14 24 16 25 12 26 13 27 25 28 26 29 27 30 28 31 29 32 30 33
REMARK SMILES IDX 31 34 32 35 33 36 34 37 35 38 87 39 36 40 86 41 37 42 38 43
REMARK SMILES IDX 39 44 80 45 40 46 85 47 79 48 81 49 41 50 84 51 78 52 77 53
REMARK SMILES IDX 42 55 68 56 51 57 67 58 52 59 55 60 66 61 82 62 53 63 54 64
REMARK SMILES IDX 65 66 83 67 56 68 43 69 44 70 49 71 45 72 46 73 48 74 50 75
REMARK SMILES IDX 47 76 69 77 70 78 75 79 71 80 72 81 74 82 76 83 73 84 57 85
REMARK SMILES IDX 58 86 63 87 59 88 60 89 62 90 64 91 61 92
REMARK H PARENT 81 54 55 65
REMARK Flexibility Score: inf
ROOT
ATOM      1  C   UNL     1       1.293  -1.861   4.231  1.00  0.00     0.188 C 
ENDROOT
BRANCH   1   2
ATOM      2  C   UNL     1       2.638  -2.103   4.941  1.00  0.00     0.188 C 
BRANCH   2   3
ATOM      3  O   UNL     1       3.546  -1.030   5.142  1.00  0.00    -0.376 OA
BRANCH   3   4
ATOM      4  C   UNL     1       4.036  -0.258   4.049  1.00  0.00     0.202 C 
BRANCH   4   5
ATOM      5  C   UNL     1       4.388  -0.870   2.680  1.00  0.00     0.261 C 
BRANCH   5   6
ATOM      6  O   UNL     1       3.447  -1.842   2.218  1.00  0.00    -0.463 OA
BRANCH   6   7
ATOM      7  C   UNL     1       3.898  -3.099   1.920  1.00  0.00     0.317 C 
ATOM      8  O   UNL     1       5.081  -3.398   1.911  1.00  0.00    -0.251 OA
BRANCH   7   9
ATOM      9  C   UNL     1       2.700  -4.041   1.797  1.00  0.00     0.175 C 
BRANCH   9  10
ATOM     10  C   UNL     1       3.026  -5.519   1.691  1.00  0.00     0.171 C 
ATOM     11  O   UNL     1       4.157  -5.982   1.825  1.00  0.00    -0.294 OA
BRANCH  10  12
ATOM     12  C   UNL     1       1.944  -6.489   1.401  1.00  0.00     0.069 C 
ATOM     13  C   UNL     1       0.680  -6.532   1.867  1.00  0.00     0.016 C 
BRANCH  13  14
ATOM     14  C   UNL     1      -0.273  -7.309   0.957  1.00  0.00     0.050 C 
ATOM     15  C   UNL     1      -0.840  -8.576   1.565  1.00  0.00     0.010 C 
ENDBRANCH  13  14
BRANCH  13  16
ATOM     16  N   UNL     1       0.162  -5.891   3.007  1.00  0.00    -0.381 N 
ATOM     17  C   UNL     1      -1.250  -5.516   3.164  1.00  0.00     0.143 C 
ATOM     18  C   UNL     1       0.897  -5.855   4.284  1.00  0.00     0.143 C 
ENDBRANCH  13  16
ENDBRANCH  10  12
ENDBRANCH   9  10
BRANCH   9  19
ATOM     19  C   UNL     1       1.555  -3.383   0.969  1.00  0.00     0.060 C 
BRANCH  19  20
ATOM     20  C   UNL     1       0.806  -3.914  -0.234  1.00  0.00    -0.028 A 
ATOM     21  C   UNL     1      -0.553  -3.521  -0.320  1.00  0.00     0.007 A 
ATOM     22  C   UNL     1       1.333  -4.648  -1.300  1.00  0.00     0.045 A 
ATOM     23  C   UNL     1      -1.375  -3.930  -1.368  1.00  0.00     0.021 A 
ATOM     24  C   UNL     1       0.497  -5.110  -2.326  1.00  0.00     0.041 A 
ATOM     25  Cl  UNL     1       3.019  -4.958  -1.460  1.00  0.00    -0.084 Cl
ATOM     26  C   UNL     1      -0.851  -4.756  -2.350  1.00  0.00     0.042 A 
ATOM     27  Cl  UNL     1      -1.867  -5.315  -3.619  1.00  0.00    -0.084 Cl
ENDBRANCH  19  20
ENDBRANCH   9  19
ENDBRANCH   7   9
ENDBRANCH   6   7
ENDBRANCH   5   6
ENDBRANCH   4   5
ENDBRANCH   3   4
ENDBRANCH   2   3
ENDBRANCH   1   2
BRANCH   1  28
ATOM     28  O   UNL     1       1.298  -0.756   3.354  1.00  0.00    -0.377 OA
BRANCH  28  29
ATOM     29  C   UNL     1       0.754   0.455   3.862  1.00  0.00     0.188 C 
BRANCH  29  30
ATOM     30  C   UNL     1       0.888   0.778   5.369  1.00  0.00     0.188 C 
BRANCH  30  31
ATOM     31  O   UNL     1       0.536  -0.291   6.238  1.00  0.00    -0.376 OA
BRANCH  31  32
ATOM     32  C   UNL     1      -0.738  -0.264   6.863  1.00  0.00     0.202 C 
BRANCH  32  33
ATOM     33  C   UNL     1      -1.966  -0.484   5.964  1.00  0.00     0.261 C 
BRANCH  33  34
ATOM     34  O   UNL     1      -2.109   0.413   4.853  1.00  0.00    -0.460 OA
BRANCH  34  35
ATOM     35  C   UNL     1      -2.276   1.730   5.122  1.00  0.00     0.338 C 
ATOM     36  O   UNL     1      -2.360   2.251   6.210  1.00  0.00    -0.246 OA
BRANCH  35  37
ATOM     37  C   UNL     1      -2.136   2.453   3.836  1.00  0.00     0.060 A 
ATOM     38  C   UNL     1      -1.078   3.359   3.676  1.00  0.00     0.016 A 
ATOM     39  C   UNL     1      -3.012   2.198   2.779  1.00  0.00     0.016 A 
ATOM     40  C   UNL     1      -0.896   4.015   2.456  1.00  0.00     0.010 A 
ATOM     41  C   UNL     1      -2.848   2.879   1.570  1.00  0.00     0.010 A 
ATOM     42  C   UNL     1      -1.801   3.804   1.408  1.00  0.00    -0.014 A 
BRANCH  42  43
ATOM     43  C   UNL     1      -1.777   4.678   0.210  1.00  0.00     0.031 A 
ATOM     44  C   UNL     1      -2.707   5.857   0.173  1.00  0.00     0.074 A 
ATOM     45  C   UNL     1      -0.960   4.430  -0.829  1.00  0.00     0.049 A 
ATOM     46  N   UNL     1      -2.941   6.705  -0.795  1.00  0.00    -0.248 NA
ATOM     47  C   UNL     1      -3.481   6.109   1.399  1.00  0.00     0.031 C 
ATOM     48  C   UNL     1       0.025   3.354  -0.896  1.00  0.00     0.029 A 
ATOM     49  N   UNL     1      -0.847   5.069  -2.040  1.00  0.00    -0.354 N 
ATOM     50  C   UNL     1      -3.892   7.587  -0.298  1.00  0.00     0.074 A 
ATOM     51  C   UNL     1      -4.216   7.151   1.043  1.00  0.00     0.031 C 
ATOM     52  C   UNL     1       0.635   3.398  -2.095  1.00  0.00     0.029 A 
ATOM     53  C   UNL     1       0.053   4.478  -2.892  1.00  0.00     0.049 A 
ATOM     54  H   UNL     1      -1.363   5.874  -2.275  1.00  0.00     0.167 HD
ATOM     55  C   UNL     1      -4.441   8.668  -0.901  1.00  0.00     0.037 A 
ATOM     56  C   UNL     1       0.349   4.760  -4.177  1.00  0.00     0.037 A 
ATOM     57  C   UNL     1      -4.132   9.088  -2.242  1.00  0.00     0.049 A 
ATOM     58  C   UNL     1      -0.364   5.894  -4.870  1.00  0.00     0.074 A 
ATOM     59  C   UNL     1      -4.630  10.172  -2.942  1.00  0.00     0.029 A 
ATOM     60  N   UNL     1      -3.255   8.430  -3.092  1.00  0.00    -0.354 N 
ATOM     61  N   UNL     1      -1.244   6.739  -4.388  1.00  0.00    -0.248 NA
ATOM     62  C   UNL     1      -0.046   6.109  -6.290  1.00  0.00     0.031 C 
ATOM     63  C   UNL     1      -4.102  10.134  -4.237  1.00  0.00     0.029 A 
ATOM     64  C   UNL     1      -3.227   9.063  -4.324  1.00  0.00     0.049 A 
ATOM     65  H   UNL     1      -2.731   7.631  -2.856  1.00  0.00     0.167 HD
ATOM     66  C   UNL     1      -1.563   7.599  -5.434  1.00  0.00     0.074 A 
ATOM     67  C   UNL     1      -0.771   7.183  -6.573  1.00  0.00     0.031 C 
ATOM     68  C   UNL     1      -2.432   8.640  -5.450  1.00  0.00     0.037 A 
BRANCH  55  69
ATOM     69  C   UNL     1      -5.462   9.443  -0.120  1.00  0.00     0.057 A 
ATOM     70  C   UNL     1      -5.115  10.204   1.005  1.00  0.00     0.134 A 
ATOM     71  C   UNL     1      -6.810   9.431  -0.499  1.00  0.00     0.134 A 
ATOM     72  F   UNL     1      -3.844  10.246   1.433  1.00  0.00    -0.206 F 
ATOM     73  C   UNL     1      -6.077  10.896   1.744  1.00  0.00     0.040 A 
ATOM     74  C   UNL     1      -7.776  10.143   0.213  1.00  0.00     0.040 A 
ATOM     75  F   UNL     1      -7.212   8.726  -1.568  1.00  0.00    -0.206 F 
ATOM     76  C   UNL     1      -7.412  10.871   1.344  1.00  0.00     0.006 A 
ENDBRANCH  55  69
BRANCH  56  77
ATOM     77  C   UNL     1       1.354   3.947  -4.909  1.00  0.00     0.057 A 
ATOM     78  C   UNL     1       2.572   4.502  -5.320  1.00  0.00     0.134 A 
ATOM     79  C   UNL     1       1.113   2.608  -5.242  1.00  0.00     0.134 A 
ATOM     80  F   UNL     1       2.850   5.787  -5.057  1.00  0.00    -0.206 F 
ATOM     81  C   UNL     1       3.506   3.762  -6.047  1.00  0.00     0.040 A 
ATOM     82  C   UNL     1       2.050   1.848  -5.945  1.00  0.00     0.040 A 
ATOM     83  F   UNL     1      -0.036   2.016  -4.884  1.00  0.00    -0.206 F 
ATOM     84  C   UNL     1       3.249   2.428  -6.356  1.00  0.00     0.006 A 
ENDBRANCH  56  77
BRANCH  68  85
ATOM     85  C   UNL     1      -2.558   9.424  -6.726  1.00  0.00     0.057 A 
ATOM     86  C   UNL     1      -3.192   8.898  -7.859  1.00  0.00     0.134 A 
ATOM     87  C   UNL     1      -2.092  10.743  -6.803  1.00  0.00     0.134 A 
ATOM     88  F   UNL     1      -3.651   7.637  -7.859  1.00  0.00    -0.206 F 
ATOM     89  C   UNL     1      -3.342   9.650  -9.027  1.00  0.00     0.040 A 
ATOM     90  C   UNL     1      -2.264  11.515  -7.953  1.00  0.00     0.040 A 
ATOM     91  F   UNL     1      -1.485  11.314  -5.751  1.00  0.00    -0.206 F 
ATOM     92  C   UNL     1      -2.886  10.966  -9.072  1.00  0.00     0.006 A 
ENDBRANCH  68  85
ENDBRANCH  42  43
ENDBRANCH  35  37
ENDBRANCH  34  35
ENDBRANCH  33  34
ENDBRANCH  32  33
ENDBRANCH  31  32
ENDBRANCH  30  31
ENDBRANCH  29  30
ENDBRANCH  28  29
ENDBRANCH   1  28
TORSDOF 26
