REMARK SMILES O=C(CCCCCC(F)(F)c1ccccc1)OCCOCCOCCOCCOC(=O)c1ccc(-c2c3nc(c(-c4c(F)cccc4F)c4ccc([nH]4)c(-c4c(F)cccc4F)c4nc(c(-c5c(F)cccc5F)c5ccc2[nH]5)C=C4)C=C3)cc1
REMARK SMILES IDX 21 1 20 2 19 3 18 4 17 5 2 6 1 7 3 8 4 9 5 10 6 11 7 12 8 13
REMARK SMILES IDX 9 14 10 15 11 16 12 17 16 18 13 19 15 20 14 21 22 22 23 23
REMARK SMILES IDX 24 24 25 25 26 26 27 27 28 28 29 29 30 30 31 31 32 32 33 33
REMARK SMILES IDX 85 34 34 35 84 36 35 37 36 38 37 39 78 40 38 41 83 42 77 43
REMARK SMILES IDX 79 44 39 45 82 46 76 47 75 48 40 50 66 51 49 52 65 53 50 54
REMARK SMILES IDX 53 55 64 56 80 57 51 58 52 59 63 61 81 62 54 63 41 64 42 65
REMARK SMILES IDX 47 66 43 67 44 68 46 69 48 70 45 71 67 72 68 73 73 74 69 75
REMARK SMILES IDX 70 76 72 77 74 78 71 79 55 80 56 81 61 82 57 83 58 84 60 85
REMARK SMILES IDX 62 86 59 87
REMARK H PARENT 79 49 53 60
REMARK Flexibility Score: inf
ROOT
ATOM      1  C   UNL     1       2.518  -1.481  -0.872  1.00  0.00     0.188 C 
ENDROOT
BRANCH   1   2
ATOM      2  O   UNL     1       3.476  -0.786  -0.068  1.00  0.00    -0.376 OA
BRANCH   2   3
ATOM      3  C   UNL     1       3.429  -1.064   1.324  1.00  0.00     0.202 C 
BRANCH   3   4
ATOM      4  C   UNL     1       3.220   0.188   2.188  1.00  0.00     0.261 C 
BRANCH   4   5
ATOM      5  O   UNL     1       2.865   1.385   1.486  1.00  0.00    -0.463 OA
BRANCH   5   6
ATOM      6  C   UNL     1       1.871   1.306   0.579  1.00  0.00     0.305 C 
ATOM      7  O   UNL     1       0.814   0.719   0.777  1.00  0.00    -0.252 OA
BRANCH   6   8
ATOM      8  C   UNL     1       2.288   1.875  -0.770  1.00  0.00     0.123 C 
BRANCH   8   9
ATOM      9  C   UNL     1       3.461   2.844  -0.818  1.00  0.00     0.012 C 
BRANCH   9  10
ATOM     10  C   UNL     1       4.821   2.467  -0.227  1.00  0.00     0.001 C 
BRANCH  10  11
ATOM     11  C   UNL     1       5.735   1.444  -0.909  1.00  0.00     0.007 C 
BRANCH  11  12
ATOM     12  C   UNL     1       7.047   2.062  -1.451  1.00  0.00     0.082 C 
BRANCH  12  13
ATOM     13  C   UNL     1       8.106   2.544  -0.423  1.00  0.00     0.273 C 
ATOM     14  F   UNL     1       8.599   1.440   0.215  1.00  0.00    -0.201 F 
ATOM     15  F   UNL     1       9.162   3.028  -1.149  1.00  0.00    -0.201 F 
BRANCH  13  16
ATOM     16  C   UNL     1       7.591   3.590   0.549  1.00  0.00     0.021 A 
ATOM     17  C   UNL     1       7.336   4.903   0.113  1.00  0.00     0.010 A 
ATOM     18  C   UNL     1       7.172   3.207   1.835  1.00  0.00     0.010 A 
ATOM     19  C   UNL     1       6.557   5.762   0.891  1.00  0.00     0.001 A 
ATOM     20  C   UNL     1       6.392   4.069   2.608  1.00  0.00     0.001 A 
ATOM     21  C   UNL     1       6.061   5.334   2.122  1.00  0.00     0.000 A 
ENDBRANCH  13  16
ENDBRANCH  12  13
ENDBRANCH  11  12
ENDBRANCH  10  11
ENDBRANCH   9  10
ENDBRANCH   8   9
ENDBRANCH   6   8
ENDBRANCH   5   6
ENDBRANCH   4   5
ENDBRANCH   3   4
ENDBRANCH   2   3
ENDBRANCH   1   2
BRANCH   1  22
ATOM     22  C   UNL     1       2.442  -3.000  -0.710  1.00  0.00     0.188 C 
BRANCH  22  23
ATOM     23  O   UNL     1       3.640  -3.729  -0.459  1.00  0.00    -0.377 OA
BRANCH  23  24
ATOM     24  C   UNL     1       4.867  -3.208  -0.949  1.00  0.00     0.188 C 
BRANCH  24  25
ATOM     25  C   UNL     1       5.066  -3.124  -2.464  1.00  0.00     0.188 C 
BRANCH  25  26
ATOM     26  O   UNL     1       3.871  -2.842  -3.186  1.00  0.00    -0.376 OA
BRANCH  26  27
ATOM     27  C   UNL     1       3.602  -3.778  -4.229  1.00  0.00     0.202 C 
BRANCH  27  28
ATOM     28  C   UNL     1       2.820  -5.019  -3.762  1.00  0.00     0.261 C 
BRANCH  28  29
ATOM     29  O   UNL     1       3.344  -5.686  -2.598  1.00  0.00    -0.460 OA
BRANCH  29  30
ATOM     30  C   UNL     1       4.513  -6.345  -2.739  1.00  0.00     0.338 C 
ATOM     31  O   UNL     1       5.155  -6.464  -3.772  1.00  0.00    -0.246 OA
BRANCH  30  32
ATOM     32  C   UNL     1       5.012  -6.763  -1.406  1.00  0.00     0.060 A 
ATOM     33  C   UNL     1       6.339  -6.463  -1.070  1.00  0.00     0.016 A 
ATOM     34  C   UNL     1       4.207  -7.460  -0.499  1.00  0.00     0.016 A 
ATOM     35  C   UNL     1       6.867  -6.873   0.157  1.00  0.00     0.010 A 
ATOM     36  C   UNL     1       4.747  -7.898   0.720  1.00  0.00     0.010 A 
ATOM     37  C   UNL     1       6.090  -7.633   1.042  1.00  0.00    -0.014 A 
BRANCH  37  38
ATOM     38  C   UNL     1       6.765  -8.318   2.178  1.00  0.00     0.031 A 
ATOM     39  C   UNL     1       7.253  -9.729   1.970  1.00  0.00     0.074 A 
ATOM     40  C   UNL     1       7.018  -7.695   3.344  1.00  0.00     0.049 A 
ATOM     41  N   UNL     1       7.937 -10.503   2.774  1.00  0.00    -0.248 NA
ATOM     42  C   UNL     1       6.927 -10.345   0.674  1.00  0.00     0.031 C 
ATOM     43  C   UNL     1       6.625  -6.328   3.679  1.00  0.00     0.029 A 
ATOM     44  N   UNL     1       7.677  -8.140   4.466  1.00  0.00    -0.354 N 
ATOM     45  C   UNL     1       8.145 -11.685   2.073  1.00  0.00     0.074 A 
ATOM     46  C   UNL     1       7.468 -11.547   0.801  1.00  0.00     0.031 C 
ATOM     47  C   UNL     1       7.045  -6.048   4.927  1.00  0.00     0.029 A 
ATOM     48  C   UNL     1       7.726  -7.218   5.484  1.00  0.00     0.049 A 
ATOM     49  H   UNL     1       8.077  -9.037   4.535  1.00  0.00     0.167 HD
ATOM     50  C   UNL     1       8.851 -12.780   2.440  1.00  0.00     0.037 A 
ATOM     51  C   UNL     1       8.254  -7.309   6.722  1.00  0.00     0.037 A 
ATOM     52  C   UNL     1       9.504 -12.941   3.712  1.00  0.00     0.049 A 
ATOM     53  C   UNL     1       8.973  -8.570   7.137  1.00  0.00     0.074 A 
ATOM     54  C   UNL     1      10.233 -14.022   4.177  1.00  0.00     0.029 A 
ATOM     55  N   UNL     1       9.498 -11.998   4.727  1.00  0.00    -0.354 N 
ATOM     56  N   UNL     1       9.195  -9.665   6.450  1.00  0.00    -0.248 NA
ATOM     57  C   UNL     1       9.528  -8.599   8.499  1.00  0.00     0.031 C 
ATOM     58  C   UNL     1      10.628 -13.752   5.492  1.00  0.00     0.029 A 
ATOM     59  C   UNL     1      10.194 -12.479   5.824  1.00  0.00     0.049 A 
ATOM     60  H   UNL     1       9.063 -11.116   4.676  1.00  0.00     0.167 HD
ATOM     61  C   UNL     1       9.936 -10.497   7.283  1.00  0.00     0.074 A 
ATOM     62  C   UNL     1      10.147  -9.771   8.517  1.00  0.00     0.031 C 
ATOM     63  C   UNL     1      10.399 -11.751   7.050  1.00  0.00     0.037 A 
BRANCH  50  64
ATOM     64  C   UNL     1       8.941 -13.901   1.445  1.00  0.00     0.057 A 
ATOM     65  C   UNL     1       9.705 -13.786   0.275  1.00  0.00     0.134 A 
ATOM     66  C   UNL     1       8.281 -15.115   1.669  1.00  0.00     0.134 A 
ATOM     67  F   UNL     1      10.349 -12.643  -0.007  1.00  0.00    -0.206 F 
ATOM     68  C   UNL     1       9.790 -14.831  -0.647  1.00  0.00     0.040 A 
ATOM     69  C   UNL     1       8.381 -16.177   0.768  1.00  0.00     0.040 A 
ATOM     70  F   UNL     1       7.535 -15.293   2.769  1.00  0.00    -0.206 F 
ATOM     71  C   UNL     1       9.133 -16.034  -0.397  1.00  0.00     0.006 A 
ENDBRANCH  50  64
BRANCH  51  72
ATOM     72  C   UNL     1       8.118  -6.180   7.682  1.00  0.00     0.057 A 
ATOM     73  C   UNL     1       9.230  -5.453   8.123  1.00  0.00     0.134 A 
ATOM     74  C   UNL     1       6.873  -5.842   8.227  1.00  0.00     0.134 A 
ATOM     75  F   UNL     1      10.455  -5.747   7.664  1.00  0.00    -0.206 F 
ATOM     76  C   UNL     1       9.114  -4.450   9.089  1.00  0.00     0.040 A 
ATOM     77  C   UNL     1       6.738  -4.823   9.171  1.00  0.00     0.040 A 
ATOM     78  F   UNL     1       5.768  -6.503   7.852  1.00  0.00    -0.206 F 
ATOM     79  C   UNL     1       7.863  -4.130   9.613  1.00  0.00     0.006 A 
ENDBRANCH  51  72
BRANCH  63  80
ATOM     80  C   UNL     1      11.205 -12.403   8.139  1.00  0.00     0.057 A 
ATOM     81  C   UNL     1      10.627 -12.816   9.347  1.00  0.00     0.134 A 
ATOM     82  C   UNL     1      12.576 -12.638   7.970  1.00  0.00     0.134 A 
ATOM     83  F   UNL     1       9.321 -12.615   9.579  1.00  0.00    -0.206 F 
ATOM     84  C   UNL     1      11.389 -13.399  10.361  1.00  0.00     0.040 A 
ATOM     85  C   UNL     1      13.343 -13.249   8.964  1.00  0.00     0.040 A 
ATOM     86  F   UNL     1      13.194 -12.283   6.833  1.00  0.00    -0.206 F 
ATOM     87  C   UNL     1      12.751 -13.621  10.169  1.00  0.00     0.006 A 
ENDBRANCH  63  80
ENDBRANCH  37  38
ENDBRANCH  30  32
ENDBRANCH  29  30
ENDBRANCH  28  29
ENDBRANCH  27  28
ENDBRANCH  26  27
ENDBRANCH  25  26
ENDBRANCH  24  25
ENDBRANCH  23  24
ENDBRANCH  22  23
ENDBRANCH   1  22
TORSDOF 26
