REMARK SMILES Cc1ccc(C)c(-c2cc(C(=O)OCCOCCOCCOCCOC(=O)c3ccc(-c4c5nc(c(-c6c(F)cccc6F)c6ccc([nH]6)c(-c6c(F)cccc6F)c6nc(c(-c7c(F)cccc7F)c7ccc4[nH]7)C=C6)C=C5)cc3)c3cc(C)ccc3n2)c1
REMARK SMILES IDX 20 1 19 2 18 3 17 4 16 5 15 6 14 7 13 8 11 9 12 10 10 11
REMARK SMILES IDX 8 12 9 13 89 14 88 15 82 16 87 17 83 18 86 19 84 20 85 21
REMARK SMILES IDX 7 22 1 23 2 24 3 25 90 26 4 27 5 28 6 29 21 30 22 31 23 32
REMARK SMILES IDX 24 33 25 34 26 35 27 36 28 37 29 38 81 39 30 40 80 41 31 42
REMARK SMILES IDX 32 43 33 44 74 45 34 46 79 47 73 48 75 49 35 50 78 51 72 52
REMARK SMILES IDX 71 53 36 55 62 56 45 57 61 58 46 59 49 60 60 61 76 62 47 63
REMARK SMILES IDX 48 64 59 66 77 67 50 68 37 69 38 70 43 71 39 72 40 73 42 74
REMARK SMILES IDX 44 75 41 76 63 77 64 78 69 79 65 80 66 81 68 82 70 83 67 84
REMARK SMILES IDX 51 85 52 86 57 87 53 88 54 89 56 90 58 91 55 92
REMARK H PARENT 75 54 49 65
REMARK Flexibility Score: inf
ROOT
ATOM      1  C   UNL     1      -0.356  10.064   0.959  1.00  0.00     0.188 C 
ENDROOT
BRANCH   1   2
ATOM      2  O   UNL     1      -0.639   8.750   1.419  1.00  0.00    -0.377 OA
BRANCH   2   3
ATOM      3  C   UNL     1      -0.602   7.743   0.402  1.00  0.00     0.188 C 
BRANCH   3   4
ATOM      4  C   UNL     1      -0.927   8.183  -1.043  1.00  0.00     0.188 C 
BRANCH   4   5
ATOM      5  O   UNL     1      -2.287   8.599  -1.084  1.00  0.00    -0.376 OA
BRANCH   5   6
ATOM      6  C   UNL     1      -2.994   8.214  -2.251  1.00  0.00     0.202 C 
BRANCH   6   7
ATOM      7  C   UNL     1      -3.096   6.701  -2.485  1.00  0.00     0.261 C 
BRANCH   7   8
ATOM      8  O   UNL     1      -3.163   5.913  -1.277  1.00  0.00    -0.460 OA
BRANCH   8   9
ATOM      9  C   UNL     1      -2.026   5.353  -0.792  1.00  0.00     0.338 C 
ATOM     10  O   UNL     1      -0.902   5.427  -1.265  1.00  0.00    -0.246 OA
BRANCH   9  11
ATOM     11  C   UNL     1      -2.194   4.548   0.418  1.00  0.00     0.071 A 
ATOM     12  C   UNL     1      -1.426   2.611   1.589  1.00  0.00     0.072 A 
ATOM     13  C   UNL     1      -1.289   3.498   0.551  1.00  0.00     0.045 A 
ATOM     14  N   UNL     1      -2.401   2.797   2.523  1.00  0.00    -0.248 NA
ATOM     15  C   UNL     1      -3.246   3.871   2.429  1.00  0.00     0.072 A 
ATOM     16  C   UNL     1      -3.148   4.808   1.394  1.00  0.00     0.015 A 
ATOM     17  C   UNL     1      -4.278   4.096   3.347  1.00  0.00     0.029 A 
ATOM     18  C   UNL     1      -3.967   5.960   1.370  1.00  0.00     0.014 A 
ATOM     19  C   UNL     1      -5.160   5.200   3.265  1.00  0.00     0.005 A 
ATOM     20  C   UNL     1      -4.994   6.157   2.275  1.00  0.00    -0.050 A 
ATOM     21  C   UNL     1      -5.865   7.361   2.078  1.00  0.00     0.044 C 
BRANCH  12  22
ATOM     22  C   UNL     1      -0.567   1.392   1.612  1.00  0.00     0.003 A 
ATOM     23  C   UNL     1       3.041   0.462   0.594  1.00  0.00     0.044 C 
ATOM     24  C   UNL     1       1.656   0.365   1.172  1.00  0.00    -0.050 A 
ATOM     25  C   UNL     1       1.136  -0.885   1.488  1.00  0.00     0.004 A 
ATOM     26  C   UNL     1       0.819   1.490   1.288  1.00  0.00     0.014 A 
ATOM     27  C   UNL     1      -0.221  -1.020   1.772  1.00  0.00     0.004 A 
ATOM     28  C   UNL     1      -1.088   0.092   1.774  1.00  0.00    -0.042 A 
ATOM     29  C   UNL     1      -2.563  -0.212   1.731  1.00  0.00     0.045 C 
ENDBRANCH  12  22
ENDBRANCH   9  11
ENDBRANCH   8   9
ENDBRANCH   7   8
ENDBRANCH   6   7
ENDBRANCH   5   6
ENDBRANCH   4   5
ENDBRANCH   3   4
ENDBRANCH   2   3
ENDBRANCH   1   2
BRANCH   1  30
ATOM     30  C   UNL     1       1.108  10.245   0.549  1.00  0.00     0.188 C 
BRANCH  30  31
ATOM     31  O   UNL     1       1.550   9.145  -0.241  1.00  0.00    -0.376 OA
BRANCH  31  32
ATOM     32  C   UNL     1       2.772   8.548   0.154  1.00  0.00     0.202 C 
BRANCH  32  33
ATOM     33  C   UNL     1       3.925   9.325  -0.471  1.00  0.00     0.261 C 
BRANCH  33  34
ATOM     34  O   UNL     1       3.997   9.197  -1.914  1.00  0.00    -0.460 OA
BRANCH  34  35
ATOM     35  C   UNL     1       2.873   9.479  -2.627  1.00  0.00     0.338 C 
ATOM     36  O   UNL     1       2.429  10.606  -2.818  1.00  0.00    -0.246 OA
BRANCH  35  37
ATOM     37  C   UNL     1       2.247   8.210  -3.114  1.00  0.00     0.060 A 
ATOM     38  C   UNL     1       1.008   8.215  -3.761  1.00  0.00     0.016 A 
ATOM     39  C   UNL     1       2.839   6.980  -2.801  1.00  0.00     0.016 A 
ATOM     40  C   UNL     1       0.346   6.994  -4.006  1.00  0.00     0.010 A 
ATOM     41  C   UNL     1       2.150   5.782  -2.974  1.00  0.00     0.010 A 
ATOM     42  C   UNL     1       0.886   5.761  -3.565  1.00  0.00    -0.014 A 
BRANCH  42  43
ATOM     43  C   UNL     1       0.504   4.416  -4.096  1.00  0.00     0.031 A 
ATOM     44  C   UNL     1       0.462   4.569  -5.549  1.00  0.00     0.074 A 
ATOM     45  C   UNL     1      -0.287   3.390  -3.675  1.00  0.00     0.049 A 
ATOM     46  N   UNL     1      -0.627   4.862  -6.184  1.00  0.00    -0.248 NA
ATOM     47  C   UNL     1       1.694   4.727  -6.322  1.00  0.00     0.031 C 
ATOM     48  C   UNL     1      -1.506   3.488  -2.928  1.00  0.00     0.029 A 
ATOM     49  N   UNL     1      -0.116   1.999  -3.742  1.00  0.00    -0.354 N 
ATOM     50  C   UNL     1      -0.263   4.757  -7.500  1.00  0.00     0.074 A 
ATOM     51  C   UNL     1       1.176   4.926  -7.538  1.00  0.00     0.031 C 
ATOM     52  C   UNL     1      -1.822   2.325  -2.348  1.00  0.00     0.029 A 
ATOM     53  C   UNL     1      -0.894   1.290  -2.791  1.00  0.00     0.049 A 
ATOM     54  H   UNL     1       0.485   1.558  -4.386  1.00  0.00     0.167 HD
ATOM     55  C   UNL     1      -1.060   3.954  -8.247  1.00  0.00     0.037 A 
ATOM     56  C   UNL     1      -1.414   0.032  -2.823  1.00  0.00     0.037 A 
ATOM     57  C   UNL     1      -2.432   3.926  -7.792  1.00  0.00     0.049 A 
ATOM     58  C   UNL     1      -2.484  -0.014  -3.855  1.00  0.00     0.074 A 
ATOM     59  C   UNL     1      -3.501   4.802  -7.799  1.00  0.00     0.029 A 
ATOM     60  N   UNL     1      -2.726   2.978  -6.847  1.00  0.00    -0.354 N 
ATOM     61  N   UNL     1      -3.654   0.561  -3.779  1.00  0.00    -0.248 NA
ATOM     62  C   UNL     1      -2.056  -0.402  -5.198  1.00  0.00     0.031 C 
ATOM     63  C   UNL     1      -4.479   4.294  -6.892  1.00  0.00     0.029 A 
ATOM     64  C   UNL     1      -4.002   3.109  -6.352  1.00  0.00     0.049 A 
ATOM     65  H   UNL     1      -2.094   2.281  -6.555  1.00  0.00     0.167 HD
ATOM     66  C   UNL     1      -3.856   1.030  -5.065  1.00  0.00     0.074 A 
ATOM     67  C   UNL     1      -2.933   0.295  -5.916  1.00  0.00     0.031 C 
ATOM     68  C   UNL     1      -4.457   2.227  -5.303  1.00  0.00     0.037 A 
BRANCH  55  69
ATOM     69  C   UNL     1      -0.418   2.799  -8.950  1.00  0.00     0.057 A 
ATOM     70  C   UNL     1      -0.968   2.294 -10.123  1.00  0.00     0.134 A 
ATOM     71  C   UNL     1       0.640   2.047  -8.387  1.00  0.00     0.134 A 
ATOM     72  F   UNL     1      -2.050   2.868 -10.669  1.00  0.00    -0.206 F 
ATOM     73  C   UNL     1      -0.443   1.154 -10.741  1.00  0.00     0.040 A 
ATOM     74  C   UNL     1       1.226   0.964  -9.031  1.00  0.00     0.040 A 
ATOM     75  F   UNL     1       1.084   2.271  -7.142  1.00  0.00    -0.206 F 
ATOM     76  C   UNL     1       0.676   0.508 -10.216  1.00  0.00     0.006 A 
ENDBRANCH  55  69
BRANCH  56  77
ATOM     77  C   UNL     1      -0.795  -1.181  -2.260  1.00  0.00     0.057 A 
ATOM     78  C   UNL     1      -1.591  -2.252  -1.821  1.00  0.00     0.134 A 
ATOM     79  C   UNL     1       0.585  -1.321  -2.088  1.00  0.00     0.134 A 
ATOM     80  F   UNL     1      -2.928  -2.191  -1.917  1.00  0.00    -0.206 F 
ATOM     81  C   UNL     1      -1.042  -3.408  -1.250  1.00  0.00     0.040 A 
ATOM     82  C   UNL     1       1.149  -2.474  -1.529  1.00  0.00     0.040 A 
ATOM     83  F   UNL     1       1.423  -0.348  -2.474  1.00  0.00    -0.206 F 
ATOM     84  C   UNL     1       0.337  -3.521  -1.105  1.00  0.00     0.006 A 
ENDBRANCH  56  77
BRANCH  68  85
ATOM     85  C   UNL     1      -5.614   2.603  -4.440  1.00  0.00     0.057 A 
ATOM     86  C   UNL     1      -5.540   3.231  -3.195  1.00  0.00     0.134 A 
ATOM     87  C   UNL     1      -6.895   2.347  -4.944  1.00  0.00     0.134 A 
ATOM     88  F   UNL     1      -4.367   3.579  -2.661  1.00  0.00    -0.206 F 
ATOM     89  C   UNL     1      -6.688   3.568  -2.469  1.00  0.00     0.040 A 
ATOM     90  C   UNL     1      -8.050   2.696  -4.242  1.00  0.00     0.040 A 
ATOM     91  F   UNL     1      -7.043   1.776  -6.150  1.00  0.00    -0.206 F 
ATOM     92  C   UNL     1      -7.949   3.302  -2.994  1.00  0.00     0.006 A 
ENDBRANCH  68  85
ENDBRANCH  42  43
ENDBRANCH  35  37
ENDBRANCH  34  35
ENDBRANCH  33  34
ENDBRANCH  32  33
ENDBRANCH  31  32
ENDBRANCH  30  31
ENDBRANCH   1  30
TORSDOF 21
