REMARK SMILES O=Cc1c(OCc2ccc(C(=O)OCCOCCOCCOCCOC(=O)c3ccc(-c4c5nc(c(-c6c(F)cccc6F)c6ccc([nH]6)c(-c6c(F)cccc6F)c6nc(c(-c7c(F)cccc7F)c7ccc4[nH]7)C=C6)C=C5)cc3)cc2)ccc2ccccc12
REMARK SMILES IDX 18 1 17 2 16 3 15 4 14 5 13 6 11 7 12 8 10 9 7 10 8 11 83 12
REMARK SMILES IDX 9 13 82 14 6 15 5 16 4 17 3 18 91 19 84 20 86 21 90 22 85 23
REMARK SMILES IDX 87 24 89 25 88 26 2 27 1 28 19 29 20 30 21 31 22 32 23 33
REMARK SMILES IDX 24 34 25 35 26 36 27 37 28 38 29 39 81 40 30 41 80 42 31 43
REMARK SMILES IDX 32 44 33 45 74 46 34 47 79 48 73 49 75 50 35 51 78 52 72 53
REMARK SMILES IDX 71 54 36 56 62 57 45 58 61 59 46 60 49 61 60 62 76 63 47 64
REMARK SMILES IDX 48 65 59 67 77 68 50 69 37 70 38 71 43 72 39 73 40 74 42 75
REMARK SMILES IDX 44 76 41 77 63 78 64 79 69 80 65 81 66 82 68 83 70 84 67 85
REMARK SMILES IDX 51 86 52 87 57 88 53 89 54 90 56 91 58 92 55 93
REMARK H PARENT 75 55 49 66
REMARK Flexibility Score: inf
ROOT
ATOM      1  C   UNL     1       4.445   2.999   8.842  1.00  0.00     0.188 C 
ENDROOT
BRANCH   1   2
ATOM      2  C   UNL     1       5.686   2.084   8.771  1.00  0.00     0.188 C 
BRANCH   2   3
ATOM      3  O   UNL     1       6.826   2.625   9.416  1.00  0.00    -0.376 OA
BRANCH   3   4
ATOM      4  C   UNL     1       7.907   3.105   8.640  1.00  0.00     0.202 C 
BRANCH   4   5
ATOM      5  C   UNL     1       7.668   4.222   7.612  1.00  0.00     0.261 C 
BRANCH   5   6
ATOM      6  O   UNL     1       6.470   4.116   6.841  1.00  0.00    -0.460 OA
BRANCH   6   7
ATOM      7  C   UNL     1       6.457   3.180   5.869  1.00  0.00     0.338 C 
ATOM      8  O   UNL     1       7.383   2.457   5.545  1.00  0.00    -0.246 OA
BRANCH   7   9
ATOM      9  C   UNL     1       5.064   3.030   5.386  1.00  0.00     0.060 A 
ATOM     10  C   UNL     1       2.519   2.676   4.303  1.00  0.00    -0.011 A 
ATOM     11  C   UNL     1       3.329   1.562   4.563  1.00  0.00     0.008 A 
ATOM     12  C   UNL     1       2.924   3.945   4.747  1.00  0.00     0.008 A 
ATOM     13  C   UNL     1       4.606   1.741   5.087  1.00  0.00     0.016 A 
ATOM     14  C   UNL     1       4.203   4.127   5.270  1.00  0.00     0.016 A 
BRANCH  10  15
ATOM     15  C   UNL     1       1.316   2.538   3.391  1.00  0.00     0.265 C 
BRANCH  15  16
ATOM     16  O   UNL     1       1.614   1.823   2.177  1.00  0.00    -0.488 OA
BRANCH  16  17
ATOM     17  C   UNL     1       2.604   2.257   1.329  1.00  0.00     0.130 A 
ATOM     18  C   UNL     1       3.038   1.374   0.321  1.00  0.00     0.064 A 
ATOM     19  C   UNL     1       4.151   1.681  -0.521  1.00  0.00    -0.004 A 
ATOM     20  C   UNL     1       3.245   3.488   1.444  1.00  0.00     0.048 A 
ATOM     21  C   UNL     1       4.832   2.902  -0.300  1.00  0.00    -0.017 A 
ATOM     22  C   UNL     1       4.625   0.866  -1.582  1.00  0.00     0.009 A 
ATOM     23  C   UNL     1       4.368   3.789   0.673  1.00  0.00     0.012 A 
ATOM     24  C   UNL     1       5.956   3.245  -1.068  1.00  0.00     0.009 A 
ATOM     25  C   UNL     1       5.731   1.230  -2.356  1.00  0.00     0.001 A 
ATOM     26  C   UNL     1       6.404   2.414  -2.091  1.00  0.00     0.001 A 
BRANCH  18  27
ATOM     27  C   UNL     1       2.341   0.078   0.145  1.00  0.00     0.264 C 
ATOM     28  O   UNL     1       1.124  -0.049   0.196  1.00  0.00    -0.298 OA
ENDBRANCH  18  27
ENDBRANCH  16  17
ENDBRANCH  15  16
ENDBRANCH  10  15
ENDBRANCH   7   9
ENDBRANCH   6   7
ENDBRANCH   5   6
ENDBRANCH   4   5
ENDBRANCH   3   4
ENDBRANCH   2   3
ENDBRANCH   1   2
BRANCH   1  29
ATOM     29  O   UNL     1       4.636   4.351   9.230  1.00  0.00    -0.377 OA
BRANCH  29  30
ATOM     30  C   UNL     1       5.303   4.647  10.456  1.00  0.00     0.188 C 
BRANCH  30  31
ATOM     31  C   UNL     1       5.485   3.597  11.581  1.00  0.00     0.188 C 
BRANCH  31  32
ATOM     32  O   UNL     1       4.721   2.414  11.425  1.00  0.00    -0.376 OA
BRANCH  32  33
ATOM     33  C   UNL     1       3.609   2.221  12.278  1.00  0.00     0.202 C 
BRANCH  33  34
ATOM     34  C   UNL     1       2.458   3.230  12.161  1.00  0.00     0.261 C 
BRANCH  34  35
ATOM     35  O   UNL     1       2.820   4.615  12.268  1.00  0.00    -0.460 OA
BRANCH  35  36
ATOM     36  C   UNL     1       3.283   5.042  13.460  1.00  0.00     0.338 C 
ATOM     37  O   UNL     1       3.427   4.383  14.478  1.00  0.00    -0.246 OA
BRANCH  36  38
ATOM     38  C   UNL     1       3.769   6.425  13.282  1.00  0.00     0.060 A 
ATOM     39  C   UNL     1       5.120   6.713  13.520  1.00  0.00     0.016 A 
ATOM     40  C   UNL     1       2.891   7.430  12.872  1.00  0.00     0.016 A 
ATOM     41  C   UNL     1       5.587   8.020  13.388  1.00  0.00     0.010 A 
ATOM     42  C   UNL     1       3.355   8.743  12.762  1.00  0.00     0.010 A 
ATOM     43  C   UNL     1       4.695   9.049  13.058  1.00  0.00    -0.014 A 
BRANCH  43  44
ATOM     44  C   UNL     1       5.105  10.462  13.241  1.00  0.00     0.031 A 
ATOM     45  C   UNL     1       4.695  11.158  14.511  1.00  0.00     0.074 A 
ATOM     46  C   UNL     1       5.839  11.111  12.320  1.00  0.00     0.049 A 
ATOM     47  N   UNL     1       4.883  12.399  14.880  1.00  0.00    -0.248 NA
ATOM     48  C   UNL     1       3.970  10.339  15.496  1.00  0.00     0.031 C 
ATOM     49  C   UNL     1       6.335  10.535  11.073  1.00  0.00     0.029 A 
ATOM     50  N   UNL     1       6.286  12.408  12.296  1.00  0.00    -0.354 N 
ATOM     51  C   UNL     1       4.292  12.511  16.132  1.00  0.00     0.074 A 
ATOM     52  C   UNL     1       3.709  11.225  16.445  1.00  0.00     0.031 C 
ATOM     53  C   UNL     1       7.010  11.482  10.397  1.00  0.00     0.029 A 
ATOM     54  C   UNL     1       6.963  12.736  11.148  1.00  0.00     0.049 A 
ATOM     55  H   UNL     1       6.136  13.044  13.033  1.00  0.00     0.167 HD
ATOM     56  C   UNL     1       4.247  13.586  16.954  1.00  0.00     0.037 A 
ATOM     57  C   UNL     1       7.463  13.920  10.742  1.00  0.00     0.037 A 
ATOM     58  C   UNL     1       4.824  14.865  16.638  1.00  0.00     0.049 A 
ATOM     59  C   UNL     1       7.331  15.125  11.639  1.00  0.00     0.074 A 
ATOM     60  C   UNL     1       4.843  16.015  17.407  1.00  0.00     0.029 A 
ATOM     61  N   UNL     1       5.474  15.166  15.451  1.00  0.00    -0.354 N 
ATOM     62  N   UNL     1       6.791  15.218  12.832  1.00  0.00    -0.248 NA
ATOM     63  C   UNL     1       7.882  16.391  11.134  1.00  0.00     0.031 C 
ATOM     64  C   UNL     1       5.451  17.029  16.661  1.00  0.00     0.029 A 
ATOM     65  C   UNL     1       5.874  16.492  15.455  1.00  0.00     0.049 A 
ATOM     66  H   UNL     1       5.629  14.532  14.714  1.00  0.00     0.167 HD
ATOM     67  C   UNL     1       6.972  16.537  13.233  1.00  0.00     0.074 A 
ATOM     68  C   UNL     1       7.680  17.204  12.161  1.00  0.00     0.031 C 
ATOM     69  C   UNL     1       6.590  17.141  14.385  1.00  0.00     0.037 A 
BRANCH  56  70
ATOM     70  C   UNL     1       3.519  13.428  18.258  1.00  0.00     0.057 A 
ATOM     71  C   UNL     1       4.016  12.628  19.296  1.00  0.00     0.134 A 
ATOM     72  C   UNL     1       2.313  14.103  18.485  1.00  0.00     0.134 A 
ATOM     73  F   UNL     1       5.157  11.940  19.139  1.00  0.00    -0.206 F 
ATOM     74  C   UNL     1       3.325  12.484  20.501  1.00  0.00     0.040 A 
ATOM     75  C   UNL     1       1.630  13.992  19.697  1.00  0.00     0.040 A 
ATOM     76  F   UNL     1       1.782  14.887  17.535  1.00  0.00    -0.206 F 
ATOM     77  C   UNL     1       2.132  13.174  20.706  1.00  0.00     0.006 A 
ENDBRANCH  56  70
BRANCH  57  78
ATOM     78  C   UNL     1       8.127  14.038   9.418  1.00  0.00     0.057 A 
ATOM     79  C   UNL     1       9.496  14.311   9.312  1.00  0.00     0.134 A 
ATOM     80  C   UNL     1       7.402  13.916   8.226  1.00  0.00     0.134 A 
ATOM     81  F   UNL     1      10.241  14.464  10.416  1.00  0.00    -0.206 F 
ATOM     82  C   UNL     1      10.115  14.482   8.072  1.00  0.00     0.040 A 
ATOM     83  C   UNL     1       8.014  14.055   6.979  1.00  0.00     0.040 A 
ATOM     84  F   UNL     1       6.087  13.655   8.256  1.00  0.00    -0.206 F 
ATOM     85  C   UNL     1       9.373  14.348   6.900  1.00  0.00     0.006 A 
ENDBRANCH  57  78
BRANCH  69  86
ATOM     86  C   UNL     1       6.976  18.582  14.575  1.00  0.00     0.057 A 
ATOM     87  C   UNL     1       6.392  19.616  13.833  1.00  0.00     0.134 A 
ATOM     88  C   UNL     1       7.920  18.940  15.547  1.00  0.00     0.134 A 
ATOM     89  F   UNL     1       5.487  19.344  12.880  1.00  0.00    -0.206 F 
ATOM     90  C   UNL     1       6.755  20.951  14.029  1.00  0.00     0.040 A 
ATOM     91  C   UNL     1       8.267  20.273  15.775  1.00  0.00     0.040 A 
ATOM     92  F   UNL     1       8.510  18.002  16.303  1.00  0.00    -0.206 F 
ATOM     93  C   UNL     1       7.690  21.282  15.008  1.00  0.00     0.006 A 
ENDBRANCH  69  86
ENDBRANCH  43  44
ENDBRANCH  36  38
ENDBRANCH  35  36
ENDBRANCH  34  35
ENDBRANCH  33  34
ENDBRANCH  32  33
ENDBRANCH  31  32
ENDBRANCH  30  31
ENDBRANCH  29  30
ENDBRANCH   1  29
TORSDOF 24
