REMARK SMILES Cc1ccc(Nc2c(Cl)cc(Cl)cc2Cl)c(CC(=O)OCCOCCOCCOCCOC(=O)c2ccc(-c3c4nc(c(-c5c(F)cccc5F)c5ccc([nH]5)c(-c5c(F)cccc5F)c5nc(c(-c6c(F)cccc6F)c6ccc3[nH]6)C=C5)C=C4)cc2)c1
REMARK SMILES IDX 25 1 24 2 23 3 22 4 21 5 20 6 18 7 19 8 17 9 16 10 1 11 2 12
REMARK SMILES IDX 3 13 89 14 4 15 5 16 6 17 7 19 8 20 14 21 9 22 10 23 13 24
REMARK SMILES IDX 15 25 11 26 12 27 26 28 27 29 28 30 29 31 30 32 31 33 32 34
REMARK SMILES IDX 33 35 34 36 35 37 36 38 88 39 37 40 87 41 38 42 39 43 40 44
REMARK SMILES IDX 81 45 41 46 86 47 80 48 82 49 42 50 85 51 79 52 78 53 43 55
REMARK SMILES IDX 69 56 52 57 68 58 53 59 56 60 67 61 83 62 54 63 55 64 66 66
REMARK SMILES IDX 84 67 57 68 44 69 45 70 50 71 46 72 47 73 49 74 51 75 48 76
REMARK SMILES IDX 70 77 71 78 76 79 72 80 73 81 75 82 77 83 74 84 58 85 59 86
REMARK SMILES IDX 64 87 60 88 61 89 63 90 65 91 62 92
REMARK H PARENT 6 18 82 54 56 65
REMARK Flexibility Score: inf
ROOT
ATOM      1  C   UNL     1      -3.487   0.130  -1.278  1.00  0.00     0.188 C 
ENDROOT
BRANCH   1   2
ATOM      2  C   UNL     1      -3.806   1.087  -0.164  1.00  0.00     0.188 C 
BRANCH   2   3
ATOM      3  O   UNL     1      -4.796   2.077  -0.252  1.00  0.00    -0.376 OA
BRANCH   3   4
ATOM      4  C   UNL     1      -4.350   3.234  -0.908  1.00  0.00     0.202 C 
BRANCH   4   5
ATOM      5  C   UNL     1      -3.203   4.089  -0.303  1.00  0.00     0.261 C 
BRANCH   5   6
ATOM      6  O   UNL     1      -2.165   3.383   0.396  1.00  0.00    -0.463 OA
BRANCH   6   7
ATOM      7  C   UNL     1      -2.432   3.198   1.717  1.00  0.00     0.310 C 
ATOM      8  O   UNL     1      -3.324   3.783   2.326  1.00  0.00    -0.252 OA
BRANCH   7   9
ATOM      9  C   UNL     1      -1.506   2.231   2.419  1.00  0.00     0.160 C 
BRANCH   9  10
ATOM     10  C   UNL     1      -1.078   0.937   1.737  1.00  0.00    -0.013 A 
ATOM     11  C   UNL     1       2.179  -0.024  -0.087  1.00  0.00     0.044 C 
ATOM     12  C   UNL     1       0.792  -0.096   0.483  1.00  0.00    -0.051 A 
ATOM     13  C   UNL     1       0.100  -1.298   0.496  1.00  0.00     0.005 A 
ATOM     14  C   UNL     1       0.184   1.014   1.072  1.00  0.00     0.009 A 
ATOM     15  C   UNL     1      -1.178  -1.378   1.070  1.00  0.00     0.026 A 
ATOM     16  C   UNL     1      -1.804  -0.298   1.733  1.00  0.00     0.042 A 
BRANCH  16  17
ATOM     17  N   UNL     1      -3.118  -0.469   2.326  1.00  0.00    -0.353 N 
ATOM     18  H   UNL     1      -3.428   0.274   2.892  1.00  0.00     0.167 HD
BRANCH  17  19
ATOM     19  C   UNL     1      -4.036  -1.585   2.199  1.00  0.00     0.076 A 
ATOM     20  C   UNL     1      -3.631  -2.907   2.458  1.00  0.00     0.067 A 
ATOM     21  C   UNL     1      -5.338  -1.464   1.626  1.00  0.00     0.067 A 
ATOM     22  Cl  UNL     1      -2.315  -3.241   3.536  1.00  0.00    -0.082 Cl
ATOM     23  C   UNL     1      -4.336  -4.014   1.961  1.00  0.00     0.043 A 
ATOM     24  C   UNL     1      -6.012  -2.560   1.056  1.00  0.00     0.043 A 
ATOM     25  Cl  UNL     1      -6.297  -0.018   1.739  1.00  0.00    -0.082 Cl
ATOM     26  C   UNL     1      -5.485  -3.831   1.204  1.00  0.00     0.044 A 
ATOM     27  Cl  UNL     1      -6.290  -5.186   0.516  1.00  0.00    -0.084 Cl
ENDBRANCH  17  19
ENDBRANCH  16  17
ENDBRANCH   9  10
ENDBRANCH   7   9
ENDBRANCH   6   7
ENDBRANCH   5   6
ENDBRANCH   4   5
ENDBRANCH   3   4
ENDBRANCH   2   3
ENDBRANCH   1   2
BRANCH   1  28
ATOM     28  O   UNL     1      -2.084   0.174  -1.569  1.00  0.00    -0.377 OA
BRANCH  28  29
ATOM     29  C   UNL     1      -1.748  -0.331  -2.857  1.00  0.00     0.188 C 
BRANCH  29  30
ATOM     30  C   UNL     1      -1.873  -1.835  -3.036  1.00  0.00     0.188 C 
BRANCH  30  31
ATOM     31  O   UNL     1      -3.210  -2.181  -2.735  1.00  0.00    -0.376 OA
BRANCH  31  32
ATOM     32  C   UNL     1      -3.412  -3.346  -1.956  1.00  0.00     0.202 C 
BRANCH  32  33
ATOM     33  C   UNL     1      -4.006  -4.434  -2.845  1.00  0.00     0.261 C 
BRANCH  33  34
ATOM     34  O   UNL     1      -5.103  -3.860  -3.593  1.00  0.00    -0.460 OA
BRANCH  34  35
ATOM     35  C   UNL     1      -4.767  -3.455  -4.856  1.00  0.00     0.338 C 
ATOM     36  O   UNL     1      -4.095  -4.091  -5.639  1.00  0.00    -0.246 OA
BRANCH  35  37
ATOM     37  C   UNL     1      -5.105  -2.007  -5.056  1.00  0.00     0.060 A 
ATOM     38  C   UNL     1      -4.556  -1.325  -6.157  1.00  0.00     0.016 A 
ATOM     39  C   UNL     1      -5.701  -1.274  -4.037  1.00  0.00     0.016 A 
ATOM     40  C   UNL     1      -4.424   0.076  -6.142  1.00  0.00     0.010 A 
ATOM     41  C   UNL     1      -5.544   0.106  -4.022  1.00  0.00     0.010 A 
ATOM     42  C   UNL     1      -4.818   0.793  -5.016  1.00  0.00    -0.014 A 
BRANCH  42  43
ATOM     43  C   UNL     1      -4.360   2.169  -4.655  1.00  0.00     0.031 A 
ATOM     44  C   UNL     1      -5.385   3.149  -4.138  1.00  0.00     0.074 A 
ATOM     45  C   UNL     1      -3.021   2.362  -4.469  1.00  0.00     0.049 A 
ATOM     46  N   UNL     1      -5.140   4.341  -3.701  1.00  0.00    -0.248 NA
ATOM     47  C   UNL     1      -6.828   2.863  -4.128  1.00  0.00     0.031 C 
ATOM     48  C   UNL     1      -2.292   3.021  -3.383  1.00  0.00     0.029 A 
ATOM     49  N   UNL     1      -1.956   1.889  -5.218  1.00  0.00    -0.354 N 
ATOM     50  C   UNL     1      -6.286   4.818  -3.064  1.00  0.00     0.074 A 
ATOM     51  C   UNL     1      -7.329   3.912  -3.468  1.00  0.00     0.031 C 
ATOM     52  C   UNL     1      -0.978   3.085  -3.603  1.00  0.00     0.029 A 
ATOM     53  C   UNL     1      -0.781   2.612  -4.924  1.00  0.00     0.049 A 
ATOM     54  H   UNL     1      -2.012   1.151  -5.866  1.00  0.00     0.167 HD
ATOM     55  C   UNL     1      -6.188   5.812  -2.121  1.00  0.00     0.037 A 
ATOM     56  C   UNL     1      -0.179   3.357  -5.886  1.00  0.00     0.037 A 
ATOM     57  C   UNL     1      -4.847   6.447  -2.101  1.00  0.00     0.049 A 
ATOM     58  C   UNL     1      -0.541   4.844  -5.775  1.00  0.00     0.074 A 
ATOM     59  C   UNL     1      -4.004   6.986  -1.141  1.00  0.00     0.029 A 
ATOM     60  N   UNL     1      -4.118   6.523  -3.284  1.00  0.00    -0.354 N 
ATOM     61  N   UNL     1      -1.278   5.389  -4.826  1.00  0.00    -0.248 NA
ATOM     62  C   UNL     1      -0.097   5.840  -6.745  1.00  0.00     0.031 C 
ATOM     63  C   UNL     1      -2.771   7.353  -1.763  1.00  0.00     0.029 A 
ATOM     64  C   UNL     1      -2.890   7.109  -3.118  1.00  0.00     0.049 A 
ATOM     65  H   UNL     1      -4.449   6.191  -4.149  1.00  0.00     0.167 HD
ATOM     66  C   UNL     1      -1.454   6.732  -5.072  1.00  0.00     0.074 A 
ATOM     67  C   UNL     1      -0.700   6.954  -6.296  1.00  0.00     0.031 C 
ATOM     68  C   UNL     1      -2.207   7.586  -4.305  1.00  0.00     0.037 A 
BRANCH  55  69
ATOM     69  C   UNL     1      -7.229   6.089  -1.010  1.00  0.00     0.057 A 
ATOM     70  C   UNL     1      -7.129   7.248  -0.206  1.00  0.00     0.134 A 
ATOM     71  C   UNL     1      -8.231   5.195  -0.565  1.00  0.00     0.134 A 
ATOM     72  F   UNL     1      -6.291   8.244  -0.525  1.00  0.00    -0.206 F 
ATOM     73  C   UNL     1      -7.876   7.455   0.969  1.00  0.00     0.040 A 
ATOM     74  C   UNL     1      -9.043   5.430   0.565  1.00  0.00     0.040 A 
ATOM     75  F   UNL     1      -8.457   4.019  -1.162  1.00  0.00    -0.206 F 
ATOM     76  C   UNL     1      -8.845   6.547   1.359  1.00  0.00     0.006 A 
ENDBRANCH  55  69
BRANCH  56  77
ATOM     77  C   UNL     1       0.059   2.432  -7.047  1.00  0.00     0.057 A 
ATOM     78  C   UNL     1       0.898   1.332  -6.715  1.00  0.00     0.134 A 
ATOM     79  C   UNL     1      -1.001   2.163  -7.923  1.00  0.00     0.134 A 
ATOM     80  F   UNL     1       1.941   1.514  -5.887  1.00  0.00    -0.206 F 
ATOM     81  C   UNL     1       0.508   0.010  -6.962  1.00  0.00     0.040 A 
ATOM     82  C   UNL     1      -1.373   0.837  -8.209  1.00  0.00     0.040 A 
ATOM     83  F   UNL     1      -1.844   3.142  -8.279  1.00  0.00    -0.206 F 
ATOM     84  C   UNL     1      -0.666  -0.240  -7.664  1.00  0.00     0.006 A 
ENDBRANCH  56  77
BRANCH  68  85
ATOM     85  C   UNL     1      -2.492   9.027  -4.661  1.00  0.00     0.057 A 
ATOM     86  C   UNL     1      -1.526   9.907  -5.146  1.00  0.00     0.134 A 
ATOM     87  C   UNL     1      -3.772   9.595  -4.437  1.00  0.00     0.134 A 
ATOM     88  F   UNL     1      -0.241   9.535  -5.245  1.00  0.00    -0.206 F 
ATOM     89  C   UNL     1      -1.842  11.218  -5.522  1.00  0.00     0.040 A 
ATOM     90  C   UNL     1      -4.082  10.918  -4.746  1.00  0.00     0.040 A 
ATOM     91  F   UNL     1      -4.789   8.894  -3.919  1.00  0.00    -0.206 F 
ATOM     92  C   UNL     1      -3.124  11.725  -5.332  1.00  0.00     0.006 A 
ENDBRANCH  68  85
ENDBRANCH  42  43
ENDBRANCH  35  37
ENDBRANCH  34  35
ENDBRANCH  33  34
ENDBRANCH  32  33
ENDBRANCH  31  32
ENDBRANCH  30  31
ENDBRANCH  29  30
ENDBRANCH  28  29
ENDBRANCH   1  28
TORSDOF 23
