REMARK SMILES Cc1ccccc1SCC(=O)N[C@H]1C=C[C@H](C(=O)OCCOCCOCCOCCOC(=O)c2ccc(-c3c4nc(c(-c5c(F)cccc5F)c5ccc([nH]5)c(-c5c(F)cccc5F)c5nc(c(-c6c(F)cccc6F)c6ccc3[nH]6)C=C5)C=C4)cc2)C1
REMARK SMILES IDX 24 1 23 2 22 3 21 4 20 5 19 6 17 7 18 8 16 9 13 10 14 11
REMARK SMILES IDX 88 12 15 13 12 14 10 15 11 16 9 18 8 19 7 20 1 21 2 22 3 23
REMARK SMILES IDX 4 24 6 25 5 26 25 27 26 28 27 29 28 30 29 31 30 32 31 33
REMARK SMILES IDX 32 34 33 35 34 36 35 37 87 38 36 39 86 40 37 41 38 42 39 43
REMARK SMILES IDX 80 44 40 45 85 46 79 47 81 48 41 49 84 50 78 51 77 52 42 54
REMARK SMILES IDX 68 55 51 56 67 57 52 58 55 59 66 60 82 61 53 62 54 63 65 65
REMARK SMILES IDX 83 66 56 67 43 68 44 69 49 70 45 71 46 72 48 73 50 74 47 75
REMARK SMILES IDX 69 76 70 77 75 78 71 79 72 80 74 81 76 82 73 83 57 84 58 85
REMARK SMILES IDX 63 86 59 87 60 88 62 89 64 90 61 91
REMARK H PARENT 12 17 81 53 55 64
REMARK Flexibility Score: inf
ROOT
ATOM      1  C   UNL     1       3.274   6.486   0.115  1.00  0.00     0.188 C 
ENDROOT
BRANCH   1   2
ATOM      2  C   UNL     1       2.202   5.580  -0.506  1.00  0.00     0.188 C 
BRANCH   2   3
ATOM      3  O   UNL     1       1.426   4.925   0.479  1.00  0.00    -0.376 OA
BRANCH   3   4
ATOM      4  C   UNL     1       0.217   5.599   0.784  1.00  0.00     0.202 C 
BRANCH   4   5
ATOM      5  C   UNL     1      -0.259   5.056   2.109  1.00  0.00     0.261 C 
BRANCH   5   6
ATOM      6  O   UNL     1       0.781   5.346   3.052  1.00  0.00    -0.463 OA
BRANCH   6   7
ATOM      7  C   UNL     1       1.232   4.278   3.738  1.00  0.00     0.312 C 
ATOM      8  O   UNL     1       0.587   3.255   3.951  1.00  0.00    -0.252 OA
BRANCH   7   9
ATOM      9  C   UNL     1       2.722   4.453   4.013  1.00  0.00     0.124 C 
ATOM     10  C   UNL     1       3.376   2.295   3.240  1.00  0.00     0.106 C 
ATOM     11  C   UNL     1       3.558   2.387   4.729  1.00  0.00    -0.006 C 
ATOM     12  C   UNL     1       3.495   3.776   2.879  1.00  0.00     0.048 C 
ATOM     13  C   UNL     1       3.162   3.595   5.166  1.00  0.00    -0.014 C 
BRANCH  10  14
ATOM     14  N   UNL     1       4.328   1.428   2.612  1.00  0.00    -0.349 N 
ATOM     15  C   UNL     1       4.304   0.970   1.324  1.00  0.00     0.230 C 
ATOM     16  O   UNL     1       5.048   0.018   1.057  1.00  0.00    -0.274 OA
ATOM     17  H   UNL     1       5.082   1.129   3.170  1.00  0.00     0.164 HD
BRANCH  15  18
ATOM     18  C   UNL     1       3.563   1.684   0.202  1.00  0.00     0.174 C 
BRANCH  18  19
ATOM     19  S   UNL     1       1.782   1.942   0.364  1.00  0.00    -0.116 SA
BRANCH  19  20
ATOM     20  C   UNL     1       0.784   0.509   0.060  1.00  0.00     0.011 A 
ATOM     21  C   UNL     1       2.534  -1.315  -0.361  1.00  0.00     0.045 C 
ATOM     22  C   UNL     1       1.132  -0.823  -0.189  1.00  0.00    -0.038 A 
ATOM     23  C   UNL     1       0.109  -1.797  -0.248  1.00  0.00     0.004 A 
ATOM     24  C   UNL     1      -1.239  -1.461  -0.138  1.00  0.00     0.000 A 
ATOM     25  C   UNL     1      -0.595   0.829   0.134  1.00  0.00     0.015 A 
ATOM     26  C   UNL     1      -1.595  -0.136   0.027  1.00  0.00     0.001 A 
ENDBRANCH  19  20
ENDBRANCH  18  19
ENDBRANCH  15  18
ENDBRANCH  10  14
ENDBRANCH   7   9
ENDBRANCH   6   7
ENDBRANCH   5   6
ENDBRANCH   4   5
ENDBRANCH   3   4
ENDBRANCH   2   3
ENDBRANCH   1   2
BRANCH   1  27
ATOM     27  O   UNL     1       2.918   7.824   0.437  1.00  0.00    -0.377 OA
BRANCH  27  28
ATOM     28  C   UNL     1       2.380   8.645  -0.590  1.00  0.00     0.188 C 
BRANCH  28  29
ATOM     29  C   UNL     1       2.961   8.519  -1.998  1.00  0.00     0.188 C 
BRANCH  29  30
ATOM     30  O   UNL     1       2.215   7.517  -2.684  1.00  0.00    -0.376 OA
BRANCH  30  31
ATOM     31  C   UNL     1       2.576   7.270  -4.037  1.00  0.00     0.202 C 
BRANCH  31  32
ATOM     32  C   UNL     1       2.242   8.439  -4.971  1.00  0.00     0.261 C 
BRANCH  32  33
ATOM     33  O   UNL     1       0.843   8.751  -4.831  1.00  0.00    -0.460 OA
BRANCH  33  34
ATOM     34  C   UNL     1       0.564   9.947  -4.251  1.00  0.00     0.338 C 
ATOM     35  O   UNL     1       1.161  10.992  -4.447  1.00  0.00    -0.246 OA
BRANCH  34  36
ATOM     36  C   UNL     1      -0.390   9.742  -3.124  1.00  0.00     0.060 A 
ATOM     37  C   UNL     1      -0.651  10.799  -2.235  1.00  0.00     0.016 A 
ATOM     38  C   UNL     1      -0.798   8.451  -2.796  1.00  0.00     0.016 A 
ATOM     39  C   UNL     1      -1.202  10.542  -0.971  1.00  0.00     0.010 A 
ATOM     40  C   UNL     1      -1.282   8.196  -1.525  1.00  0.00     0.010 A 
ATOM     41  C   UNL     1      -1.452   9.224  -0.582  1.00  0.00    -0.014 A 
BRANCH  41  42
ATOM     42  C   UNL     1      -1.659   8.783   0.813  1.00  0.00     0.031 A 
ATOM     43  C   UNL     1      -2.745   7.804   1.150  1.00  0.00     0.074 A 
ATOM     44  C   UNL     1      -0.638   8.988   1.684  1.00  0.00     0.049 A 
ATOM     45  N   UNL     1      -2.965   7.311   2.324  1.00  0.00    -0.248 NA
ATOM     46  C   UNL     1      -3.701   7.290   0.169  1.00  0.00     0.031 C 
ATOM     47  C   UNL     1      -0.297   8.175   2.847  1.00  0.00     0.029 A 
ATOM     48  N   UNL     1       0.378   9.928   1.683  1.00  0.00    -0.354 N 
ATOM     49  C   UNL     1      -3.756   6.186   2.181  1.00  0.00     0.074 A 
ATOM     50  C   UNL     1      -4.310   6.318   0.859  1.00  0.00     0.031 C 
ATOM     51  C   UNL     1       0.812   8.633   3.448  1.00  0.00     0.029 A 
ATOM     52  C   UNL     1       1.018   9.960   2.928  1.00  0.00     0.049 A 
ATOM     53  H   UNL     1       0.617  10.495   0.914  1.00  0.00     0.167 HD
ATOM     54  C   UNL     1      -3.699   5.199   3.132  1.00  0.00     0.037 A 
ATOM     55  C   UNL     1       0.869  11.058   3.732  1.00  0.00     0.037 A 
ATOM     56  C   UNL     1      -2.957   5.651   4.335  1.00  0.00     0.049 A 
ATOM     57  C   UNL     1      -0.062  10.778   4.908  1.00  0.00     0.074 A 
ATOM     58  C   UNL     1      -1.902   5.139   5.073  1.00  0.00     0.029 A 
ATOM     59  N   UNL     1      -3.169   6.938   4.848  1.00  0.00    -0.354 N 
ATOM     60  N   UNL     1      -0.954   9.813   4.894  1.00  0.00    -0.248 NA
ATOM     61  C   UNL     1       0.019  11.409   6.223  1.00  0.00     0.031 C 
ATOM     62  C   UNL     1      -1.368   6.188   5.878  1.00  0.00     0.029 A 
ATOM     63  C   UNL     1      -2.174   7.308   5.732  1.00  0.00     0.049 A 
ATOM     64  H   UNL     1      -3.933   7.510   4.606  1.00  0.00     0.167 HD
ATOM     65  C   UNL     1      -1.447   9.602   6.146  1.00  0.00     0.074 A 
ATOM     66  C   UNL     1      -0.857  10.671   6.936  1.00  0.00     0.031 C 
ATOM     67  C   UNL     1      -2.261   8.557   6.483  1.00  0.00     0.037 A 
BRANCH  54  68
ATOM     68  C   UNL     1      -4.098   3.725   2.902  1.00  0.00     0.057 A 
ATOM     69  C   UNL     1      -4.044   2.783   3.954  1.00  0.00     0.134 A 
ATOM     70  C   UNL     1      -4.435   3.138   1.660  1.00  0.00     0.134 A 
ATOM     71  F   UNL     1      -3.768   3.154   5.212  1.00  0.00    -0.206 F 
ATOM     72  C   UNL     1      -4.271   1.402   3.782  1.00  0.00     0.040 A 
ATOM     73  C   UNL     1      -4.739   1.773   1.490  1.00  0.00     0.040 A 
ATOM     74  F   UNL     1      -4.435   3.825   0.515  1.00  0.00    -0.206 F 
ATOM     75  C   UNL     1      -4.637   0.891   2.549  1.00  0.00     0.006 A 
ENDBRANCH  54  68
BRANCH  55  76
ATOM     76  C   UNL     1       1.210  12.302   2.976  1.00  0.00     0.057 A 
ATOM     77  C   UNL     1       2.575  12.398   2.629  1.00  0.00     0.134 A 
ATOM     78  C   UNL     1       0.298  12.870   2.074  1.00  0.00     0.134 A 
ATOM     79  F   UNL     1       3.510  11.909   3.460  1.00  0.00    -0.206 F 
ATOM     80  C   UNL     1       2.991  12.793   1.352  1.00  0.00     0.040 A 
ATOM     81  C   UNL     1       0.711  13.292   0.796  1.00  0.00     0.040 A 
ATOM     82  F   UNL     1      -1.018  12.839   2.323  1.00  0.00    -0.206 F 
ATOM     83  C   UNL     1       2.048  13.190   0.411  1.00  0.00     0.006 A 
ENDBRANCH  55  76
BRANCH  67  84
ATOM     84  C   UNL     1      -3.251   8.611   7.617  1.00  0.00     0.057 A 
ATOM     85  C   UNL     1      -3.860   9.809   8.013  1.00  0.00     0.134 A 
ATOM     86  C   UNL     1      -3.825   7.432   8.144  1.00  0.00     0.134 A 
ATOM     87  F   UNL     1      -3.467  10.992   7.521  1.00  0.00    -0.206 F 
ATOM     88  C   UNL     1      -4.955   9.837   8.882  1.00  0.00     0.040 A 
ATOM     89  C   UNL     1      -4.950   7.447   8.969  1.00  0.00     0.040 A 
ATOM     90  F   UNL     1      -3.352   6.214   7.845  1.00  0.00    -0.206 F 
ATOM     91  C   UNL     1      -5.518   8.654   9.344  1.00  0.00     0.006 A 
ENDBRANCH  67  84
ENDBRANCH  41  42
ENDBRANCH  34  36
ENDBRANCH  33  34
ENDBRANCH  32  33
ENDBRANCH  31  32
ENDBRANCH  30  31
ENDBRANCH  29  30
ENDBRANCH  28  29
ENDBRANCH  27  28
ENDBRANCH   1  27
TORSDOF 24
