REMARK SMILES CS(=O)(=O)c1ccc(C2=NN(c3ccc(C(=O)OCCOCCOCCOCCOC(=O)c4ccc(-c5c6nc(c(-c7c(F)cccc7F)c7ccc([nH]7)c(-c7c(F)cccc7F)c7nc(c(-c8c(F)cccc8F)c8ccc5[nH]8)C=C7)C=C6)cc4)cc3)[C@H](c3ccc(F)cc3)C2)cc1
REMARK SMILES IDX 23 1 22 2 21 3 20 4 19 5 18 6 16 7 17 8 15 9 12 10 13 11
REMARK SMILES IDX 88 12 14 13 87 14 11 15 9 16 10 17 97 18 89 19 8 20 5 21
REMARK SMILES IDX 6 22 99 23 7 24 98 25 2 26 1 27 3 28 4 29 90 30 91 31 96 32
REMARK SMILES IDX 92 33 95 34 93 35 94 36 24 37 25 38 26 39 27 40 28 41 29 42
REMARK SMILES IDX 30 43 31 44 32 45 33 46 34 47 86 48 35 49 85 50 36 51 37 52
REMARK SMILES IDX 38 53 79 54 39 55 84 56 78 57 80 58 40 59 83 60 77 61 76 62
REMARK SMILES IDX 41 64 67 65 50 66 66 67 51 68 54 69 65 70 81 71 52 72 53 73
REMARK SMILES IDX 64 75 82 76 55 77 42 78 43 79 48 80 44 81 45 82 47 83 49 84
REMARK SMILES IDX 46 85 68 86 69 87 74 88 70 89 71 90 73 91 75 92 72 93 56 94
REMARK SMILES IDX 57 95 62 96 58 97 59 98 61 99 63 100 60 101
REMARK H PARENT 80 63 54 74
REMARK Flexibility Score: inf
ROOT
ATOM      1  C   UNL     1       7.584   9.735  -7.287  1.00  0.00     0.188 C 
ENDROOT
BRANCH   1   2
ATOM      2  C   UNL     1       6.838  10.678  -8.252  1.00  0.00     0.188 C 
BRANCH   2   3
ATOM      3  O   UNL     1       7.654  11.718  -8.761  1.00  0.00    -0.376 OA
BRANCH   3   4
ATOM      4  C   UNL     1       7.571  13.028  -8.235  1.00  0.00     0.202 C 
BRANCH   4   5
ATOM      5  C   UNL     1       7.578  13.312  -6.724  1.00  0.00     0.261 C 
BRANCH   5   6
ATOM      6  O   UNL     1       6.985  12.327  -5.880  1.00  0.00    -0.460 OA
BRANCH   6   7
ATOM      7  C   UNL     1       5.639  12.303  -5.796  1.00  0.00     0.338 C 
ATOM      8  O   UNL     1       4.863  13.069  -6.340  1.00  0.00    -0.246 OA
BRANCH   7   9
ATOM      9  C   UNL     1       5.241  11.078  -5.056  1.00  0.00     0.060 A 
ATOM     10  C   UNL     1       4.350   8.873  -3.574  1.00  0.00     0.060 A 
ATOM     11  C   UNL     1       3.595   9.347  -4.653  1.00  0.00     0.029 A 
ATOM     12  C   UNL     1       5.625   9.410  -3.353  1.00  0.00     0.029 A 
ATOM     13  C   UNL     1       4.034  10.452  -5.389  1.00  0.00     0.018 A 
ATOM     14  C   UNL     1       6.063  10.522  -4.070  1.00  0.00     0.018 A 
BRANCH  10  15
ATOM     15  N   UNL     1       3.786   8.052  -2.590  1.00  0.00    -0.257 N 
ATOM     16  C   UNL     1       2.474   6.463  -2.053  1.00  0.00     0.071 C 
ATOM     17  N   UNL     1       3.421   6.777  -2.882  1.00  0.00    -0.176 NA
ATOM     18  C   UNL     1       1.977   7.574  -1.169  1.00  0.00     0.091 C 
ATOM     19  C   UNL     1       2.944   8.697  -1.563  1.00  0.00     0.144 C 
BRANCH  16  20
ATOM     20  C   UNL     1       1.925   5.099  -1.942  1.00  0.00    -0.002 A 
ATOM     21  C   UNL     1       0.980   2.491  -1.694  1.00  0.00     0.067 A 
ATOM     22  C   UNL     1       2.349   2.714  -1.870  1.00  0.00     0.021 A 
ATOM     23  C   UNL     1       0.080   3.562  -1.655  1.00  0.00     0.021 A 
ATOM     24  C   UNL     1       2.819   4.022  -1.998  1.00  0.00     0.011 A 
ATOM     25  C   UNL     1       0.556   4.873  -1.769  1.00  0.00     0.011 A 
BRANCH  21  26
ATOM     26  S   UNL     1       0.384   0.817  -1.594  1.00  0.00     0.175 S 
ATOM     27  C   UNL     1       0.985   0.237  -0.029  1.00  0.00     0.163 C 
ATOM     28  O   UNL     1       1.049   0.070  -2.643  1.00  0.00    -0.224 OA
ATOM     29  O   UNL     1      -1.063   0.871  -1.516  1.00  0.00    -0.224 OA
ENDBRANCH  21  26
ENDBRANCH  16  20
BRANCH  19  30
ATOM     30  C   UNL     1       3.811   9.328  -0.474  1.00  0.00    -0.023 A 
ATOM     31  C   UNL     1       4.141   8.693   0.732  1.00  0.00     0.009 A 
ATOM     32  C   UNL     1       4.393  10.591  -0.731  1.00  0.00     0.009 A 
ATOM     33  C   UNL     1       5.039   9.285   1.629  1.00  0.00     0.039 A 
ATOM     34  C   UNL     1       5.332  11.153   0.134  1.00  0.00     0.039 A 
ATOM     35  C   UNL     1       5.644  10.494   1.310  1.00  0.00     0.123 A 
ATOM     36  F   UNL     1       6.548  11.023   2.145  1.00  0.00    -0.207 F 
ENDBRANCH  19  30
ENDBRANCH  10  15
ENDBRANCH   7   9
ENDBRANCH   6   7
ENDBRANCH   5   6
ENDBRANCH   4   5
ENDBRANCH   3   4
ENDBRANCH   2   3
ENDBRANCH   1   2
BRANCH   1  37
ATOM     37  O   UNL     1       8.788  10.237  -6.728  1.00  0.00    -0.377 OA
BRANCH  37  38
ATOM     38  C   UNL     1       9.902  10.500  -7.582  1.00  0.00     0.188 C 
BRANCH  38  39
ATOM     39  C   UNL     1       9.903  10.185  -9.100  1.00  0.00     0.188 C 
BRANCH  39  40
ATOM     40  O   UNL     1       8.938   9.237  -9.522  1.00  0.00    -0.376 OA
BRANCH  40  41
ATOM     41  C   UNL     1       9.371   7.934  -9.866  1.00  0.00     0.202 C 
BRANCH  41  42
ATOM     42  C   UNL     1       9.991   7.088  -8.746  1.00  0.00     0.261 C 
BRANCH  42  43
ATOM     43  O   UNL     1      11.078   7.694  -8.030  1.00  0.00    -0.460 OA
BRANCH  43  44
ATOM     44  C   UNL     1      12.214   7.927  -8.717  1.00  0.00     0.338 C 
ATOM     45  O   UNL     1      12.435   7.673  -9.892  1.00  0.00    -0.246 OA
BRANCH  44  46
ATOM     46  C   UNL     1      13.110   8.715  -7.849  1.00  0.00     0.060 A 
ATOM     47  C   UNL     1      13.518   9.989  -8.265  1.00  0.00     0.016 A 
ATOM     48  C   UNL     1      13.542   8.195  -6.627  1.00  0.00     0.016 A 
ATOM     49  C   UNL     1      14.398  10.730  -7.476  1.00  0.00     0.010 A 
ATOM     50  C   UNL     1      14.438   8.929  -5.848  1.00  0.00     0.010 A 
ATOM     51  C   UNL     1      14.901  10.183  -6.288  1.00  0.00    -0.014 A 
BRANCH  51  52
ATOM     52  C   UNL     1      16.066  10.814  -5.622  1.00  0.00     0.031 A 
ATOM     53  C   UNL     1      17.432  10.243  -5.895  1.00  0.00     0.074 A 
ATOM     54  C   UNL     1      15.927  11.884  -4.820  1.00  0.00     0.049 A 
ATOM     55  N   UNL     1      18.591  10.579  -5.391  1.00  0.00    -0.248 NA
ATOM     56  C   UNL     1      17.495   9.141  -6.870  1.00  0.00     0.031 C 
ATOM     57  C   UNL     1      14.667  12.562  -4.519  1.00  0.00     0.029 A 
ATOM     58  N   UNL     1      16.866  12.585  -4.106  1.00  0.00    -0.354 N 
ATOM     59  C   UNL     1      19.519   9.734  -5.988  1.00  0.00     0.074 A 
ATOM     60  C   UNL     1      18.785   8.841  -6.857  1.00  0.00     0.031 C 
ATOM     61  C   UNL     1      14.912  13.579  -3.673  1.00  0.00     0.029 A 
ATOM     62  C   UNL     1      16.337  13.600  -3.345  1.00  0.00     0.049 A 
ATOM     63  H   UNL     1      17.829  12.380  -4.135  1.00  0.00     0.167 HD
ATOM     64  C   UNL     1      20.864   9.713  -5.840  1.00  0.00     0.037 A 
ATOM     65  C   UNL     1      16.936  14.430  -2.469  1.00  0.00     0.037 A 
ATOM     66  C   UNL     1      21.593  10.594  -4.967  1.00  0.00     0.049 A 
ATOM     67  C   UNL     1      18.423  14.313  -2.240  1.00  0.00     0.074 A 
ATOM     68  C   UNL     1      22.956  10.643  -4.733  1.00  0.00     0.029 A 
ATOM     69  N   UNL     1      21.015  11.581  -4.182  1.00  0.00    -0.354 N 
ATOM     70  N   UNL     1      19.293  13.518  -2.814  1.00  0.00    -0.248 NA
ATOM     71  C   UNL     1      19.011  15.216  -1.238  1.00  0.00     0.031 C 
ATOM     72  C   UNL     1      23.198  11.625  -3.768  1.00  0.00     0.029 A 
ATOM     73  C   UNL     1      21.993  12.232  -3.449  1.00  0.00     0.049 A 
ATOM     74  H   UNL     1      20.053  11.787  -4.151  1.00  0.00     0.167 HD
ATOM     75  C   UNL     1      20.532  13.856  -2.280  1.00  0.00     0.074 A 
ATOM     76  C   UNL     1      20.302  14.934  -1.343  1.00  0.00     0.031 C 
ATOM     77  C   UNL     1      21.752  13.323  -2.541  1.00  0.00     0.037 A 
BRANCH  64  78
ATOM     78  C   UNL     1      21.632   8.692  -6.628  1.00  0.00     0.057 A 
ATOM     79  C   UNL     1      21.775   8.789  -8.019  1.00  0.00     0.134 A 
ATOM     80  C   UNL     1      22.265   7.620  -5.987  1.00  0.00     0.134 A 
ATOM     81  F   UNL     1      21.180   9.781  -8.697  1.00  0.00    -0.206 F 
ATOM     82  C   UNL     1      22.504   7.845  -8.745  1.00  0.00     0.040 A 
ATOM     83  C   UNL     1      23.021   6.687  -6.698  1.00  0.00     0.040 A 
ATOM     84  F   UNL     1      22.171   7.469  -4.657  1.00  0.00    -0.206 F 
ATOM     85  C   UNL     1      23.137   6.795  -8.082  1.00  0.00     0.006 A 
ENDBRANCH  64  78
BRANCH  65  86
ATOM     86  C   UNL     1      16.144  15.442  -1.720  1.00  0.00     0.057 A 
ATOM     87  C   UNL     1      16.357  16.814  -1.908  1.00  0.00     0.134 A 
ATOM     88  C   UNL     1      15.207  15.066  -0.750  1.00  0.00     0.134 A 
ATOM     89  F   UNL     1      17.260  17.241  -2.803  1.00  0.00    -0.206 F 
ATOM     90  C   UNL     1      15.695  17.771  -1.136  1.00  0.00     0.040 A 
ATOM     91  C   UNL     1      14.514  16.013   0.006  1.00  0.00     0.040 A 
ATOM     92  F   UNL     1      14.955  13.770  -0.518  1.00  0.00    -0.206 F 
ATOM     93  C   UNL     1      14.768  17.371  -0.177  1.00  0.00     0.006 A 
ENDBRANCH  65  86
BRANCH  77  94
ATOM     94  C   UNL     1      22.940  13.943  -1.859  1.00  0.00     0.057 A 
ATOM     95  C   UNL     1      23.171  13.804  -0.485  1.00  0.00     0.134 A 
ATOM     96  C   UNL     1      23.888  14.658  -2.603  1.00  0.00     0.134 A 
ATOM     97  F   UNL     1      22.298  13.140   0.288  1.00  0.00    -0.206 F 
ATOM     98  C   UNL     1      24.284  14.381   0.130  1.00  0.00     0.040 A 
ATOM     99  C   UNL     1      25.022  15.210  -2.006  1.00  0.00     0.040 A 
ATOM    100  F   UNL     1      23.737  14.818  -3.927  1.00  0.00    -0.206 F 
ATOM    101  C   UNL     1      25.217  15.080  -0.634  1.00  0.00     0.006 A 
ENDBRANCH  77  94
ENDBRANCH  51  52
ENDBRANCH  44  46
ENDBRANCH  43  44
ENDBRANCH  42  43
ENDBRANCH  41  42
ENDBRANCH  40  41
ENDBRANCH  39  40
ENDBRANCH  38  39
ENDBRANCH  37  38
ENDBRANCH   1  37
TORSDOF 24
