REMARK SMILES C[C@]([NH3+])(C(=O)N1[C@@H](C(=O)OCCOCCOCCOCCOC(=O)c2ccc(-c3c4nc(c(-c5c(F)cccc5F)c5ccc([nH]5)c(-c5c(F)cccc5F)c5nc(c(-c6c(F)cccc6F)c6ccc3[nH]6)C=C5)C=C4)cc2)C[C@H]2CCCC[C@@H]21)C(F)(F)F
REMARK SMILES IDX 15 1 14 2 13 3 12 4 11 5 10 6 8 7 9 8 7 9 6 10 85 11 79 12
REMARK SMILES IDX 80 13 84 14 81 15 83 16 82 17 4 18 5 19 2 20 1 21 86 22
REMARK SMILES IDX 87 23 88 24 89 25 3 26 16 30 17 31 18 32 19 33 20 34 21 35
REMARK SMILES IDX 22 36 23 37 24 38 25 39 26 40 78 41 27 42 77 43 28 44 29 45
REMARK SMILES IDX 30 46 71 47 31 48 76 49 70 50 72 51 32 52 75 53 69 54 68 55
REMARK SMILES IDX 33 57 59 58 42 59 58 60 43 61 46 62 57 63 73 64 44 65 45 66
REMARK SMILES IDX 56 68 74 69 47 70 34 71 35 72 40 73 36 74 37 75 39 76 41 77
REMARK SMILES IDX 38 78 60 79 61 80 66 81 62 82 63 83 65 84 67 85 64 86 48 87
REMARK SMILES IDX 49 88 54 89 50 90 51 91 53 92 55 93 52 94
REMARK H PARENT 3 27 3 28 3 29 72 56 46 67
REMARK Flexibility Score: inf
ROOT
ATOM      1  C   UNL     1      -0.557  -2.567  -0.053  1.00  0.00     0.188 C 
ENDROOT
BRANCH   1   2
ATOM      2  C   UNL     1      -1.650  -2.038   0.899  1.00  0.00     0.188 C 
BRANCH   2   3
ATOM      3  O   UNL     1      -2.788  -2.825   1.224  1.00  0.00    -0.376 OA
BRANCH   3   4
ATOM      4  C   UNL     1      -3.358  -3.715   0.278  1.00  0.00     0.202 C 
BRANCH   4   5
ATOM      5  C   UNL     1      -3.749  -3.214  -1.123  1.00  0.00     0.261 C 
BRANCH   5   6
ATOM      6  O   UNL     1      -2.795  -2.350  -1.760  1.00  0.00    -0.462 OA
BRANCH   6   7
ATOM      7  C   UNL     1      -3.077  -1.018  -1.707  1.00  0.00     0.328 C 
ATOM      8  O   UNL     1      -4.131  -0.560  -1.290  1.00  0.00    -0.250 OA
BRANCH   7   9
ATOM      9  C   UNL     1      -1.915  -0.185  -2.329  1.00  0.00     0.196 C 
ATOM     10  N   UNL     1      -1.737   1.169  -1.750  1.00  0.00    -0.320 N 
ATOM     11  C   UNL     1      -2.798   1.960  -2.324  1.00  0.00     0.089 C 
ATOM     12  C   UNL     1      -2.330   0.081  -3.784  1.00  0.00     0.043 C 
ATOM     13  C   UNL     1      -2.659   1.572  -3.797  1.00  0.00     0.014 C 
ATOM     14  C   UNL     1      -2.801   3.470  -2.185  1.00  0.00     0.025 C 
ATOM     15  C   UNL     1      -3.891   1.995  -4.566  1.00  0.00     0.006 C 
ATOM     16  C   UNL     1      -3.991   4.019  -2.991  1.00  0.00     0.002 C 
ATOM     17  C   UNL     1      -4.034   3.516  -4.445  1.00  0.00     0.000 C 
BRANCH  10  18
ATOM     18  C   UNL     1      -1.282   1.408  -0.459  1.00  0.00     0.294 C 
ATOM     19  O   UNL     1      -2.068   1.448   0.483  1.00  0.00    -0.267 OA
BRANCH  18  20
ATOM     20  C   UNL     1       0.249   1.661  -0.290  1.00  0.00     0.267 C 
ATOM     21  C   UNL     1       0.766   2.635  -1.355  1.00  0.00     0.100 C 
BRANCH  20  22
ATOM     22  C   UNL     1       0.458   2.303   1.112  1.00  0.00     0.453 C 
ATOM     23  F   UNL     1       0.120   1.458   2.115  1.00  0.00    -0.164 F 
ATOM     24  F   UNL     1       1.772   2.607   1.304  1.00  0.00    -0.164 F 
ATOM     25  F   UNL     1      -0.226   3.457   1.268  1.00  0.00    -0.164 F 
ENDBRANCH  20  22
BRANCH  20  26
ATOM     26  N   UNL     1       1.018   0.384  -0.459  1.00  0.00    -0.337 N 
ATOM     27  H   UNL     1       0.704  -0.296   0.234  1.00  0.00     0.345 HD
ATOM     28  H   UNL     1       2.013   0.566  -0.329  1.00  0.00     0.345 HD
ATOM     29  H   UNL     1       0.859   0.013  -1.395  1.00  0.00     0.345 HD
ENDBRANCH  20  26
ENDBRANCH  18  20
ENDBRANCH  10  18
ENDBRANCH   7   9
ENDBRANCH   6   7
ENDBRANCH   5   6
ENDBRANCH   4   5
ENDBRANCH   3   4
ENDBRANCH   2   3
ENDBRANCH   1   2
BRANCH   1  30
ATOM     30  O   UNL     1      -0.794  -3.853  -0.583  1.00  0.00    -0.377 OA
BRANCH  30  31
ATOM     31  C   UNL     1      -0.051  -4.889   0.037  1.00  0.00     0.188 C 
BRANCH  31  32
ATOM     32  C   UNL     1      -0.042  -4.902   1.579  1.00  0.00     0.188 C 
BRANCH  32  33
ATOM     33  O   UNL     1       0.384  -3.671   2.158  1.00  0.00    -0.376 OA
BRANCH  33  34
ATOM     34  C   UNL     1       1.707  -3.573   2.665  1.00  0.00     0.202 C 
BRANCH  34  35
ATOM     35  C   UNL     1       2.829  -3.421   1.625  1.00  0.00     0.261 C 
BRANCH  35  36
ATOM     36  O   UNL     1       2.920  -4.460   0.641  1.00  0.00    -0.460 OA
BRANCH  36  37
ATOM     37  C   UNL     1       3.110  -5.722   1.081  1.00  0.00     0.338 C 
ATOM     38  O   UNL     1       3.270  -6.089   2.231  1.00  0.00    -0.246 OA
BRANCH  37  39
ATOM     39  C   UNL     1       2.884  -6.628  -0.063  1.00  0.00     0.060 A 
ATOM     40  C   UNL     1       1.888  -7.611   0.036  1.00  0.00     0.016 A 
ATOM     41  C   UNL     1       3.628  -6.485  -1.236  1.00  0.00     0.016 A 
ATOM     42  C   UNL     1       1.655  -8.479  -1.030  1.00  0.00     0.010 A 
ATOM     43  C   UNL     1       3.421  -7.377  -2.287  1.00  0.00     0.010 A 
ATOM     44  C   UNL     1       2.463  -8.400  -2.170  1.00  0.00    -0.014 A 
BRANCH  44  45
ATOM     45  C   UNL     1       2.526  -9.543  -3.108  1.00  0.00     0.031 A 
ATOM     46  C   UNL     1       3.593 -10.572  -2.864  1.00  0.00     0.074 A 
ATOM     47  C   UNL     1       1.692  -9.655  -4.154  1.00  0.00     0.049 A 
ATOM     48  N   UNL     1       3.965 -11.581  -3.605  1.00  0.00    -0.248 NA
ATOM     49  C   UNL     1       4.356 -10.428  -1.611  1.00  0.00     0.031 C 
ATOM     50  C   UNL     1       0.586  -8.752  -4.460  1.00  0.00     0.029 A 
ATOM     51  N   UNL     1       1.672 -10.576  -5.171  1.00  0.00    -0.354 N 
ATOM     52  C   UNL     1       5.016 -12.178  -2.920  1.00  0.00     0.074 A 
ATOM     53  C   UNL     1       5.239 -11.407  -1.718  1.00  0.00     0.031 C 
ATOM     54  C   UNL     1       0.010  -9.149  -5.609  1.00  0.00     0.029 A 
ATOM     55  C   UNL     1       0.735 -10.305  -6.136  1.00  0.00     0.049 A 
ATOM     56  H   UNL     1       2.272 -11.356  -5.205  1.00  0.00     0.167 HD
ATOM     57  C   UNL     1       5.735 -13.271  -3.264  1.00  0.00     0.037 A 
ATOM     58  C   UNL     1       0.518 -10.903  -7.324  1.00  0.00     0.037 A 
ATOM     59  C   UNL     1       5.514 -14.023  -4.468  1.00  0.00     0.049 A 
ATOM     60  C   UNL     1       1.380 -12.072  -7.729  1.00  0.00     0.074 A 
ATOM     61  C   UNL     1       6.178 -15.151  -4.914  1.00  0.00     0.029 A 
ATOM     62  N   UNL     1       4.560 -13.711  -5.426  1.00  0.00    -0.354 N 
ATOM     63  N   UNL     1       2.366 -12.640  -7.077  1.00  0.00    -0.248 NA
ATOM     64  C   UNL     1       1.099 -12.684  -9.037  1.00  0.00     0.031 C 
ATOM     65  C   UNL     1       5.663 -15.489  -6.169  1.00  0.00     0.029 A 
ATOM     66  C   UNL     1       4.633 -14.611  -6.474  1.00  0.00     0.049 A 
ATOM     67  H   UNL     1       3.926 -12.960  -5.369  1.00  0.00     0.167 HD
ATOM     68  C   UNL     1       2.796 -13.697  -7.872  1.00  0.00     0.074 A 
ATOM     69  C   UNL     1       1.965 -13.689  -9.058  1.00  0.00     0.031 C 
ATOM     70  C   UNL     1       3.782 -14.598  -7.637  1.00  0.00     0.037 A 
BRANCH  57  71
ATOM     71  C   UNL     1       6.852 -13.673  -2.347  1.00  0.00     0.057 A 
ATOM     72  C   UNL     1       6.616 -14.193  -1.067  1.00  0.00     0.134 A 
ATOM     73  C   UNL     1       8.186 -13.526  -2.748  1.00  0.00     0.134 A 
ATOM     74  F   UNL     1       5.362 -14.338  -0.613  1.00  0.00    -0.206 F 
ATOM     75  C   UNL     1       7.666 -14.519  -0.207  1.00  0.00     0.040 A 
ATOM     76  C   UNL     1       9.243 -13.879  -1.909  1.00  0.00     0.040 A 
ATOM     77  F   UNL     1       8.483 -13.033  -3.960  1.00  0.00    -0.206 F 
ATOM     78  C   UNL     1       8.985 -14.367  -0.630  1.00  0.00     0.006 A 
ENDBRANCH  57  71
BRANCH  58  79
ATOM     79  C   UNL     1      -0.547 -10.395  -8.225  1.00  0.00     0.057 A 
ATOM     80  C   UNL     1      -1.704 -11.142  -8.473  1.00  0.00     0.134 A 
ATOM     81  C   UNL     1      -0.434  -9.153  -8.863  1.00  0.00     0.134 A 
ATOM     82  F   UNL     1      -1.861 -12.350  -7.911  1.00  0.00    -0.206 F 
ATOM     83  C   UNL     1      -2.705 -10.679  -9.330  1.00  0.00     0.040 A 
ATOM     84  C   UNL     1      -1.438  -8.666  -9.702  1.00  0.00     0.040 A 
ATOM     85  F   UNL     1       0.649  -8.387  -8.668  1.00  0.00    -0.206 F 
ATOM     86  C   UNL     1      -2.576  -9.434  -9.941  1.00  0.00     0.006 A 
ENDBRANCH  58  79
BRANCH  70  87
ATOM     87  C   UNL     1       3.982 -15.694  -8.643  1.00  0.00     0.057 A 
ATOM     88  C   UNL     1       4.568 -15.463  -9.893  1.00  0.00     0.134 A 
ATOM     89  C   UNL     1       3.656 -17.018  -8.315  1.00  0.00     0.134 A 
ATOM     90  F   UNL     1       4.895 -14.219 -10.272  1.00  0.00    -0.206 F 
ATOM     91  C   UNL     1       4.812 -16.509 -10.786  1.00  0.00     0.040 A 
ATOM     92  C   UNL     1       3.922 -18.074  -9.187  1.00  0.00     0.040 A 
ATOM     93  F   UNL     1       3.103 -17.309  -7.128  1.00  0.00    -0.206 F 
ATOM     94  C   UNL     1       4.499 -17.819 -10.429  1.00  0.00     0.006 A 
ENDBRANCH  70  87
ENDBRANCH  44  45
ENDBRANCH  37  39
ENDBRANCH  36  37
ENDBRANCH  35  36
ENDBRANCH  34  35
ENDBRANCH  33  34
ENDBRANCH  32  33
ENDBRANCH  31  32
ENDBRANCH  30  31
ENDBRANCH   1  30
TORSDOF 24
