REMARK SMILES O=C(OCCOCCOCCOCCOC(=O)c1ccc(-n2cc(CSc3nc4ccccc4c(=O)n3-c3ccccc3)nn2)cc1)c1ccc(-c2c3nc(c(-c4c(F)cccc4F)c4ccc([nH]4)c(-c4c(F)cccc4F)c4nc(c(-c5c(F)cccc5F)c5ccc2[nH]5)C=C4)C=C3)cc1
REMARK SMILES IDX 10 1 9 2 8 3 7 4 6 5 5 6 4 7 3 8 2 9 1 10 48 11 49 12 101 13
REMARK SMILES IDX 50 14 100 15 51 16 52 17 53 18 94 19 54 20 99 21 93 22 95 23
REMARK SMILES IDX 55 24 98 25 92 26 91 27 56 29 82 30 65 31 81 32 66 33 69 34
REMARK SMILES IDX 80 35 96 36 67 37 68 38 79 40 97 41 70 42 57 43 58 44 63 45
REMARK SMILES IDX 59 46 60 47 62 48 64 49 61 50 83 51 84 52 89 53 85 54 86 55
REMARK SMILES IDX 88 56 90 57 87 58 71 59 72 60 77 61 73 62 74 63 76 64 78 65
REMARK SMILES IDX 75 66 11 67 12 68 13 69 14 70 15 71 16 72 17 73 18 74 19 75
REMARK SMILES IDX 47 76 20 77 46 78 21 79 22 80 23 81 45 82 24 83 44 84 25 85
REMARK SMILES IDX 26 86 27 87 28 88 37 89 29 90 35 91 30 92 34 93 36 94 31 95
REMARK SMILES IDX 33 96 32 97 38 98 39 99 43 100 40 101 42 102 41 103
REMARK H PARENT 95 28 69 39
REMARK Flexibility Score: inf
ROOT
ATOM      1  C   UNL     1       4.097   3.392   0.467  1.00  0.00     0.188 C 
ENDROOT
BRANCH   1   2
ATOM      2  O   UNL     1       2.791   3.097   0.907  1.00  0.00    -0.377 OA
BRANCH   2   3
ATOM      3  C   UNL     1       2.354   1.769   0.661  1.00  0.00     0.188 C 
BRANCH   3   4
ATOM      4  C   UNL     1       3.094   0.673   1.446  1.00  0.00     0.188 C 
BRANCH   4   5
ATOM      5  O   UNL     1       4.063  -0.190   0.849  1.00  0.00    -0.376 OA
BRANCH   5   6
ATOM      6  C   UNL     1       5.025   0.220  -0.094  1.00  0.00     0.202 C 
BRANCH   6   7
ATOM      7  C   UNL     1       4.643   0.017  -1.565  1.00  0.00     0.261 C 
BRANCH   7   8
ATOM      8  O   UNL     1       3.269   0.240  -1.905  1.00  0.00    -0.460 OA
BRANCH   8   9
ATOM      9  C   UNL     1       2.176  -0.503  -1.618  1.00  0.00     0.338 C 
ATOM     10  O   UNL     1       1.082  -0.125  -2.035  1.00  0.00    -0.246 OA
BRANCH   9  11
ATOM     11  C   UNL     1       2.191  -1.708  -0.748  1.00  0.00     0.060 A 
ATOM     12  C   UNL     1       3.290  -2.550  -0.569  1.00  0.00     0.016 A 
ATOM     13  C   UNL     1       0.968  -2.037  -0.129  1.00  0.00     0.016 A 
ATOM     14  C   UNL     1       3.157  -3.743   0.110  1.00  0.00     0.010 A 
ATOM     15  C   UNL     1       0.822  -3.238   0.544  1.00  0.00     0.010 A 
ATOM     16  C   UNL     1       1.901  -4.118   0.568  1.00  0.00    -0.014 A 
BRANCH  16  17
ATOM     17  C   UNL     1       1.744  -5.530   0.867  1.00  0.00     0.031 A 
ATOM     18  C   UNL     1       2.454  -6.052   2.063  1.00  0.00     0.074 A 
ATOM     19  C   UNL     1       0.992  -6.282   0.041  1.00  0.00     0.049 A 
ATOM     20  N   UNL     1       3.263  -7.060   2.148  1.00  0.00    -0.248 NA
ATOM     21  C   UNL     1       2.290  -5.305   3.320  1.00  0.00     0.031 C 
ATOM     22  C   UNL     1       0.100  -5.821  -1.033  1.00  0.00     0.029 A 
ATOM     23  N   UNL     1       0.777  -7.623   0.060  1.00  0.00    -0.354 N 
ATOM     24  C   UNL     1       3.567  -7.189   3.503  1.00  0.00     0.074 A 
ATOM     25  C   UNL     1       3.034  -6.024   4.159  1.00  0.00     0.031 C 
ATOM     26  C   UNL     1      -0.739  -6.821  -1.370  1.00  0.00     0.029 A 
ATOM     27  C   UNL     1      -0.355  -8.011  -0.635  1.00  0.00     0.049 A 
ATOM     28  H   UNL     1       1.370  -8.257   0.524  1.00  0.00     0.167 HD
ATOM     29  C   UNL     1       4.046  -8.350   4.027  1.00  0.00     0.037 A 
ATOM     30  C   UNL     1      -1.000  -9.194  -0.518  1.00  0.00     0.037 A 
ATOM     31  C   UNL     1       4.728  -9.144   3.043  1.00  0.00     0.049 A 
ATOM     32  C   UNL     1      -0.060 -10.164   0.093  1.00  0.00     0.074 A 
ATOM     33  C   UNL     1       5.840  -8.958   2.245  1.00  0.00     0.029 A 
ATOM     34  N   UNL     1       4.100 -10.255   2.539  1.00  0.00    -0.354 N 
ATOM     35  N   UNL     1       1.003 -10.629  -0.504  1.00  0.00    -0.248 NA
ATOM     36  C   UNL     1      -0.065 -10.292   1.543  1.00  0.00     0.031 C 
ATOM     37  C   UNL     1       5.553  -9.655   1.036  1.00  0.00     0.029 A 
ATOM     38  C   UNL     1       4.295 -10.238   1.183  1.00  0.00     0.049 A 
ATOM     39  H   UNL     1       3.606 -10.934   3.053  1.00  0.00     0.167 HD
ATOM     40  C   UNL     1       1.959 -10.733   0.498  1.00  0.00     0.074 A 
ATOM     41  C   UNL     1       1.216 -10.607   1.748  1.00  0.00     0.031 C 
ATOM     42  C   UNL     1       3.292 -10.632   0.222  1.00  0.00     0.037 A 
BRANCH  29  43
ATOM     43  C   UNL     1       3.579  -8.911   5.349  1.00  0.00     0.057 A 
ATOM     44  C   UNL     1       4.200 -10.056   5.879  1.00  0.00     0.134 A 
ATOM     45  C   UNL     1       2.360  -8.554   5.964  1.00  0.00     0.134 A 
ATOM     46  F   UNL     1       5.357 -10.509   5.372  1.00  0.00    -0.206 F 
ATOM     47  C   UNL     1       3.614 -10.829   6.889  1.00  0.00     0.040 A 
ATOM     48  C   UNL     1       1.790  -9.291   7.005  1.00  0.00     0.040 A 
ATOM     49  F   UNL     1       1.606  -7.537   5.529  1.00  0.00    -0.206 F 
ATOM     50  C   UNL     1       2.400 -10.452   7.449  1.00  0.00     0.006 A 
ENDBRANCH  29  43
BRANCH  30  51
ATOM     51  C   UNL     1      -2.465  -9.391  -0.571  1.00  0.00     0.057 A 
ATOM     52  C   UNL     1      -3.021 -10.653  -0.802  1.00  0.00     0.134 A 
ATOM     53  C   UNL     1      -3.364  -8.382  -0.173  1.00  0.00     0.134 A 
ATOM     54  F   UNL     1      -2.238 -11.690  -1.131  1.00  0.00    -0.206 F 
ATOM     55  C   UNL     1      -4.393 -10.896  -0.652  1.00  0.00     0.040 A 
ATOM     56  C   UNL     1      -4.735  -8.606  -0.035  1.00  0.00     0.040 A 
ATOM     57  F   UNL     1      -2.931  -7.161   0.176  1.00  0.00    -0.206 F 
ATOM     58  C   UNL     1      -5.254  -9.872  -0.265  1.00  0.00     0.006 A 
ENDBRANCH  30  51
BRANCH  42  59
ATOM     59  C   UNL     1       3.710 -10.630  -1.222  1.00  0.00     0.057 A 
ATOM     60  C   UNL     1       3.384  -9.598  -2.114  1.00  0.00     0.134 A 
ATOM     61  C   UNL     1       4.603 -11.604  -1.680  1.00  0.00     0.134 A 
ATOM     62  F   UNL     1       2.629  -8.563  -1.726  1.00  0.00    -0.206 F 
ATOM     63  C   UNL     1       3.883  -9.563  -3.418  1.00  0.00     0.040 A 
ATOM     64  C   UNL     1       5.135 -11.564  -2.972  1.00  0.00     0.040 A 
ATOM     65  F   UNL     1       5.016 -12.583  -0.860  1.00  0.00    -0.206 F 
ATOM     66  C   UNL     1       4.767 -10.547  -3.850  1.00  0.00     0.006 A 
ENDBRANCH  42  59
ENDBRANCH  16  17
ENDBRANCH   9  11
ENDBRANCH   8   9
ENDBRANCH   7   8
ENDBRANCH   6   7
ENDBRANCH   5   6
ENDBRANCH   4   5
ENDBRANCH   3   4
ENDBRANCH   2   3
ENDBRANCH   1   2
BRANCH   1  67
ATOM     67  C   UNL     1       5.160   3.404   1.588  1.00  0.00     0.188 C 
BRANCH  67  68
ATOM     68  O   UNL     1       4.788   3.261   2.953  1.00  0.00    -0.376 OA
BRANCH  68  69
ATOM     69  C   UNL     1       3.596   3.861   3.439  1.00  0.00     0.202 C 
BRANCH  69  70
ATOM     70  C   UNL     1       3.397   5.375   3.281  1.00  0.00     0.261 C 
BRANCH  70  71
ATOM     71  O   UNL     1       3.616   5.886   1.959  1.00  0.00    -0.460 OA
BRANCH  71  72
ATOM     72  C   UNL     1       4.763   6.598   1.774  1.00  0.00     0.338 C 
ATOM     73  O   UNL     1       5.597   6.878   2.600  1.00  0.00    -0.246 OA
BRANCH  72  74
ATOM     74  C   UNL     1       4.949   6.814   0.315  1.00  0.00     0.060 A 
ATOM     75  C   UNL     1       6.180   6.461  -0.262  1.00  0.00     0.018 A 
ATOM     76  C   UNL     1       3.909   7.290  -0.483  1.00  0.00     0.018 A 
ATOM     77  C   UNL     1       6.382   6.599  -1.639  1.00  0.00     0.029 A 
ATOM     78  C   UNL     1       4.100   7.410  -1.861  1.00  0.00     0.029 A 
ATOM     79  C   UNL     1       5.341   7.082  -2.438  1.00  0.00     0.066 A 
BRANCH  79  80
ATOM     80  N   UNL     1       5.542   7.360  -3.811  1.00  0.00    -0.220 N 
ATOM     81  C   UNL     1       6.700   7.817  -4.423  1.00  0.00     0.141 A 
ATOM     82  N   UNL     1       4.511   7.460  -4.672  1.00  0.00    -0.062 NA
ATOM     83  C   UNL     1       6.234   8.533  -5.505  1.00  0.00     0.093 A 
ATOM     84  N   UNL     1       4.920   8.164  -5.710  1.00  0.00    -0.134 NA
BRANCH  83  85
ATOM     85  C   UNL     1       6.684   9.683  -6.327  1.00  0.00     0.138 C 
BRANCH  85  86
ATOM     86  S   UNL     1       8.280  10.422  -6.524  1.00  0.00    -0.081 SA
BRANCH  86  87
ATOM     87  C   UNL     1       9.519   9.827  -5.475  1.00  0.00     0.176 A 
ATOM     88  N   UNL     1      10.621   9.640  -6.140  1.00  0.00    -0.223 NA
ATOM     89  N   UNL     1       9.428   9.604  -4.106  1.00  0.00    -0.255 N 
ATOM     90  C   UNL     1      11.735   9.126  -5.482  1.00  0.00     0.079 A 
ATOM     91  C   UNL     1      10.264   8.572  -3.643  1.00  0.00     0.266 A 
ATOM     92  C   UNL     1      12.998   9.182  -6.071  1.00  0.00     0.029 A 
ATOM     93  C   UNL     1      11.584   8.462  -4.279  1.00  0.00     0.066 A 
ATOM     94  O   UNL     1       9.966   7.716  -2.811  1.00  0.00    -0.268 OA
ATOM     95  C   UNL     1      14.080   8.522  -5.479  1.00  0.00     0.002 A 
ATOM     96  C   UNL     1      12.641   7.757  -3.697  1.00  0.00     0.016 A 
ATOM     97  C   UNL     1      13.893   7.784  -4.308  1.00  0.00     0.001 A 
BRANCH  89  98
ATOM     98  C   UNL     1       8.520  10.237  -3.154  1.00  0.00     0.051 A 
ATOM     99  C   UNL     1       8.610   9.935  -1.778  1.00  0.00     0.027 A 
ATOM    100  C   UNL     1       7.550  11.190  -3.489  1.00  0.00     0.027 A 
ATOM    101  C   UNL     1       7.683  10.402  -0.839  1.00  0.00     0.002 A 
ATOM    102  C   UNL     1       6.589  11.631  -2.565  1.00  0.00     0.002 A 
ATOM    103  C   UNL     1       6.639  11.214  -1.244  1.00  0.00     0.000 A 
ENDBRANCH  89  98
ENDBRANCH  86  87
ENDBRANCH  85  86
ENDBRANCH  83  85
ENDBRANCH  79  80
ENDBRANCH  72  74
ENDBRANCH  71  72
ENDBRANCH  70  71
ENDBRANCH  69  70
ENDBRANCH  68  69
ENDBRANCH  67  68
ENDBRANCH   1  67
TORSDOF 25
