REMARK SMILES Cc1c(Cc2nc(C(C)(C)C)cs2)cccc1C(=O)OCCOCCOCCOCCOC(=O)c1ccc(-c2c3nc(c(-c4c(F)cccc4F)c4ccc([nH]4)c(-c4c(F)cccc4F)c4nc(c(-c5c(F)cccc5F)c5ccc2[nH]5)C=C4)C=C3)cc1
REMARK SMILES IDX 25 1 24 2 23 3 22 4 21 5 20 6 18 7 19 8 17 9 1 10 2 11 3 12
REMARK SMILES IDX 14 13 16 14 15 15 4 16 5 17 6 18 13 19 7 20 12 21 8 22 9 23
REMARK SMILES IDX 10 24 11 25 26 26 27 27 28 28 29 29 30 30 31 31 32 32 33 33
REMARK SMILES IDX 34 34 35 35 36 36 88 37 37 38 87 39 38 40 39 41 40 42 81 43
REMARK SMILES IDX 41 44 86 45 80 46 82 47 42 48 85 49 79 50 78 51 43 53 69 54
REMARK SMILES IDX 52 55 68 56 53 57 56 58 67 59 83 60 54 61 55 62 66 64 84 65
REMARK SMILES IDX 57 66 44 67 45 68 50 69 46 70 47 71 49 72 51 73 48 74 70 75
REMARK SMILES IDX 71 76 76 77 72 78 73 79 75 80 77 81 74 82 58 83 59 84 64 85
REMARK SMILES IDX 60 86 61 87 63 88 65 89 62 90
REMARK H PARENT 82 52 56 63
REMARK Flexibility Score: inf
ROOT
ATOM      1  C   UNL     1      -0.243   1.342  -2.982  1.00  0.00     0.188 C 
ENDROOT
BRANCH   1   2
ATOM      2  C   UNL     1      -1.072   2.322  -2.132  1.00  0.00     0.188 C 
BRANCH   2   3
ATOM      3  O   UNL     1      -0.703   3.686  -2.025  1.00  0.00    -0.376 OA
BRANCH   3   4
ATOM      4  C   UNL     1       0.118   4.043  -0.917  1.00  0.00     0.202 C 
BRANCH   4   5
ATOM      5  C   UNL     1      -0.343   3.676   0.487  1.00  0.00     0.261 C 
BRANCH   5   6
ATOM      6  O   UNL     1      -0.094   2.288   0.696  1.00  0.00    -0.460 OA
BRANCH   6   7
ATOM      7  C   UNL     1      -1.048   1.635   1.382  1.00  0.00     0.338 C 
ATOM      8  O   UNL     1      -1.846   2.123   2.153  1.00  0.00    -0.246 OA
BRANCH   7   9
ATOM      9  C   UNL     1      -1.222   0.296   0.749  1.00  0.00     0.063 A 
ATOM     10  C   UNL     1       1.256  -0.219   0.282  1.00  0.00     0.045 C 
ATOM     11  C   UNL     1      -0.204  -0.571   0.288  1.00  0.00    -0.033 A 
ATOM     12  C   UNL     1      -0.588  -1.843  -0.190  1.00  0.00    -0.037 A 
ATOM     13  C   UNL     1      -1.952  -2.124  -0.409  1.00  0.00     0.004 A 
ATOM     14  C   UNL     1      -2.574  -0.014   0.522  1.00  0.00     0.016 A 
ATOM     15  C   UNL     1      -2.937  -1.198  -0.095  1.00  0.00     0.001 A 
BRANCH  12  16
ATOM     16  C   UNL     1       0.393  -3.013  -0.236  1.00  0.00     0.103 C 
BRANCH  16  17
ATOM     17  C   UNL     1       0.320  -3.734   1.080  1.00  0.00     0.097 A 
ATOM     18  N   UNL     1      -0.772  -4.349   1.473  1.00  0.00    -0.245 NA
ATOM     19  S   UNL     1       1.562  -3.644   2.258  1.00  0.00    -0.127 S 
ATOM     20  C   UNL     1      -0.752  -4.552   2.837  1.00  0.00     0.057 A 
ATOM     21  C   UNL     1       0.479  -4.304   3.420  1.00  0.00     0.091 A 
BRANCH  20  22
ATOM     22  C   UNL     1      -2.042  -5.009   3.494  1.00  0.00     0.005 C 
ATOM     23  C   UNL     1      -1.938  -6.500   3.845  1.00  0.00     0.017 C 
ATOM     24  C   UNL     1      -2.335  -4.189   4.764  1.00  0.00     0.017 C 
ATOM     25  C   UNL     1      -3.240  -4.810   2.534  1.00  0.00     0.017 C 
ENDBRANCH  20  22
ENDBRANCH  16  17
ENDBRANCH  12  16
ENDBRANCH   7   9
ENDBRANCH   6   7
ENDBRANCH   5   6
ENDBRANCH   4   5
ENDBRANCH   3   4
ENDBRANCH   2   3
ENDBRANCH   1   2
BRANCH   1  26
ATOM     26  O   UNL     1       1.081   0.998  -2.604  1.00  0.00    -0.377 OA
BRANCH  26  27
ATOM     27  C   UNL     1       2.144   1.861  -2.988  1.00  0.00     0.188 C 
BRANCH  27  28
ATOM     28  C   UNL     1       2.084   2.482  -4.379  1.00  0.00     0.188 C 
BRANCH  28  29
ATOM     29  O   UNL     1       1.125   3.536  -4.382  1.00  0.00    -0.376 OA
BRANCH  29  30
ATOM     30  C   UNL     1       0.411   3.733  -5.600  1.00  0.00     0.202 C 
BRANCH  30  31
ATOM     31  C   UNL     1       1.304   4.050  -6.806  1.00  0.00     0.261 C 
BRANCH  31  32
ATOM     32  O   UNL     1       1.978   5.305  -6.595  1.00  0.00    -0.460 OA
BRANCH  32  33
ATOM     33  C   UNL     1       3.283   5.208  -6.225  1.00  0.00     0.338 C 
ATOM     34  O   UNL     1       4.127   4.519  -6.775  1.00  0.00    -0.246 OA
BRANCH  33  35
ATOM     35  C   UNL     1       3.469   5.809  -4.872  1.00  0.00     0.060 A 
ATOM     36  C   UNL     1       4.689   5.641  -4.196  1.00  0.00     0.016 A 
ATOM     37  C   UNL     1       2.338   6.184  -4.161  1.00  0.00     0.016 A 
ATOM     38  C   UNL     1       4.721   5.641  -2.793  1.00  0.00     0.010 A 
ATOM     39  C   UNL     1       2.358   6.065  -2.789  1.00  0.00     0.010 A 
ATOM     40  C   UNL     1       3.525   5.736  -2.086  1.00  0.00    -0.014 A 
BRANCH  40  41
ATOM     41  C   UNL     1       3.329   5.363  -0.671  1.00  0.00     0.031 A 
ATOM     42  C   UNL     1       2.536   6.280   0.216  1.00  0.00     0.074 A 
ATOM     43  C   UNL     1       3.524   4.066  -0.309  1.00  0.00     0.049 A 
ATOM     44  N   UNL     1       2.134   5.985   1.403  1.00  0.00    -0.248 NA
ATOM     45  C   UNL     1       2.058   7.603  -0.186  1.00  0.00     0.031 C 
ATOM     46  C   UNL     1       2.918   3.364   0.823  1.00  0.00     0.029 A 
ATOM     47  N   UNL     1       4.246   3.041  -0.897  1.00  0.00    -0.354 N 
ATOM     48  C   UNL     1       1.123   6.846   1.772  1.00  0.00     0.074 A 
ATOM     49  C   UNL     1       1.175   7.889   0.781  1.00  0.00     0.031 C 
ATOM     50  C   UNL     1       3.397   2.118   0.936  1.00  0.00     0.029 A 
ATOM     51  C   UNL     1       4.521   2.049   0.048  1.00  0.00     0.049 A 
ATOM     52  H   UNL     1       4.523   3.014  -1.841  1.00  0.00     0.167 HD
ATOM     53  C   UNL     1       0.304   6.485   2.809  1.00  0.00     0.037 A 
ATOM     54  C   UNL     1       5.780   1.827   0.531  1.00  0.00     0.037 A 
ATOM     55  C   UNL     1       0.838   5.296   3.512  1.00  0.00     0.049 A 
ATOM     56  C   UNL     1       5.823   2.289   1.996  1.00  0.00     0.074 A 
ATOM     57  C   UNL     1       0.339   4.050   3.853  1.00  0.00     0.029 A 
ATOM     58  N   UNL     1       2.204   5.242   3.812  1.00  0.00    -0.354 N 
ATOM     59  N   UNL     1       5.130   3.314   2.458  1.00  0.00    -0.248 NA
ATOM     60  C   UNL     1       6.334   1.441   3.076  1.00  0.00     0.031 C 
ATOM     61  C   UNL     1       1.450   3.204   4.170  1.00  0.00     0.029 A 
ATOM     62  C   UNL     1       2.617   3.961   4.122  1.00  0.00     0.049 A 
ATOM     63  H   UNL     1       2.801   6.026   3.804  1.00  0.00     0.167 HD
ATOM     64  C   UNL     1       4.935   3.152   3.812  1.00  0.00     0.074 A 
ATOM     65  C   UNL     1       5.764   2.003   4.159  1.00  0.00     0.031 C 
ATOM     66  C   UNL     1       3.973   3.727   4.605  1.00  0.00     0.037 A 
BRANCH  53  67
ATOM     67  C   UNL     1      -1.071   7.084   3.121  1.00  0.00     0.057 A 
ATOM     68  C   UNL     1      -1.763   6.727   4.300  1.00  0.00     0.134 A 
ATOM     69  C   UNL     1      -1.817   7.932   2.272  1.00  0.00     0.134 A 
ATOM     70  F   UNL     1      -1.202   5.936   5.225  1.00  0.00    -0.206 F 
ATOM     71  C   UNL     1      -3.069   7.159   4.599  1.00  0.00     0.040 A 
ATOM     72  C   UNL     1      -3.102   8.417   2.587  1.00  0.00     0.040 A 
ATOM     73  F   UNL     1      -1.373   8.303   1.067  1.00  0.00    -0.206 F 
ATOM     74  C   UNL     1      -3.741   8.020   3.748  1.00  0.00     0.006 A 
ENDBRANCH  53  67
BRANCH  54  75
ATOM     75  C   UNL     1       6.766   1.806  -0.594  1.00  0.00     0.057 A 
ATOM     76  C   UNL     1       6.578   0.719  -1.483  1.00  0.00     0.134 A 
ATOM     77  C   UNL     1       7.230   2.997  -1.168  1.00  0.00     0.134 A 
ATOM     78  F   UNL     1       6.185  -0.473  -1.004  1.00  0.00    -0.206 F 
ATOM     79  C   UNL     1       6.554   0.891  -2.873  1.00  0.00     0.040 A 
ATOM     80  C   UNL     1       7.251   3.164  -2.566  1.00  0.00     0.040 A 
ATOM     81  F   UNL     1       7.447   4.080  -0.409  1.00  0.00    -0.206 F 
ATOM     82  C   UNL     1       6.832   2.139  -3.416  1.00  0.00     0.006 A 
ENDBRANCH  54  75
BRANCH  66  83
ATOM     83  C   UNL     1       4.295   4.204   6.007  1.00  0.00     0.057 A 
ATOM     84  C   UNL     1       5.608   4.340   6.478  1.00  0.00     0.134 A 
ATOM     85  C   UNL     1       3.299   4.774   6.838  1.00  0.00     0.134 A 
ATOM     86  F   UNL     1       6.662   3.921   5.764  1.00  0.00    -0.206 F 
ATOM     87  C   UNL     1       5.907   4.968   7.690  1.00  0.00     0.040 A 
ATOM     88  C   UNL     1       3.593   5.452   8.021  1.00  0.00     0.040 A 
ATOM     89  F   UNL     1       1.996   4.748   6.526  1.00  0.00    -0.206 F 
ATOM     90  C   UNL     1       4.902   5.542   8.457  1.00  0.00     0.006 A 
ENDBRANCH  66  83
ENDBRANCH  40  41
ENDBRANCH  33  35
ENDBRANCH  32  33
ENDBRANCH  31  32
ENDBRANCH  30  31
ENDBRANCH  29  30
ENDBRANCH  28  29
ENDBRANCH  27  28
ENDBRANCH  26  27
ENDBRANCH   1  26
TORSDOF 23
