REMARK SMILES Cc1ccccc1C(=O)Nc1ccc(N2CCCCC2)cc1C(=O)OCCOCCOCCOCCOC(=O)c1ccc(-c2c3nc(c(-c4c(F)cccc4F)c4ccc([nH]4)c(-c4c(F)cccc4F)c4nc(c(-c5c(F)cccc5F)c5ccc2[nH]5)C=C4)C=C3)cc1
REMARK SMILES IDX 31 1 30 2 29 3 28 4 27 5 26 6 25 7 23 8 24 9 22 10 11 11
REMARK SMILES IDX 12 12 13 13 21 14 14 15 10 16 8 17 9 18 7 20 1 21 2 22 3 23
REMARK SMILES IDX 4 24 6 25 5 26 15 27 16 28 20 29 17 30 19 31 18 32 32 33
REMARK SMILES IDX 33 34 34 35 35 36 36 37 37 38 38 39 39 40 40 41 41 42 93 43
REMARK SMILES IDX 42 44 92 45 43 46 44 47 45 48 86 49 46 50 91 51 85 52 87 53
REMARK SMILES IDX 47 54 90 55 84 56 83 57 48 59 74 60 57 61 73 62 58 63 61 64
REMARK SMILES IDX 72 65 88 66 59 67 60 68 71 70 89 71 62 72 49 73 50 74 55 75
REMARK SMILES IDX 51 76 52 77 54 78 56 79 53 80 75 81 76 82 81 83 77 84 78 85
REMARK SMILES IDX 80 86 82 87 79 88 63 89 64 90 69 91 65 92 66 93 68 94 70 95
REMARK SMILES IDX 67 96
REMARK H PARENT 10 19 87 58 61 69
REMARK Flexibility Score: inf
ROOT
ATOM      1  O   UNL     1      -0.083  -0.592  -0.029  1.00  0.00    -0.377 OA
ENDROOT
BRANCH   1   2
ATOM      2  C   UNL     1      -0.546   0.762  -0.165  1.00  0.00     0.188 C 
BRANCH   2   3
ATOM      3  C   UNL     1       0.632   1.726  -0.045  1.00  0.00     0.188 C 
BRANCH   3   4
ATOM      4  O   UNL     1       0.728   2.876  -0.859  1.00  0.00    -0.376 OA
BRANCH   4   5
ATOM      5  C   UNL     1       0.906   2.608  -2.225  1.00  0.00     0.202 C 
BRANCH   5   6
ATOM      6  C   UNL     1       2.272   2.140  -2.753  1.00  0.00     0.261 C 
BRANCH   6   7
ATOM      7  O   UNL     1       3.115   1.395  -1.891  1.00  0.00    -0.460 OA
BRANCH   7   8
ATOM      8  C   UNL     1       4.106   2.148  -1.373  1.00  0.00     0.340 C 
ATOM      9  O   UNL     1       4.278   3.357  -1.476  1.00  0.00    -0.246 OA
BRANCH   8  10
ATOM     10  C   UNL     1       4.853   1.332  -0.432  1.00  0.00     0.085 A 
ATOM     11  C   UNL     1       4.595   1.528   0.928  1.00  0.00     0.056 A 
ATOM     12  C   UNL     1       5.347   0.850   1.861  1.00  0.00     0.029 A 
ATOM     13  C   UNL     1       6.118  -0.221   1.435  1.00  0.00     0.028 A 
ATOM     14  C   UNL     1       5.536   0.185  -0.856  1.00  0.00     0.043 A 
ATOM     15  C   UNL     1       6.031  -0.697   0.111  1.00  0.00     0.038 A 
BRANCH  11  16
ATOM     16  N   UNL     1       3.493   2.278   1.334  1.00  0.00    -0.321 N 
ATOM     17  C   UNL     1       2.529   1.984   2.278  1.00  0.00     0.255 C 
ATOM     18  O   UNL     1       2.000   2.968   2.814  1.00  0.00    -0.269 OA
ATOM     19  H   UNL     1       3.386   3.145   0.882  1.00  0.00     0.170 HD
BRANCH  17  20
ATOM     20  C   UNL     1       1.894   0.594   2.539  1.00  0.00     0.043 A 
ATOM     21  C   UNL     1       2.908  -1.061   0.785  1.00  0.00     0.045 C 
ATOM     22  C   UNL     1       2.118  -0.693   1.996  1.00  0.00    -0.038 A 
ATOM     23  C   UNL     1       1.410  -1.822   2.484  1.00  0.00     0.004 A 
ATOM     24  C   UNL     1       0.300  -1.681   3.291  1.00  0.00     0.000 A 
ATOM     25  C   UNL     1       0.704   0.693   3.309  1.00  0.00     0.014 A 
ATOM     26  C   UNL     1      -0.100  -0.407   3.637  1.00  0.00     0.001 A 
ENDBRANCH  17  20
ENDBRANCH  11  16
BRANCH  15  27
ATOM     27  N   UNL     1       6.211  -2.043  -0.137  1.00  0.00    -0.372 N 
ATOM     28  C   UNL     1       5.880  -3.046   0.887  1.00  0.00     0.116 C 
ATOM     29  C   UNL     1       6.568  -2.615  -1.426  1.00  0.00     0.116 C 
ATOM     30  C   UNL     1       7.132  -3.846   1.196  1.00  0.00     0.021 C 
ATOM     31  C   UNL     1       7.876  -3.374  -1.201  1.00  0.00     0.021 C 
ATOM     32  C   UNL     1       7.742  -4.420  -0.084  1.00  0.00     0.004 C 
ENDBRANCH  15  27
ENDBRANCH   8  10
ENDBRANCH   7   8
ENDBRANCH   6   7
ENDBRANCH   5   6
ENDBRANCH   4   5
ENDBRANCH   3   4
ENDBRANCH   2   3
ENDBRANCH   1   2
BRANCH   1  33
ATOM     33  C   UNL     1      -1.052  -1.614  -0.265  1.00  0.00     0.188 C 
BRANCH  33  34
ATOM     34  C   UNL     1      -2.183  -1.682   0.753  1.00  0.00     0.188 C 
BRANCH  34  35
ATOM     35  O   UNL     1      -2.864  -0.436   0.750  1.00  0.00    -0.376 OA
BRANCH  35  36
ATOM     36  C   UNL     1      -3.716  -0.183   1.856  1.00  0.00     0.202 C 
BRANCH  36  37
ATOM     37  C   UNL     1      -4.944  -1.091   1.827  1.00  0.00     0.261 C 
BRANCH  37  38
ATOM     38  O   UNL     1      -5.647  -0.847   0.587  1.00  0.00    -0.460 OA
BRANCH  38  39
ATOM     39  C   UNL     1      -5.459  -1.786  -0.380  1.00  0.00     0.338 C 
ATOM     40  O   UNL     1      -5.551  -2.993  -0.213  1.00  0.00    -0.246 OA
BRANCH  39  41
ATOM     41  C   UNL     1      -4.852  -1.178  -1.607  1.00  0.00     0.060 A 
ATOM     42  C   UNL     1      -4.447  -2.005  -2.668  1.00  0.00     0.016 A 
ATOM     43  C   UNL     1      -4.396   0.134  -1.567  1.00  0.00     0.016 A 
ATOM     44  C   UNL     1      -3.467  -1.572  -3.584  1.00  0.00     0.010 A 
ATOM     45  C   UNL     1      -3.362   0.517  -2.411  1.00  0.00     0.010 A 
ATOM     46  C   UNL     1      -2.843  -0.333  -3.406  1.00  0.00    -0.014 A 
BRANCH  46  47
ATOM     47  C   UNL     1      -1.519   0.059  -3.990  1.00  0.00     0.031 A 
ATOM     48  C   UNL     1      -1.286   1.499  -4.463  1.00  0.00     0.074 A 
ATOM     49  C   UNL     1      -0.489  -0.762  -3.643  1.00  0.00     0.049 A 
ATOM     50  N   UNL     1      -0.190   2.014  -4.946  1.00  0.00    -0.248 NA
ATOM     51  C   UNL     1      -2.370   2.490  -4.470  1.00  0.00     0.031 C 
ATOM     52  C   UNL     1       0.786  -0.429  -3.046  1.00  0.00     0.029 A 
ATOM     53  N   UNL     1      -0.374  -2.143  -3.735  1.00  0.00    -0.354 N 
ATOM     54  C   UNL     1      -0.340   3.416  -5.036  1.00  0.00     0.074 A 
ATOM     55  C   UNL     1      -1.747   3.621  -4.812  1.00  0.00     0.031 C 
ATOM     56  C   UNL     1       1.682  -1.408  -3.144  1.00  0.00     0.029 A 
ATOM     57  C   UNL     1       1.005  -2.474  -3.790  1.00  0.00     0.049 A 
ATOM     58  H   UNL     1      -1.122  -2.784  -3.757  1.00  0.00     0.167 HD
ATOM     59  C   UNL     1       0.743   4.274  -5.137  1.00  0.00     0.037 A 
ATOM     60  C   UNL     1       1.538  -3.211  -4.787  1.00  0.00     0.037 A 
ATOM     61  C   UNL     1       2.014   3.567  -5.450  1.00  0.00     0.049 A 
ATOM     62  C   UNL     1       2.215  -2.336  -5.842  1.00  0.00     0.074 A 
ATOM     63  C   UNL     1       3.365   3.715  -5.144  1.00  0.00     0.029 A 
ATOM     64  N   UNL     1       1.960   2.368  -6.150  1.00  0.00    -0.354 N 
ATOM     65  N   UNL     1       2.538  -1.060  -5.720  1.00  0.00    -0.248 NA
ATOM     66  C   UNL     1       2.538  -2.857  -7.167  1.00  0.00     0.031 C 
ATOM     67  C   UNL     1       4.083   2.571  -5.608  1.00  0.00     0.029 A 
ATOM     68  C   UNL     1       3.186   1.764  -6.276  1.00  0.00     0.049 A 
ATOM     69  H   UNL     1       1.128   1.990  -6.517  1.00  0.00     0.167 HD
ATOM     70  C   UNL     1       2.991  -0.585  -6.942  1.00  0.00     0.074 A 
ATOM     71  C   UNL     1       2.980  -1.759  -7.799  1.00  0.00     0.031 C 
ATOM     72  C   UNL     1       3.307   0.714  -7.257  1.00  0.00     0.037 A 
BRANCH  59  73
ATOM     73  C   UNL     1       0.751   5.794  -4.733  1.00  0.00     0.057 A 
ATOM     74  C   UNL     1       1.915   6.590  -4.893  1.00  0.00     0.134 A 
ATOM     75  C   UNL     1      -0.271   6.496  -4.052  1.00  0.00     0.134 A 
ATOM     76  F   UNL     1       2.941   6.190  -5.655  1.00  0.00    -0.206 F 
ATOM     77  C   UNL     1       2.098   7.867  -4.321  1.00  0.00     0.040 A 
ATOM     78  C   UNL     1      -0.137   7.817  -3.562  1.00  0.00     0.040 A 
ATOM     79  F   UNL     1      -1.461   5.956  -3.783  1.00  0.00    -0.206 F 
ATOM     80  C   UNL     1       1.065   8.494  -3.653  1.00  0.00     0.006 A 
ENDBRANCH  59  73
BRANCH  60  81
ATOM     81  C   UNL     1       0.786  -4.516  -4.794  1.00  0.00     0.057 A 
ATOM     82  C   UNL     1       1.021  -5.272  -3.612  1.00  0.00     0.134 A 
ATOM     83  C   UNL     1      -0.531  -4.532  -5.278  1.00  0.00     0.134 A 
ATOM     84  F   UNL     1       2.262  -5.345  -3.102  1.00  0.00    -0.206 F 
ATOM     85  C   UNL     1      -0.030  -5.701  -2.788  1.00  0.00     0.040 A 
ATOM     86  C   UNL     1      -1.591  -4.977  -4.463  1.00  0.00     0.040 A 
ATOM     87  F   UNL     1      -0.841  -3.863  -6.398  1.00  0.00    -0.206 F 
ATOM     88  C   UNL     1      -1.345  -5.491  -3.187  1.00  0.00     0.006 A 
ENDBRANCH  60  81
BRANCH  72  89
ATOM     89  C   UNL     1       3.697   1.212  -8.636  1.00  0.00     0.057 A 
ATOM     90  C   UNL     1       4.631   0.571  -9.447  1.00  0.00     0.134 A 
ATOM     91  C   UNL     1       3.221   2.457  -9.129  1.00  0.00     0.134 A 
ATOM     92  F   UNL     1       5.253  -0.542  -9.033  1.00  0.00    -0.206 F 
ATOM     93  C   UNL     1       4.983   1.072 -10.708  1.00  0.00     0.040 A 
ATOM     94  C   UNL     1       3.614   2.997 -10.351  1.00  0.00     0.040 A 
ATOM     95  F   UNL     1       2.341   3.210  -8.454  1.00  0.00    -0.206 F 
ATOM     96  C   UNL     1       4.474   2.285 -11.165  1.00  0.00     0.006 A 
ENDBRANCH  72  89
ENDBRANCH  46  47
ENDBRANCH  39  41
ENDBRANCH  38  39
ENDBRANCH  37  38
ENDBRANCH  36  37
ENDBRANCH  35  36
ENDBRANCH  34  35
ENDBRANCH  33  34
ENDBRANCH   1  33
TORSDOF 23
