REMARK SMILES C[C@]1(Cn2c(=O)[nH]c3cc(C(=O)OCCOCCOCCOCCOC(=O)c4ccc(-c5c6nc(c(-c7c(F)cccc7F)c7ccc([nH]7)c(-c7c(F)cccc7F)c7nc(c(-c8c(F)cccc8F)c8ccc5[nH]8)C=C7)C=C6)cc4)ccc32)CCCO1
REMARK SMILES IDX 19 1 18 2 17 3 16 4 15 5 14 6 13 7 11 8 12 9 10 10 4 11 5 12
REMARK SMILES IDX 84 13 6 14 7 15 8 16 83 17 9 19 82 20 3 21 2 22 1 23 85 24
REMARK SMILES IDX 88 25 86 26 87 27 20 28 21 29 22 30 23 31 24 32 25 33 26 34
REMARK SMILES IDX 27 35 28 36 29 37 81 38 30 39 80 40 31 41 32 42 33 43 74 44
REMARK SMILES IDX 34 45 79 46 73 47 75 48 35 49 78 50 72 51 71 52 36 54 62 55
REMARK SMILES IDX 45 56 61 57 46 58 49 59 60 60 76 61 47 62 48 63 59 65 77 66
REMARK SMILES IDX 50 67 37 68 38 69 43 70 39 71 40 72 42 73 44 74 41 75 63 76
REMARK SMILES IDX 64 77 69 78 65 79 66 80 68 81 70 82 67 83 51 84 52 85 57 86
REMARK SMILES IDX 53 87 54 88 56 89 58 90 55 91
REMARK H PARENT 7 18 75 53 49 64
REMARK Flexibility Score: inf
ROOT
ATOM      1  O   UNL     1      -5.570   1.395  -2.859  1.00  0.00    -0.377 OA
ENDROOT
BRANCH   1   2
ATOM      2  C   UNL     1      -4.758   0.909  -3.909  1.00  0.00     0.188 C 
BRANCH   2   3
ATOM      3  C   UNL     1      -5.334  -0.284  -4.688  1.00  0.00     0.188 C 
BRANCH   3   4
ATOM      4  O   UNL     1      -6.751  -0.354  -4.648  1.00  0.00    -0.376 OA
BRANCH   4   5
ATOM      5  C   UNL     1      -7.400  -1.372  -3.903  1.00  0.00     0.202 C 
BRANCH   5   6
ATOM      6  C   UNL     1      -7.240  -1.456  -2.374  1.00  0.00     0.261 C 
BRANCH   6   7
ATOM      7  O   UNL     1      -5.933  -1.188  -1.871  1.00  0.00    -0.460 OA
BRANCH   7   8
ATOM      8  C   UNL     1      -4.988  -2.118  -2.100  1.00  0.00     0.338 C 
ATOM      9  O   UNL     1      -5.142  -3.212  -2.613  1.00  0.00    -0.246 OA
BRANCH   8  10
ATOM     10  C   UNL     1      -3.670  -1.499  -1.825  1.00  0.00     0.062 A 
ATOM     11  N   UNL     1       0.179  -0.270  -1.114  1.00  0.00    -0.289 N 
ATOM     12  C   UNL     1       0.850  -0.879  -2.208  1.00  0.00     0.326 A 
ATOM     13  C   UNL     1      -1.201  -0.429  -1.287  1.00  0.00     0.069 A 
ATOM     14  O   UNL     1       2.032  -0.960  -2.412  1.00  0.00    -0.248 OA
ATOM     15  N   UNL     1      -0.161  -1.466  -2.998  1.00  0.00    -0.306 N 
ATOM     16  C   UNL     1      -1.389  -1.264  -2.387  1.00  0.00     0.067 A 
ATOM     17  C   UNL     1      -2.261   0.019  -0.533  1.00  0.00     0.029 A 
ATOM     18  H   UNL     1      -0.017  -1.942  -3.848  1.00  0.00     0.171 HD
ATOM     19  C   UNL     1      -2.605  -1.828  -2.678  1.00  0.00     0.044 A 
ATOM     20  C   UNL     1      -3.511  -0.543  -0.793  1.00  0.00     0.018 A 
BRANCH  11  21
ATOM     21  C   UNL     1       0.831   0.097   0.130  1.00  0.00     0.162 C 
BRANCH  21  22
ATOM     22  C   UNL     1       0.640  -0.924   1.297  1.00  0.00     0.083 C 
ATOM     23  C   UNL     1      -0.686  -0.717   2.055  1.00  0.00     0.044 C 
ATOM     24  C   UNL     1       0.827  -2.383   0.876  1.00  0.00     0.039 C 
ATOM     25  O   UNL     1       1.684  -0.731   2.284  1.00  0.00    -0.373 OA
ATOM     26  C   UNL     1       1.143  -3.062   2.187  1.00  0.00     0.031 C 
ATOM     27  C   UNL     1       1.929  -1.997   2.931  1.00  0.00     0.161 C 
ENDBRANCH  21  22
ENDBRANCH  11  21
ENDBRANCH   8  10
ENDBRANCH   7   8
ENDBRANCH   6   7
ENDBRANCH   5   6
ENDBRANCH   4   5
ENDBRANCH   3   4
ENDBRANCH   2   3
ENDBRANCH   1   2
BRANCH   1  28
ATOM     28  C   UNL     1      -6.813   2.004  -3.206  1.00  0.00     0.188 C 
BRANCH  28  29
ATOM     29  C   UNL     1      -7.159   2.382  -4.666  1.00  0.00     0.188 C 
BRANCH  29  30
ATOM     30  O   UNL     1      -6.049   2.890  -5.384  1.00  0.00    -0.376 OA
BRANCH  30  31
ATOM     31  C   UNL     1      -6.011   4.291  -5.601  1.00  0.00     0.202 C 
BRANCH  31  32
ATOM     32  C   UNL     1      -6.006   5.203  -4.361  1.00  0.00     0.261 C 
BRANCH  32  33
ATOM     33  O   UNL     1      -7.083   4.965  -3.434  1.00  0.00    -0.460 OA
BRANCH  33  34
ATOM     34  C   UNL     1      -8.316   5.463  -3.689  1.00  0.00     0.338 C 
ATOM     35  O   UNL     1      -8.601   6.327  -4.495  1.00  0.00    -0.246 OA
BRANCH  34  36
ATOM     36  C   UNL     1      -9.280   4.501  -3.074  1.00  0.00     0.060 A 
ATOM     37  C   UNL     1      -9.049   3.935  -1.818  1.00  0.00     0.016 A 
ATOM     38  C   UNL     1     -10.249   3.942  -3.924  1.00  0.00     0.016 A 
ATOM     39  C   UNL     1      -9.700   2.747  -1.476  1.00  0.00     0.010 A 
ATOM     40  C   UNL     1     -10.897   2.750  -3.579  1.00  0.00     0.010 A 
ATOM     41  C   UNL     1     -10.602   2.125  -2.368  1.00  0.00    -0.014 A 
BRANCH  41  42
ATOM     42  C   UNL     1     -11.407   1.004  -1.840  1.00  0.00     0.031 A 
ATOM     43  C   UNL     1     -12.159   1.410  -0.617  1.00  0.00     0.074 A 
ATOM     44  C   UNL     1     -11.673  -0.210  -2.376  1.00  0.00     0.049 A 
ATOM     45  N   UNL     1     -12.066   0.936   0.582  1.00  0.00    -0.248 NA
ATOM     46  C   UNL     1     -13.017   2.602  -0.738  1.00  0.00     0.031 C 
ATOM     47  C   UNL     1     -11.325  -0.710  -3.705  1.00  0.00     0.029 A 
ATOM     48  N   UNL     1     -12.408  -1.247  -1.845  1.00  0.00    -0.354 N 
ATOM     49  C   UNL     1     -12.987   1.660   1.334  1.00  0.00     0.074 A 
ATOM     50  C   UNL     1     -13.419   2.764   0.519  1.00  0.00     0.031 C 
ATOM     51  C   UNL     1     -11.991  -1.866  -3.942  1.00  0.00     0.029 A 
ATOM     52  C   UNL     1     -12.746  -2.246  -2.757  1.00  0.00     0.049 A 
ATOM     53  H   UNL     1     -12.672  -1.281  -0.897  1.00  0.00     0.167 HD
ATOM     54  C   UNL     1     -13.516   1.168   2.485  1.00  0.00     0.037 A 
ATOM     55  C   UNL     1     -13.617  -3.277  -2.582  1.00  0.00     0.037 A 
ATOM     56  C   UNL     1     -12.696   0.134   3.057  1.00  0.00     0.049 A 
ATOM     57  C   UNL     1     -13.857  -3.447  -1.133  1.00  0.00     0.074 A 
ATOM     58  C   UNL     1     -11.391   0.045   3.502  1.00  0.00     0.029 A 
ATOM     59  N   UNL     1     -13.140  -1.158   2.963  1.00  0.00    -0.354 N 
ATOM     60  N   UNL     1     -13.012  -3.977  -0.300  1.00  0.00    -0.248 NA
ATOM     61  C   UNL     1     -14.958  -2.717  -0.526  1.00  0.00     0.031 C 
ATOM     62  C   UNL     1     -10.981  -1.288   3.202  1.00  0.00     0.029 A 
ATOM     63  C   UNL     1     -12.068  -1.938   2.621  1.00  0.00     0.049 A 
ATOM     64  H   UNL     1     -14.062  -1.470   3.114  1.00  0.00     0.167 HD
ATOM     65  C   UNL     1     -13.203  -3.275   0.876  1.00  0.00     0.074 A 
ATOM     66  C   UNL     1     -14.495  -2.617   0.721  1.00  0.00     0.031 C 
ATOM     67  C   UNL     1     -12.164  -3.072   1.736  1.00  0.00     0.037 A 
BRANCH  54  68
ATOM     68  C   UNL     1     -14.970   1.349   2.851  1.00  0.00     0.057 A 
ATOM     69  C   UNL     1     -15.992   1.612   1.913  1.00  0.00     0.134 A 
ATOM     70  C   UNL     1     -15.415   0.941   4.119  1.00  0.00     0.134 A 
ATOM     71  F   UNL     1     -15.737   1.923   0.636  1.00  0.00    -0.206 F 
ATOM     72  C   UNL     1     -17.349   1.464   2.206  1.00  0.00     0.040 A 
ATOM     73  C   UNL     1     -16.770   0.735   4.406  1.00  0.00     0.040 A 
ATOM     74  F   UNL     1     -14.540   0.639   5.090  1.00  0.00    -0.206 F 
ATOM     75  C   UNL     1     -17.741   0.990   3.445  1.00  0.00     0.006 A 
ENDBRANCH  54  68
BRANCH  55  76
ATOM     76  C   UNL     1     -14.430  -4.048  -3.558  1.00  0.00     0.057 A 
ATOM     77  C   UNL     1     -14.903  -3.457  -4.739  1.00  0.00     0.134 A 
ATOM     78  C   UNL     1     -15.004  -5.288  -3.222  1.00  0.00     0.134 A 
ATOM     79  F   UNL     1     -14.481  -2.243  -5.118  1.00  0.00    -0.206 F 
ATOM     80  C   UNL     1     -15.899  -4.047  -5.527  1.00  0.00     0.040 A 
ATOM     81  C   UNL     1     -16.009  -5.885  -3.997  1.00  0.00     0.040 A 
ATOM     82  F   UNL     1     -14.654  -5.924  -2.095  1.00  0.00    -0.206 F 
ATOM     83  C   UNL     1     -16.469  -5.256  -5.149  1.00  0.00     0.006 A 
ENDBRANCH  55  76
BRANCH  67  84
ATOM     84  C   UNL     1     -10.951  -3.941   1.568  1.00  0.00     0.057 A 
ATOM     85  C   UNL     1     -10.521  -4.699   2.664  1.00  0.00     0.134 A 
ATOM     86  C   UNL     1     -10.173  -4.013   0.401  1.00  0.00     0.134 A 
ATOM     87  F   UNL     1     -11.182  -4.637   3.831  1.00  0.00    -0.206 F 
ATOM     88  C   UNL     1      -9.395  -5.520   2.597  1.00  0.00     0.040 A 
ATOM     89  C   UNL     1      -9.068  -4.865   0.308  1.00  0.00     0.040 A 
ATOM     90  F   UNL     1     -10.438  -3.241  -0.664  1.00  0.00    -0.206 F 
ATOM     91  C   UNL     1      -8.676  -5.621   1.409  1.00  0.00     0.006 A 
ENDBRANCH  67  84
ENDBRANCH  41  42
ENDBRANCH  34  36
ENDBRANCH  33  34
ENDBRANCH  32  33
ENDBRANCH  31  32
ENDBRANCH  30  31
ENDBRANCH  29  30
ENDBRANCH  28  29
ENDBRANCH   1  28
TORSDOF 22
