REMARK SMILES CC(C)Oc1ccc(-c2ccc(/C(=C\c3ccc(S(C)(=O)=O)cc3)C(=O)OCCOCCOCCOCCOC(=O)c3ccc(-c4c5nc(c(-c6c(F)cccc6F)c6ccc([nH]6)c(-c6c(F)cccc6F)c6nc(c(-c7c(F)cccc7F)c7ccc4[nH]7)C=C6)C=C5)cc3)cc2)cc1
REMARK SMILES IDX 32 1 31 2 30 3 29 4 28 5 27 6 25 7 26 8 13 9 14 10 12 11
REMARK SMILES IDX 9 12 10 13 97 14 11 15 96 16 8 17 5 18 6 19 99 20 7 21 98 22
REMARK SMILES IDX 4 23 2 24 1 25 3 26 15 27 16 28 24 29 17 30 23 31 18 32
REMARK SMILES IDX 19 33 20 34 21 35 22 36 33 37 34 38 35 39 36 40 37 41 38 42
REMARK SMILES IDX 39 43 40 44 41 45 42 46 43 47 95 48 44 49 94 50 45 51 46 52
REMARK SMILES IDX 47 53 88 54 48 55 93 56 87 57 89 58 49 59 92 60 86 61 85 62
REMARK SMILES IDX 50 64 76 65 59 66 75 67 60 68 63 69 74 70 90 71 61 72 62 73
REMARK SMILES IDX 73 75 91 76 64 77 51 78 52 79 57 80 53 81 54 82 56 83 58 84
REMARK SMILES IDX 55 85 77 86 78 87 83 88 79 89 80 90 82 91 84 92 81 93 65 94
REMARK SMILES IDX 66 95 71 96 67 97 68 98 70 99 72 100 69 101
REMARK H PARENT 89 63 63 74
REMARK Flexibility Score: inf
ROOT
ATOM      1  C   UNL     1      -4.933  -9.434  -0.189  1.00  0.00     0.188 C 
ENDROOT
BRANCH   1   2
ATOM      2  C   UNL     1      -5.636  -8.717   0.982  1.00  0.00     0.188 C 
BRANCH   2   3
ATOM      3  O   UNL     1      -6.513  -9.533   1.742  1.00  0.00    -0.376 OA
BRANCH   3   4
ATOM      4  C   UNL     1      -7.899  -9.244   1.671  1.00  0.00     0.202 C 
BRANCH   4   5
ATOM      5  C   UNL     1      -8.577  -9.428   0.306  1.00  0.00     0.261 C 
BRANCH   5   6
ATOM      6  O   UNL     1      -7.874  -8.859  -0.808  1.00  0.00    -0.460 OA
BRANCH   6   7
ATOM      7  C   UNL     1      -7.944  -7.515  -0.990  1.00  0.00     0.338 C 
ATOM      8  O   UNL     1      -8.601  -6.749  -0.302  1.00  0.00    -0.246 OA
BRANCH   7   9
ATOM      9  C   UNL     1      -6.967  -7.089  -2.060  1.00  0.00     0.067 C 
ATOM     10  C   UNL     1      -6.863  -7.945  -3.112  1.00  0.00     0.024 C 
BRANCH   9  11
ATOM     11  C   UNL     1      -6.151  -5.843  -1.864  1.00  0.00    -0.011 A 
ATOM     12  C   UNL     1      -4.267  -3.704  -1.486  1.00  0.00    -0.018 A 
ATOM     13  C   UNL     1      -4.742  -4.055  -2.755  1.00  0.00     0.009 A 
ATOM     14  C   UNL     1      -4.798  -4.402  -0.398  1.00  0.00     0.009 A 
ATOM     15  C   UNL     1      -5.698  -5.063  -2.930  1.00  0.00     0.009 A 
ATOM     16  C   UNL     1      -5.731  -5.436  -0.586  1.00  0.00     0.009 A 
BRANCH  12  17
ATOM     17  C   UNL     1      -3.318  -2.589  -1.315  1.00  0.00    -0.018 A 
ATOM     18  C   UNL     1      -1.580  -0.384  -0.988  1.00  0.00     0.119 A 
ATOM     19  C   UNL     1      -2.632  -0.316  -1.894  1.00  0.00     0.047 A 
ATOM     20  C   UNL     1      -1.401  -1.534  -0.226  1.00  0.00     0.047 A 
ATOM     21  C   UNL     1      -3.486  -1.407  -2.057  1.00  0.00     0.012 A 
ATOM     22  C   UNL     1      -2.253  -2.634  -0.400  1.00  0.00     0.012 A 
BRANCH  18  23
ATOM     23  O   UNL     1      -0.867   0.763  -0.801  1.00  0.00    -0.491 OA
BRANCH  23  24
ATOM     24  C   UNL     1       0.541   0.745  -1.080  1.00  0.00     0.167 C 
ATOM     25  C   UNL     1       1.359   0.165   0.068  1.00  0.00     0.052 C 
ATOM     26  C   UNL     1       0.914   0.148  -2.436  1.00  0.00     0.052 C 
ENDBRANCH  23  24
ENDBRANCH  18  23
ENDBRANCH  12  17
ENDBRANCH   9  11
BRANCH  10  27
ATOM     27  C   UNL     1      -6.082  -7.768  -4.348  1.00  0.00    -0.025 A 
ATOM     28  C   UNL     1      -6.817  -7.554  -5.522  1.00  0.00     0.009 A 
ATOM     29  C   UNL     1      -4.687  -7.626  -4.368  1.00  0.00     0.009 A 
ATOM     30  C   UNL     1      -6.194  -7.048  -6.660  1.00  0.00     0.021 A 
ATOM     31  C   UNL     1      -4.056  -7.107  -5.506  1.00  0.00     0.021 A 
ATOM     32  C   UNL     1      -4.824  -6.782  -6.629  1.00  0.00     0.067 A 
BRANCH  32  33
ATOM     33  S   UNL     1      -4.123  -5.827  -7.956  1.00  0.00     0.175 S 
ATOM     34  C   UNL     1      -4.043  -6.957  -9.314  1.00  0.00     0.163 C 
ATOM     35  O   UNL     1      -5.092  -4.796  -8.282  1.00  0.00    -0.224 OA
ATOM     36  O   UNL     1      -2.767  -5.476  -7.582  1.00  0.00    -0.224 OA
ENDBRANCH  32  33
ENDBRANCH  10  27
ENDBRANCH   7   9
ENDBRANCH   6   7
ENDBRANCH   5   6
ENDBRANCH   4   5
ENDBRANCH   3   4
ENDBRANCH   2   3
ENDBRANCH   1   2
BRANCH   1  37
ATOM     37  O   UNL     1      -5.277 -10.779  -0.487  1.00  0.00    -0.377 OA
BRANCH  37  38
ATOM     38  C   UNL     1      -5.469 -11.699   0.583  1.00  0.00     0.188 C 
BRANCH  38  39
ATOM     39  C   UNL     1      -4.668 -11.561   1.903  1.00  0.00     0.188 C 
BRANCH  39  40
ATOM     40  O   UNL     1      -3.718 -10.509   1.915  1.00  0.00    -0.376 OA
BRANCH  40  41
ATOM     41  C   UNL     1      -2.346 -10.845   1.825  1.00  0.00     0.202 C 
BRANCH  41  42
ATOM     42  C   UNL     1      -1.872 -11.572   0.558  1.00  0.00     0.261 C 
BRANCH  42  43
ATOM     43  O   UNL     1      -2.622 -12.732   0.172  1.00  0.00    -0.460 OA
BRANCH  43  44
ATOM     44  C   UNL     1      -2.579 -13.803   0.992  1.00  0.00     0.338 C 
ATOM     45  O   UNL     1      -1.966 -13.910   2.041  1.00  0.00    -0.246 OA
BRANCH  44  46
ATOM     46  C   UNL     1      -3.567 -14.778   0.488  1.00  0.00     0.060 A 
ATOM     47  C   UNL     1      -4.643 -15.159   1.304  1.00  0.00     0.016 A 
ATOM     48  C   UNL     1      -3.437 -15.293  -0.803  1.00  0.00     0.016 A 
ATOM     49  C   UNL     1      -5.575 -16.087   0.840  1.00  0.00     0.010 A 
ATOM     50  C   UNL     1      -4.351 -16.244  -1.254  1.00  0.00     0.010 A 
ATOM     51  C   UNL     1      -5.400 -16.672  -0.420  1.00  0.00    -0.014 A 
BRANCH  51  52
ATOM     52  C   UNL     1      -6.138 -17.907  -0.774  1.00  0.00     0.031 A 
ATOM     53  C   UNL     1      -5.440 -19.220  -0.552  1.00  0.00     0.074 A 
ATOM     54  C   UNL     1      -7.380 -17.872  -1.286  1.00  0.00     0.049 A 
ATOM     55  N   UNL     1      -5.809 -20.428  -0.888  1.00  0.00    -0.248 NA
ATOM     56  C   UNL     1      -4.140 -19.155   0.137  1.00  0.00     0.031 C 
ATOM     57  C   UNL     1      -8.180 -16.669  -1.494  1.00  0.00     0.029 A 
ATOM     58  N   UNL     1      -8.176 -18.893  -1.741  1.00  0.00    -0.354 N 
ATOM     59  C   UNL     1      -4.781 -21.262  -0.465  1.00  0.00     0.074 A 
ATOM     60  C   UNL     1      -3.762 -20.422   0.122  1.00  0.00     0.031 C 
ATOM     61  C   UNL     1      -9.351 -17.019  -2.055  1.00  0.00     0.029 A 
ATOM     62  C   UNL     1      -9.362 -18.463  -2.283  1.00  0.00     0.049 A 
ATOM     63  H   UNL     1      -7.921 -19.842  -1.685  1.00  0.00     0.167 HD
ATOM     64  C   UNL     1      -4.698 -22.610  -0.553  1.00  0.00     0.037 A 
ATOM     65  C   UNL     1     -10.327 -19.159  -2.917  1.00  0.00     0.037 A 
ATOM     66  C   UNL     1      -5.712 -23.438  -1.146  1.00  0.00     0.049 A 
ATOM     67  C   UNL     1     -10.171 -20.650  -3.088  1.00  0.00     0.074 A 
ATOM     68  C   UNL     1      -5.727 -24.814  -1.287  1.00  0.00     0.029 A 
ATOM     69  N   UNL     1      -6.888 -22.963  -1.707  1.00  0.00    -0.354 N 
ATOM     70  N   UNL     1      -9.202 -21.435  -2.682  1.00  0.00    -0.248 NA
ATOM     71  C   UNL     1     -11.244 -21.352  -3.809  1.00  0.00     0.031 C 
ATOM     72  C   UNL     1      -6.887 -25.166  -1.984  1.00  0.00     0.029 A 
ATOM     73  C   UNL     1      -7.627 -24.017  -2.215  1.00  0.00     0.049 A 
ATOM     74  H   UNL     1      -7.157 -22.016  -1.738  1.00  0.00     0.167 HD
ATOM     75  C   UNL     1      -9.570 -22.724  -3.054  1.00  0.00     0.074 A 
ATOM     76  C   UNL     1     -10.850 -22.614  -3.722  1.00  0.00     0.031 C 
ATOM     77  C   UNL     1      -8.913 -23.893  -2.854  1.00  0.00     0.037 A 
BRANCH  64  78
ATOM     78  C   UNL     1      -3.451 -23.258  -0.027  1.00  0.00     0.057 A 
ATOM     79  C   UNL     1      -3.154 -23.299   1.342  1.00  0.00     0.134 A 
ATOM     80  C   UNL     1      -2.538 -23.859  -0.903  1.00  0.00     0.134 A 
ATOM     81  F   UNL     1      -3.976 -22.726   2.234  1.00  0.00    -0.206 F 
ATOM     82  C   UNL     1      -1.980 -23.887   1.817  1.00  0.00     0.040 A 
ATOM     83  C   UNL     1      -1.377 -24.477  -0.437  1.00  0.00     0.040 A 
ATOM     84  F   UNL     1      -2.760 -23.857  -2.226  1.00  0.00    -0.206 F 
ATOM     85  C   UNL     1      -1.091 -24.485   0.926  1.00  0.00     0.006 A 
ENDBRANCH  64  78
BRANCH  65  86
ATOM     86  C   UNL     1     -11.525 -18.461  -3.451  1.00  0.00     0.057 A 
ATOM     87  C   UNL     1     -12.796 -18.686  -2.909  1.00  0.00     0.134 A 
ATOM     88  C   UNL     1     -11.435 -17.576  -4.533  1.00  0.00     0.134 A 
ATOM     89  F   UNL     1     -12.952 -19.541  -1.888  1.00  0.00    -0.206 F 
ATOM     90  C   UNL     1     -13.936 -18.074  -3.434  1.00  0.00     0.040 A 
ATOM     91  C   UNL     1     -12.562 -16.935  -5.050  1.00  0.00     0.040 A 
ATOM     92  F   UNL     1     -10.248 -17.316  -5.100  1.00  0.00    -0.206 F 
ATOM     93  C   UNL     1     -13.819 -17.191  -4.506  1.00  0.00     0.006 A 
ENDBRANCH  65  86
BRANCH  77  94
ATOM     94  C   UNL     1      -9.590 -25.160  -3.292  1.00  0.00     0.057 A 
ATOM     95  C   UNL     1      -9.728 -25.508  -4.641  1.00  0.00     0.134 A 
ATOM     96  C   UNL     1     -10.047 -26.080  -2.338  1.00  0.00     0.134 A 
ATOM     97  F   UNL     1      -9.320 -24.670  -5.606  1.00  0.00    -0.206 F 
ATOM     98  C   UNL     1     -10.313 -26.717  -5.025  1.00  0.00     0.040 A 
ATOM     99  C   UNL     1     -10.605 -27.303  -2.709  1.00  0.00     0.040 A 
ATOM    100  F   UNL     1      -9.934 -25.814  -1.027  1.00  0.00    -0.206 F 
ATOM    101  C   UNL     1     -10.743 -27.623  -4.057  1.00  0.00     0.006 A 
ENDBRANCH  77  94
ENDBRANCH  51  52
ENDBRANCH  44  46
ENDBRANCH  43  44
ENDBRANCH  42  43
ENDBRANCH  41  42
ENDBRANCH  40  41
ENDBRANCH  39  40
ENDBRANCH  38  39
ENDBRANCH  37  38
ENDBRANCH   1  37
TORSDOF 26
