REMARK SMILES O=C(OCCOCCOCCOCCOC(=O)[C@H]1[C@@H](C(=O)n2cc(Cl)cn2)[C@H]2CC[C@@H]1O2)c1ccc(-c2c3nc(c(-c4c(F)cccc4F)c4ccc([nH]4)c(-c4c(F)cccc4F)c4nc(c(-c5c(F)cccc5F)c5ccc2[nH]5)C=C4)C=C3)cc1
REMARK SMILES IDX 9 1 8 2 7 3 6 4 5 5 4 6 3 7 2 8 1 9 33 10 34 11 86 12 35 13
REMARK SMILES IDX 85 14 36 15 37 16 38 17 79 18 39 19 84 20 78 21 80 22 40 23
REMARK SMILES IDX 83 24 77 25 76 26 41 28 67 29 50 30 66 31 51 32 54 33 65 34
REMARK SMILES IDX 81 35 52 36 53 37 64 39 82 40 55 41 42 42 43 43 48 44 44 45
REMARK SMILES IDX 45 46 47 47 49 48 46 49 68 50 69 51 74 52 70 53 71 54 73 55
REMARK SMILES IDX 75 56 72 57 56 58 57 59 62 60 58 61 59 62 61 63 63 64 60 65
REMARK SMILES IDX 10 66 11 67 12 68 13 69 14 70 15 71 16 72 17 73 18 74 19 75
REMARK SMILES IDX 31 76 28 77 30 78 32 79 29 80 20 81 21 82 22 83 23 84 27 85
REMARK SMILES IDX 24 86 26 87 25 88
REMARK H PARENT 80 27 54 38
REMARK Flexibility Score: inf
ROOT
ATOM      1  O   UNL     1       5.979  -3.984  -0.738  1.00  0.00    -0.377 OA
ENDROOT
BRANCH   1   2
ATOM      2  C   UNL     1       6.395  -4.782   0.382  1.00  0.00     0.188 C 
BRANCH   2   3
ATOM      3  C   UNL     1       6.744  -4.045   1.673  1.00  0.00     0.188 C 
BRANCH   3   4
ATOM      4  O   UNL     1       7.747  -3.022   1.598  1.00  0.00    -0.376 OA
BRANCH   4   5
ATOM      5  C   UNL     1       8.658  -3.001   0.501  1.00  0.00     0.202 C 
BRANCH   5   6
ATOM      6  C   UNL     1      10.003  -3.701   0.721  1.00  0.00     0.261 C 
BRANCH   6   7
ATOM      7  O   UNL     1       9.860  -5.131   0.798  1.00  0.00    -0.460 OA
BRANCH   7   8
ATOM      8  C   UNL     1       9.309  -5.816   1.824  1.00  0.00     0.338 C 
ATOM      9  O   UNL     1       8.674  -6.849   1.640  1.00  0.00    -0.246 OA
BRANCH   8  10
ATOM     10  C   UNL     1       9.641  -5.424   3.207  1.00  0.00     0.060 A 
ATOM     11  C   UNL     1       9.730  -4.104   3.641  1.00  0.00     0.016 A 
ATOM     12  C   UNL     1       9.882  -6.467   4.111  1.00  0.00     0.016 A 
ATOM     13  C   UNL     1      10.297  -3.812   4.853  1.00  0.00     0.010 A 
ATOM     14  C   UNL     1      10.367  -6.181   5.375  1.00  0.00     0.010 A 
ATOM     15  C   UNL     1      10.658  -4.857   5.693  1.00  0.00    -0.014 A 
BRANCH  15  16
ATOM     16  C   UNL     1      11.331  -4.449   6.908  1.00  0.00     0.031 A 
ATOM     17  C   UNL     1      10.575  -3.499   7.769  1.00  0.00     0.074 A 
ATOM     18  C   UNL     1      12.562  -4.897   7.201  1.00  0.00     0.049 A 
ATOM     19  N   UNL     1      10.943  -2.337   8.204  1.00  0.00    -0.248 NA
ATOM     20  C   UNL     1       9.180  -3.850   8.086  1.00  0.00     0.031 C 
ATOM     21  C   UNL     1      13.303  -5.981   6.551  1.00  0.00     0.029 A 
ATOM     22  N   UNL     1      13.362  -4.546   8.240  1.00  0.00    -0.354 N 
ATOM     23  C   UNL     1       9.896  -1.890   9.005  1.00  0.00     0.074 A 
ATOM     24  C   UNL     1       8.794  -2.792   8.795  1.00  0.00     0.031 C 
ATOM     25  C   UNL     1      14.305  -6.368   7.367  1.00  0.00     0.029 A 
ATOM     26  C   UNL     1      14.337  -5.485   8.519  1.00  0.00     0.049 A 
ATOM     27  H   UNL     1      13.258  -3.706   8.743  1.00  0.00     0.167 HD
ATOM     28  C   UNL     1      10.081  -0.945   9.964  1.00  0.00     0.037 A 
ATOM     29  C   UNL     1      15.027  -5.595   9.677  1.00  0.00     0.037 A 
ATOM     30  C   UNL     1      11.199  -0.090   9.672  1.00  0.00     0.049 A 
ATOM     31  C   UNL     1      14.926  -4.302  10.399  1.00  0.00     0.074 A 
ATOM     32  C   UNL     1      11.533   0.750   8.626  1.00  0.00     0.029 A 
ATOM     33  N   UNL     1      12.350  -0.232  10.405  1.00  0.00    -0.354 N 
ATOM     34  N   UNL     1      15.513  -3.200  10.023  1.00  0.00    -0.248 NA
ATOM     35  C   UNL     1      13.827  -4.129  11.339  1.00  0.00     0.031 C 
ATOM     36  C   UNL     1      12.951   0.670   8.518  1.00  0.00     0.029 A 
ATOM     37  C   UNL     1      13.392  -0.199   9.515  1.00  0.00     0.049 A 
ATOM     38  H   UNL     1      12.415  -0.337  11.382  1.00  0.00     0.167 HD
ATOM     39  C   UNL     1      14.614  -2.191  10.341  1.00  0.00     0.074 A 
ATOM     40  C   UNL     1      13.652  -2.809  11.247  1.00  0.00     0.031 C 
ATOM     41  C   UNL     1      14.568  -1.028   9.626  1.00  0.00     0.037 A 
BRANCH  28  42
ATOM     42  C   UNL     1       9.473  -1.064  11.340  1.00  0.00     0.057 A 
ATOM     43  C   UNL     1       9.604  -0.001  12.251  1.00  0.00     0.134 A 
ATOM     44  C   UNL     1       9.034  -2.283  11.901  1.00  0.00     0.134 A 
ATOM     45  F   UNL     1      10.032   1.204  11.845  1.00  0.00    -0.206 F 
ATOM     46  C   UNL     1       9.390  -0.162  13.625  1.00  0.00     0.040 A 
ATOM     47  C   UNL     1       8.767  -2.440  13.262  1.00  0.00     0.040 A 
ATOM     48  F   UNL     1       8.937  -3.411  11.187  1.00  0.00    -0.206 F 
ATOM     49  C   UNL     1       8.978  -1.387  14.136  1.00  0.00     0.006 A 
ENDBRANCH  28  42
BRANCH  29  50
ATOM     50  C   UNL     1      15.496  -6.844  10.310  1.00  0.00     0.057 A 
ATOM     51  C   UNL     1      16.472  -6.821  11.311  1.00  0.00     0.134 A 
ATOM     52  C   UNL     1      14.844  -8.076  10.110  1.00  0.00     0.134 A 
ATOM     53  F   UNL     1      17.109  -5.681  11.614  1.00  0.00    -0.206 F 
ATOM     54  C   UNL     1      16.784  -7.957  12.069  1.00  0.00     0.040 A 
ATOM     55  C   UNL     1      15.159  -9.221  10.843  1.00  0.00     0.040 A 
ATOM     56  F   UNL     1      13.819  -8.194   9.252  1.00  0.00    -0.206 F 
ATOM     57  C   UNL     1      16.126  -9.162  11.836  1.00  0.00     0.006 A 
ENDBRANCH  29  50
BRANCH  41  58
ATOM     58  C   UNL     1      15.688  -0.748   8.667  1.00  0.00     0.057 A 
ATOM     59  C   UNL     1      15.961  -1.543   7.544  1.00  0.00     0.134 A 
ATOM     60  C   UNL     1      16.419   0.437   8.800  1.00  0.00     0.134 A 
ATOM     61  F   UNL     1      15.234  -2.634   7.274  1.00  0.00    -0.206 F 
ATOM     62  C   UNL     1      16.959  -1.202   6.627  1.00  0.00     0.040 A 
ATOM     63  C   UNL     1      17.396   0.807   7.872  1.00  0.00     0.040 A 
ATOM     64  F   UNL     1      16.164   1.281   9.812  1.00  0.00    -0.206 F 
ATOM     65  C   UNL     1      17.678  -0.021   6.788  1.00  0.00     0.006 A 
ENDBRANCH  41  58
ENDBRANCH  15  16
ENDBRANCH   8  10
ENDBRANCH   7   8
ENDBRANCH   6   7
ENDBRANCH   5   6
ENDBRANCH   4   5
ENDBRANCH   3   4
ENDBRANCH   2   3
ENDBRANCH   1   2
BRANCH   1  66
ATOM     66  C   UNL     1       5.281  -2.775  -0.468  1.00  0.00     0.188 C 
BRANCH  66  67
ATOM     67  C   UNL     1       3.787  -2.901  -0.168  1.00  0.00     0.188 C 
BRANCH  67  68
ATOM     68  O   UNL     1       3.480  -3.640   1.001  1.00  0.00    -0.376 OA
BRANCH  68  69
ATOM     69  C   UNL     1       3.165  -5.028   0.905  1.00  0.00     0.202 C 
BRANCH  69  70
ATOM     70  C   UNL     1       2.880  -5.706  -0.448  1.00  0.00     0.261 C 
BRANCH  70  71
ATOM     71  O   UNL     1       3.973  -5.692  -1.405  1.00  0.00    -0.463 OA
BRANCH  71  72
ATOM     72  C   UNL     1       3.637  -5.230  -2.627  1.00  0.00     0.312 C 
ATOM     73  O   UNL     1       2.506  -4.818  -2.899  1.00  0.00    -0.252 OA
BRANCH  72  74
ATOM     74  C   UNL     1       4.663  -5.246  -3.732  1.00  0.00     0.143 C 
ATOM     75  C   UNL     1       6.192  -5.336  -3.812  1.00  0.00     0.126 C 
ATOM     76  C   UNL     1       4.243  -6.309  -4.750  1.00  0.00     0.133 C 
ATOM     77  C   UNL     1       6.396  -6.371  -4.947  1.00  0.00     0.132 C 
ATOM     78  C   UNL     1       4.581  -7.721  -4.261  1.00  0.00     0.036 C 
ATOM     79  O   UNL     1       5.243  -6.093  -5.778  1.00  0.00    -0.373 OA
ATOM     80  C   UNL     1       6.074  -7.812  -4.561  1.00  0.00     0.035 C 
BRANCH  75  81
ATOM     81  C   UNL     1       7.121  -5.716  -2.691  1.00  0.00     0.253 C 
ATOM     82  O   UNL     1       6.988  -6.691  -1.975  1.00  0.00    -0.272 OA
BRANCH  81  83
ATOM     83  N   UNL     1       8.340  -4.980  -2.709  1.00  0.00    -0.206 N 
ATOM     84  C   UNL     1       8.569  -3.661  -3.070  1.00  0.00     0.138 A 
ATOM     85  N   UNL     1       9.514  -5.602  -2.396  1.00  0.00    -0.172 NA
ATOM     86  C   UNL     1       9.917  -3.438  -2.965  1.00  0.00     0.079 A 
ATOM     87  C   UNL     1      10.454  -4.671  -2.576  1.00  0.00     0.156 A 
ATOM     88  Cl  UNL     1      10.755  -1.986  -3.175  1.00  0.00    -0.081 Cl
ENDBRANCH  81  83
ENDBRANCH  75  81
ENDBRANCH  72  74
ENDBRANCH  71  72
ENDBRANCH  70  71
ENDBRANCH  69  70
ENDBRANCH  68  69
ENDBRANCH  67  68
ENDBRANCH  66  67
ENDBRANCH   1  66
TORSDOF 22
