REMARK SMILES O=C(OCCOCCOCCOCCOC(=O)c1cc(-c2cccc(OC(F)(F)F)c2)cnc1Cl)c1ccc(-c2c3nc(c(-c4c(F)cccc4F)c4ccc([nH]4)c(-c4c(F)cccc4F)c4nc(c(-c5c(F)cccc5F)c5ccc2[nH]5)C=C4)C=C3)cc1
REMARK SMILES IDX 10 1 9 2 8 3 7 4 6 5 5 6 4 7 3 8 2 9 1 10 36 11 37 12 89 13
REMARK SMILES IDX 38 14 88 15 39 16 40 17 41 18 82 19 42 20 87 21 81 22 83 23
REMARK SMILES IDX 43 24 86 25 80 26 79 27 44 29 70 30 53 31 69 32 54 33 57 34
REMARK SMILES IDX 68 35 84 36 55 37 56 38 67 40 85 41 58 42 45 43 46 44 51 45
REMARK SMILES IDX 47 46 48 47 50 48 52 49 49 50 71 51 72 52 77 53 73 54 74 55
REMARK SMILES IDX 76 56 78 57 75 58 59 59 60 60 65 61 61 62 62 63 64 64 66 65
REMARK SMILES IDX 63 66 11 67 12 68 13 69 14 70 15 71 16 72 17 73 18 74 19 75
REMARK SMILES IDX 34 76 20 77 33 78 35 79 32 80 21 81 22 82 31 83 23 84 25 85
REMARK SMILES IDX 24 86 26 87 27 88 28 89 29 90 30 91
REMARK H PARENT 83 28 57 39
REMARK Flexibility Score: inf
ROOT
ATOM      1  C   UNL     1       3.890  -3.569  -1.732  1.00  0.00     0.188 C 
ENDROOT
BRANCH   1   2
ATOM      2  O   UNL     1       2.476  -3.546  -1.883  1.00  0.00    -0.377 OA
BRANCH   2   3
ATOM      3  C   UNL     1       1.827  -2.303  -1.617  1.00  0.00     0.188 C 
BRANCH   3   4
ATOM      4  C   UNL     1       2.278  -1.611  -0.331  1.00  0.00     0.188 C 
BRANCH   4   5
ATOM      5  O   UNL     1       3.592  -1.065  -0.495  1.00  0.00    -0.376 OA
BRANCH   5   6
ATOM      6  C   UNL     1       4.446  -1.175   0.644  1.00  0.00     0.202 C 
BRANCH   6   7
ATOM      7  C   UNL     1       4.266  -0.069   1.683  1.00  0.00     0.261 C 
BRANCH   7   8
ATOM      8  O   UNL     1       2.896   0.327   1.817  1.00  0.00    -0.460 OA
BRANCH   8   9
ATOM      9  C   UNL     1       2.245   1.301   1.136  1.00  0.00     0.338 C 
ATOM     10  O   UNL     1       1.068   1.516   1.425  1.00  0.00    -0.246 OA
BRANCH   9  11
ATOM     11  C   UNL     1       2.860   2.150   0.062  1.00  0.00     0.060 A 
ATOM     12  C   UNL     1       3.986   1.834  -0.705  1.00  0.00     0.016 A 
ATOM     13  C   UNL     1       2.200   3.359  -0.222  1.00  0.00     0.016 A 
ATOM     14  C   UNL     1       4.487   2.700  -1.669  1.00  0.00     0.010 A 
ATOM     15  C   UNL     1       2.692   4.240  -1.186  1.00  0.00     0.010 A 
ATOM     16  C   UNL     1       3.864   3.922  -1.879  1.00  0.00    -0.014 A 
BRANCH  16  17
ATOM     17  C   UNL     1       4.600   4.955  -2.622  1.00  0.00     0.031 A 
ATOM     18  C   UNL     1       5.342   5.971  -1.810  1.00  0.00     0.074 A 
ATOM     19  C   UNL     1       4.681   4.918  -3.960  1.00  0.00     0.049 A 
ATOM     20  N   UNL     1       5.931   7.070  -2.187  1.00  0.00    -0.248 NA
ATOM     21  C   UNL     1       5.434   5.700  -0.363  1.00  0.00     0.031 C 
ATOM     22  C   UNL     1       4.121   3.868  -4.811  1.00  0.00     0.029 A 
ATOM     23  N   UNL     1       5.272   5.786  -4.834  1.00  0.00    -0.354 N 
ATOM     24  C   UNL     1       6.415   7.648  -1.020  1.00  0.00     0.074 A 
ATOM     25  C   UNL     1       6.066   6.774   0.075  1.00  0.00     0.031 C 
ATOM     26  C   UNL     1       4.384   4.164  -6.094  1.00  0.00     0.029 A 
ATOM     27  C   UNL     1       5.065   5.455  -6.150  1.00  0.00     0.049 A 
ATOM     28  H   UNL     1       5.794   6.571  -4.549  1.00  0.00     0.167 HD
ATOM     29  C   UNL     1       7.071   8.822  -0.886  1.00  0.00     0.037 A 
ATOM     30  C   UNL     1       5.350   6.158  -7.261  1.00  0.00     0.037 A 
ATOM     31  C   UNL     1       7.391   9.660  -2.007  1.00  0.00     0.049 A 
ATOM     32  C   UNL     1       6.003   7.504  -7.093  1.00  0.00     0.074 A 
ATOM     33  C   UNL     1       7.984  10.907  -2.022  1.00  0.00     0.029 A 
ATOM     34  N   UNL     1       7.133   9.316  -3.329  1.00  0.00    -0.354 N 
ATOM     35  N   UNL     1       6.376   8.106  -5.986  1.00  0.00    -0.248 NA
ATOM     36  C   UNL     1       6.258   8.277  -8.313  1.00  0.00     0.031 C 
ATOM     37  C   UNL     1       8.049  11.333  -3.354  1.00  0.00     0.029 A 
ATOM     38  C   UNL     1       7.544  10.329  -4.171  1.00  0.00     0.049 A 
ATOM     39  H   UNL     1       6.718   8.472  -3.622  1.00  0.00     0.167 HD
ATOM     40  C   UNL     1       6.927   9.319  -6.374  1.00  0.00     0.074 A 
ATOM     41  C   UNL     1       6.844   9.362  -7.823  1.00  0.00     0.031 C 
ATOM     42  C   UNL     1       7.453  10.309  -5.611  1.00  0.00     0.037 A 
BRANCH  29  43
ATOM     43  C   UNL     1       7.368   9.272   0.513  1.00  0.00     0.057 A 
ATOM     44  C   UNL     1       8.319   8.636   1.323  1.00  0.00     0.134 A 
ATOM     45  C   UNL     1       6.621  10.306   1.091  1.00  0.00     0.134 A 
ATOM     46  F   UNL     1       9.043   7.612   0.844  1.00  0.00    -0.206 F 
ATOM     47  C   UNL     1       8.485   8.983   2.666  1.00  0.00     0.040 A 
ATOM     48  C   UNL     1       6.796  10.680   2.424  1.00  0.00     0.040 A 
ATOM     49  F   UNL     1       5.686  10.952   0.378  1.00  0.00    -0.206 F 
ATOM     50  C   UNL     1       7.721  10.008   3.220  1.00  0.00     0.006 A 
ENDBRANCH  29  43
BRANCH  30  51
ATOM     51  C   UNL     1       4.966   5.625  -8.594  1.00  0.00     0.057 A 
ATOM     52  C   UNL     1       5.927   5.217  -9.524  1.00  0.00     0.134 A 
ATOM     53  C   UNL     1       3.619   5.477  -8.956  1.00  0.00     0.134 A 
ATOM     54  F   UNL     1       7.232   5.349  -9.248  1.00  0.00    -0.206 F 
ATOM     55  C   UNL     1       5.566   4.680 -10.763  1.00  0.00     0.040 A 
ATOM     56  C   UNL     1       3.244   4.919 -10.179  1.00  0.00     0.040 A 
ATOM     57  F   UNL     1       2.646   5.847  -8.111  1.00  0.00    -0.206 F 
ATOM     58  C   UNL     1       4.220   4.521 -11.089  1.00  0.00     0.006 A 
ENDBRANCH  30  51
BRANCH  42  59
ATOM     59  C   UNL     1       8.023  11.491  -6.332  1.00  0.00     0.057 A 
ATOM     60  C   UNL     1       7.205  12.485  -6.880  1.00  0.00     0.134 A 
ATOM     61  C   UNL     1       9.410  11.675  -6.393  1.00  0.00     0.134 A 
ATOM     62  F   UNL     1       5.870  12.357  -6.858  1.00  0.00    -0.206 F 
ATOM     63  C   UNL     1       7.751  13.623  -7.473  1.00  0.00     0.040 A 
ATOM     64  C   UNL     1       9.965  12.819  -6.962  1.00  0.00     0.040 A 
ATOM     65  F   UNL     1      10.242  10.759  -5.873  1.00  0.00    -0.206 F 
ATOM     66  C   UNL     1       9.134  13.797  -7.505  1.00  0.00     0.006 A 
ENDBRANCH  42  59
ENDBRANCH  16  17
ENDBRANCH   9  11
ENDBRANCH   8   9
ENDBRANCH   7   8
ENDBRANCH   6   7
ENDBRANCH   5   6
ENDBRANCH   4   5
ENDBRANCH   3   4
ENDBRANCH   2   3
ENDBRANCH   1   2
BRANCH   1  67
ATOM     67  C   UNL     1       4.737  -2.689  -2.677  1.00  0.00     0.188 C 
BRANCH  67  68
ATOM     68  O   UNL     1       3.952  -1.836  -3.484  1.00  0.00    -0.376 OA
BRANCH  68  69
ATOM     69  C   UNL     1       3.742  -2.207  -4.837  1.00  0.00     0.202 C 
BRANCH  69  70
ATOM     70  C   UNL     1       3.328  -3.638  -5.234  1.00  0.00     0.261 C 
BRANCH  70  71
ATOM     71  O   UNL     1       3.756  -4.712  -4.387  1.00  0.00    -0.460 OA
BRANCH  71  72
ATOM     72  C   UNL     1       4.920  -5.355  -4.630  1.00  0.00     0.341 C 
ATOM     73  O   UNL     1       5.759  -5.074  -5.468  1.00  0.00    -0.246 OA
BRANCH  72  74
ATOM     74  C   UNL     1       5.100  -6.322  -3.533  1.00  0.00     0.098 A 
ATOM     75  C   UNL     1       6.099  -6.099  -2.564  1.00  0.00     0.029 A 
ATOM     76  C   UNL     1       4.179  -7.334  -3.309  1.00  0.00     0.143 A 
ATOM     77  C   UNL     1       6.083  -6.831  -1.367  1.00  0.00     0.001 A 
ATOM     78  N   UNL     1       4.178  -8.109  -2.200  1.00  0.00    -0.243 NA
ATOM     79  Cl  UNL     1       2.922  -7.743  -4.409  1.00  0.00    -0.061 Cl
ATOM     80  C   UNL     1       5.107  -7.825  -1.256  1.00  0.00     0.121 A 
BRANCH  77  81
ATOM     81  C   UNL     1       7.007  -6.585  -0.252  1.00  0.00    -0.013 A 
ATOM     82  C   UNL     1       8.205  -7.308  -0.176  1.00  0.00     0.009 A 
ATOM     83  C   UNL     1       6.669  -5.718   0.814  1.00  0.00     0.055 A 
ATOM     84  C   UNL     1       9.036  -7.196   0.938  1.00  0.00     0.004 A 
ATOM     85  C   UNL     1       7.499  -5.610   1.939  1.00  0.00     0.130 A 
ATOM     86  C   UNL     1       8.678  -6.356   1.989  1.00  0.00     0.047 A 
BRANCH  85  87
ATOM     87  O   UNL     1       7.285  -4.864   3.063  1.00  0.00    -0.406 OA
BRANCH  87  88
ATOM     88  C   UNL     1       6.155  -4.019   3.117  1.00  0.00     0.573 C 
ATOM     89  F   UNL     1       6.226  -3.067   2.161  1.00  0.00    -0.132 F 
ATOM     90  F   UNL     1       5.008  -4.714   2.976  1.00  0.00    -0.132 F 
ATOM     91  F   UNL     1       6.129  -3.399   4.318  1.00  0.00    -0.132 F 
ENDBRANCH  87  88
ENDBRANCH  85  87
ENDBRANCH  77  81
ENDBRANCH  72  74
ENDBRANCH  71  72
ENDBRANCH  70  71
ENDBRANCH  69  70
ENDBRANCH  68  69
ENDBRANCH  67  68
ENDBRANCH   1  67
TORSDOF 23
