REMARK SMILES Cc1c(-c2nn(-c3ccccc3)cc2/C=N/O)nnn1-c1ccc(C(=O)OCCOCCOCCOCCOC(=O)c2ccc(-c3c4nc(c(-c5c(F)cccc5F)c5ccc([nH]5)c(-c5c(F)cccc5F)c5nc(c(-c6c(F)cccc6F)c6ccc3[nH]6)C=C5)C=C4)cc2)cc1
REMARK SMILES IDX 32 1 31 2 30 3 29 4 28 5 27 6 25 7 26 8 24 9 21 10 22 11
REMARK SMILES IDX 97 12 23 13 96 14 20 15 1 16 2 17 3 18 18 19 19 20 4 21 5 22
REMARK SMILES IDX 14 23 6 24 13 25 15 26 16 27 17 28 7 30 8 31 12 32 9 33
REMARK SMILES IDX 11 34 10 35 33 36 34 37 35 38 36 39 37 40 38 41 39 42 40 43
REMARK SMILES IDX 41 44 42 45 43 46 95 47 44 48 94 49 45 50 46 51 47 52 88 53
REMARK SMILES IDX 48 54 93 55 87 56 89 57 49 58 92 59 86 60 85 61 50 63 76 64
REMARK SMILES IDX 59 65 75 66 60 67 63 68 74 69 90 70 61 71 62 72 73 74 91 75
REMARK SMILES IDX 64 76 51 77 52 78 57 79 53 80 54 81 56 82 58 83 55 84 77 85
REMARK SMILES IDX 78 86 83 87 79 88 80 89 82 90 84 91 81 92 65 93 66 94 71 95
REMARK SMILES IDX 67 96 68 97 70 98 72 99 69 100
REMARK H PARENT 17 29 89 62 63 73
REMARK Flexibility Score: inf
ROOT
ATOM      1  C   UNL     1      -2.703   2.386  -6.394  1.00  0.00     0.188 C 
ENDROOT
BRANCH   1   2
ATOM      2  C   UNL     1      -3.983   2.959  -5.744  1.00  0.00     0.188 C 
BRANCH   2   3
ATOM      3  O   UNL     1      -4.194   4.344  -5.975  1.00  0.00    -0.376 OA
BRANCH   3   4
ATOM      4  C   UNL     1      -4.143   5.191  -4.841  1.00  0.00     0.202 C 
BRANCH   4   5
ATOM      5  C   UNL     1      -2.724   5.418  -4.308  1.00  0.00     0.261 C 
BRANCH   5   6
ATOM      6  O   UNL     1      -2.048   4.222  -3.885  1.00  0.00    -0.460 OA
BRANCH   6   7
ATOM      7  C   UNL     1      -2.604   3.552  -2.858  1.00  0.00     0.338 C 
ATOM      8  O   UNL     1      -3.591   3.888  -2.206  1.00  0.00    -0.246 OA
BRANCH   7   9
ATOM      9  C   UNL     1      -1.954   2.237  -2.734  1.00  0.00     0.060 A 
ATOM     10  C   UNL     1      -0.781  -0.228  -2.236  1.00  0.00     0.067 A 
ATOM     11  C   UNL     1      -2.171  -0.148  -2.377  1.00  0.00     0.029 A 
ATOM     12  C   UNL     1       0.028   0.892  -2.474  1.00  0.00     0.029 A 
ATOM     13  C   UNL     1      -2.758   1.097  -2.588  1.00  0.00     0.018 A 
ATOM     14  C   UNL     1      -0.561   2.127  -2.741  1.00  0.00     0.018 A 
BRANCH  10  15
ATOM     15  N   UNL     1      -0.225  -1.418  -1.713  1.00  0.00    -0.217 N 
ATOM     16  C   UNL     1       1.275  -0.445   0.122  1.00  0.00     0.069 C 
ATOM     17  C   UNL     1       0.695  -1.544  -0.687  1.00  0.00     0.071 A 
ATOM     18  C   UNL     1       0.791  -2.911  -0.516  1.00  0.00     0.137 A 
ATOM     19  N   UNL     1      -0.053  -3.559  -1.367  1.00  0.00    -0.128 NA
ATOM     20  N   UNL     1      -0.713  -2.636  -2.056  1.00  0.00    -0.061 NA
BRANCH  18  21
ATOM     21  C   UNL     1       1.571  -3.620   0.492  1.00  0.00     0.124 A 
ATOM     22  N   UNL     1       1.197  -3.657   1.777  1.00  0.00    -0.165 NA
ATOM     23  C   UNL     1       2.819  -4.242   0.270  1.00  0.00     0.044 A 
ATOM     24  N   UNL     1       2.247  -4.218   2.418  1.00  0.00    -0.240 N 
ATOM     25  C   UNL     1       3.247  -4.575   1.541  1.00  0.00     0.125 A 
BRANCH  23  26
ATOM     26  C   UNL     1       3.557  -4.497  -0.940  1.00  0.00     0.166 C 
ATOM     27  N   UNL     1       3.131  -4.036  -2.068  1.00  0.00    -0.097 NA
BRANCH  27  28
ATOM     28  O   UNL     1       3.993  -4.446  -3.091  1.00  0.00    -0.411 OA
ATOM     29  H   UNL     1       3.822  -4.192  -3.977  1.00  0.00     0.330 HD
ENDBRANCH  27  28
ENDBRANCH  23  26
BRANCH  24  30
ATOM     30  C   UNL     1       2.252  -4.366   3.826  1.00  0.00     0.065 A 
ATOM     31  C   UNL     1       1.038  -4.542   4.505  1.00  0.00     0.028 A 
ATOM     32  C   UNL     1       3.458  -4.342   4.539  1.00  0.00     0.028 A 
ATOM     33  C   UNL     1       1.039  -4.735   5.887  1.00  0.00     0.002 A 
ATOM     34  C   UNL     1       3.444  -4.488   5.928  1.00  0.00     0.002 A 
ATOM     35  C   UNL     1       2.239  -4.700   6.598  1.00  0.00     0.000 A 
ENDBRANCH  24  30
ENDBRANCH  18  21
ENDBRANCH  10  15
ENDBRANCH   7   9
ENDBRANCH   6   7
ENDBRANCH   5   6
ENDBRANCH   4   5
ENDBRANCH   3   4
ENDBRANCH   2   3
ENDBRANCH   1   2
BRANCH   1  36
ATOM     36  O   UNL     1      -1.886   3.180  -7.247  1.00  0.00    -0.377 OA
BRANCH  36  37
ATOM     37  C   UNL     1      -2.472   4.195  -8.051  1.00  0.00     0.188 C 
BRANCH  37  38
ATOM     38  C   UNL     1      -3.832   3.964  -8.753  1.00  0.00     0.188 C 
BRANCH  38  39
ATOM     39  O   UNL     1      -4.505   2.761  -8.397  1.00  0.00    -0.376 OA
BRANCH  39  40
ATOM     40  C   UNL     1      -4.765   1.807  -9.412  1.00  0.00     0.202 C 
BRANCH  40  41
ATOM     41  C   UNL     1      -3.559   0.932  -9.742  1.00  0.00     0.261 C 
BRANCH  41  42
ATOM     42  O   UNL     1      -2.392   1.688 -10.028  1.00  0.00    -0.460 OA
BRANCH  42  43
ATOM     43  C   UNL     1      -2.470   2.488 -11.100  1.00  0.00     0.338 C 
ATOM     44  O   UNL     1      -3.448   2.664 -11.828  1.00  0.00    -0.246 OA
BRANCH  43  45
ATOM     45  C   UNL     1      -1.157   3.070 -11.357  1.00  0.00     0.060 A 
ATOM     46  C   UNL     1      -1.077   3.928 -12.453  1.00  0.00     0.016 A 
ATOM     47  C   UNL     1      -0.026   2.466 -10.785  1.00  0.00     0.016 A 
ATOM     48  C   UNL     1       0.084   3.917 -13.180  1.00  0.00     0.010 A 
ATOM     49  C   UNL     1       1.128   2.437 -11.524  1.00  0.00     0.010 A 
ATOM     50  C   UNL     1       1.111   3.063 -12.766  1.00  0.00    -0.014 A 
BRANCH  50  51
ATOM     51  C   UNL     1       2.120   2.749 -13.747  1.00  0.00     0.031 A 
ATOM     52  C   UNL     1       3.177   3.760 -13.891  1.00  0.00     0.074 A 
ATOM     53  C   UNL     1       2.096   1.590 -14.428  1.00  0.00     0.049 A 
ATOM     54  N   UNL     1       3.446   4.490 -14.920  1.00  0.00    -0.248 NA
ATOM     55  C   UNL     1       3.966   4.066 -12.691  1.00  0.00     0.031 C 
ATOM     56  C   UNL     1       1.302   0.388 -14.153  1.00  0.00     0.029 A 
ATOM     57  N   UNL     1       2.876   1.217 -15.474  1.00  0.00    -0.354 N 
ATOM     58  C   UNL     1       4.564   5.228 -14.558  1.00  0.00     0.074 A 
ATOM     59  C   UNL     1       4.750   5.042 -13.141  1.00  0.00     0.031 C 
ATOM     60  C   UNL     1       1.801  -0.642 -14.874  1.00  0.00     0.029 A 
ATOM     61  C   UNL     1       2.853  -0.139 -15.743  1.00  0.00     0.049 A 
ATOM     62  H   UNL     1       3.413   1.857 -15.996  1.00  0.00     0.167 HD
ATOM     63  C   UNL     1       5.397   5.760 -15.487  1.00  0.00     0.037 A 
ATOM     64  C   UNL     1       3.712  -0.800 -16.554  1.00  0.00     0.037 A 
ATOM     65  C   UNL     1       4.774   5.875 -16.777  1.00  0.00     0.049 A 
ATOM     66  C   UNL     1       4.377   0.198 -17.430  1.00  0.00     0.074 A 
ATOM     67  C   UNL     1       3.666   6.544 -17.260  1.00  0.00     0.029 A 
ATOM     68  N   UNL     1       5.106   4.959 -17.744  1.00  0.00    -0.354 N 
ATOM     69  N   UNL     1       3.786   0.852 -18.390  1.00  0.00    -0.248 NA
ATOM     70  C   UNL     1       5.630   0.779 -16.966  1.00  0.00     0.031 C 
ATOM     71  C   UNL     1       3.123   5.694 -18.267  1.00  0.00     0.029 A 
ATOM     72  C   UNL     1       3.938   4.565 -18.347  1.00  0.00     0.049 A 
ATOM     73  H   UNL     1       6.012   4.644 -17.963  1.00  0.00     0.167 HD
ATOM     74  C   UNL     1       4.362   2.115 -18.374  1.00  0.00     0.074 A 
ATOM     75  C   UNL     1       5.560   1.976 -17.554  1.00  0.00     0.031 C 
ATOM     76  C   UNL     1       3.671   3.216 -18.793  1.00  0.00     0.037 A 
BRANCH  63  77
ATOM     77  C   UNL     1       6.879   5.861 -15.277  1.00  0.00     0.057 A 
ATOM     78  C   UNL     1       7.650   6.665 -16.127  1.00  0.00     0.134 A 
ATOM     79  C   UNL     1       7.607   4.997 -14.431  1.00  0.00     0.134 A 
ATOM     80  F   UNL     1       7.066   7.492 -17.006  1.00  0.00    -0.206 F 
ATOM     81  C   UNL     1       9.047   6.593 -16.154  1.00  0.00     0.040 A 
ATOM     82  C   UNL     1       9.002   4.959 -14.407  1.00  0.00     0.040 A 
ATOM     83  F   UNL     1       7.008   4.081 -13.658  1.00  0.00    -0.206 F 
ATOM     84  C   UNL     1       9.727   5.741 -15.290  1.00  0.00     0.006 A 
ENDBRANCH  63  77
BRANCH  64  85
ATOM     85  C   UNL     1       4.217  -2.179 -16.391  1.00  0.00     0.057 A 
ATOM     86  C   UNL     1       4.791  -2.873 -17.462  1.00  0.00     0.134 A 
ATOM     87  C   UNL     1       4.376  -2.758 -15.119  1.00  0.00     0.134 A 
ATOM     88  F   UNL     1       4.734  -2.373 -18.705  1.00  0.00    -0.206 F 
ATOM     89  C   UNL     1       5.491  -4.072 -17.279  1.00  0.00     0.040 A 
ATOM     90  C   UNL     1       5.061  -3.959 -14.923  1.00  0.00     0.040 A 
ATOM     91  F   UNL     1       3.946  -2.134 -14.013  1.00  0.00    -0.206 F 
ATOM     92  C   UNL     1       5.633  -4.616 -16.005  1.00  0.00     0.006 A 
ENDBRANCH  64  85
BRANCH  76  93
ATOM     93  C   UNL     1       2.381   2.990 -19.530  1.00  0.00     0.057 A 
ATOM     94  C   UNL     1       1.251   2.394 -18.951  1.00  0.00     0.134 A 
ATOM     95  C   UNL     1       2.228   3.521 -20.816  1.00  0.00     0.134 A 
ATOM     96  F   UNL     1       1.273   1.955 -17.685  1.00  0.00    -0.206 F 
ATOM     97  C   UNL     1       0.040   2.287 -19.640  1.00  0.00     0.040 A 
ATOM     98  C   UNL     1       1.014   3.450 -21.503  1.00  0.00     0.040 A 
ATOM     99  F   UNL     1       3.248   4.163 -21.409  1.00  0.00    -0.206 F 
ATOM    100  C   UNL     1      -0.083   2.820 -20.919  1.00  0.00     0.006 A 
ENDBRANCH  76  93
ENDBRANCH  50  51
ENDBRANCH  43  45
ENDBRANCH  42  43
ENDBRANCH  41  42
ENDBRANCH  40  41
ENDBRANCH  39  40
ENDBRANCH  38  39
ENDBRANCH  37  38
ENDBRANCH  36  37
ENDBRANCH   1  36
TORSDOF 25
