REMARK SMILES O=C(OCCOCCOCCOCCOC(=O)c1ccc([S@@](=O)[C@H]2CCOC3(CCCC3)C2)cc1)c1ccc(-c2c3nc(c(-c4c(F)cccc4F)c4ccc([nH]4)c(-c4c(F)cccc4F)c4nc(c(-c5c(F)cccc5F)c5ccc2[nH]5)C=C4)C=C3)cc1
REMARK SMILES IDX 9 1 8 2 7 3 6 4 5 5 4 6 3 7 2 8 1 9 36 10 37 11 89 12 38 13
REMARK SMILES IDX 88 14 39 15 40 16 41 17 82 18 42 19 87 20 81 21 83 22 43 23
REMARK SMILES IDX 86 24 80 25 79 26 44 28 70 29 53 30 69 31 54 32 57 33 68 34
REMARK SMILES IDX 84 35 55 36 56 37 67 39 85 40 58 41 45 42 46 43 51 44 47 45
REMARK SMILES IDX 48 46 50 47 52 48 49 49 71 50 72 51 77 52 73 53 74 54 76 55
REMARK SMILES IDX 78 56 75 57 59 58 60 59 65 60 61 61 62 62 64 63 66 64 63 65
REMARK SMILES IDX 10 66 11 67 12 68 13 69 14 70 15 71 16 72 17 73 18 74 19 75
REMARK SMILES IDX 35 76 20 77 34 78 21 79 22 80 23 81 24 82 25 83 33 84 26 85
REMARK SMILES IDX 28 86 27 87 29 88 32 89 30 90 31 91
REMARK H PARENT 83 27 57 38
REMARK Flexibility Score: inf
ROOT
ATOM      1  O   UNL     1       2.002  12.265  -9.017  1.00  0.00    -0.377 OA
ENDROOT
BRANCH   1   2
ATOM      2  C   UNL     1       1.982  12.368 -10.440  1.00  0.00     0.188 C 
BRANCH   2   3
ATOM      3  C   UNL     1       3.084  11.583 -11.153  1.00  0.00     0.188 C 
BRANCH   3   4
ATOM      4  O   UNL     1       2.809  10.184 -11.056  1.00  0.00    -0.376 OA
BRANCH   4   5
ATOM      5  C   UNL     1       3.937   9.323 -11.159  1.00  0.00     0.202 C 
BRANCH   5   6
ATOM      6  C   UNL     1       4.432   9.066 -12.588  1.00  0.00     0.261 C 
BRANCH   6   7
ATOM      7  O   UNL     1       4.189  10.171 -13.476  1.00  0.00    -0.460 OA
BRANCH   7   8
ATOM      8  C   UNL     1       3.184  10.285 -14.383  1.00  0.00     0.338 C 
ATOM      9  O   UNL     1       3.189  11.217 -15.183  1.00  0.00    -0.246 OA
BRANCH   8  10
ATOM     10  C   UNL     1       2.092   9.277 -14.482  1.00  0.00     0.060 A 
ATOM     11  C   UNL     1       1.524   8.652 -13.376  1.00  0.00     0.016 A 
ATOM     12  C   UNL     1       1.569   8.985 -15.749  1.00  0.00     0.016 A 
ATOM     13  C   UNL     1       0.598   7.634 -13.520  1.00  0.00     0.010 A 
ATOM     14  C   UNL     1       0.557   8.027 -15.896  1.00  0.00     0.010 A 
ATOM     15  C   UNL     1       0.106   7.307 -14.781  1.00  0.00    -0.014 A 
BRANCH  15  16
ATOM     16  C   UNL     1      -0.773   6.124 -14.892  1.00  0.00     0.031 A 
ATOM     17  C   UNL     1      -0.250   4.906 -15.596  1.00  0.00     0.074 A 
ATOM     18  C   UNL     1      -1.942   6.091 -14.223  1.00  0.00     0.049 A 
ATOM     19  N   UNL     1      -0.848   3.772 -15.846  1.00  0.00    -0.248 NA
ATOM     20  C   UNL     1       1.141   4.969 -16.077  1.00  0.00     0.031 C 
ATOM     21  C   UNL     1      -2.483   7.186 -13.411  1.00  0.00     0.029 A 
ATOM     22  N   UNL     1      -2.862   5.086 -14.075  1.00  0.00    -0.354 N 
ATOM     23  C   UNL     1       0.077   3.006 -16.544  1.00  0.00     0.074 A 
ATOM     24  C   UNL     1       1.273   3.803 -16.690  1.00  0.00     0.031 C 
ATOM     25  C   UNL     1      -3.610   6.774 -12.810  1.00  0.00     0.029 A 
ATOM     26  C   UNL     1      -3.918   5.423 -13.262  1.00  0.00     0.049 A 
ATOM     27  H   UNL     1      -2.776   4.207 -14.511  1.00  0.00     0.167 HD
ATOM     28  C   UNL     1      -0.065   1.748 -17.019  1.00  0.00     0.037 A 
ATOM     29  C   UNL     1      -5.027   4.726 -12.950  1.00  0.00     0.037 A 
ATOM     30  C   UNL     1      -1.259   0.968 -16.845  1.00  0.00     0.049 A 
ATOM     31  C   UNL     1      -5.189   3.357 -13.549  1.00  0.00     0.074 A 
ATOM     32  C   UNL     1      -1.567  -0.277 -17.359  1.00  0.00     0.029 A 
ATOM     33  N   UNL     1      -2.343   1.367 -16.074  1.00  0.00    -0.354 N 
ATOM     34  N   UNL     1      -4.355   2.683 -14.306  1.00  0.00    -0.248 NA
ATOM     35  C   UNL     1      -6.452   2.660 -13.274  1.00  0.00     0.031 C 
ATOM     36  C   UNL     1      -2.850  -0.621 -16.916  1.00  0.00     0.029 A 
ATOM     37  C   UNL     1      -3.323   0.393 -16.096  1.00  0.00     0.049 A 
ATOM     38  H   UNL     1      -2.404   2.219 -15.583  1.00  0.00     0.167 HD
ATOM     39  C   UNL     1      -4.990   1.485 -14.600  1.00  0.00     0.074 A 
ATOM     40  C   UNL     1      -6.264   1.510 -13.906  1.00  0.00     0.031 C 
ATOM     41  C   UNL     1      -4.575   0.461 -15.386  1.00  0.00     0.037 A 
BRANCH  28  42
ATOM     42  C   UNL     1       1.079   1.188 -17.809  1.00  0.00     0.057 A 
ATOM     43  C   UNL     1       2.276   0.784 -17.203  1.00  0.00     0.134 A 
ATOM     44  C   UNL     1       0.999   1.096 -19.205  1.00  0.00     0.134 A 
ATOM     45  F   UNL     1       2.430   0.880 -15.874  1.00  0.00    -0.206 F 
ATOM     46  C   UNL     1       3.361   0.334 -17.959  1.00  0.00     0.040 A 
ATOM     47  C   UNL     1       2.069   0.627 -19.969  1.00  0.00     0.040 A 
ATOM     48  F   UNL     1      -0.115   1.476 -19.849  1.00  0.00    -0.206 F 
ATOM     49  C   UNL     1       3.257   0.252 -19.346  1.00  0.00     0.006 A 
ENDBRANCH  28  42
BRANCH  29  50
ATOM     50  C   UNL     1      -6.086   5.330 -12.098  1.00  0.00     0.057 A 
ATOM     51  C   UNL     1      -6.421   4.793 -10.849  1.00  0.00     0.134 A 
ATOM     52  C   UNL     1      -6.811   6.450 -12.526  1.00  0.00     0.134 A 
ATOM     53  F   UNL     1      -5.783   3.707 -10.387  1.00  0.00    -0.206 F 
ATOM     54  C   UNL     1      -7.446   5.335 -10.069  1.00  0.00     0.040 A 
ATOM     55  C   UNL     1      -7.816   7.021 -11.744  1.00  0.00     0.040 A 
ATOM     56  F   UNL     1      -6.545   7.016 -13.713  1.00  0.00    -0.206 F 
ATOM     57  C   UNL     1      -8.143   6.456 -10.514  1.00  0.00     0.006 A 
ENDBRANCH  29  50
BRANCH  41  58
ATOM     58  C   UNL     1      -5.504  -0.706 -15.510  1.00  0.00     0.057 A 
ATOM     59  C   UNL     1      -6.671  -0.634 -16.282  1.00  0.00     0.134 A 
ATOM     60  C   UNL     1      -5.215  -1.918 -14.874  1.00  0.00     0.134 A 
ATOM     61  F   UNL     1      -7.007   0.507 -16.903  1.00  0.00    -0.206 F 
ATOM     62  C   UNL     1      -7.533  -1.724 -16.395  1.00  0.00     0.040 A 
ATOM     63  C   UNL     1      -6.056  -3.022 -15.000  1.00  0.00     0.040 A 
ATOM     64  F   UNL     1      -4.108  -2.049 -14.127  1.00  0.00    -0.206 F 
ATOM     65  C   UNL     1      -7.223  -2.924 -15.757  1.00  0.00     0.006 A 
ENDBRANCH  41  58
ENDBRANCH  15  16
ENDBRANCH   8  10
ENDBRANCH   7   8
ENDBRANCH   6   7
ENDBRANCH   5   6
ENDBRANCH   4   5
ENDBRANCH   3   4
ENDBRANCH   2   3
ENDBRANCH   1   2
BRANCH   1  66
ATOM     66  C   UNL     1       2.073  10.953  -8.473  1.00  0.00     0.188 C 
BRANCH  66  67
ATOM     67  C   UNL     1       0.912   9.976  -8.751  1.00  0.00     0.188 C 
BRANCH  67  68
ATOM     68  O   UNL     1      -0.116  10.473  -9.598  1.00  0.00    -0.376 OA
BRANCH  68  69
ATOM     69  C   UNL     1      -1.341  10.791  -8.937  1.00  0.00     0.202 C 
BRANCH  69  70
ATOM     70  C   UNL     1      -1.317  12.121  -8.172  1.00  0.00     0.261 C 
BRANCH  70  71
ATOM     71  O   UNL     1      -0.407  12.165  -7.059  1.00  0.00    -0.460 OA
BRANCH  71  72
ATOM     72  C   UNL     1      -0.639  11.332  -6.014  1.00  0.00     0.338 C 
ATOM     73  O   UNL     1      -1.563  10.566  -5.874  1.00  0.00    -0.246 OA
BRANCH  72  74
ATOM     74  C   UNL     1       0.599  11.334  -5.196  1.00  0.00     0.060 A 
ATOM     75  C   UNL     1       1.277  10.122  -5.048  1.00  0.00     0.017 A 
ATOM     76  C   UNL     1       1.189  12.524  -4.763  1.00  0.00     0.017 A 
ATOM     77  C   UNL     1       2.585  10.120  -4.559  1.00  0.00     0.018 A 
ATOM     78  C   UNL     1       2.472  12.501  -4.198  1.00  0.00     0.018 A 
ATOM     79  C   UNL     1       3.189  11.300  -4.102  1.00  0.00     0.039 A 
BRANCH  79  80
ATOM     80  S   UNL     1       4.941  11.314  -3.666  1.00  0.00     0.056 S 
ATOM     81  O   UNL     1       5.291  12.739  -3.354  1.00  0.00    -0.254 OA
BRANCH  80  82
ATOM     82  C   UNL     1       5.081  10.338  -2.136  1.00  0.00     0.089 C 
ATOM     83  C   UNL     1       4.969  11.172  -0.866  1.00  0.00     0.046 C 
ATOM     84  C   UNL     1       4.159   9.133  -2.035  1.00  0.00     0.053 C 
ATOM     85  C   UNL     1       5.274  10.289   0.339  1.00  0.00     0.162 C 
ATOM     86  C   UNL     1       4.470   8.296  -0.790  1.00  0.00     0.069 C 
ATOM     87  O   UNL     1       4.450   9.125   0.378  1.00  0.00    -0.375 OA
ATOM     88  C   UNL     1       3.390   7.206  -0.579  1.00  0.00     0.035 C 
ATOM     89  C   UNL     1       5.793   7.514  -0.928  1.00  0.00     0.035 C 
ATOM     90  C   UNL     1       4.116   5.865  -0.612  1.00  0.00     0.003 C 
ATOM     91  C   UNL     1       5.538   6.199  -0.208  1.00  0.00     0.003 C 
ENDBRANCH  80  82
ENDBRANCH  79  80
ENDBRANCH  72  74
ENDBRANCH  71  72
ENDBRANCH  70  71
ENDBRANCH  69  70
ENDBRANCH  68  69
ENDBRANCH  67  68
ENDBRANCH  66  67
ENDBRANCH   1  66
TORSDOF 22
