REMARK SMILES NS(=O)(=O)c1ccc(-c2cc(Cl)cc3c2O[C@@H](C(F)(F)F)C(C(=O)OCCOCCOCCOCCOC(=O)c2ccc(-c4c5nc(c(-c6c(F)cccc6F)c6ccc([nH]6)c(-c6c(F)cccc6F)c6nc(c(-c7c(F)cccc7F)c7ccc4[nH]7)C=C6)C=C5)cc2)=C3)cc1
REMARK SMILES IDX 30 1 29 2 28 3 27 4 26 5 25 6 23 7 24 8 22 9 9 10 10 11
REMARK SMILES IDX 15 12 11 13 14 14 16 15 12 16 13 17 94 18 17 19 8 20 5 21
REMARK SMILES IDX 6 22 96 23 7 24 95 25 2 26 3 27 4 28 1 29 18 32 19 33 20 34
REMARK SMILES IDX 21 35 31 36 32 37 33 38 34 39 35 40 36 41 37 42 38 43 39 44
REMARK SMILES IDX 40 45 41 46 93 47 42 48 92 49 43 50 44 51 45 52 86 53 46 54
REMARK SMILES IDX 91 55 85 56 87 57 47 58 90 59 84 60 83 61 48 63 74 64 57 65
REMARK SMILES IDX 73 66 58 67 61 68 72 69 88 70 59 71 60 72 71 74 89 75 62 76
REMARK SMILES IDX 49 77 50 78 55 79 51 80 52 81 54 82 56 83 53 84 75 85 76 86
REMARK SMILES IDX 81 87 77 88 78 89 80 90 82 91 79 92 63 93 64 94 69 95 65 96
REMARK SMILES IDX 66 97 68 98 70 99 67 100
REMARK H PARENT 1 30 1 31 87 62 61 73
REMARK Flexibility Score: inf
ROOT
ATOM      1  C   UNL     1      -0.244  -9.832   6.788  1.00  0.00     0.188 C 
ENDROOT
BRANCH   1   2
ATOM      2  C   UNL     1       1.058  -9.409   6.094  1.00  0.00     0.188 C 
BRANCH   2   3
ATOM      3  O   UNL     1       2.018 -10.456   5.981  1.00  0.00    -0.376 OA
BRANCH   3   4
ATOM      4  C   UNL     1       3.019 -10.547   6.993  1.00  0.00     0.202 C 
BRANCH   4   5
ATOM      5  C   UNL     1       2.555 -10.508   8.455  1.00  0.00     0.261 C 
BRANCH   5   6
ATOM      6  O   UNL     1       2.033  -9.201   8.785  1.00  0.00    -0.460 OA
BRANCH   6   7
ATOM      7  C   UNL     1       2.931  -8.305   9.225  1.00  0.00     0.338 C 
ATOM      8  O   UNL     1       4.092  -8.565   9.513  1.00  0.00    -0.246 OA
BRANCH   7   9
ATOM      9  C   UNL     1       2.428  -6.910   9.156  1.00  0.00     0.087 C 
ATOM     10  C   UNL     1       1.387  -5.601   5.355  1.00  0.00     0.026 A 
ATOM     11  C   UNL     1       2.216  -6.285   4.433  1.00  0.00     0.033 A 
ATOM     12  C   UNL     1       1.663  -5.832   6.720  1.00  0.00     0.135 A 
ATOM     13  C   UNL     1       3.406  -6.887   4.838  1.00  0.00     0.042 A 
ATOM     14  C   UNL     1       2.964  -6.218   7.087  1.00  0.00     0.019 A 
ATOM     15  O   UNL     1       0.638  -5.920   7.659  1.00  0.00    -0.475 OA
ATOM     16  Cl  UNL     1       4.386  -7.701   3.687  1.00  0.00    -0.084 Cl
ATOM     17  C   UNL     1       3.836  -6.761   6.150  1.00  0.00     0.032 A 
ATOM     18  C   UNL     1       3.336  -6.152   8.516  1.00  0.00     0.027 C 
ATOM     19  C   UNL     1       0.997  -6.416   9.025  1.00  0.00     0.316 C 
BRANCH  10  20
ATOM     20  C   UNL     1       0.765  -4.344   4.814  1.00  0.00    -0.015 A 
ATOM     21  C   UNL     1       0.484  -1.910   3.364  1.00  0.00     0.082 A 
ATOM     22  C   UNL     1       0.018  -3.106   2.816  1.00  0.00     0.022 A 
ATOM     23  C   UNL     1       1.008  -1.898   4.656  1.00  0.00     0.022 A 
ATOM     24  C   UNL     1       0.147  -4.306   3.543  1.00  0.00     0.010 A 
ATOM     25  C   UNL     1       1.135  -3.101   5.373  1.00  0.00     0.010 A 
BRANCH  21  26
ATOM     26  S   UNL     1       0.458  -0.417   2.406  1.00  0.00     0.238 S 
ATOM     27  O   UNL     1       1.313   0.566   3.034  1.00  0.00    -0.207 OA
ATOM     28  O   UNL     1      -0.904  -0.135   2.025  1.00  0.00    -0.207 OA
BRANCH  26  29
ATOM     29  N   UNL     1       1.262  -0.837   0.987  1.00  0.00    -0.225 NA
ATOM     30  H   UNL     1       1.297  -0.030   0.364  1.00  0.00     0.137 HD
ATOM     31  H   UNL     1       0.765  -1.600   0.527  1.00  0.00     0.137 HD
ENDBRANCH  26  29
ENDBRANCH  21  26
ENDBRANCH  10  20
BRANCH  19  32
ATOM     32  C   UNL     1      -0.110  -7.206   9.770  1.00  0.00     0.430 C 
ATOM     33  F   UNL     1       0.025  -7.014  11.111  1.00  0.00    -0.167 F 
ATOM     34  F   UNL     1      -1.344  -6.756   9.441  1.00  0.00    -0.167 F 
ATOM     35  F   UNL     1      -0.113  -8.533   9.584  1.00  0.00    -0.167 F 
ENDBRANCH  19  32
ENDBRANCH   7   9
ENDBRANCH   6   7
ENDBRANCH   5   6
ENDBRANCH   4   5
ENDBRANCH   3   4
ENDBRANCH   2   3
ENDBRANCH   1   2
BRANCH   1  36
ATOM     36  O   UNL     1      -0.166 -11.122   7.363  1.00  0.00    -0.377 OA
BRANCH  36  37
ATOM     37  C   UNL     1      -0.384 -12.237   6.504  1.00  0.00     0.188 C 
BRANCH  37  38
ATOM     38  C   UNL     1      -0.158 -12.136   4.978  1.00  0.00     0.188 C 
BRANCH  38  39
ATOM     39  O   UNL     1      -0.715 -10.973   4.370  1.00  0.00    -0.376 OA
BRANCH  39  40
ATOM     40  C   UNL     1      -1.896 -11.146   3.599  1.00  0.00     0.202 C 
BRANCH  40  41
ATOM     41  C   UNL     1      -3.177 -11.254   4.436  1.00  0.00     0.261 C 
BRANCH  41  42
ATOM     42  O   UNL     1      -3.236 -12.402   5.295  1.00  0.00    -0.460 OA
BRANCH  42  43
ATOM     43  C   UNL     1      -3.170 -13.612   4.698  1.00  0.00     0.338 C 
ATOM     44  O   UNL     1      -3.158 -13.846   3.504  1.00  0.00    -0.246 OA
BRANCH  43  45
ATOM     45  C   UNL     1      -2.910 -14.621   5.744  1.00  0.00     0.060 A 
ATOM     46  C   UNL     1      -1.812 -15.476   5.586  1.00  0.00     0.016 A 
ATOM     47  C   UNL     1      -3.732 -14.718   6.870  1.00  0.00     0.016 A 
ATOM     48  C   UNL     1      -1.563 -16.467   6.533  1.00  0.00     0.010 A 
ATOM     49  C   UNL     1      -3.494 -15.724   7.808  1.00  0.00     0.010 A 
ATOM     50  C   UNL     1      -2.433 -16.627   7.620  1.00  0.00    -0.014 A 
BRANCH  50  51
ATOM     51  C   UNL     1      -2.369 -17.873   8.419  1.00  0.00     0.031 A 
ATOM     52  C   UNL     1      -3.256 -19.017   8.010  1.00  0.00     0.074 A 
ATOM     53  C   UNL     1      -1.526 -18.003   9.457  1.00  0.00     0.049 A 
ATOM     54  N   UNL     1      -3.372 -20.209   8.536  1.00  0.00    -0.248 NA
ATOM     55  C   UNL     1      -4.131 -18.784   6.848  1.00  0.00     0.031 C 
ATOM     56  C   UNL     1      -0.602 -16.976   9.934  1.00  0.00     0.029 A 
ATOM     57  N   UNL     1      -1.318 -19.065  10.301  1.00  0.00    -0.354 N 
ATOM     58  C   UNL     1      -4.325 -20.865   7.770  1.00  0.00     0.074 A 
ATOM     59  C   UNL     1      -4.783 -19.933   6.764  1.00  0.00     0.031 C 
ATOM     60  C   UNL     1       0.068 -17.456  10.997  1.00  0.00     0.029 A 
ATOM     61  C   UNL     1      -0.393 -18.814  11.284  1.00  0.00     0.049 A 
ATOM     62  H   UNL     1      -1.788 -19.925  10.210  1.00  0.00     0.167 HD
ATOM     63  C   UNL     1      -4.773 -22.137   7.885  1.00  0.00     0.037 A 
ATOM     64  C   UNL     1       0.019 -19.592  12.304  1.00  0.00     0.037 A 
ATOM     65  C   UNL     1      -4.324 -23.064   8.887  1.00  0.00     0.049 A 
ATOM     66  C   UNL     1      -0.542 -20.983  12.449  1.00  0.00     0.074 A 
ATOM     67  C   UNL     1      -4.701 -24.382   9.072  1.00  0.00     0.029 A 
ATOM     68  N   UNL     1      -3.406 -22.764   9.881  1.00  0.00    -0.354 N 
ATOM     69  N   UNL     1      -1.407 -21.613  11.690  1.00  0.00    -0.248 NA
ATOM     70  C   UNL     1      -0.066 -21.776  13.594  1.00  0.00     0.031 C 
ATOM     71  C   UNL     1      -4.045 -24.866  10.208  1.00  0.00     0.029 A 
ATOM     72  C   UNL     1      -3.224 -23.864  10.700  1.00  0.00     0.049 A 
ATOM     73  H   UNL     1      -2.951 -21.897   9.988  1.00  0.00     0.167 HD
ATOM     74  C   UNL     1      -1.554 -22.878  12.245  1.00  0.00     0.074 A 
ATOM     75  C   UNL     1      -0.681 -22.933  13.398  1.00  0.00     0.031 C 
ATOM     76  C   UNL     1      -2.342 -23.904  11.838  1.00  0.00     0.037 A 
BRANCH  63  77
ATOM     77  C   UNL     1      -5.818 -22.590   6.911  1.00  0.00     0.057 A 
ATOM     78  C   UNL     1      -5.512 -22.851   5.569  1.00  0.00     0.134 A 
ATOM     79  C   UNL     1      -7.138 -22.795   7.327  1.00  0.00     0.134 A 
ATOM     80  F   UNL     1      -4.269 -22.655   5.104  1.00  0.00    -0.206 F 
ATOM     81  C   UNL     1      -6.489 -23.285   4.671  1.00  0.00     0.040 A 
ATOM     82  C   UNL     1      -8.118 -23.250   6.444  1.00  0.00     0.040 A 
ATOM     83  F   UNL     1      -7.496 -22.561   8.599  1.00  0.00    -0.206 F 
ATOM     84  C   UNL     1      -7.795 -23.493   5.111  1.00  0.00     0.006 A 
ENDBRANCH  63  77
BRANCH  64  85
ATOM     85  C   UNL     1       1.009 -19.078  13.285  1.00  0.00     0.057 A 
ATOM     86  C   UNL     1       2.302 -19.608  13.362  1.00  0.00     0.134 A 
ATOM     87  C   UNL     1       0.669 -18.074  14.200  1.00  0.00     0.134 A 
ATOM     88  F   UNL     1       2.679 -20.591  12.531  1.00  0.00    -0.206 F 
ATOM     89  C   UNL     1       3.213 -19.177  14.328  1.00  0.00     0.040 A 
ATOM     90  C   UNL     1       1.578 -17.615  15.155  1.00  0.00     0.040 A 
ATOM     91  F   UNL     1      -0.555 -17.527  14.182  1.00  0.00    -0.206 F 
ATOM     92  C   UNL     1       2.853 -18.174  15.226  1.00  0.00     0.006 A 
ENDBRANCH  64  85
BRANCH  76  93
ATOM     93  C   UNL     1      -2.272 -25.183  12.620  1.00  0.00     0.057 A 
ATOM     94  C   UNL     1      -2.836 -25.301  13.896  1.00  0.00     0.134 A 
ATOM     95  C   UNL     1      -1.677 -26.325  12.068  1.00  0.00     0.134 A 
ATOM     96  F   UNL     1      -3.412 -24.242  14.486  1.00  0.00    -0.206 F 
ATOM     97  C   UNL     1      -2.793 -26.504  14.604  1.00  0.00     0.040 A 
ATOM     98  C   UNL     1      -1.651 -27.539  12.754  1.00  0.00     0.040 A 
ATOM     99  F   UNL     1      -1.128 -26.282  10.844  1.00  0.00    -0.206 F 
ATOM    100  C   UNL     1      -2.205 -27.629  14.029  1.00  0.00     0.006 A 
ENDBRANCH  76  93
ENDBRANCH  50  51
ENDBRANCH  43  45
ENDBRANCH  42  43
ENDBRANCH  41  42
ENDBRANCH  40  41
ENDBRANCH  39  40
ENDBRANCH  38  39
ENDBRANCH  37  38
ENDBRANCH  36  37
ENDBRANCH   1  36
TORSDOF 24
