REMARK SMILES O=C(OCCOCCOCCOCCOC(=O)c1ccc(-c2c3nc(c(-c4c(F)cccc4F)c4ccc([nH]4)c(-c4c(F)cccc4F)c4nc(c(-c5c(F)cccc5F)c5ccc2[nH]5)C=C4)C=C3)cc1)c1ccc(NS(=O)(=O)C2=Cc3ccccc3CC2)cc1
REMARK SMILES IDX 8 1 7 2 6 3 5 4 4 5 3 6 2 7 1 8 72 9 73 10 91 11 74 12 90 13
REMARK SMILES IDX 75 14 76 15 77 17 78 18 79 19 80 20 81 21 89 22 82 23 88 24
REMARK SMILES IDX 83 25 87 26 84 27 86 28 85 29 9 30 10 31 11 32 12 33 13 34
REMARK SMILES IDX 14 35 15 36 16 37 17 38 18 39 19 40 71 41 20 42 70 43 21 44
REMARK SMILES IDX 22 45 23 46 64 47 24 48 69 49 63 50 65 51 25 52 68 53 62 54
REMARK SMILES IDX 61 55 26 57 52 58 35 59 51 60 36 61 39 62 50 63 66 64 37 65
REMARK SMILES IDX 38 66 49 68 67 69 40 70 27 71 28 72 33 73 29 74 30 75 32 76
REMARK SMILES IDX 34 77 31 78 53 79 54 80 59 81 55 82 56 83 58 84 60 85 57 86
REMARK SMILES IDX 41 87 42 88 47 89 43 90 44 91 46 92 48 93 45 94
REMARK H PARENT 76 16 65 56 39 67
REMARK Flexibility Score: inf
ROOT
ATOM      1  C   UNL     1       1.938  -1.797   1.650  1.00  0.00     0.188 C 
ENDROOT
BRANCH   1   2
ATOM      2  C   UNL     1       2.414  -0.468   1.053  1.00  0.00     0.188 C 
BRANCH   2   3
ATOM      3  O   UNL     1       3.625  -0.621   0.306  1.00  0.00    -0.376 OA
BRANCH   3   4
ATOM      4  C   UNL     1       4.639   0.335   0.574  1.00  0.00     0.202 C 
BRANCH   4   5
ATOM      5  C   UNL     1       4.335   1.797   0.251  1.00  0.00     0.261 C 
BRANCH   5   6
ATOM      6  O   UNL     1       3.062   2.111  -0.338  1.00  0.00    -0.460 OA
BRANCH   6   7
ATOM      7  C   UNL     1       2.495   1.768  -1.515  1.00  0.00     0.338 C 
ATOM      8  O   UNL     1       1.354   2.160  -1.754  1.00  0.00    -0.246 OA
BRANCH   7   9
ATOM      9  C   UNL     1       3.137   0.853  -2.497  1.00  0.00     0.060 A 
ATOM     10  C   UNL     1       4.506   0.667  -2.636  1.00  0.00     0.018 A 
ATOM     11  C   UNL     1       2.287   0.131  -3.353  1.00  0.00     0.018 A 
ATOM     12  C   UNL     1       4.995  -0.353  -3.457  1.00  0.00     0.027 A 
ATOM     13  C   UNL     1       2.785  -0.887  -4.174  1.00  0.00     0.027 A 
ATOM     14  C   UNL     1       4.143  -1.193  -4.161  1.00  0.00     0.049 A 
BRANCH  14  15
ATOM     15  N   UNL     1       4.536  -2.446  -4.712  1.00  0.00    -0.280 N 
ATOM     16  H   UNL     1       3.825  -3.034  -5.055  1.00  0.00     0.180 HD
BRANCH  15  17
ATOM     17  S   UNL     1       6.121  -3.000  -4.823  1.00  0.00     0.258 S 
ATOM     18  O   UNL     1       5.982  -4.258  -5.533  1.00  0.00    -0.202 OA
ATOM     19  O   UNL     1       6.885  -1.925  -5.425  1.00  0.00    -0.202 OA
BRANCH  17  20
ATOM     20  C   UNL     1       6.713  -3.304  -3.157  1.00  0.00     0.066 C 
ATOM     21  C   UNL     1       6.968  -4.603  -2.861  1.00  0.00     0.026 C 
ATOM     22  C   UNL     1       7.830  -2.385  -2.685  1.00  0.00     0.055 C 
ATOM     23  C   UNL     1       8.293  -5.077  -3.373  1.00  0.00    -0.021 A 
ATOM     24  C   UNL     1       9.117  -2.670  -3.469  1.00  0.00     0.041 C 
ATOM     25  C   UNL     1       8.538  -6.443  -3.512  1.00  0.00     0.008 A 
ATOM     26  C   UNL     1       9.297  -4.147  -3.733  1.00  0.00    -0.040 A 
ATOM     27  C   UNL     1       9.731  -6.880  -4.093  1.00  0.00     0.001 A 
ATOM     28  C   UNL     1      10.462  -4.593  -4.363  1.00  0.00     0.004 A 
ATOM     29  C   UNL     1      10.672  -5.957  -4.550  1.00  0.00     0.000 A 
ENDBRANCH  17  20
ENDBRANCH  15  17
ENDBRANCH  14  15
ENDBRANCH   7   9
ENDBRANCH   6   7
ENDBRANCH   5   6
ENDBRANCH   4   5
ENDBRANCH   3   4
ENDBRANCH   2   3
ENDBRANCH   1   2
BRANCH   1  30
ATOM     30  O   UNL     1       2.586  -2.212   2.854  1.00  0.00    -0.377 OA
BRANCH  30  31
ATOM     31  C   UNL     1       4.006  -2.176   2.873  1.00  0.00     0.188 C 
BRANCH  31  32
ATOM     32  C   UNL     1       4.779  -3.027   1.846  1.00  0.00     0.188 C 
BRANCH  32  33
ATOM     33  O   UNL     1       3.959  -3.666   0.881  1.00  0.00    -0.376 OA
BRANCH  33  34
ATOM     34  C   UNL     1       3.780  -5.070   1.039  1.00  0.00     0.202 C 
BRANCH  34  35
ATOM     35  C   UNL     1       2.989  -5.538   2.273  1.00  0.00     0.261 C 
BRANCH  35  36
ATOM     36  O   UNL     1       3.467  -5.055   3.538  1.00  0.00    -0.460 OA
BRANCH  36  37
ATOM     37  C   UNL     1       4.651  -5.526   3.987  1.00  0.00     0.338 C 
ATOM     38  O   UNL     1       5.349  -6.374   3.457  1.00  0.00    -0.246 OA
BRANCH  37  39
ATOM     39  C   UNL     1       5.080  -4.664   5.113  1.00  0.00     0.060 A 
ATOM     40  C   UNL     1       6.380  -4.140   5.087  1.00  0.00     0.016 A 
ATOM     41  C   UNL     1       4.200  -4.306   6.143  1.00  0.00     0.016 A 
ATOM     42  C   UNL     1       6.817  -3.297   6.111  1.00  0.00     0.010 A 
ATOM     43  C   UNL     1       4.644  -3.474   7.178  1.00  0.00     0.010 A 
ATOM     44  C   UNL     1       5.968  -3.002   7.187  1.00  0.00    -0.014 A 
BRANCH  44  45
ATOM     45  C   UNL     1       6.561  -2.457   8.434  1.00  0.00     0.031 A 
ATOM     46  C   UNL     1       7.028  -3.450   9.466  1.00  0.00     0.074 A 
ATOM     47  C   UNL     1       6.740  -1.140   8.637  1.00  0.00     0.049 A 
ATOM     48  N   UNL     1       7.628  -3.248  10.610  1.00  0.00    -0.248 NA
ATOM     49  C   UNL     1       6.787  -4.870   9.155  1.00  0.00     0.031 C 
ATOM     50  C   UNL     1       6.366  -0.077   7.708  1.00  0.00     0.029 A 
ATOM     51  N   UNL     1       7.296  -0.476   9.704  1.00  0.00    -0.354 N 
ATOM     52  C   UNL     1       7.838  -4.511  11.150  1.00  0.00     0.074 A 
ATOM     53  C   UNL     1       7.271  -5.470  10.230  1.00  0.00     0.031 C 
ATOM     54  C   UNL     1       6.707   1.110   8.245  1.00  0.00     0.029 A 
ATOM     55  C   UNL     1       7.305   0.890   9.562  1.00  0.00     0.049 A 
ATOM     56  H   UNL     1       7.655  -0.937  10.496  1.00  0.00     0.167 HD
ATOM     57  C   UNL     1       8.460  -4.849  12.303  1.00  0.00     0.037 A 
ATOM     58  C   UNL     1       7.743   1.847  10.405  1.00  0.00     0.037 A 
ATOM     59  C   UNL     1       9.013  -3.900  13.229  1.00  0.00     0.049 A 
ATOM     60  C   UNL     1       8.359   1.450  11.724  1.00  0.00     0.074 A 
ATOM     61  C   UNL     1       9.673  -4.141  14.420  1.00  0.00     0.029 A 
ATOM     62  N   UNL     1       8.956  -2.524  13.072  1.00  0.00    -0.354 N 
ATOM     63  N   UNL     1       8.595   0.253  12.204  1.00  0.00    -0.248 NA
ATOM     64  C   UNL     1       8.776   2.543  12.616  1.00  0.00     0.031 C 
ATOM     65  C   UNL     1       9.972  -2.908  15.009  1.00  0.00     0.029 A 
ATOM     66  C   UNL     1       9.545  -1.900  14.158  1.00  0.00     0.049 A 
ATOM     67  H   UNL     1       8.556  -2.059  12.302  1.00  0.00     0.167 HD
ATOM     68  C   UNL     1       9.218   0.448  13.432  1.00  0.00     0.074 A 
ATOM     69  C   UNL     1       9.331   1.879  13.620  1.00  0.00     0.031 C 
ATOM     70  C   UNL     1       9.661  -0.474  14.323  1.00  0.00     0.037 A 
BRANCH  57  71
ATOM     71  C   UNL     1       8.536  -6.310  12.633  1.00  0.00     0.057 A 
ATOM     72  C   UNL     1       9.366  -7.188  11.924  1.00  0.00     0.134 A 
ATOM     73  C   UNL     1       7.759  -6.846  13.668  1.00  0.00     0.134 A 
ATOM     74  F   UNL     1      10.117  -6.741  10.905  1.00  0.00    -0.206 F 
ATOM     75  C   UNL     1       9.400  -8.553  12.214  1.00  0.00     0.040 A 
ATOM     76  C   UNL     1       7.805  -8.204  13.984  1.00  0.00     0.040 A 
ATOM     77  F   UNL     1       6.941  -6.060  14.383  1.00  0.00    -0.206 F 
ATOM     78  C   UNL     1       8.622  -9.063  13.251  1.00  0.00     0.006 A 
ENDBRANCH  57  71
BRANCH  58  79
ATOM     79  C   UNL     1       7.627   3.283  10.039  1.00  0.00     0.057 A 
ATOM     80  C   UNL     1       8.763   4.060   9.778  1.00  0.00     0.134 A 
ATOM     81  C   UNL     1       6.384   3.925   9.986  1.00  0.00     0.134 A 
ATOM     82  F   UNL     1       9.985   3.511   9.841  1.00  0.00    -0.206 F 
ATOM     83  C   UNL     1       8.668   5.425   9.498  1.00  0.00     0.040 A 
ATOM     84  C   UNL     1       6.273   5.283   9.683  1.00  0.00     0.040 A 
ATOM     85  F   UNL     1       5.258   3.240  10.232  1.00  0.00    -0.206 F 
ATOM     86  C   UNL     1       7.419   6.039   9.445  1.00  0.00     0.006 A 
ENDBRANCH  58  79
BRANCH  70  87
ATOM     87  C   UNL     1      10.352   0.032  15.557  1.00  0.00     0.057 A 
ATOM     88  C   UNL     1       9.655   0.664  16.593  1.00  0.00     0.134 A 
ATOM     89  C   UNL     1      11.730  -0.158  15.726  1.00  0.00     0.134 A 
ATOM     90  F   UNL     1       8.336   0.884  16.490  1.00  0.00    -0.206 F 
ATOM     91  C   UNL     1      10.308   1.114  17.742  1.00  0.00     0.040 A 
ATOM     92  C   UNL     1      12.389   0.263  16.882  1.00  0.00     0.040 A 
ATOM     93  F   UNL     1      12.456  -0.768  14.777  1.00  0.00    -0.206 F 
ATOM     94  C   UNL     1      11.679   0.907  17.892  1.00  0.00     0.006 A 
ENDBRANCH  70  87
ENDBRANCH  44  45
ENDBRANCH  37  39
ENDBRANCH  36  37
ENDBRANCH  35  36
ENDBRANCH  34  35
ENDBRANCH  33  34
ENDBRANCH  32  33
ENDBRANCH  31  32
ENDBRANCH  30  31
ENDBRANCH   1  30
TORSDOF 23
