REMARK SMILES CC[C@H](NC(=O)c1nn(C)cc1C(=O)OCCOCCOCCOCCOC(=O)c1ccc(-c2c3nc(c(-c4c(F)cccc4F)c4ccc([nH]4)c(-c4c(F)cccc4F)c4nc(c(-c5c(F)cccc5F)c5ccc2[nH]5)C=C4)C=C3)cc1)c1ccccc1
REMARK SMILES IDX 20 1 19 2 18 3 17 4 16 5 15 6 13 7 14 8 12 9 7 10 8 11 9 12
REMARK SMILES IDX 11 13 10 14 5 15 4 16 6 18 3 19 2 20 1 21 84 22 85 23 89 24
REMARK SMILES IDX 86 25 88 26 87 27 21 28 22 29 23 30 24 31 25 32 26 33 27 34
REMARK SMILES IDX 28 35 29 36 30 37 31 38 83 39 32 40 82 41 33 42 34 43 35 44
REMARK SMILES IDX 76 45 36 46 81 47 75 48 77 49 37 50 80 51 74 52 73 53 38 55
REMARK SMILES IDX 64 56 47 57 63 58 48 59 51 60 62 61 78 62 49 63 50 64 61 66
REMARK SMILES IDX 79 67 52 68 39 69 40 70 45 71 41 72 42 73 44 74 46 75 43 76
REMARK SMILES IDX 65 77 66 78 71 79 67 80 68 81 70 82 72 83 69 84 53 85 54 86
REMARK SMILES IDX 59 87 55 88 56 89 58 90 60 91 57 92
REMARK H PARENT 4 17 77 54 51 65
REMARK Flexibility Score: inf
ROOT
ATOM      1  C   UNL     1       0.940  -3.818   3.021  1.00  0.00     0.188 C 
ENDROOT
BRANCH   1   2
ATOM      2  C   UNL     1      -0.546  -3.530   3.260  1.00  0.00     0.188 C 
BRANCH   2   3
ATOM      3  O   UNL     1      -1.340  -4.690   3.446  1.00  0.00    -0.376 OA
BRANCH   3   4
ATOM      4  C   UNL     1      -2.119  -5.037   2.300  1.00  0.00     0.202 C 
BRANCH   4   5
ATOM      5  C   UNL     1      -1.358  -5.942   1.341  1.00  0.00     0.261 C 
BRANCH   5   6
ATOM      6  O   UNL     1      -0.709  -5.208  -0.056  1.00  0.00    -0.460 OA
BRANCH   6   7
ATOM      7  C   UNL     1      -0.467  -4.918  -1.902  1.00  0.00     0.342 C 
ATOM      8  O   UNL     1      -1.279  -5.201  -2.805  1.00  0.00    -0.246 OA
BRANCH   7   9
ATOM      9  C   UNL     1       0.842  -4.420  -2.536  1.00  0.00     0.111 A 
ATOM     10  C   UNL     1       1.275  -3.102  -2.882  1.00  0.00     0.164 A 
ATOM     11  N   UNL     1       2.544  -3.115  -3.341  1.00  0.00    -0.167 NA
ATOM     12  N   UNL     1       2.868  -4.415  -3.380  1.00  0.00    -0.274 N 
ATOM     13  C   UNL     1       1.847  -5.239  -3.036  1.00  0.00     0.125 A 
ATOM     14  C   UNL     1       4.222  -4.811  -3.686  1.00  0.00     0.173 C 
BRANCH  10  15
ATOM     15  C   UNL     1       0.549  -1.841  -2.739  1.00  0.00     0.273 C 
ATOM     16  N   UNL     1       0.178  -1.447  -1.478  1.00  0.00    -0.344 N 
ATOM     17  H   UNL     1      -0.425  -0.672  -1.420  1.00  0.00     0.164 HD
ATOM     18  O   UNL     1       0.272  -1.108  -3.688  1.00  0.00    -0.267 OA
BRANCH  16  19
ATOM     19  C   UNL     1       0.580  -2.050  -0.222  1.00  0.00     0.112 C 
BRANCH  19  20
ATOM     20  C   UNL     1       0.162  -1.142   0.948  1.00  0.00     0.026 C 
ATOM     21  C   UNL     1       0.715   0.278   0.893  1.00  0.00     0.006 C 
ENDBRANCH  19  20
BRANCH  19  22
ATOM     22  C   UNL     1      -0.002  -3.460  -0.177  1.00  0.00    -0.026 A 
ATOM     23  C   UNL     1      -1.768  -3.695  -0.539  1.00  0.00     0.006 A 
ATOM     24  C   UNL     1       1.129  -4.906  -0.176  1.00  0.00     0.006 A 
ATOM     25  C   UNL     1      -2.423  -5.353  -0.904  1.00  0.00     0.000 A 
ATOM     26  C   UNL     1       0.492  -6.554  -0.633  1.00  0.00     0.000 A 
ATOM     27  C   UNL     1      -1.272  -6.780  -1.012  1.00  0.00     0.000 A 
ENDBRANCH  19  22
ENDBRANCH  16  19
ENDBRANCH  10  15
ENDBRANCH   7   9
ENDBRANCH   6   7
ENDBRANCH   5   6
ENDBRANCH   4   5
ENDBRANCH   3   4
ENDBRANCH   2   3
ENDBRANCH   1   2
BRANCH   1  28
ATOM     28  O   UNL     1       1.534  -4.931   3.656  1.00  0.00    -0.377 OA
BRANCH  28  29
ATOM     29  C   UNL     1       1.162  -5.181   4.995  1.00  0.00     0.188 C 
BRANCH  29  30
ATOM     30  C   UNL     1       1.007  -3.985   5.952  1.00  0.00     0.188 C 
BRANCH  30  31
ATOM     31  O   UNL     1       1.567  -2.760   5.487  1.00  0.00    -0.376 OA
BRANCH  31  32
ATOM     32  C   UNL     1       2.818  -2.377   6.050  1.00  0.00     0.202 C 
BRANCH  32  33
ATOM     33  C   UNL     1       4.029  -3.122   5.476  1.00  0.00     0.261 C 
BRANCH  33  34
ATOM     34  O   UNL     1       4.073  -4.523   5.781  1.00  0.00    -0.460 OA
BRANCH  34  35
ATOM     35  C   UNL     1       4.066  -4.890   7.082  1.00  0.00     0.338 C 
ATOM     36  O   UNL     1       4.116  -4.175   8.063  1.00  0.00    -0.246 OA
BRANCH  35  37
ATOM     37  C   UNL     1       3.732  -6.326   7.094  1.00  0.00     0.060 A 
ATOM     38  C   UNL     1       2.549  -6.728   7.731  1.00  0.00     0.016 A 
ATOM     39  C   UNL     1       4.497  -7.235   6.359  1.00  0.00     0.016 A 
ATOM     40  C   UNL     1       2.116  -8.046   7.610  1.00  0.00     0.010 A 
ATOM     41  C   UNL     1       4.096  -8.567   6.292  1.00  0.00     0.010 A 
ATOM     42  C   UNL     1       2.916  -8.978   6.933  1.00  0.00    -0.014 A 
BRANCH  42  43
ATOM     43  C   UNL     1       2.688 -10.420   7.162  1.00  0.00     0.031 A 
ATOM     44  C   UNL     1       3.223 -10.990   8.447  1.00  0.00     0.074 A 
ATOM     45  C   UNL     1       2.065 -11.201   6.264  1.00  0.00     0.049 A 
ATOM     46  N   UNL     1       3.195 -12.219   8.886  1.00  0.00    -0.248 NA
ATOM     47  C   UNL     1       3.875 -10.037   9.364  1.00  0.00     0.031 C 
ATOM     48  C   UNL     1       1.483 -10.754   5.000  1.00  0.00     0.029 A 
ATOM     49  N   UNL     1       1.835 -12.554   6.281  1.00  0.00    -0.354 N 
ATOM     50  C   UNL     1       3.805 -12.179  10.133  1.00  0.00     0.074 A 
ATOM     51  C   UNL     1       4.209 -10.816  10.378  1.00  0.00     0.031 C 
ATOM     52  C   UNL     1       0.983 -11.822   4.350  1.00  0.00     0.029 A 
ATOM     53  C   UNL     1       1.231 -13.026   5.141  1.00  0.00     0.049 A 
ATOM     54  H   UNL     1       2.079 -13.131   7.040  1.00  0.00     0.167 HD
ATOM     55  C   UNL     1       4.019 -13.194  10.998  1.00  0.00     0.037 A 
ATOM     56  C   UNL     1       0.943 -14.292   4.781  1.00  0.00     0.037 A 
ATOM     57  C   UNL     1       3.672 -14.558  10.732  1.00  0.00     0.049 A 
ATOM     58  C   UNL     1       1.290 -15.420   5.721  1.00  0.00     0.074 A 
ATOM     59  C   UNL     1       3.852 -15.666  11.538  1.00  0.00     0.029 A 
ATOM     60  N   UNL     1       3.098 -15.001   9.551  1.00  0.00    -0.354 N 
ATOM     61  N   UNL     1       1.819 -15.368   6.921  1.00  0.00    -0.248 NA
ATOM     62  C   UNL     1       1.008 -16.786   5.252  1.00  0.00     0.031 C 
ATOM     63  C   UNL     1       3.425 -16.791  10.824  1.00  0.00     0.029 A 
ATOM     64  C   UNL     1       2.943 -16.374   9.592  1.00  0.00     0.049 A 
ATOM     65  H   UNL     1       2.838 -14.424   8.797  1.00  0.00     0.167 HD
ATOM     66  C   UNL     1       1.909 -16.684   7.357  1.00  0.00     0.074 A 
ATOM     67  C   UNL     1       1.370 -17.513   6.300  1.00  0.00     0.031 C 
ATOM     68  C   UNL     1       2.394 -17.169   8.526  1.00  0.00     0.037 A 
BRANCH  55  69
ATOM     69  C   UNL     1       4.694 -12.854  12.289  1.00  0.00     0.057 A 
ATOM     70  C   UNL     1       4.012 -12.198  13.321  1.00  0.00     0.134 A 
ATOM     71  C   UNL     1       6.038 -13.180  12.498  1.00  0.00     0.134 A 
ATOM     72  F   UNL     1       2.731 -11.831  13.165  1.00  0.00    -0.206 F 
ATOM     73  C   UNL     1       4.649 -11.870  14.518  1.00  0.00     0.040 A 
ATOM     74  C   UNL     1       6.681 -12.873  13.697  1.00  0.00     0.040 A 
ATOM     75  F   UNL     1       6.747 -13.793  11.539  1.00  0.00    -0.206 F 
ATOM     76  C   UNL     1       5.986 -12.214  14.710  1.00  0.00     0.006 A 
ENDBRANCH  55  69
BRANCH  56  77
ATOM     77  C   UNL     1       0.326 -14.585   3.462  1.00  0.00     0.057 A 
ATOM     78  C   UNL     1      -0.977 -15.090   3.366  1.00  0.00     0.134 A 
ATOM     79  C   UNL     1       1.046 -14.436   2.271  1.00  0.00     0.134 A 
ATOM     80  F   UNL     1      -1.707 -15.285   4.474  1.00  0.00    -0.206 F 
ATOM     81  C   UNL     1      -1.531 -15.459   2.139  1.00  0.00     0.040 A 
ATOM     82  C   UNL     1       0.496 -14.780   1.034  1.00  0.00     0.040 A 
ATOM     83  F   UNL     1       2.301 -13.964   2.292  1.00  0.00    -0.206 F 
ATOM     84  C   UNL     1      -0.794 -15.302   0.967  1.00  0.00     0.006 A 
ENDBRANCH  56  77
BRANCH  68  85
ATOM     85  C   UNL     1       2.341 -18.652   8.733  1.00  0.00     0.057 A 
ATOM     86  C   UNL     1       3.229 -19.518   8.084  1.00  0.00     0.134 A 
ATOM     87  C   UNL     1       1.435 -19.211   9.643  1.00  0.00     0.134 A 
ATOM     88  F   UNL     1       4.114 -19.042   7.195  1.00  0.00    -0.206 F 
ATOM     89  C   UNL     1       3.207 -20.892   8.322  1.00  0.00     0.040 A 
ATOM     90  C   UNL     1       1.419 -20.581   9.906  1.00  0.00     0.040 A 
ATOM     91  F   UNL     1       0.567 -18.432  10.306  1.00  0.00    -0.206 F 
ATOM     92  C   UNL     1       2.306 -21.426   9.242  1.00  0.00     0.006 A 
ENDBRANCH  68  85
ENDBRANCH  42  43
ENDBRANCH  35  37
ENDBRANCH  34  35
ENDBRANCH  33  34
ENDBRANCH  32  33
ENDBRANCH  31  32
ENDBRANCH  30  31
ENDBRANCH  29  30
ENDBRANCH  28  29
ENDBRANCH   1  28
TORSDOF 24
