REMARK SMILES CCn1c(CC2CC[NH+](Cc3cn[nH]c3C(=O)OCCOCCOCCOCCOC(=O)c3ccc(-c4c5nc(c(-c6c(F)cccc6F)c6ccc([nH]6)c(-c6c(F)cccc6F)c6nc(c(-c7c(F)cccc7F)c7ccc4[nH]7)C=C6)C=C5)cc3)CC2)nn(C)c1=O
REMARK SMILES IDX 22 1 21 2 20 3 19 4 18 5 16 6 17 7 15 8 11 9 12 10 13 11
REMARK SMILES IDX 14 12 10 14 9 15 6 16 7 17 88 18 8 19 87 20 5 22 4 23 3 24
REMARK SMILES IDX 92 25 89 26 90 27 93 28 91 29 2 30 1 31 23 32 24 33 25 34
REMARK SMILES IDX 26 35 27 36 28 37 29 38 30 39 31 40 32 41 33 42 34 43 86 44
REMARK SMILES IDX 35 45 85 46 36 47 37 48 38 49 79 50 39 51 84 52 78 53 80 54
REMARK SMILES IDX 40 55 83 56 77 57 76 58 41 60 67 61 50 62 66 63 51 64 54 65
REMARK SMILES IDX 65 66 81 67 52 68 53 69 64 71 82 72 55 73 42 74 43 75 48 76
REMARK SMILES IDX 44 77 45 78 47 79 49 80 46 81 68 82 69 83 74 84 70 85 71 86
REMARK SMILES IDX 73 87 75 88 72 89 56 90 57 91 62 92 58 93 59 94 61 95 63 96
REMARK SMILES IDX 60 97
REMARK H PARENT 14 13 9 21 80 59 54 70
REMARK Flexibility Score: inf
ROOT
ATOM      1  C   UNL     1      -3.385  -3.262  -0.103  1.00  0.00     0.188 C 
ENDROOT
BRANCH   1   2
ATOM      2  O   UNL     1      -4.775  -3.501  -0.268  1.00  0.00    -0.376 OA
BRANCH   2   3
ATOM      3  C   UNL     1      -5.700  -3.537   0.803  1.00  0.00     0.202 C 
BRANCH   3   4
ATOM      4  C   UNL     1      -5.499  -4.361   2.088  1.00  0.00     0.261 C 
BRANCH   4   5
ATOM      5  O   UNL     1      -4.167  -4.454   2.604  1.00  0.00    -0.459 OA
BRANCH   5   6
ATOM      6  C   UNL     1      -3.483  -5.506   2.096  1.00  0.00     0.356 C 
ATOM      7  O   UNL     1      -3.961  -6.357   1.367  1.00  0.00    -0.244 OA
BRANCH   6   8
ATOM      8  C   UNL     1      -2.074  -5.435   2.381  1.00  0.00     0.152 A 
ATOM      9  C   UNL     1      -1.215  -4.874   3.331  1.00  0.00     0.059 A 
ATOM     10  C   UNL     1       0.014  -5.514   3.022  1.00  0.00     0.145 A 
ATOM     11  N   UNL     1      -0.004  -6.215   1.892  1.00  0.00    -0.183 NA
ATOM     12  N   UNL     1      -1.262  -6.091   1.489  1.00  0.00    -0.271 N 
ATOM     13  H   UNL     1      -1.585  -6.439   0.626  1.00  0.00     0.190 HD
BRANCH   9  14
ATOM     14  C   UNL     1      -1.476  -3.995   4.533  1.00  0.00     0.303 C 
BRANCH  14  15
ATOM     15  N   UNL     1      -0.569  -2.826   4.719  1.00  0.00    -0.331 N 
ATOM     16  C   UNL     1       1.619  -0.873   4.186  1.00  0.00     0.008 C 
ATOM     17  C   UNL     1       1.720  -1.934   5.286  1.00  0.00     0.065 C 
ATOM     18  C   UNL     1       0.146  -0.570   3.920  1.00  0.00     0.065 C 
ATOM     19  C   UNL     1       0.817  -3.149   5.057  1.00  0.00     0.262 C 
ATOM     20  C   UNL     1      -0.700  -1.819   3.674  1.00  0.00     0.262 C 
ATOM     21  H   UNL     1      -0.918  -2.389   5.572  1.00  0.00     0.348 HD
BRANCH  16  22
ATOM     22  C   UNL     1       2.489  -1.083   2.924  1.00  0.00     0.081 C 
BRANCH  22  23
ATOM     23  C   UNL     1       2.364  -2.320   2.057  1.00  0.00     0.133 A 
ATOM     24  N   UNL     1       1.809  -2.367   0.827  1.00  0.00    -0.279 N 
ATOM     25  C   UNL     1       1.967  -3.677   0.401  1.00  0.00     0.345 A 
ATOM     26  N   UNL     1       2.909  -3.442   2.445  1.00  0.00    -0.155 NA
ATOM     27  N   UNL     1       2.671  -4.312   1.414  1.00  0.00    -0.216 N 
ATOM     28  O   UNL     1       1.577  -4.154  -0.654  1.00  0.00    -0.246 OA
ATOM     29  C   UNL     1       3.099  -5.686   1.418  1.00  0.00     0.179 C 
BRANCH  24  30
ATOM     30  C   UNL     1       1.096  -1.438  -0.037  1.00  0.00     0.125 C 
ATOM     31  C   UNL     1       1.499   0.021   0.004  1.00  0.00     0.028 C 
ENDBRANCH  24  30
ENDBRANCH  22  23
ENDBRANCH  16  22
ENDBRANCH  14  15
ENDBRANCH   9  14
ENDBRANCH   6   8
ENDBRANCH   5   6
ENDBRANCH   4   5
ENDBRANCH   3   4
ENDBRANCH   2   3
ENDBRANCH   1   2
BRANCH   1  32
ATOM     32  C   UNL     1      -2.827  -2.308   0.966  1.00  0.00     0.188 C 
BRANCH  32  33
ATOM     33  O   UNL     1      -3.747  -1.949   1.978  1.00  0.00    -0.377 OA
BRANCH  33  34
ATOM     34  C   UNL     1      -4.392  -0.688   1.850  1.00  0.00     0.188 C 
BRANCH  34  35
ATOM     35  C   UNL     1      -4.870  -0.228   0.447  1.00  0.00     0.188 C 
BRANCH  35  36
ATOM     36  O   UNL     1      -3.981  -0.577  -0.606  1.00  0.00    -0.376 OA
BRANCH  36  37
ATOM     37  C   UNL     1      -3.228   0.402  -1.298  1.00  0.00     0.202 C 
BRANCH  37  38
ATOM     38  C   UNL     1      -2.143   1.144  -0.525  1.00  0.00     0.261 C 
BRANCH  38  39
ATOM     39  O   UNL     1      -2.489   1.417   0.816  1.00  0.00    -0.460 OA
BRANCH  39  40
ATOM     40  C   UNL     1      -3.428   2.373   0.957  1.00  0.00     0.338 C 
ATOM     41  O   UNL     1      -4.047   2.936   0.076  1.00  0.00    -0.246 OA
BRANCH  40  42
ATOM     42  C   UNL     1      -3.515   2.703   2.384  1.00  0.00     0.060 A 
ATOM     43  C   UNL     1      -4.490   3.643   2.707  1.00  0.00     0.016 A 
ATOM     44  C   UNL     1      -2.347   2.518   3.135  1.00  0.00     0.016 A 
ATOM     45  C   UNL     1      -4.104   4.668   3.527  1.00  0.00     0.010 A 
ATOM     46  C   UNL     1      -1.946   3.557   3.917  1.00  0.00     0.010 A 
ATOM     47  C   UNL     1      -2.788   4.662   3.994  1.00  0.00    -0.014 A 
BRANCH  47  48
ATOM     48  C   UNL     1      -2.293   5.841   4.652  1.00  0.00     0.031 A 
ATOM     49  C   UNL     1      -2.787   5.918   6.040  1.00  0.00     0.074 A 
ATOM     50  C   UNL     1      -1.392   6.633   4.045  1.00  0.00     0.049 A 
ATOM     51  N   UNL     1      -3.590   6.792   6.545  1.00  0.00    -0.248 NA
ATOM     52  C   UNL     1      -2.548   4.746   6.904  1.00  0.00     0.031 C 
ATOM     53  C   UNL     1      -0.711   6.427   2.760  1.00  0.00     0.029 A 
ATOM     54  N   UNL     1      -0.802   7.759   4.522  1.00  0.00    -0.354 N 
ATOM     55  C   UNL     1      -3.749   6.399   7.868  1.00  0.00     0.074 A 
ATOM     56  C   UNL     1      -3.312   5.035   7.954  1.00  0.00     0.031 C 
ATOM     57  C   UNL     1       0.351   7.261   2.677  1.00  0.00     0.029 A 
ATOM     58  C   UNL     1       0.350   8.132   3.837  1.00  0.00     0.049 A 
ATOM     59  H   UNL     1      -1.159   8.267   5.287  1.00  0.00     0.167 HD
ATOM     60  C   UNL     1      -3.893   7.327   8.848  1.00  0.00     0.037 A 
ATOM     61  C   UNL     1       1.266   9.022   4.296  1.00  0.00     0.037 A 
ATOM     62  C   UNL     1      -4.356   8.582   8.312  1.00  0.00     0.049 A 
ATOM     63  C   UNL     1       0.595   9.820   5.360  1.00  0.00     0.074 A 
ATOM     64  C   UNL     1      -5.485   8.979   7.623  1.00  0.00     0.029 A 
ATOM     65  N   UNL     1      -3.422   9.568   8.109  1.00  0.00    -0.354 N 
ATOM     66  N   UNL     1      -0.395  10.640   5.127  1.00  0.00    -0.248 NA
ATOM     67  C   UNL     1       0.683   9.322   6.726  1.00  0.00     0.031 C 
ATOM     68  C   UNL     1      -5.024   9.939   6.676  1.00  0.00     0.029 A 
ATOM     69  C   UNL     1      -3.655  10.123   6.876  1.00  0.00     0.049 A 
ATOM     70  H   UNL     1      -2.710   9.830   8.736  1.00  0.00     0.167 HD
ATOM     71  C   UNL     1      -1.280  10.441   6.179  1.00  0.00     0.074 A 
ATOM     72  C   UNL     1      -0.533   9.660   7.163  1.00  0.00     0.031 C 
ATOM     73  C   UNL     1      -2.619  10.667   6.027  1.00  0.00     0.037 A 
BRANCH  60  74
ATOM     74  C   UNL     1      -3.202   7.206  10.182  1.00  0.00     0.057 A 
ATOM     75  C   UNL     1      -3.525   8.122  11.193  1.00  0.00     0.134 A 
ATOM     76  C   UNL     1      -2.049   6.425  10.425  1.00  0.00     0.134 A 
ATOM     77  F   UNL     1      -4.585   8.934  11.070  1.00  0.00    -0.206 F 
ATOM     78  C   UNL     1      -2.722   8.295  12.326  1.00  0.00     0.040 A 
ATOM     79  C   UNL     1      -1.275   6.550  11.578  1.00  0.00     0.040 A 
ATOM     80  F   UNL     1      -1.542   5.573   9.527  1.00  0.00    -0.206 F 
ATOM     81  C   UNL     1      -1.591   7.512  12.519  1.00  0.00     0.006 A 
ENDBRANCH  60  74
BRANCH  61  82
ATOM     82  C   UNL     1       2.741   8.956   4.158  1.00  0.00     0.057 A 
ATOM     83  C   UNL     1       3.548  10.068   4.439  1.00  0.00     0.134 A 
ATOM     84  C   UNL     1       3.416   7.731   4.007  1.00  0.00     0.134 A 
ATOM     85  F   UNL     1       2.995  11.272   4.650  1.00  0.00    -0.206 F 
ATOM     86  C   UNL     1       4.940   9.965   4.574  1.00  0.00     0.040 A 
ATOM     87  C   UNL     1       4.804   7.615   4.132  1.00  0.00     0.040 A 
ATOM     88  F   UNL     1       2.744   6.586   3.820  1.00  0.00    -0.206 F 
ATOM     89  C   UNL     1       5.572   8.733   4.429  1.00  0.00     0.006 A 
ENDBRANCH  61  82
BRANCH  73  90
ATOM     90  C   UNL     1      -3.075  11.332   4.755  1.00  0.00     0.057 A 
ATOM     91  C   UNL     1      -2.996  10.732   3.488  1.00  0.00     0.134 A 
ATOM     92  C   UNL     1      -3.775  12.538   4.837  1.00  0.00     0.134 A 
ATOM     93  F   UNL     1      -2.430   9.530   3.327  1.00  0.00    -0.206 F 
ATOM     94  C   UNL     1      -3.559  11.322   2.352  1.00  0.00     0.040 A 
ATOM     95  C   UNL     1      -4.370  13.124   3.717  1.00  0.00     0.040 A 
ATOM     96  F   UNL     1      -3.943  13.140   6.025  1.00  0.00    -0.206 F 
ATOM     97  C   UNL     1      -4.258  12.520   2.467  1.00  0.00     0.006 A 
ENDBRANCH  73  90
ENDBRANCH  47  48
ENDBRANCH  40  42
ENDBRANCH  39  40
ENDBRANCH  38  39
ENDBRANCH  37  38
ENDBRANCH  36  37
ENDBRANCH  35  36
ENDBRANCH  34  35
ENDBRANCH  33  34
ENDBRANCH  32  33
ENDBRANCH   1  32
TORSDOF 25
