REMARK SMILES COc1ccc([C@@H]2C(C#N)=C(N)N3C(=O)[C@H](CC(=O)OCCOCCOCCOCCOC(=O)c4ccc(-c5c6nc(c(-c7c(F)cccc7F)c7ccc([nH]7)c(-c7c(F)cccc7F)c7nc(c(-c8c(F)cccc8F)c8ccc5[nH]8)C=C7)C=C6)cc4)SC3=C2C#N)cc1
REMARK SMILES IDX 25 1 24 2 23 3 22 4 21 5 20 6 18 7 19 8 17 9 16 10 7 11 8 12
REMARK SMILES IDX 91 13 11 14 90 15 13 16 89 17 14 18 15 19 6 20 3 21 4 22
REMARK SMILES IDX 95 23 5 24 94 25 2 26 1 27 9 28 10 29 92 30 93 31 12 32
REMARK SMILES IDX 26 35 27 36 28 37 29 38 30 39 31 40 32 41 33 42 34 43 35 44
REMARK SMILES IDX 36 45 88 46 37 47 87 48 38 49 39 50 40 51 81 52 41 53 86 54
REMARK SMILES IDX 80 55 82 56 42 57 85 58 79 59 78 60 43 62 69 63 52 64 68 65
REMARK SMILES IDX 53 66 56 67 67 68 83 69 54 70 55 71 66 73 84 74 57 75 44 76
REMARK SMILES IDX 45 77 50 78 46 79 47 80 49 81 51 82 48 83 70 84 71 85 76 86
REMARK SMILES IDX 72 87 73 88 75 89 77 90 74 91 58 92 59 93 64 94 60 95 61 96
REMARK SMILES IDX 63 97 65 98 62 99
REMARK H PARENT 12 33 12 34 82 61 56 72
REMARK Flexibility Score: inf
ROOT
ATOM      1  C   UNL     1       3.950  -2.484 -12.475  1.00  0.00     0.188 C 
ENDROOT
BRANCH   1   2
ATOM      2  C   UNL     1       5.071  -1.989 -13.395  1.00  0.00     0.188 C 
BRANCH   2   3
ATOM      3  O   UNL     1       5.856  -2.934 -14.090  1.00  0.00    -0.376 OA
BRANCH   3   4
ATOM      4  C   UNL     1       6.842  -3.711 -13.426  1.00  0.00     0.202 C 
BRANCH   4   5
ATOM      5  C   UNL     1       7.512  -3.330 -12.094  1.00  0.00     0.261 C 
BRANCH   5   6
ATOM      6  O   UNL     1       6.697  -2.656 -11.125  1.00  0.00    -0.463 OA
BRANCH   6   7
ATOM      7  C   UNL     1       7.168  -1.467 -10.680  1.00  0.00     0.307 C 
ATOM      8  O   UNL     1       8.179  -0.919 -11.106  1.00  0.00    -0.252 OA
BRANCH   7   9
ATOM      9  C   UNL     1       6.309  -0.799  -9.629  1.00  0.00     0.147 C 
BRANCH   9  10
ATOM     10  C   UNL     1       5.051  -1.523  -9.202  1.00  0.00     0.154 C 
ATOM     11  C   UNL     1       1.779  -2.836  -5.712  1.00  0.00     0.107 C 
ATOM     12  C   UNL     1       2.822  -3.934  -5.778  1.00  0.00     0.083 C 
ATOM     13  C   UNL     1       2.171  -1.667  -6.576  1.00  0.00     0.073 C 
ATOM     14  C   UNL     1       3.882  -3.937  -6.621  1.00  0.00     0.126 C 
ATOM     15  C   UNL     1       3.261  -1.741  -7.366  1.00  0.00     0.099 C 
ATOM     16  N   UNL     1       4.098  -2.842  -7.452  1.00  0.00    -0.258 N 
ATOM     17  S   UNL     1       3.887  -0.427  -8.313  1.00  0.00    -0.093 SA
ATOM     18  C   UNL     1       5.230  -2.711  -8.286  1.00  0.00     0.247 C 
ATOM     19  O   UNL     1       6.191  -3.474  -8.338  1.00  0.00    -0.273 OA
BRANCH  11  20
ATOM     20  C   UNL     1       1.457  -2.405  -4.281  1.00  0.00    -0.034 A 
ATOM     21  C   UNL     1       0.807  -1.540  -1.685  1.00  0.00     0.118 A 
ATOM     22  C   UNL     1      -0.167  -2.117  -2.496  1.00  0.00     0.047 A 
ATOM     23  C   UNL     1       2.116  -1.427  -2.150  1.00  0.00     0.047 A 
ATOM     24  C   UNL     1       0.149  -2.538  -3.789  1.00  0.00     0.008 A 
ATOM     25  C   UNL     1       2.440  -1.852  -3.441  1.00  0.00     0.008 A 
BRANCH  21  26
ATOM     26  O   UNL     1       0.403  -1.166  -0.433  1.00  0.00    -0.497 OA
ATOM     27  C   UNL     1       0.937   0.083  -0.002  1.00  0.00     0.278 C 
ENDBRANCH  21  26
ENDBRANCH  11  20
BRANCH  12  28
ATOM     28  C   UNL     1       2.809  -4.981  -4.676  1.00  0.00     0.100 C 
ATOM     29  N   UNL     1       2.798  -5.849  -3.761  1.00  0.00    -0.193 NA
ENDBRANCH  12  28
BRANCH  13  30
ATOM     30  C   UNL     1       1.529  -0.311  -6.331  1.00  0.00     0.098 C 
ATOM     31  N   UNL     1       0.997   0.814  -6.128  1.00  0.00    -0.193 NA
ENDBRANCH  13  30
BRANCH  14  32
ATOM     32  N   UNL     1       4.770  -4.982  -6.650  1.00  0.00    -0.384 N 
ATOM     33  H   UNL     1       4.630  -5.763  -6.067  1.00  0.00     0.158 HD
ATOM     34  H   UNL     1       5.547  -4.951  -7.254  1.00  0.00     0.158 HD
ENDBRANCH  14  32
ENDBRANCH   9  10
ENDBRANCH   7   9
ENDBRANCH   6   7
ENDBRANCH   5   6
ENDBRANCH   4   5
ENDBRANCH   3   4
ENDBRANCH   2   3
ENDBRANCH   1   2
BRANCH   1  35
ATOM     35  O   UNL     1       4.232  -3.640 -11.708  1.00  0.00    -0.377 OA
BRANCH  35  36
ATOM     36  C   UNL     1       4.011  -4.929 -12.279  1.00  0.00     0.188 C 
BRANCH  36  37
ATOM     37  C   UNL     1       3.602  -5.096 -13.759  1.00  0.00     0.188 C 
BRANCH  37  38
ATOM     38  O   UNL     1       2.726  -4.105 -14.267  1.00  0.00    -0.376 OA
BRANCH  38  39
ATOM     39  C   UNL     1       1.324  -4.327 -14.211  1.00  0.00     0.202 C 
BRANCH  39  40
ATOM     40  C   UNL     1       0.698  -4.562 -12.826  1.00  0.00     0.261 C 
BRANCH  40  41
ATOM     41  O   UNL     1       1.121  -5.760 -12.151  1.00  0.00    -0.460 OA
BRANCH  41  42
ATOM     42  C   UNL     1       0.936  -6.928 -12.796  1.00  0.00     0.338 C 
ATOM     43  O   UNL     1       0.356  -7.104 -13.858  1.00  0.00    -0.246 OA
BRANCH  42  44
ATOM     44  C   UNL     1       1.721  -7.967 -12.109  1.00  0.00     0.060 A 
ATOM     45  C   UNL     1       2.717  -8.634 -12.831  1.00  0.00     0.016 A 
ATOM     46  C   UNL     1       1.450  -8.313 -10.783  1.00  0.00     0.016 A 
ATOM     47  C   UNL     1       3.409  -9.690 -12.246  1.00  0.00     0.010 A 
ATOM     48  C   UNL     1       2.135  -9.385 -10.202  1.00  0.00     0.010 A 
ATOM     49  C   UNL     1       3.085 -10.105 -10.947  1.00  0.00    -0.014 A 
BRANCH  49  50
ATOM     50  C   UNL     1       3.614 -11.403 -10.461  1.00  0.00     0.031 A 
ATOM     51  C   UNL     1       2.734 -12.620 -10.547  1.00  0.00     0.074 A 
ATOM     52  C   UNL     1       4.881 -11.514 -10.025  1.00  0.00     0.049 A 
ATOM     53  N   UNL     1       2.999 -13.862 -10.232  1.00  0.00    -0.248 NA
ATOM     54  C   UNL     1       1.371 -12.409 -11.062  1.00  0.00     0.031 C 
ATOM     55  C   UNL     1       5.841 -10.416  -9.931  1.00  0.00     0.029 A 
ATOM     56  N   UNL     1       5.577 -12.612  -9.587  1.00  0.00    -0.354 N 
ATOM     57  C   UNL     1       1.841 -14.578 -10.509  1.00  0.00     0.074 A 
ATOM     58  C   UNL     1       0.858 -13.627 -10.982  1.00  0.00     0.031 C 
ATOM     59  C   UNL     1       7.006 -10.898  -9.464  1.00  0.00     0.029 A 
ATOM     60  C   UNL     1       6.864 -12.329  -9.201  1.00  0.00     0.049 A 
ATOM     61  H   UNL     1       5.190 -13.516  -9.551  1.00  0.00     0.167 HD
ATOM     62  C   UNL     1       1.619 -15.909 -10.393  1.00  0.00     0.037 A 
ATOM     63  C   UNL     1       7.813 -13.133  -8.684  1.00  0.00     0.037 A 
ATOM     64  C   UNL     1       2.598 -16.853  -9.921  1.00  0.00     0.049 A 
ATOM     65  C   UNL     1       7.518 -14.600  -8.500  1.00  0.00     0.074 A 
ATOM     66  C   UNL     1       2.476 -18.225  -9.786  1.00  0.00     0.029 A 
ATOM     67  N   UNL     1       3.875 -16.521  -9.494  1.00  0.00    -0.354 N 
ATOM     68  N   UNL     1       6.433 -15.272  -8.800  1.00  0.00    -0.248 NA
ATOM     69  C   UNL     1       8.587 -15.420  -7.912  1.00  0.00     0.031 C 
ATOM     70  C   UNL     1       3.658 -18.715  -9.221  1.00  0.00     0.029 A 
ATOM     71  C   UNL     1       4.541 -17.659  -9.065  1.00  0.00     0.049 A 
ATOM     72  H   UNL     1       4.253 -15.612  -9.496  1.00  0.00     0.167 HD
ATOM     73  C   UNL     1       6.697 -16.595  -8.463  1.00  0.00     0.074 A 
ATOM     74  C   UNL     1       8.053 -16.632  -7.957  1.00  0.00     0.031 C 
ATOM     75  C   UNL     1       5.891 -17.681  -8.561  1.00  0.00     0.037 A 
BRANCH  62  76
ATOM     76  C   UNL     1       0.254 -16.418 -10.757  1.00  0.00     0.057 A 
ATOM     77  C   UNL     1      -0.200 -16.452 -12.083  1.00  0.00     0.134 A 
ATOM     78  C   UNL     1      -0.607 -16.912  -9.769  1.00  0.00     0.134 A 
ATOM     79  F   UNL     1       0.568 -15.980 -13.077  1.00  0.00    -0.206 F 
ATOM     80  C   UNL     1      -1.468 -16.937 -12.409  1.00  0.00     0.040 A 
ATOM     81  C   UNL     1      -1.866 -17.425 -10.085  1.00  0.00     0.040 A 
ATOM     82  F   UNL     1      -0.236 -16.912  -8.480  1.00  0.00    -0.206 F 
ATOM     83  C   UNL     1      -2.302 -17.433 -11.408  1.00  0.00     0.006 A 
ENDBRANCH  62  76
BRANCH  63  84
ATOM     84  C   UNL     1       9.131 -12.573  -8.290  1.00  0.00     0.057 A 
ATOM     85  C   UNL     1      10.306 -12.926  -8.964  1.00  0.00     0.134 A 
ATOM     86  C   UNL     1       9.250 -11.692  -7.208  1.00  0.00     0.134 A 
ATOM     87  F   UNL     1      10.262 -13.785  -9.993  1.00  0.00    -0.206 F 
ATOM     88  C   UNL     1      11.553 -12.442  -8.563  1.00  0.00     0.040 A 
ATOM     89  C   UNL     1      10.486 -11.177  -6.815  1.00  0.00     0.040 A 
ATOM     90  F   UNL     1       8.163 -11.312  -6.521  1.00  0.00    -0.206 F 
ATOM     91  C   UNL     1      11.644 -11.560  -7.488  1.00  0.00     0.006 A 
ENDBRANCH  63  84
BRANCH  75  92
ATOM     92  C   UNL     1       6.467 -19.006  -8.143  1.00  0.00     0.057 A 
ATOM     93  C   UNL     1       6.747 -19.304  -6.803  1.00  0.00     0.134 A 
ATOM     94  C   UNL     1       6.726 -20.003  -9.093  1.00  0.00     0.134 A 
ATOM     95  F   UNL     1       6.532 -18.392  -5.843  1.00  0.00    -0.206 F 
ATOM     96  C   UNL     1       7.298 -20.531  -6.428  1.00  0.00     0.040 A 
ATOM     97  C   UNL     1       7.246 -21.245  -8.726  1.00  0.00     0.040 A 
ATOM     98  F   UNL     1       6.470 -19.791 -10.392  1.00  0.00    -0.206 F 
ATOM     99  C   UNL     1       7.544 -21.508  -7.391  1.00  0.00     0.006 A 
ENDBRANCH  75  92
ENDBRANCH  49  50
ENDBRANCH  42  44
ENDBRANCH  41  42
ENDBRANCH  40  41
ENDBRANCH  39  40
ENDBRANCH  38  39
ENDBRANCH  37  38
ENDBRANCH  36  37
ENDBRANCH  35  36
ENDBRANCH   1  35
TORSDOF 26
