REMARK SMILES O=C(OCCOCCOCCOCCOC(=O)c1c(-c2ccc(Cl)cc2)noc1CO[C@@H]1CCCCO1)c1ccc(-c2c3nc(c(-c4c(F)cccc4F)c4ccc([nH]4)c(-c4c(F)cccc4F)c4nc(c(-c5c(F)cccc5F)c5ccc2[nH]5)C=C4)C=C3)cc1
REMARK SMILES IDX 10 1 9 2 8 3 7 4 6 5 5 6 4 7 3 8 2 9 1 10 38 11 39 12 91 13
REMARK SMILES IDX 40 14 90 15 41 16 42 17 43 18 84 19 44 20 89 21 83 22 85 23
REMARK SMILES IDX 45 24 88 25 82 26 81 27 46 29 72 30 55 31 71 32 56 33 59 34
REMARK SMILES IDX 70 35 86 36 57 37 58 38 69 40 87 41 60 42 47 43 48 44 53 45
REMARK SMILES IDX 49 46 50 47 52 48 54 49 51 50 73 51 74 52 79 53 75 54 76 55
REMARK SMILES IDX 78 56 80 57 77 58 61 59 62 60 67 61 63 62 64 63 66 64 68 65
REMARK SMILES IDX 65 66 11 67 12 68 13 69 14 70 15 71 16 72 17 73 18 74 19 75
REMARK SMILES IDX 29 76 27 77 28 78 20 79 21 80 26 81 22 82 25 83 23 84 24 85
REMARK SMILES IDX 30 86 31 87 32 88 33 89 37 90 34 91 36 92 35 93
REMARK H PARENT 85 28 59 39
REMARK Flexibility Score: inf
ROOT
ATOM      1  C   UNL     1       3.451  -0.007   3.543  1.00  0.00     0.188 C 
ENDROOT
BRANCH   1   2
ATOM      2  O   UNL     1       2.043  -0.181   3.497  1.00  0.00    -0.377 OA
BRANCH   2   3
ATOM      3  C   UNL     1       1.454  -0.307   2.204  1.00  0.00     0.188 C 
BRANCH   3   4
ATOM      4  C   UNL     1       1.874   0.803   1.242  1.00  0.00     0.188 C 
BRANCH   4   5
ATOM      5  O   UNL     1       3.196   0.492   0.798  1.00  0.00    -0.376 OA
BRANCH   5   6
ATOM      6  C   UNL     1       3.886   1.531   0.122  1.00  0.00     0.202 C 
BRANCH   6   7
ATOM      7  C   UNL     1       3.770   1.417  -1.399  1.00  0.00     0.261 C 
BRANCH   7   8
ATOM      8  O   UNL     1       2.427   1.090  -1.793  1.00  0.00    -0.460 OA
BRANCH   8   9
ATOM      9  C   UNL     1       1.927  -0.144  -2.052  1.00  0.00     0.338 C 
ATOM     10  O   UNL     1       0.728  -0.263  -2.298  1.00  0.00    -0.246 OA
BRANCH   9  11
ATOM     11  C   UNL     1       2.776  -1.369  -2.137  1.00  0.00     0.060 A 
ATOM     12  C   UNL     1       3.817  -1.681  -1.260  1.00  0.00     0.016 A 
ATOM     13  C   UNL     1       2.428  -2.313  -3.115  1.00  0.00     0.016 A 
ATOM     14  C   UNL     1       4.550  -2.856  -1.395  1.00  0.00     0.010 A 
ATOM     15  C   UNL     1       3.130  -3.516  -3.231  1.00  0.00     0.010 A 
ATOM     16  C   UNL     1       4.212  -3.781  -2.381  1.00  0.00    -0.014 A 
BRANCH  16  17
ATOM     17  C   UNL     1       5.062  -4.973  -2.573  1.00  0.00     0.031 A 
ATOM     18  C   UNL     1       5.953  -5.027  -3.776  1.00  0.00     0.074 A 
ATOM     19  C   UNL     1       5.088  -5.946  -1.644  1.00  0.00     0.049 A 
ATOM     20  N   UNL     1       6.673  -6.015  -4.231  1.00  0.00    -0.248 NA
ATOM     21  C   UNL     1       6.048  -3.792  -4.574  1.00  0.00     0.031 C 
ATOM     22  C   UNL     1       4.343  -5.932  -0.383  1.00  0.00     0.029 A 
ATOM     23  N   UNL     1       5.780  -7.128  -1.609  1.00  0.00    -0.354 N 
ATOM     24  C   UNL     1       7.266  -5.540  -5.393  1.00  0.00     0.074 A 
ATOM     25  C   UNL     1       6.837  -4.171  -5.567  1.00  0.00     0.031 C 
ATOM     26  C   UNL     1       4.633  -7.045   0.310  1.00  0.00     0.029 A 
ATOM     27  C   UNL     1       5.523  -7.881  -0.488  1.00  0.00     0.049 A 
ATOM     28  H   UNL     1       6.403  -7.410  -2.317  1.00  0.00     0.167 HD
ATOM     29  C   UNL     1       8.084  -6.202  -6.243  1.00  0.00     0.037 A 
ATOM     30  C   UNL     1       5.931  -9.125  -0.173  1.00  0.00     0.037 A 
ATOM     31  C   UNL     1       8.515  -7.556  -6.033  1.00  0.00     0.049 A 
ATOM     32  C   UNL     1       6.793  -9.862  -1.163  1.00  0.00     0.074 A 
ATOM     33  C   UNL     1       9.298  -8.354  -6.844  1.00  0.00     0.029 A 
ATOM     34  N   UNL     1       8.200  -8.307  -4.908  1.00  0.00    -0.354 N 
ATOM     35  N   UNL     1       7.282  -9.441  -2.307  1.00  0.00    -0.248 NA
ATOM     36  C   UNL     1       7.135 -11.253  -0.839  1.00  0.00     0.031 C 
ATOM     37  C   UNL     1       9.435  -9.601  -6.221  1.00  0.00     0.029 A 
ATOM     38  C   UNL     1       8.763  -9.565  -5.008  1.00  0.00     0.049 A 
ATOM     39  H   UNL     1       7.657  -7.990  -4.151  1.00  0.00     0.167 HD
ATOM     40  C   UNL     1       7.986 -10.511  -2.838  1.00  0.00     0.074 A 
ATOM     41  C   UNL     1       7.887 -11.592  -1.877  1.00  0.00     0.031 C 
ATOM     42  C   UNL     1       8.642 -10.607  -4.021  1.00  0.00     0.037 A 
BRANCH  29  43
ATOM     43  C   UNL     1       8.491  -5.487  -7.494  1.00  0.00     0.057 A 
ATOM     44  C   UNL     1       9.454  -4.470  -7.493  1.00  0.00     0.134 A 
ATOM     45  C   UNL     1       7.885  -5.805  -8.716  1.00  0.00     0.134 A 
ATOM     46  F   UNL     1      10.048  -4.097  -6.350  1.00  0.00    -0.206 F 
ATOM     47  C   UNL     1       9.786  -3.782  -8.662  1.00  0.00     0.040 A 
ATOM     48  C   UNL     1       8.222  -5.137  -9.894  1.00  0.00     0.040 A 
ATOM     49  F   UNL     1       6.949  -6.763  -8.782  1.00  0.00    -0.206 F 
ATOM     50  C   UNL     1       9.171  -4.117  -9.868  1.00  0.00     0.006 A 
ENDBRANCH  29  43
BRANCH  30  51
ATOM     51  C   UNL     1       5.478  -9.777   1.084  1.00  0.00     0.057 A 
ATOM     52  C   UNL     1       6.380 -10.111   2.100  1.00  0.00     0.134 A 
ATOM     53  C   UNL     1       4.131 -10.108   1.289  1.00  0.00     0.134 A 
ATOM     54  F   UNL     1       7.687  -9.845   1.957  1.00  0.00    -0.206 F 
ATOM     55  C   UNL     1       5.965 -10.763   3.264  1.00  0.00     0.040 A 
ATOM     56  C   UNL     1       3.698 -10.734   2.459  1.00  0.00     0.040 A 
ATOM     57  F   UNL     1       3.213  -9.822   0.355  1.00  0.00    -0.206 F 
ATOM     58  C   UNL     1       4.618 -11.071   3.448  1.00  0.00     0.006 A 
ENDBRANCH  30  51
BRANCH  42  59
ATOM     59  C   UNL     1       9.302 -11.916  -4.321  1.00  0.00     0.057 A 
ATOM     60  C   UNL     1       8.559 -13.026  -4.740  1.00  0.00     0.134 A 
ATOM     61  C   UNL     1      10.692 -12.051  -4.236  1.00  0.00     0.134 A 
ATOM     62  F   UNL     1       7.222 -12.957  -4.826  1.00  0.00    -0.206 F 
ATOM     63  C   UNL     1       9.179 -14.235  -5.053  1.00  0.00     0.040 A 
ATOM     64  C   UNL     1      11.324 -13.248  -4.566  1.00  0.00     0.040 A 
ATOM     65  F   UNL     1      11.454 -11.018  -3.846  1.00  0.00    -0.206 F 
ATOM     66  C   UNL     1      10.567 -14.346  -4.974  1.00  0.00     0.006 A 
ENDBRANCH  42  59
ENDBRANCH  16  17
ENDBRANCH   9  11
ENDBRANCH   8   9
ENDBRANCH   7   8
ENDBRANCH   6   7
ENDBRANCH   5   6
ENDBRANCH   4   5
ENDBRANCH   3   4
ENDBRANCH   2   3
ENDBRANCH   1   2
BRANCH   1  67
ATOM     67  C   UNL     1       4.371  -1.142   3.045  1.00  0.00     0.188 C 
BRANCH  67  68
ATOM     68  O   UNL     1       3.921  -2.489   3.060  1.00  0.00    -0.376 OA
BRANCH  68  69
ATOM     69  C   UNL     1       3.163  -2.964   4.163  1.00  0.00     0.202 C 
BRANCH  69  70
ATOM     70  C   UNL     1       3.880  -3.024   5.515  1.00  0.00     0.261 C 
BRANCH  70  71
ATOM     71  O   UNL     1       4.039  -1.712   6.079  1.00  0.00    -0.459 OA
BRANCH  71  72
ATOM     72  C   UNL     1       5.309  -1.218   6.181  1.00  0.00     0.344 C 
ATOM     73  O   UNL     1       6.319  -1.863   5.980  1.00  0.00    -0.246 OA
BRANCH  72  74
ATOM     74  C   UNL     1       5.296   0.206   6.449  1.00  0.00     0.133 A 
ATOM     75  C   UNL     1       6.100   1.235   5.875  1.00  0.00     0.128 A 
ATOM     76  C   UNL     1       4.364   0.893   7.205  1.00  0.00     0.177 A 
ATOM     77  N   UNL     1       5.708   2.442   6.312  1.00  0.00    -0.079 NA
ATOM     78  O   UNL     1       4.640   2.222   7.154  1.00  0.00    -0.357 OA
BRANCH  75  79
ATOM     79  C   UNL     1       7.073   1.127   4.792  1.00  0.00     0.005 A 
ATOM     80  C   UNL     1       6.837   1.821   3.593  1.00  0.00     0.012 A 
ATOM     81  C   UNL     1       8.201   0.306   4.895  1.00  0.00     0.012 A 
ATOM     82  C   UNL     1       7.703   1.679   2.506  1.00  0.00     0.021 A 
ATOM     83  C   UNL     1       9.072   0.169   3.808  1.00  0.00     0.021 A 
ATOM     84  C   UNL     1       8.816   0.850   2.619  1.00  0.00     0.041 A 
ATOM     85  Cl  UNL     1       9.877   0.666   1.277  1.00  0.00    -0.084 Cl
ENDBRANCH  75  79
BRANCH  76  86
ATOM     86  C   UNL     1       3.155   0.506   7.971  1.00  0.00     0.242 C 
BRANCH  86  87
ATOM     87  O   UNL     1       3.400  -0.029   9.277  1.00  0.00    -0.345 OA
BRANCH  87  88
ATOM     88  C   UNL     1       4.680  -0.573   9.564  1.00  0.00     0.250 C 
ATOM     89  C   UNL     1       4.642  -1.294  10.910  1.00  0.00     0.062 C 
ATOM     90  O   UNL     1       5.695   0.429   9.604  1.00  0.00    -0.353 OA
ATOM     91  C   UNL     1       4.407  -0.307  12.050  1.00  0.00     0.008 C 
ATOM     92  C   UNL     1       5.406   1.452  10.558  1.00  0.00     0.163 C 
ATOM     93  C   UNL     1       5.375   0.869  11.961  1.00  0.00     0.029 C 
ENDBRANCH  87  88
ENDBRANCH  86  87
ENDBRANCH  76  86
ENDBRANCH  72  74
ENDBRANCH  71  72
ENDBRANCH  70  71
ENDBRANCH  69  70
ENDBRANCH  68  69
ENDBRANCH  67  68
ENDBRANCH   1  67
TORSDOF 24
