REMARK SMILES O=C1CCCC2=C1[C@H](c1ccc([N+](=O)[O-])cc1)CC(=O)N2c1ccccc1C(=O)OCCOCCOCCOCCOC(=O)c1ccc(-c2c3nc(c(-c4c(F)cccc4F)c4ccc([nH]4)c(-c4c(F)cccc4F)c4nc(c(-c5c(F)cccc5F)c5ccc2[nH]5)C=C4)C=C3)cc1
REMARK SMILES IDX 35 1 34 2 33 3 32 4 31 5 30 6 28 7 29 8 27 9 22 10 23 11
REMARK SMILES IDX 24 12 26 13 25 14 21 15 1 16 2 17 3 18 7 19 4 20 6 21 8 22
REMARK SMILES IDX 5 23 18 24 19 25 20 26 9 27 10 28 17 29 11 30 16 31 12 32
REMARK SMILES IDX 13 33 14 34 15 35 36 36 37 37 38 38 39 39 40 40 41 41 42 42
REMARK SMILES IDX 43 43 44 44 45 45 46 46 98 47 47 48 97 49 48 50 49 51 50 52
REMARK SMILES IDX 91 53 51 54 96 55 90 56 92 57 52 58 95 59 89 60 88 61 53 63
REMARK SMILES IDX 79 64 62 65 78 66 63 67 66 68 77 69 93 70 64 71 65 72 76 74
REMARK SMILES IDX 94 75 67 76 54 77 55 78 60 79 56 80 57 81 59 82 61 83 58 84
REMARK SMILES IDX 80 85 81 86 86 87 82 88 83 89 85 90 87 91 84 92 68 93 69 94
REMARK SMILES IDX 74 95 70 96 71 97 73 98 75 99 72 100
REMARK H PARENT 92 62 66 73
REMARK Flexibility Score: inf
ROOT
ATOM      1  C   UNL     1       7.367  -2.707   2.175  1.00  0.00     0.188 C 
ENDROOT
BRANCH   1   2
ATOM      2  C   UNL     1       7.958  -1.496   2.914  1.00  0.00     0.188 C 
BRANCH   2   3
ATOM      3  O   UNL     1       6.971  -0.769   3.645  1.00  0.00    -0.376 OA
BRANCH   3   4
ATOM      4  C   UNL     1       6.594   0.510   3.164  1.00  0.00     0.202 C 
BRANCH   4   5
ATOM      5  C   UNL     1       5.597   0.488   2.004  1.00  0.00     0.261 C 
BRANCH   5   6
ATOM      6  O   UNL     1       5.966  -0.366   0.917  1.00  0.00    -0.460 OA
BRANCH   6   7
ATOM      7  C   UNL     1       7.024   0.003   0.168  1.00  0.00     0.340 C 
ATOM      8  O   UNL     1       7.692   1.010   0.333  1.00  0.00    -0.246 OA
BRANCH   7   9
ATOM      9  C   UNL     1       7.327  -1.034  -0.858  1.00  0.00     0.084 A 
ATOM     10  C   UNL     1       6.388  -1.899  -1.469  1.00  0.00     0.063 A 
ATOM     11  C   UNL     1       6.888  -2.881  -2.355  1.00  0.00     0.027 A 
ATOM     12  C   UNL     1       8.255  -3.022  -2.613  1.00  0.00     0.002 A 
ATOM     13  C   UNL     1       8.705  -1.188  -1.129  1.00  0.00     0.018 A 
ATOM     14  C   UNL     1       9.166  -2.180  -1.993  1.00  0.00     0.001 A 
BRANCH  10  15
ATOM     15  N   UNL     1       4.955  -1.907  -1.221  1.00  0.00    -0.284 N 
ATOM     16  O   UNL     1       0.809   0.318  -1.340  1.00  0.00    -0.294 OA
ATOM     17  C   UNL     1       2.003   0.374  -1.069  1.00  0.00     0.161 C 
ATOM     18  C   UNL     1       2.727   1.658  -0.810  1.00  0.00     0.081 C 
ATOM     19  C   UNL     1       2.832  -0.852  -0.945  1.00  0.00     0.023 C 
ATOM     20  C   UNL     1       3.767   1.754  -1.903  1.00  0.00     0.015 C 
ATOM     21  C   UNL     1       4.120  -0.776  -1.345  1.00  0.00     0.033 C 
ATOM     22  C   UNL     1       2.161  -2.063  -0.361  1.00  0.00     0.064 C 
ATOM     23  C   UNL     1       4.677   0.515  -1.947  1.00  0.00     0.055 C 
ATOM     24  C   UNL     1       2.910  -3.299  -0.843  1.00  0.00     0.114 C 
ATOM     25  C   UNL     1       4.419  -3.160  -0.818  1.00  0.00     0.232 C 
ATOM     26  O   UNL     1       5.096  -4.153  -0.539  1.00  0.00    -0.274 OA
BRANCH  22  27
ATOM     27  C   UNL     1       1.962  -1.895   1.152  1.00  0.00    -0.039 A 
ATOM     28  C   UNL     1       2.629  -2.663   2.110  1.00  0.00     0.011 A 
ATOM     29  C   UNL     1       1.064  -0.904   1.619  1.00  0.00     0.011 A 
ATOM     30  C   UNL     1       2.446  -2.405   3.476  1.00  0.00     0.086 A 
ATOM     31  C   UNL     1       0.905  -0.616   2.976  1.00  0.00     0.086 A 
ATOM     32  C   UNL     1       1.613  -1.369   3.902  1.00  0.00     0.269 A 
BRANCH  32  33
ATOM     33  N   UNL     1       1.462  -1.104   5.328  1.00  0.00     0.062 N 
ATOM     34  O   UNL     1       2.433  -1.355   6.056  1.00  0.00    -0.258 OA
ATOM     35  O   UNL     1       0.385  -0.634   5.716  1.00  0.00    -0.258 OA
ENDBRANCH  32  33
ENDBRANCH  22  27
ENDBRANCH  10  15
ENDBRANCH   7   9
ENDBRANCH   6   7
ENDBRANCH   5   6
ENDBRANCH   4   5
ENDBRANCH   3   4
ENDBRANCH   2   3
ENDBRANCH   1   2
BRANCH   1  36
ATOM     36  O   UNL     1       6.723  -3.666   2.997  1.00  0.00    -0.377 OA
BRANCH  36  37
ATOM     37  C   UNL     1       5.671  -3.168   3.804  1.00  0.00     0.188 C 
BRANCH  37  38
ATOM     38  C   UNL     1       6.017  -2.953   5.292  1.00  0.00     0.188 C 
BRANCH  38  39
ATOM     39  O   UNL     1       7.117  -3.611   5.912  1.00  0.00    -0.376 OA
BRANCH  39  40
ATOM     40  C   UNL     1       7.806  -4.642   5.233  1.00  0.00     0.202 C 
BRANCH  40  41
ATOM     41  C   UNL     1       7.051  -5.954   4.947  1.00  0.00     0.261 C 
BRANCH  41  42
ATOM     42  O   UNL     1       5.622  -5.869   4.813  1.00  0.00    -0.460 OA
BRANCH  42  43
ATOM     43  C   UNL     1       4.908  -5.941   5.959  1.00  0.00     0.338 C 
ATOM     44  O   UNL     1       5.343  -6.092   7.090  1.00  0.00    -0.246 OA
BRANCH  43  45
ATOM     45  C   UNL     1       3.473  -5.697   5.661  1.00  0.00     0.060 A 
ATOM     46  C   UNL     1       2.768  -4.796   6.466  1.00  0.00     0.016 A 
ATOM     47  C   UNL     1       2.809  -6.363   4.623  1.00  0.00     0.016 A 
ATOM     48  C   UNL     1       1.405  -4.571   6.243  1.00  0.00     0.010 A 
ATOM     49  C   UNL     1       1.433  -6.158   4.419  1.00  0.00     0.010 A 
ATOM     50  C   UNL     1       0.716  -5.270   5.237  1.00  0.00    -0.014 A 
BRANCH  50  51
ATOM     51  C   UNL     1      -0.773  -5.199   5.201  1.00  0.00     0.031 A 
ATOM     52  C   UNL     1      -1.541  -5.988   6.220  1.00  0.00     0.074 A 
ATOM     53  C   UNL     1      -1.450  -4.430   4.328  1.00  0.00     0.049 A 
ATOM     54  N   UNL     1      -2.830  -6.036   6.430  1.00  0.00    -0.248 NA
ATOM     55  C   UNL     1      -0.747  -6.860   7.098  1.00  0.00     0.031 C 
ATOM     56  C   UNL     1      -0.842  -3.662   3.258  1.00  0.00     0.029 A 
ATOM     57  N   UNL     1      -2.791  -4.140   4.215  1.00  0.00    -0.354 N 
ATOM     58  C   UNL     1      -3.005  -6.954   7.455  1.00  0.00     0.074 A 
ATOM     59  C   UNL     1      -1.691  -7.433   7.827  1.00  0.00     0.031 C 
ATOM     60  C   UNL     1      -1.776  -2.901   2.665  1.00  0.00     0.029 A 
ATOM     61  C   UNL     1      -3.077  -3.195   3.253  1.00  0.00     0.049 A 
ATOM     62  H   UNL     1      -3.482  -4.569   4.770  1.00  0.00     0.167 HD
ATOM     63  C   UNL     1      -4.159  -7.385   8.014  1.00  0.00     0.037 A 
ATOM     64  C   UNL     1      -4.250  -2.648   2.872  1.00  0.00     0.037 A 
ATOM     65  C   UNL     1      -5.469  -6.957   7.606  1.00  0.00     0.049 A 
ATOM     66  C   UNL     1      -5.521  -3.166   3.494  1.00  0.00     0.074 A 
ATOM     67  C   UNL     1      -6.698  -7.372   8.088  1.00  0.00     0.029 A 
ATOM     68  N   UNL     1      -5.723  -6.034   6.603  1.00  0.00    -0.354 N 
ATOM     69  N   UNL     1      -5.673  -4.028   4.470  1.00  0.00    -0.248 NA
ATOM     70  C   UNL     1      -6.787  -2.676   2.927  1.00  0.00     0.031 C 
ATOM     71  C   UNL     1      -7.696  -6.740   7.340  1.00  0.00     0.029 A 
ATOM     72  C   UNL     1      -7.090  -5.884   6.434  1.00  0.00     0.049 A 
ATOM     73  H   UNL     1      -5.034  -5.556   6.087  1.00  0.00     0.167 HD
ATOM     74  C   UNL     1      -7.044  -4.181   4.635  1.00  0.00     0.074 A 
ATOM     75  C   UNL     1      -7.682  -3.296   3.682  1.00  0.00     0.031 C 
ATOM     76  C   UNL     1      -7.713  -4.995   5.486  1.00  0.00     0.037 A 
BRANCH  63  77
ATOM     77  C   UNL     1      -4.034  -8.440   9.069  1.00  0.00     0.057 A 
ATOM     78  C   UNL     1      -3.520  -8.160  10.342  1.00  0.00     0.134 A 
ATOM     79  C   UNL     1      -4.392  -9.764   8.789  1.00  0.00     0.134 A 
ATOM     80  F   UNL     1      -3.131  -6.916  10.660  1.00  0.00    -0.206 F 
ATOM     81  C   UNL     1      -3.337  -9.168  11.289  1.00  0.00     0.040 A 
ATOM     82  C   UNL     1      -4.239 -10.775   9.737  1.00  0.00     0.040 A 
ATOM     83  F   UNL     1      -4.883 -10.098   7.586  1.00  0.00    -0.206 F 
ATOM     84  C   UNL     1      -3.700 -10.480  10.987  1.00  0.00     0.006 A 
ENDBRANCH  63  77
BRANCH  64  85
ATOM     85  C   UNL     1      -4.313  -1.590   1.821  1.00  0.00     0.057 A 
ATOM     86  C   UNL     1      -4.821  -0.314   2.108  1.00  0.00     0.134 A 
ATOM     87  C   UNL     1      -3.933  -1.835   0.496  1.00  0.00     0.134 A 
ATOM     88  F   UNL     1      -5.237  -0.016   3.348  1.00  0.00    -0.206 F 
ATOM     89  C   UNL     1      -4.970   0.662   1.119  1.00  0.00     0.040 A 
ATOM     90  C   UNL     1      -4.039  -0.857  -0.496  1.00  0.00     0.040 A 
ATOM     91  F   UNL     1      -3.449  -3.035   0.140  1.00  0.00    -0.206 F 
ATOM     92  C   UNL     1      -4.571   0.393  -0.188  1.00  0.00     0.006 A 
ENDBRANCH  64  85
BRANCH  76  93
ATOM     93  C   UNL     1      -9.213  -4.947   5.452  1.00  0.00     0.057 A 
ATOM     94  C   UNL     1      -9.950  -5.481   4.387  1.00  0.00     0.134 A 
ATOM     95  C   UNL     1      -9.930  -4.401   6.525  1.00  0.00     0.134 A 
ATOM     96  F   UNL     1      -9.326  -6.006   3.322  1.00  0.00    -0.206 F 
ATOM     97  C   UNL     1     -11.346  -5.458   4.383  1.00  0.00     0.040 A 
ATOM     98  C   UNL     1     -11.325  -4.398   6.545  1.00  0.00     0.040 A 
ATOM     99  F   UNL     1      -9.285  -3.879   7.579  1.00  0.00    -0.206 F 
ATOM    100  C   UNL     1     -12.037  -4.923   5.469  1.00  0.00     0.006 A 
ENDBRANCH  76  93
ENDBRANCH  50  51
ENDBRANCH  43  45
ENDBRANCH  42  43
ENDBRANCH  41  42
ENDBRANCH  40  41
ENDBRANCH  39  40
ENDBRANCH  38  39
ENDBRANCH  37  38
ENDBRANCH  36  37
ENDBRANCH   1  36
TORSDOF 23
