REMARK SMILES CCc1cc(C(=O)c2[nH]c3cc(Cl)ccc3c2CC(=O)OCCOCCOCCOCCOC(=O)c2ccc(-c3c4nc(c(-c5c(F)cccc5F)c5ccc([nH]5)c(-c5c(F)cccc5F)c5nc(c(-c6c(F)cccc6F)c6ccc3[nH]6)C=C5)C=C4)cc2)ncc1Cl
REMARK SMILES IDX 26 1 25 2 24 3 23 4 22 5 21 6 19 7 20 8 18 9 17 10 8 11 9 12
REMARK SMILES IDX 10 13 16 15 11 16 15 17 12 18 14 19 13 20 6 21 7 22 5 23
REMARK SMILES IDX 3 24 4 25 92 26 91 27 93 28 90 29 2 30 1 31 27 32 28 33
REMARK SMILES IDX 29 34 30 35 31 36 32 37 33 38 34 39 35 40 36 41 37 42 89 43
REMARK SMILES IDX 38 44 88 45 39 46 40 47 41 48 82 49 42 50 87 51 81 52 83 53
REMARK SMILES IDX 43 54 86 55 80 56 79 57 44 59 70 60 53 61 69 62 54 63 57 64
REMARK SMILES IDX 68 65 84 66 55 67 56 68 67 70 85 71 58 72 45 73 46 74 51 75
REMARK SMILES IDX 47 76 48 77 50 78 52 79 49 80 71 81 72 82 77 83 73 84 74 85
REMARK SMILES IDX 76 86 78 87 75 88 59 89 60 90 65 91 61 92 62 93 64 94 66 95
REMARK SMILES IDX 63 96
REMARK H PARENT 9 14 83 58 57 69
REMARK Flexibility Score: inf
ROOT
ATOM      1  C   UNL     1       1.454   6.232  -5.319  1.00  0.00     0.188 C 
ENDROOT
BRANCH   1   2
ATOM      2  C   UNL     1       0.846   6.563  -6.682  1.00  0.00     0.188 C 
BRANCH   2   3
ATOM      3  O   UNL     1       1.509   7.532  -7.469  1.00  0.00    -0.376 OA
BRANCH   3   4
ATOM      4  C   UNL     1       1.555   8.860  -6.951  1.00  0.00     0.202 C 
BRANCH   4   5
ATOM      5  C   UNL     1       0.320   9.441  -6.229  1.00  0.00     0.261 C 
BRANCH   5   6
ATOM      6  O   UNL     1      -0.035   8.793  -4.973  1.00  0.00    -0.463 OA
BRANCH   6   7
ATOM      7  C   UNL     1      -1.354   8.530  -4.793  1.00  0.00     0.310 C 
ATOM      8  O   UNL     1      -2.213   8.859  -5.614  1.00  0.00    -0.252 OA
BRANCH   7   9
ATOM      9  C   UNL     1      -1.777   7.787  -3.536  1.00  0.00     0.161 C 
BRANCH   9  10
ATOM     10  C   UNL     1      -0.811   7.421  -2.429  1.00  0.00     0.000 A 
ATOM     11  C   UNL     1      -0.219   6.170  -2.169  1.00  0.00     0.093 A 
ATOM     12  N   UNL     1       0.632   6.364  -1.100  1.00  0.00    -0.351 N 
ATOM     13  C   UNL     1       0.276   7.503  -0.416  1.00  0.00     0.048 A 
ATOM     14  H   UNL     1       1.382   5.773  -0.861  1.00  0.00     0.167 HD
ATOM     15  C   UNL     1      -0.610   8.200  -1.235  1.00  0.00     0.004 A 
ATOM     16  C   UNL     1       0.644   7.948   0.863  1.00  0.00     0.047 A 
ATOM     17  C   UNL     1      -1.180   9.394  -0.740  1.00  0.00     0.012 A 
ATOM     18  C   UNL     1       0.026   9.107   1.340  1.00  0.00     0.043 A 
ATOM     19  C   UNL     1      -0.876   9.822   0.559  1.00  0.00     0.021 A 
ATOM     20  Cl  UNL     1       0.362   9.641   2.944  1.00  0.00    -0.084 Cl
BRANCH  11  21
ATOM     21  C   UNL     1      -0.454   4.906  -2.867  1.00  0.00     0.227 C 
ATOM     22  O   UNL     1      -1.312   4.788  -3.744  1.00  0.00    -0.285 OA
BRANCH  21  23
ATOM     23  C   UNL     1       0.323   3.667  -2.569  1.00  0.00     0.113 A 
ATOM     24  C   UNL     1       0.783   1.739  -1.152  1.00  0.00    -0.026 A 
ATOM     25  C   UNL     1       0.265   3.051  -1.323  1.00  0.00     0.037 A 
ATOM     26  C   UNL     1       1.366   1.126  -2.272  1.00  0.00     0.062 A 
ATOM     27  C   UNL     1       1.396   1.834  -3.471  1.00  0.00     0.132 A 
ATOM     28  Cl  UNL     1       2.047  -0.453  -2.311  1.00  0.00    -0.082 Cl
ATOM     29  N   UNL     1       0.899   3.081  -3.644  1.00  0.00    -0.251 NA
BRANCH  24  30
ATOM     30  C   UNL     1       0.563   1.143   0.225  1.00  0.00     0.034 C 
ATOM     31  C   UNL     1       1.001  -0.272   0.568  1.00  0.00     0.009 C 
ENDBRANCH  24  30
ENDBRANCH  21  23
ENDBRANCH  11  21
ENDBRANCH   9  10
ENDBRANCH   7   9
ENDBRANCH   6   7
ENDBRANCH   5   6
ENDBRANCH   4   5
ENDBRANCH   3   4
ENDBRANCH   2   3
ENDBRANCH   1   2
BRANCH   1  32
ATOM     32  O   UNL     1       2.081   7.276  -4.590  1.00  0.00    -0.377 OA
BRANCH  32  33
ATOM     33  C   UNL     1       3.501   7.356  -4.547  1.00  0.00     0.188 C 
BRANCH  33  34
ATOM     34  C   UNL     1       4.306   6.336  -5.353  1.00  0.00     0.188 C 
BRANCH  34  35
ATOM     35  O   UNL     1       4.291   4.969  -4.935  1.00  0.00    -0.376 OA
BRANCH  35  36
ATOM     36  C   UNL     1       3.884   4.638  -3.612  1.00  0.00     0.202 C 
BRANCH  36  37
ATOM     37  C   UNL     1       5.019   4.540  -2.602  1.00  0.00     0.261 C 
BRANCH  37  38
ATOM     38  O   UNL     1       5.540   5.838  -2.305  1.00  0.00    -0.460 OA
BRANCH  38  39
ATOM     39  C   UNL     1       6.625   6.182  -3.033  1.00  0.00     0.338 C 
ATOM     40  O   UNL     1       7.262   5.481  -3.804  1.00  0.00    -0.246 OA
BRANCH  39  41
ATOM     41  C   UNL     1       6.853   7.625  -2.881  1.00  0.00     0.060 A 
ATOM     42  C   UNL     1       7.169   8.359  -4.031  1.00  0.00     0.016 A 
ATOM     43  C   UNL     1       6.807   8.236  -1.625  1.00  0.00     0.016 A 
ATOM     44  C   UNL     1       7.500   9.701  -3.923  1.00  0.00     0.010 A 
ATOM     45  C   UNL     1       7.158   9.578  -1.513  1.00  0.00     0.010 A 
ATOM     46  C   UNL     1       7.553  10.293  -2.656  1.00  0.00    -0.014 A 
BRANCH  46  47
ATOM     47  C   UNL     1       8.269  11.572  -2.503  1.00  0.00     0.031 A 
ATOM     48  C   UNL     1       9.712  11.519  -2.091  1.00  0.00     0.074 A 
ATOM     49  C   UNL     1       7.656  12.736  -2.764  1.00  0.00     0.049 A 
ATOM     50  N   UNL     1      10.542  12.496  -1.843  1.00  0.00    -0.248 NA
ATOM     51  C   UNL     1      10.298  10.175  -1.933  1.00  0.00     0.031 C 
ATOM     52  C   UNL     1       6.276  12.880  -3.224  1.00  0.00     0.029 A 
ATOM     53  N   UNL     1       8.122  14.019  -2.672  1.00  0.00    -0.354 N 
ATOM     54  C   UNL     1      11.741  11.888  -1.495  1.00  0.00     0.074 A 
ATOM     55  C   UNL     1      11.525  10.460  -1.527  1.00  0.00     0.031 C 
ATOM     56  C   UNL     1       6.002  14.188  -3.363  1.00  0.00     0.029 A 
ATOM     57  C   UNL     1       7.174  14.965  -2.967  1.00  0.00     0.049 A 
ATOM     58  H   UNL     1       9.047  14.241  -2.419  1.00  0.00     0.167 HD
ATOM     59  C   UNL     1      12.920  12.474  -1.185  1.00  0.00     0.037 A 
ATOM     60  C   UNL     1       7.250  16.307  -2.896  1.00  0.00     0.037 A 
ATOM     61  C   UNL     1      13.112  13.898  -1.151  1.00  0.00     0.049 A 
ATOM     62  C   UNL     1       8.549  16.936  -2.464  1.00  0.00     0.074 A 
ATOM     63  C   UNL     1      14.259  14.608  -0.852  1.00  0.00     0.029 A 
ATOM     64  N   UNL     1      12.119  14.830  -1.421  1.00  0.00    -0.354 N 
ATOM     65  N   UNL     1       9.684  16.359  -2.146  1.00  0.00    -0.248 NA
ATOM     66  C   UNL     1       8.579  18.401  -2.385  1.00  0.00     0.031 C 
ATOM     67  C   UNL     1      13.945  15.971  -0.884  1.00  0.00     0.029 A 
ATOM     68  C   UNL     1      12.620  16.111  -1.270  1.00  0.00     0.049 A 
ATOM     69  H   UNL     1      11.195  14.612  -1.683  1.00  0.00     0.167 HD
ATOM     70  C   UNL     1      10.572  17.390  -1.864  1.00  0.00     0.074 A 
ATOM     71  C   UNL     1       9.843  18.627  -2.060  1.00  0.00     0.031 C 
ATOM     72  C   UNL     1      11.872  17.325  -1.482  1.00  0.00     0.037 A 
BRANCH  59  73
ATOM     73  C   UNL     1      14.066  11.574  -0.824  1.00  0.00     0.057 A 
ATOM     74  C   UNL     1      14.694  10.751  -1.769  1.00  0.00     0.134 A 
ATOM     75  C   UNL     1      14.553  11.534   0.488  1.00  0.00     0.134 A 
ATOM     76  F   UNL     1      14.264  10.723  -3.040  1.00  0.00    -0.206 F 
ATOM     77  C   UNL     1      15.745   9.902  -1.416  1.00  0.00     0.040 A 
ATOM     78  C   UNL     1      15.623  10.713   0.847  1.00  0.00     0.040 A 
ATOM     79  F   UNL     1      13.997  12.293   1.445  1.00  0.00    -0.206 F 
ATOM     80  C   UNL     1      16.217   9.887  -0.105  1.00  0.00     0.006 A 
ENDBRANCH  59  73
BRANCH  60  81
ATOM     81  C   UNL     1       6.067  17.139  -3.228  1.00  0.00     0.057 A 
ATOM     82  C   UNL     1       6.058  17.973  -4.351  1.00  0.00     0.134 A 
ATOM     83  C   UNL     1       4.921  17.133  -2.422  1.00  0.00     0.134 A 
ATOM     84  F   UNL     1       7.132  18.037  -5.152  1.00  0.00    -0.206 F 
ATOM     85  C   UNL     1       4.963  18.785  -4.651  1.00  0.00     0.040 A 
ATOM     86  C   UNL     1       3.808  17.918  -2.725  1.00  0.00     0.040 A 
ATOM     87  F   UNL     1       4.863  16.352  -1.333  1.00  0.00    -0.206 F 
ATOM     88  C   UNL     1       3.831  18.755  -3.838  1.00  0.00     0.006 A 
ENDBRANCH  60  81
BRANCH  72  89
ATOM     89  C   UNL     1      12.600  18.625  -1.300  1.00  0.00     0.057 A 
ATOM     90  C   UNL     1      12.332  19.485  -0.228  1.00  0.00     0.134 A 
ATOM     91  C   UNL     1      13.617  18.997  -2.190  1.00  0.00     0.134 A 
ATOM     92  F   UNL     1      11.364  19.192   0.654  1.00  0.00    -0.206 F 
ATOM     93  C   UNL     1      13.030  20.682  -0.062  1.00  0.00     0.040 A 
ATOM     94  C   UNL     1      14.344  20.174  -2.016  1.00  0.00     0.040 A 
ATOM     95  F   UNL     1      13.933  18.212  -3.231  1.00  0.00    -0.206 F 
ATOM     96  C   UNL     1      14.045  21.025  -0.954  1.00  0.00     0.006 A 
ENDBRANCH  72  89
ENDBRANCH  46  47
ENDBRANCH  39  41
ENDBRANCH  38  39
ENDBRANCH  37  38
ENDBRANCH  36  37
ENDBRANCH  35  36
ENDBRANCH  34  35
ENDBRANCH  33  34
ENDBRANCH  32  33
ENDBRANCH   1  32
TORSDOF 24
