REMARK SMILES NS(=O)(=O)c1ccc(N2N=C(C(=O)OCCOCCOCCOCCOC(=O)c3ccc(-c4c5nc(c(-c6c(F)cccc6F)c6ccc([nH]6)c(-c6c(F)cccc6F)c6nc(c(-c7c(F)cccc7F)c7ccc4[nH]7)C=C6)C=C5)cc3)C[C@H]2c2cccs2)cc1
REMARK SMILES IDX 19 1 18 2 17 3 16 4 15 5 14 6 12 7 13 8 11 9 9 10 10 11
REMARK SMILES IDX 84 12 83 13 8 14 5 15 6 16 91 17 7 18 90 19 2 20 3 21 4 22
REMARK SMILES IDX 1 23 85 26 86 27 89 28 87 29 88 30 20 31 21 32 22 33 23 34
REMARK SMILES IDX 24 35 25 36 26 37 27 38 28 39 29 40 30 41 82 42 31 43 81 44
REMARK SMILES IDX 32 45 33 46 34 47 75 48 35 49 80 50 74 51 76 52 36 53 79 54
REMARK SMILES IDX 73 55 72 56 37 58 63 59 46 60 62 61 47 62 50 63 61 64 77 65
REMARK SMILES IDX 48 66 49 67 60 69 78 70 51 71 38 72 39 73 44 74 40 75 41 76
REMARK SMILES IDX 43 77 45 78 42 79 64 80 65 81 70 82 66 83 67 84 69 85 71 86
REMARK SMILES IDX 68 87 52 88 53 89 58 90 54 91 55 92 57 93 59 94 56 95
REMARK H PARENT 1 24 1 25 76 57 50 68
REMARK Flexibility Score: inf
ROOT
ATOM      1  C   UNL     1       0.208  -9.135  -5.043  1.00  0.00     0.188 C 
ENDROOT
BRANCH   1   2
ATOM      2  C   UNL     1      -0.850  -8.368  -5.856  1.00  0.00     0.188 C 
BRANCH   2   3
ATOM      3  O   UNL     1      -1.185  -9.031  -7.067  1.00  0.00    -0.376 OA
BRANCH   3   4
ATOM      4  C   UNL     1      -0.700  -8.511  -8.294  1.00  0.00     0.202 C 
BRANCH   4   5
ATOM      5  C   UNL     1       0.812  -8.322  -8.513  1.00  0.00     0.261 C 
BRANCH   5   6
ATOM      6  O   UNL     1       1.538  -7.847  -7.378  1.00  0.00    -0.459 OA
BRANCH   6   7
ATOM      7  C   UNL     1       1.589  -6.521  -7.186  1.00  0.00     0.354 C 
ATOM      8  O   UNL     1       1.196  -5.642  -7.925  1.00  0.00    -0.245 OA
BRANCH   7   9
ATOM      9  C   UNL     1       2.085  -6.285  -5.782  1.00  0.00     0.148 C 
ATOM     10  N   UNL     1       2.201  -5.553  -3.800  1.00  0.00    -0.256 N 
ATOM     11  N   UNL     1       1.444  -5.535  -4.937  1.00  0.00    -0.169 NA
ATOM     12  C   UNL     1       3.570  -6.047  -4.068  1.00  0.00     0.154 C 
ATOM     13  C   UNL     1       3.290  -6.997  -5.244  1.00  0.00     0.099 C 
BRANCH  10  14
ATOM     14  C   UNL     1       1.866  -4.662  -2.790  1.00  0.00     0.060 A 
ATOM     15  C   UNL     1       1.089  -2.854  -0.781  1.00  0.00     0.082 A 
ATOM     16  C   UNL     1       0.739  -4.203  -0.675  1.00  0.00     0.024 A 
ATOM     17  C   UNL     1       1.806  -2.398  -1.885  1.00  0.00     0.024 A 
ATOM     18  C   UNL     1       1.131  -5.099  -1.678  1.00  0.00     0.029 A 
ATOM     19  C   UNL     1       2.174  -3.299  -2.886  1.00  0.00     0.029 A 
BRANCH  15  20
ATOM     20  S   UNL     1       0.596  -1.755   0.511  1.00  0.00     0.238 S 
ATOM     21  O   UNL     1       1.290  -2.133   1.718  1.00  0.00    -0.207 OA
ATOM     22  O   UNL     1      -0.839  -1.589   0.451  1.00  0.00    -0.207 OA
BRANCH  20  23
ATOM     23  N   UNL     1       1.239  -0.262   0.077  1.00  0.00    -0.225 NA
ATOM     24  H   UNL     1       0.993   0.432   0.782  1.00  0.00     0.137 HD
ATOM     25  H   UNL     1       0.859   0.022  -0.826  1.00  0.00     0.137 HD
ENDBRANCH  20  23
ENDBRANCH  15  20
ENDBRANCH  10  14
BRANCH  12  26
ATOM     26  C   UNL     1       4.628  -4.992  -4.386  1.00  0.00     0.030 A 
ATOM     27  C   UNL     1       5.336  -4.222  -3.477  1.00  0.00     0.017 A 
ATOM     28  S   UNL     1       5.075  -4.577  -5.997  1.00  0.00    -0.147 S 
ATOM     29  C   UNL     1       6.223  -3.299  -4.105  1.00  0.00     0.012 A 
ATOM     30  C   UNL     1       6.201  -3.413  -5.474  1.00  0.00     0.065 A 
ENDBRANCH  12  26
ENDBRANCH   7   9
ENDBRANCH   6   7
ENDBRANCH   5   6
ENDBRANCH   4   5
ENDBRANCH   3   4
ENDBRANCH   2   3
ENDBRANCH   1   2
BRANCH   1  31
ATOM     31  O   UNL     1       1.010 -10.026  -5.805  1.00  0.00    -0.377 OA
BRANCH  31  32
ATOM     32  C   UNL     1       0.437 -11.262  -6.245  1.00  0.00     0.188 C 
BRANCH  32  33
ATOM     33  C   UNL     1      -1.059 -11.612  -6.049  1.00  0.00     0.188 C 
BRANCH  33  34
ATOM     34  O   UNL     1      -1.640 -11.100  -4.860  1.00  0.00    -0.376 OA
BRANCH  34  35
ATOM     35  C   UNL     1      -1.860 -12.008  -3.792  1.00  0.00     0.202 C 
BRANCH  35  36
ATOM     36  C   UNL     1      -0.596 -12.560  -3.121  1.00  0.00     0.261 C 
BRANCH  36  37
ATOM     37  O   UNL     1       0.274 -13.327  -3.971  1.00  0.00    -0.460 OA
BRANCH  37  38
ATOM     38  C   UNL     1      -0.230 -14.445  -4.539  1.00  0.00     0.338 C 
ATOM     39  O   UNL     1      -1.338 -14.922  -4.383  1.00  0.00    -0.246 OA
BRANCH  38  40
ATOM     40  C   UNL     1       0.747 -14.901  -5.549  1.00  0.00     0.060 A 
ATOM     41  C   UNL     1       0.363 -14.959  -6.896  1.00  0.00     0.016 A 
ATOM     42  C   UNL     1       2.044 -15.247  -5.166  1.00  0.00     0.016 A 
ATOM     43  C   UNL     1       1.277 -15.379  -7.864  1.00  0.00     0.010 A 
ATOM     44  C   UNL     1       2.951 -15.685  -6.133  1.00  0.00     0.010 A 
ATOM     45  C   UNL     1       2.567 -15.773  -7.483  1.00  0.00    -0.014 A 
BRANCH  45  46
ATOM     46  C   UNL     1       3.478 -16.412  -8.462  1.00  0.00     0.031 A 
ATOM     47  C   UNL     1       3.587 -17.910  -8.477  1.00  0.00     0.074 A 
ATOM     48  C   UNL     1       4.218 -15.673  -9.307  1.00  0.00     0.049 A 
ATOM     49  N   UNL     1       4.383 -18.678  -9.174  1.00  0.00    -0.248 NA
ATOM     50  C   UNL     1       2.678 -18.636  -7.577  1.00  0.00     0.031 C 
ATOM     51  C   UNL     1       4.184 -14.216  -9.408  1.00  0.00     0.029 A 
ATOM     52  N   UNL     1       5.165 -16.055 -10.225  1.00  0.00    -0.354 N 
ATOM     53  C   UNL     1       4.082 -19.978  -8.788  1.00  0.00     0.074 A 
ATOM     54  C   UNL     1       3.048 -19.892  -7.778  1.00  0.00     0.031 C 
ATOM     55  C   UNL     1       5.092 -13.823 -10.317  1.00  0.00     0.029 A 
ATOM     56  C   UNL     1       5.795 -14.998 -10.834  1.00  0.00     0.049 A 
ATOM     57  H   UNL     1       5.372 -16.996 -10.428  1.00  0.00     0.167 HD
ATOM     58  C   UNL     1       4.618 -21.138  -9.236  1.00  0.00     0.037 A 
ATOM     59  C   UNL     1       6.843 -14.978 -11.680  1.00  0.00     0.037 A 
ATOM     60  C   UNL     1       5.651 -21.220 -10.234  1.00  0.00     0.049 A 
ATOM     61  C   UNL     1       7.473 -16.276 -12.113  1.00  0.00     0.074 A 
ATOM     62  C   UNL     1       6.229 -22.350 -10.786  1.00  0.00     0.029 A 
ATOM     63  N   UNL     1       6.277 -20.127 -10.814  1.00  0.00    -0.354 N 
ATOM     64  N   UNL     1       7.151 -17.503 -11.781  1.00  0.00    -0.248 NA
ATOM     65  C   UNL     1       8.613 -16.187 -13.038  1.00  0.00     0.031 C 
ATOM     66  C   UNL     1       7.248 -21.940 -11.652  1.00  0.00     0.029 A 
ATOM     67  C   UNL     1       7.265 -20.555 -11.687  1.00  0.00     0.049 A 
ATOM     68  H   UNL     1       6.052 -19.185 -10.633  1.00  0.00     0.167 HD
ATOM     69  C   UNL     1       8.034 -18.330 -12.467  1.00  0.00     0.074 A 
ATOM     70  C   UNL     1       8.894 -17.466 -13.247  1.00  0.00     0.031 C 
ATOM     71  C   UNL     1       8.122 -19.684 -12.452  1.00  0.00     0.037 A 
BRANCH  58  72
ATOM     72  C   UNL     1       4.122 -22.411  -8.613  1.00  0.00     0.057 A 
ATOM     73  C   UNL     1       2.829 -22.900  -8.842  1.00  0.00     0.134 A 
ATOM     74  C   UNL     1       4.957 -23.165  -7.779  1.00  0.00     0.134 A 
ATOM     75  F   UNL     1       1.972 -22.220  -9.619  1.00  0.00    -0.206 F 
ATOM     76  C   UNL     1       2.375 -24.075  -8.239  1.00  0.00     0.040 A 
ATOM     77  C   UNL     1       4.525 -24.356  -7.194  1.00  0.00     0.040 A 
ATOM     78  F   UNL     1       6.209 -22.757  -7.520  1.00  0.00    -0.206 F 
ATOM     79  C   UNL     1       3.227 -24.809  -7.416  1.00  0.00     0.006 A 
ENDBRANCH  58  72
BRANCH  59  80
ATOM     80  C   UNL     1       7.388 -13.677 -12.147  1.00  0.00     0.057 A 
ATOM     81  C   UNL     1       7.257 -13.266 -13.478  1.00  0.00     0.134 A 
ATOM     82  C   UNL     1       8.055 -12.814 -11.268  1.00  0.00     0.134 A 
ATOM     83  F   UNL     1       6.652 -14.060 -14.373  1.00  0.00    -0.206 F 
ATOM     84  C   UNL     1       7.777 -12.049 -13.921  1.00  0.00     0.040 A 
ATOM     85  C   UNL     1       8.557 -11.583 -11.691  1.00  0.00     0.040 A 
ATOM     86  F   UNL     1       8.215 -13.150  -9.979  1.00  0.00    -0.206 F 
ATOM     87  C   UNL     1       8.423 -11.199 -13.024  1.00  0.00     0.006 A 
ENDBRANCH  59  80
BRANCH  71  88
ATOM     88  C   UNL     1       9.175 -20.320 -13.315  1.00  0.00     0.057 A 
ATOM     89  C   UNL     1      10.537 -20.244 -12.997  1.00  0.00     0.134 A 
ATOM     90  C   UNL     1       8.818 -21.063 -14.448  1.00  0.00     0.134 A 
ATOM     91  F   UNL     1      10.949 -19.539 -11.932  1.00  0.00    -0.206 F 
ATOM     92  C   UNL     1      11.507 -20.869 -13.784  1.00  0.00     0.040 A 
ATOM     93  C   UNL     1       9.775 -21.715 -15.226  1.00  0.00     0.040 A 
ATOM     94  F   UNL     1       7.531 -21.185 -14.805  1.00  0.00    -0.206 F 
ATOM     95  C   UNL     1      11.125 -21.615 -14.898  1.00  0.00     0.006 A 
ENDBRANCH  71  88
ENDBRANCH  45  46
ENDBRANCH  38  40
ENDBRANCH  37  38
ENDBRANCH  36  37
ENDBRANCH  35  36
ENDBRANCH  34  35
ENDBRANCH  33  34
ENDBRANCH  32  33
ENDBRANCH  31  32
ENDBRANCH   1  31
TORSDOF 24
