REMARK SMILES CC1CC[NH+]([C@H](c2ccc(F)cc2)c2ccc([C@@H](C)C(=O)OCCOCCOCCOCCOC(=O)c3ccc(-c4c5nc(c(-c6c(F)cccc6F)c6ccc([nH]6)c(-c6c(F)cccc6F)c6nc(c(-c7c(F)cccc7F)c7ccc4[nH]7)C=C6)C=C5)cc3)cc2-c2ccc(C(F)(F)F)cc2)CC1
REMARK SMILES IDX 27 1 26 2 25 3 24 4 23 5 22 6 20 7 21 8 18 9 19 10 17 11
REMARK SMILES IDX 14 12 15 13 92 14 16 15 91 16 6 17 5 18 1 19 2 20 3 21
REMARK SMILES IDX 104 22 4 23 103 24 7 26 8 27 13 28 9 29 12 30 10 31 11 32
REMARK SMILES IDX 93 33 94 34 102 35 95 36 101 37 96 38 97 39 98 40 99 41
REMARK SMILES IDX 100 42 28 43 29 44 30 45 31 46 32 47 33 48 34 49 35 50 36 51
REMARK SMILES IDX 37 52 38 53 90 54 39 55 89 56 40 57 41 58 42 59 83 60 43 61
REMARK SMILES IDX 88 62 82 63 84 64 44 65 87 66 81 67 80 68 45 70 71 71 54 72
REMARK SMILES IDX 70 73 55 74 58 75 69 76 85 77 56 78 57 79 68 81 86 82 59 83
REMARK SMILES IDX 46 84 47 85 52 86 48 87 49 88 51 89 53 90 50 91 72 92 73 93
REMARK SMILES IDX 78 94 74 95 75 96 77 97 79 98 76 99 60 100 61 101 66 102
REMARK SMILES IDX 62 103 63 104 65 105 67 106 64 107
REMARK H PARENT 5 25 84 69 58 80
REMARK Flexibility Score: inf
ROOT
ATOM      1  C   UNL     1       3.344   5.297  -1.169  1.00  0.00     0.188 C 
ENDROOT
BRANCH   1   2
ATOM      2  C   UNL     1       4.419   6.396  -1.137  1.00  0.00     0.188 C 
BRANCH   2   3
ATOM      3  O   UNL     1       4.096   7.753  -1.410  1.00  0.00    -0.376 OA
BRANCH   3   4
ATOM      4  C   UNL     1       3.112   8.084  -2.377  1.00  0.00     0.202 C 
BRANCH   4   5
ATOM      5  C   UNL     1       3.208   7.540  -3.813  1.00  0.00     0.261 C 
BRANCH   5   6
ATOM      6  O   UNL     1       3.494   6.135  -3.958  1.00  0.00    -0.463 OA
BRANCH   6   7
ATOM      7  C   UNL     1       4.763   5.812  -4.304  1.00  0.00     0.313 C 
ATOM      8  O   UNL     1       5.641   6.649  -4.507  1.00  0.00    -0.252 OA
BRANCH   7   9
ATOM      9  C   UNL     1       5.041   4.318  -4.491  1.00  0.00     0.126 C 
ATOM     10  C   UNL     1       5.150   4.056  -5.990  1.00  0.00     0.025 C 
BRANCH   9  11
ATOM     11  C   UNL     1       4.164   3.269  -3.805  1.00  0.00    -0.033 A 
ATOM     12  C   UNL     1       2.562   1.268  -2.435  1.00  0.00     0.022 A 
ATOM     13  C   UNL     1       2.015   2.258  -3.288  1.00  0.00     0.011 A 
ATOM     14  C   UNL     1       3.974   1.311  -2.260  1.00  0.00    -0.009 A 
ATOM     15  C   UNL     1       2.786   3.212  -3.974  1.00  0.00     0.005 A 
ATOM     16  C   UNL     1       4.736   2.304  -2.948  1.00  0.00     0.013 A 
BRANCH  12  17
ATOM     17  C   UNL     1       1.669   0.122  -1.839  1.00  0.00     0.247 C 
BRANCH  17  18
ATOM     18  N   UNL     1       0.241   0.025  -2.307  1.00  0.00    -0.325 N 
ATOM     19  C   UNL     1      -3.339   1.311  -4.529  1.00  0.00     0.008 C 
ATOM     20  C   UNL     1      -1.950   1.132  -3.924  1.00  0.00    -0.003 C 
ATOM     21  C   UNL     1      -1.293  -0.183  -4.330  1.00  0.00     0.065 C 
ATOM     22  C   UNL     1      -2.038   1.133  -2.410  1.00  0.00     0.065 C 
ATOM     23  C   UNL     1       0.114  -0.310  -3.730  1.00  0.00     0.263 C 
ATOM     24  C   UNL     1      -0.666   1.031  -1.759  1.00  0.00     0.263 C 
ATOM     25  H   UNL     1      -0.141  -0.807  -1.857  1.00  0.00     0.348 HD
ENDBRANCH  17  18
BRANCH  17  26
ATOM     26  C   UNL     1       1.751  -0.084  -0.307  1.00  0.00     0.014 A 
ATOM     27  C   UNL     1       1.351   0.908   0.599  1.00  0.00     0.013 A 
ATOM     28  C   UNL     1       2.166  -1.321   0.231  1.00  0.00     0.013 A 
ATOM     29  C   UNL     1       1.322   0.662   1.976  1.00  0.00     0.040 A 
ATOM     30  C   UNL     1       2.217  -1.537   1.613  1.00  0.00     0.040 A 
ATOM     31  C   UNL     1       1.782  -0.544   2.474  1.00  0.00     0.123 A 
ATOM     32  F   UNL     1       1.796  -0.749   3.798  1.00  0.00    -0.207 F 
ENDBRANCH  17  26
ENDBRANCH  12  17
BRANCH  14  33
ATOM     33  C   UNL     1       4.716   0.383  -1.381  1.00  0.00    -0.018 A 
ATOM     34  C   UNL     1       5.257   0.837  -0.166  1.00  0.00     0.009 A 
ATOM     35  C   UNL     1       4.909  -0.963  -1.726  1.00  0.00     0.009 A 
ATOM     36  C   UNL     1       5.921  -0.038   0.702  1.00  0.00     0.014 A 
ATOM     37  C   UNL     1       5.561  -1.844  -0.853  1.00  0.00     0.014 A 
ATOM     38  C   UNL     1       6.058  -1.395   0.378  1.00  0.00     0.056 A 
BRANCH  38  39
ATOM     39  C   UNL     1       6.733  -2.340   1.343  1.00  0.00     0.416 C 
ATOM     40  F   UNL     1       8.078  -2.140   1.414  1.00  0.00    -0.166 F 
ATOM     41  F   UNL     1       6.268  -2.211   2.617  1.00  0.00    -0.166 F 
ATOM     42  F   UNL     1       6.567  -3.654   1.022  1.00  0.00    -0.166 F 
ENDBRANCH  38  39
ENDBRANCH  14  33
ENDBRANCH   9  11
ENDBRANCH   7   9
ENDBRANCH   6   7
ENDBRANCH   5   6
ENDBRANCH   4   5
ENDBRANCH   3   4
ENDBRANCH   2   3
ENDBRANCH   1   2
BRANCH   1  43
ATOM     43  O   UNL     1       2.082   5.701  -1.664  1.00  0.00    -0.377 OA
BRANCH  43  44
ATOM     44  C   UNL     1       1.068   5.883  -0.689  1.00  0.00     0.188 C 
BRANCH  44  45
ATOM     45  C   UNL     1       1.454   6.673   0.580  1.00  0.00     0.188 C 
BRANCH  45  46
ATOM     46  O   UNL     1       2.619   6.186   1.234  1.00  0.00    -0.376 OA
BRANCH  46  47
ATOM     47  C   UNL     1       2.445   5.344   2.363  1.00  0.00     0.202 C 
BRANCH  47  48
ATOM     48  C   UNL     1       1.799   3.980   2.118  1.00  0.00     0.261 C 
BRANCH  48  49
ATOM     49  O   UNL     1       0.516   3.986   1.465  1.00  0.00    -0.460 OA
BRANCH  49  50
ATOM     50  C   UNL     1      -0.556   4.453   2.128  1.00  0.00     0.338 C 
ATOM     51  O   UNL     1      -0.585   4.843   3.288  1.00  0.00    -0.246 OA
BRANCH  50  52
ATOM     52  C   UNL     1      -1.675   4.572   1.165  1.00  0.00     0.060 A 
ATOM     53  C   UNL     1      -2.104   5.843   0.762  1.00  0.00     0.016 A 
ATOM     54  C   UNL     1      -2.316   3.436   0.671  1.00  0.00     0.016 A 
ATOM     55  C   UNL     1      -3.184   5.986  -0.117  1.00  0.00     0.010 A 
ATOM     56  C   UNL     1      -3.417   3.584  -0.186  1.00  0.00     0.010 A 
ATOM     57  C   UNL     1      -3.875   4.857  -0.572  1.00  0.00    -0.014 A 
BRANCH  57  58
ATOM     58  C   UNL     1      -5.186   5.003  -1.266  1.00  0.00     0.031 A 
ATOM     59  C   UNL     1      -6.441   4.684  -0.494  1.00  0.00     0.074 A 
ATOM     60  C   UNL     1      -5.288   5.430  -2.540  1.00  0.00     0.049 A 
ATOM     61  N   UNL     1      -7.689   4.698  -0.885  1.00  0.00    -0.248 NA
ATOM     62  C   UNL     1      -6.257   4.284   0.911  1.00  0.00     0.031 C 
ATOM     63  C   UNL     1      -4.169   5.801  -3.402  1.00  0.00     0.029 A 
ATOM     64  N   UNL     1      -6.398   5.623  -3.331  1.00  0.00    -0.354 N 
ATOM     65  C   UNL     1      -8.433   4.294   0.217  1.00  0.00     0.074 A 
ATOM     66  C   UNL     1      -7.495   3.995   1.276  1.00  0.00     0.031 C 
ATOM     67  C   UNL     1      -4.649   6.184  -4.599  1.00  0.00     0.029 A 
ATOM     68  C   UNL     1      -6.106   6.055  -4.603  1.00  0.00     0.049 A 
ATOM     69  H   UNL     1      -7.317   5.465  -3.014  1.00  0.00     0.167 HD
ATOM     70  C   UNL     1      -9.776   4.200   0.349  1.00  0.00     0.037 A 
ATOM     71  C   UNL     1      -6.917   6.308  -5.652  1.00  0.00     0.037 A 
ATOM     72  C   UNL     1     -10.717   4.516  -0.691  1.00  0.00     0.049 A 
ATOM     73  C   UNL     1      -8.409   6.143  -5.506  1.00  0.00     0.074 A 
ATOM     74  C   UNL     1     -12.099   4.484  -0.635  1.00  0.00     0.029 A 
ATOM     75  N   UNL     1     -10.375   4.916  -1.973  1.00  0.00    -0.354 N 
ATOM     76  N   UNL     1      -9.101   5.787  -4.451  1.00  0.00    -0.248 NA
ATOM     77  C   UNL     1      -9.234   6.415  -6.695  1.00  0.00     0.031 C 
ATOM     78  C   UNL     1     -12.593   4.806  -1.902  1.00  0.00     0.029 A 
ATOM     79  C   UNL     1     -11.521   5.103  -2.728  1.00  0.00     0.049 A 
ATOM     80  H   UNL     1      -9.455   5.048  -2.298  1.00  0.00     0.167 HD
ATOM     81  C   UNL     1     -10.437   5.814  -4.839  1.00  0.00     0.074 A 
ATOM     82  C   UNL     1     -10.461   6.231  -6.224  1.00  0.00     0.031 C 
ATOM     83  C   UNL     1     -11.541   5.522  -4.107  1.00  0.00     0.037 A 
BRANCH  70  84
ATOM     84  C   UNL     1     -10.310   3.721   1.668  1.00  0.00     0.057 A 
ATOM     85  C   UNL     1     -10.943   2.475   1.769  1.00  0.00     0.134 A 
ATOM     86  C   UNL     1     -10.231   4.501   2.829  1.00  0.00     0.134 A 
ATOM     87  F   UNL     1     -11.056   1.679   0.695  1.00  0.00    -0.206 F 
ATOM     88  C   UNL     1     -11.484   2.027   2.975  1.00  0.00     0.040 A 
ATOM     89  C   UNL     1     -10.740   4.050   4.048  1.00  0.00     0.040 A 
ATOM     90  F   UNL     1      -9.623   5.697   2.805  1.00  0.00    -0.206 F 
ATOM     91  C   UNL     1     -11.377   2.813   4.120  1.00  0.00     0.006 A 
ENDBRANCH  70  84
BRANCH  71  92
ATOM     92  C   UNL     1      -6.329   6.761  -6.941  1.00  0.00     0.057 A 
ATOM     93  C   UNL     1      -5.559   5.902  -7.735  1.00  0.00     0.134 A 
ATOM     94  C   UNL     1      -6.504   8.073  -7.398  1.00  0.00     0.134 A 
ATOM     95  F   UNL     1      -5.357   4.631  -7.357  1.00  0.00    -0.206 F 
ATOM     96  C   UNL     1      -4.960   6.338  -8.918  1.00  0.00     0.040 A 
ATOM     97  C   UNL     1      -5.930   8.516  -8.592  1.00  0.00     0.040 A 
ATOM     98  F   UNL     1      -7.255   8.936  -6.699  1.00  0.00    -0.206 F 
ATOM     99  C   UNL     1      -5.145   7.649  -9.350  1.00  0.00     0.006 A 
ENDBRANCH  71  92
BRANCH  83 100
ATOM    100  C   UNL     1     -12.886   5.657  -4.764  1.00  0.00     0.057 A 
ATOM    101  C   UNL     1     -13.783   6.652  -4.352  1.00  0.00     0.134 A 
ATOM    102  C   UNL     1     -13.336   4.741  -5.722  1.00  0.00     0.134 A 
ATOM    103  F   UNL     1     -13.422   7.554  -3.427  1.00  0.00    -0.206 F 
ATOM    104  C   UNL     1     -15.085   6.717  -4.851  1.00  0.00     0.040 A 
ATOM    105  C   UNL     1     -14.627   4.812  -6.250  1.00  0.00     0.040 A 
ATOM    106  F   UNL     1     -12.526   3.767  -6.166  1.00  0.00    -0.206 F 
ATOM    107  C   UNL     1     -15.510   5.794  -5.804  1.00  0.00     0.006 A 
ENDBRANCH  83 100
ENDBRANCH  57  58
ENDBRANCH  50  52
ENDBRANCH  49  50
ENDBRANCH  48  49
ENDBRANCH  47  48
ENDBRANCH  46  47
ENDBRANCH  45  46
ENDBRANCH  44  45
ENDBRANCH  43  44
ENDBRANCH   1  43
TORSDOF 26
