REMARK SMILES O=C(OCCOCCOCCOCCOC(=O)[C@H](NC(=O)[C@H]1CC[C@@H](CNC(=O)[C@@H]2Cc3ccccc3C[NH2+]2)CC1)c1ccccc1)c1ccc(-c2c3nc(c(-c4c(F)cccc4F)c4ccc([nH]4)c(-c4c(F)cccc4F)c4nc(c(-c5c(F)cccc5F)c5ccc2[nH]5)C=C4)C=C3)cc1
REMARK SMILES IDX 10 1 9 2 8 3 7 4 6 5 5 6 4 7 3 8 2 9 1 10 48 11 49 12 101 13
REMARK SMILES IDX 50 14 100 15 51 16 52 17 53 18 94 19 54 20 99 21 93 22 95 23
REMARK SMILES IDX 55 24 98 25 92 26 91 27 56 29 82 30 65 31 81 32 66 33 69 34
REMARK SMILES IDX 80 35 96 36 67 37 68 38 79 40 97 41 70 42 57 43 58 44 63 45
REMARK SMILES IDX 59 46 60 47 62 48 64 49 61 50 83 51 84 52 89 53 85 54 86 55
REMARK SMILES IDX 88 56 90 57 87 58 71 59 72 60 77 61 73 62 74 63 76 64 78 65
REMARK SMILES IDX 75 66 11 67 12 68 13 69 14 70 15 71 16 72 17 73 18 74 42 75
REMARK SMILES IDX 43 76 47 77 44 78 46 79 45 80 19 81 20 82 21 84 22 85 41 86
REMARK SMILES IDX 23 87 40 88 24 89 25 90 26 91 27 92 28 93 29 95 30 96 31 97
REMARK SMILES IDX 39 98 32 99 38 100 33 103 37 104 34 105 36 106 35 107
REMARK H PARENT 95 28 69 39 19 83 27 94 39 101 39 102
REMARK Flexibility Score: inf
ROOT
ATOM      1  C   UNL     1      -1.499   9.092  -3.558  1.00  0.00     0.188 C 
ENDROOT
BRANCH   1   2
ATOM      2  O   UNL     1      -0.909  10.189  -4.249  1.00  0.00    -0.377 OA
BRANCH   2   3
ATOM      3  C   UNL     1       0.100  10.915  -3.541  1.00  0.00     0.188 C 
BRANCH   3   4
ATOM      4  C   UNL     1      -0.184  11.230  -2.068  1.00  0.00     0.188 C 
BRANCH   4   5
ATOM      5  O   UNL     1      -0.335  10.047  -1.286  1.00  0.00    -0.376 OA
BRANCH   5   6
ATOM      6  C   UNL     1      -1.424  10.019  -0.365  1.00  0.00     0.202 C 
BRANCH   6   7
ATOM      7  C   UNL     1      -1.196  10.823   0.911  1.00  0.00     0.261 C 
BRANCH   7   8
ATOM      8  O   UNL     1      -0.256  11.896   0.745  1.00  0.00    -0.460 OA
BRANCH   8   9
ATOM      9  C   UNL     1       1.097  11.857   0.807  1.00  0.00     0.338 C 
ATOM     10  O   UNL     1       1.716  12.907   0.634  1.00  0.00    -0.246 OA
BRANCH   9  11
ATOM     11  C   UNL     1       1.898  10.629   1.103  1.00  0.00     0.060 A 
ATOM     12  C   UNL     1       1.505   9.317   0.843  1.00  0.00     0.016 A 
ATOM     13  C   UNL     1       3.182  10.827   1.642  1.00  0.00     0.016 A 
ATOM     14  C   UNL     1       2.290   8.233   1.189  1.00  0.00     0.010 A 
ATOM     15  C   UNL     1       3.995   9.742   1.985  1.00  0.00     0.010 A 
ATOM     16  C   UNL     1       3.515   8.441   1.808  1.00  0.00    -0.014 A 
BRANCH  16  17
ATOM     17  C   UNL     1       4.092   7.283   2.506  1.00  0.00     0.031 A 
ATOM     18  C   UNL     1       3.881   7.212   3.990  1.00  0.00     0.074 A 
ATOM     19  C   UNL     1       4.572   6.244   1.803  1.00  0.00     0.049 A 
ATOM     20  N   UNL     1       4.278   6.312   4.846  1.00  0.00    -0.248 NA
ATOM     21  C   UNL     1       3.088   8.302   4.591  1.00  0.00     0.031 C 
ATOM     22  C   UNL     1       4.628   6.168   0.340  1.00  0.00     0.029 A 
ATOM     23  N   UNL     1       5.053   5.035   2.219  1.00  0.00    -0.354 N 
ATOM     24  C   UNL     1       3.829   6.755   6.085  1.00  0.00     0.074 A 
ATOM     25  C   UNL     1       3.127   7.997   5.876  1.00  0.00     0.031 C 
ATOM     26  C   UNL     1       5.091   4.960  -0.018  1.00  0.00     0.029 A 
ATOM     27  C   UNL     1       5.435   4.214   1.187  1.00  0.00     0.049 A 
ATOM     28  H   UNL     1       5.119   4.777   3.167  1.00  0.00     0.167 HD
ATOM     29  C   UNL     1       4.002   6.168   7.290  1.00  0.00     0.037 A 
ATOM     30  C   UNL     1       6.029   3.008   1.233  1.00  0.00     0.037 A 
ATOM     31  C   UNL     1       4.691   4.919   7.448  1.00  0.00     0.049 A 
ATOM     32  C   UNL     1       6.313   2.427   2.592  1.00  0.00     0.074 A 
ATOM     33  C   UNL     1       5.009   4.242   8.608  1.00  0.00     0.029 A 
ATOM     34  N   UNL     1       5.167   4.156   6.388  1.00  0.00    -0.354 N 
ATOM     35  N   UNL     1       5.986   2.895   3.776  1.00  0.00    -0.248 NA
ATOM     36  C   UNL     1       7.058   1.166   2.628  1.00  0.00     0.031 C 
ATOM     37  C   UNL     1       5.726   3.094   8.251  1.00  0.00     0.029 A 
ATOM     38  C   UNL     1       5.795   3.022   6.865  1.00  0.00     0.049 A 
ATOM     39  H   UNL     1       5.070   4.389   5.436  1.00  0.00     0.167 HD
ATOM     40  C   UNL     1       6.457   1.970   4.697  1.00  0.00     0.074 A 
ATOM     41  C   UNL     1       7.082   0.910   3.928  1.00  0.00     0.031 C 
ATOM     42  C   UNL     1       6.385   1.987   6.051  1.00  0.00     0.037 A 
BRANCH  29  43
ATOM     43  C   UNL     1       3.535   6.934   8.493  1.00  0.00     0.057 A 
ATOM     44  C   UNL     1       2.179   7.137   8.785  1.00  0.00     0.134 A 
ATOM     45  C   UNL     1       4.471   7.543   9.338  1.00  0.00     0.134 A 
ATOM     46  F   UNL     1       1.227   6.616   7.995  1.00  0.00    -0.206 F 
ATOM     47  C   UNL     1       1.774   7.947   9.850  1.00  0.00     0.040 A 
ATOM     48  C   UNL     1       4.079   8.331  10.422  1.00  0.00     0.040 A 
ATOM     49  F   UNL     1       5.786   7.402   9.111  1.00  0.00    -0.206 F 
ATOM     50  C   UNL     1       2.726   8.544  10.673  1.00  0.00     0.006 A 
ENDBRANCH  29  43
BRANCH  30  51
ATOM     51  C   UNL     1       6.434   2.312  -0.017  1.00  0.00     0.057 A 
ATOM     52  C   UNL     1       5.883   1.077  -0.380  1.00  0.00     0.134 A 
ATOM     53  C   UNL     1       7.403   2.855  -0.872  1.00  0.00     0.134 A 
ATOM     54  F   UNL     1       4.963   0.492   0.400  1.00  0.00    -0.206 F 
ATOM     55  C   UNL     1       6.294   0.401  -1.532  1.00  0.00     0.040 A 
ATOM     56  C   UNL     1       7.801   2.205  -2.042  1.00  0.00     0.040 A 
ATOM     57  F   UNL     1       7.974   4.035  -0.588  1.00  0.00    -0.206 F 
ATOM     58  C   UNL     1       7.253   0.968  -2.369  1.00  0.00     0.006 A 
ENDBRANCH  30  51
BRANCH  42  59
ATOM     59  C   UNL     1       6.938   0.794   6.768  1.00  0.00     0.057 A 
ATOM     60  C   UNL     1       8.313   0.549   6.856  1.00  0.00     0.134 A 
ATOM     61  C   UNL     1       6.073  -0.098   7.415  1.00  0.00     0.134 A 
ATOM     62  F   UNL     1       9.190   1.362   6.247  1.00  0.00    -0.206 F 
ATOM     63  C   UNL     1       8.808  -0.561   7.538  1.00  0.00     0.040 A 
ATOM     64  C   UNL     1       6.558  -1.192   8.128  1.00  0.00     0.040 A 
ATOM     65  F   UNL     1       4.745   0.091   7.377  1.00  0.00    -0.206 F 
ATOM     66  C   UNL     1       7.929  -1.430   8.183  1.00  0.00     0.006 A 
ENDBRANCH  42  59
ENDBRANCH  16  17
ENDBRANCH   9  11
ENDBRANCH   8   9
ENDBRANCH   7   8
ENDBRANCH   6   7
ENDBRANCH   5   6
ENDBRANCH   4   5
ENDBRANCH   3   4
ENDBRANCH   2   3
ENDBRANCH   1   2
BRANCH   1  67
ATOM     67  C   UNL     1      -0.594   7.916  -3.119  1.00  0.00     0.188 C 
BRANCH  67  68
ATOM     68  O   UNL     1       0.787   8.234  -3.098  1.00  0.00    -0.376 OA
BRANCH  68  69
ATOM     69  C   UNL     1       1.620   7.680  -4.106  1.00  0.00     0.202 C 
BRANCH  69  70
ATOM     70  C   UNL     1       1.312   7.942  -5.591  1.00  0.00     0.261 C 
BRANCH  70  71
ATOM     71  O   UNL     1      -0.067   8.007  -5.967  1.00  0.00    -0.461 OA
BRANCH  71  72
ATOM     72  C   UNL     1      -0.774   6.850  -6.064  1.00  0.00     0.333 C 
ATOM     73  O   UNL     1      -0.320   5.729  -5.853  1.00  0.00    -0.249 OA
BRANCH  72  74
ATOM     74  C   UNL     1      -2.259   7.183  -6.351  1.00  0.00     0.223 C 
BRANCH  74  75
ATOM     75  C   UNL     1      -2.575   6.918  -7.802  1.00  0.00    -0.014 A 
ATOM     76  C   UNL     1      -3.538   6.005  -8.235  1.00  0.00     0.006 A 
ATOM     77  C   UNL     1      -1.844   7.637  -8.771  1.00  0.00     0.006 A 
ATOM     78  C   UNL     1      -3.799   5.849  -9.595  1.00  0.00     0.000 A 
ATOM     79  C   UNL     1      -2.062   7.435 -10.129  1.00  0.00     0.000 A 
ATOM     80  C   UNL     1      -3.051   6.550 -10.540  1.00  0.00     0.000 A 
ENDBRANCH  74  75
BRANCH  74  81
ATOM     81  N   UNL     1      -3.096   6.532  -5.322  1.00  0.00    -0.339 N 
ATOM     82  C   UNL     1      -4.315   6.892  -4.814  1.00  0.00     0.224 C 
ATOM     83  H   UNL     1      -2.717   5.707  -4.942  1.00  0.00     0.164 HD
ATOM     84  O   UNL     1      -4.562   6.603  -3.643  1.00  0.00    -0.275 OA
BRANCH  82  85
ATOM     85  C   UNL     1      -5.350   7.536  -5.721  1.00  0.00     0.078 C 
ATOM     86  C   UNL     1      -6.795   7.359  -5.219  1.00  0.00     0.014 C 
ATOM     87  C   UNL     1      -5.119   9.008  -6.049  1.00  0.00     0.014 C 
ATOM     88  C   UNL     1      -7.782   7.778  -6.320  1.00  0.00     0.006 C 
ATOM     89  C   UNL     1      -6.023   9.368  -7.225  1.00  0.00     0.006 C 
ATOM     90  C   UNL     1      -7.509   9.196  -6.870  1.00  0.00     0.008 C 
BRANCH  90  91
ATOM     91  C   UNL     1      -8.013  10.246  -5.868  1.00  0.00     0.119 C 
BRANCH  91  92
ATOM     92  N   UNL     1      -7.660  11.602  -6.246  1.00  0.00    -0.351 N 
ATOM     93  C   UNL     1      -8.428  12.725  -6.217  1.00  0.00     0.278 C 
ATOM     94  H   UNL     1      -6.738  11.726  -6.568  1.00  0.00     0.163 HD
ATOM     95  O   UNL     1      -7.900  13.811  -6.472  1.00  0.00    -0.268 OA
BRANCH  93  96
ATOM     96  C   UNL     1      -9.918  12.610  -5.894  1.00  0.00     0.277 C 
ATOM     97  C   UNL     1     -10.680  12.435  -7.218  1.00  0.00     0.111 C 
ATOM     98  N   UNL     1     -10.318  13.755  -5.042  1.00  0.00    -0.332 N 
ATOM     99  C   UNL     1     -12.148  12.383  -6.906  1.00  0.00    -0.033 A 
ATOM    100  C   UNL     1     -11.654  14.274  -5.338  1.00  0.00     0.298 C 
ATOM    101  H   UNL     1      -9.644  14.508  -5.178  1.00  0.00     0.347 HD
ATOM    102  H   UNL     1     -10.338  13.417  -4.080  1.00  0.00     0.347 HD
ATOM    103  C   UNL     1     -13.024  11.507  -7.549  1.00  0.00     0.004 A 
ATOM    104  C   UNL     1     -12.614  13.256  -5.907  1.00  0.00     0.010 A 
ATOM    105  C   UNL     1     -14.364  11.474  -7.168  1.00  0.00     0.000 A 
ATOM    106  C   UNL     1     -13.958  13.213  -5.532  1.00  0.00     0.010 A 
ATOM    107  C   UNL     1     -14.827  12.316  -6.155  1.00  0.00     0.001 A 
ENDBRANCH  93  96
ENDBRANCH  91  92
ENDBRANCH  90  91
ENDBRANCH  82  85
ENDBRANCH  74  81
ENDBRANCH  72  74
ENDBRANCH  71  72
ENDBRANCH  70  71
ENDBRANCH  69  70
ENDBRANCH  68  69
ENDBRANCH  67  68
ENDBRANCH   1  67
TORSDOF 26
