REMARK SMILES O=C(Cn1nc(-c2ccc(Br)cc2)ccc1=O)N[C@H](C(=O)OCCOCCOCCOCCOC(=O)c1ccc(-c2c3nc(c(-c4c(F)cccc4F)c4ccc([nH]4)c(-c4c(F)cccc4F)c4nc(c(-c5c(F)cccc5F)c5ccc2[nH]5)C=C4)C=C3)cc1)c1ccccc1
REMARK SMILES IDX 27 1 26 2 25 3 24 4 23 5 22 6 20 7 21 8 19 9 18 10 1 11 2 12
REMARK SMILES IDX 3 14 4 15 5 16 16 17 6 18 15 19 17 20 14 21 7 22 8 23 13 24
REMARK SMILES IDX 9 25 12 26 10 27 11 28 91 29 92 30 96 31 93 32 95 33 94 34
REMARK SMILES IDX 28 35 29 36 30 37 31 38 32 39 33 40 34 41 35 42 36 43 37 44
REMARK SMILES IDX 38 45 90 46 39 47 89 48 40 49 41 50 42 51 83 52 43 53 88 54
REMARK SMILES IDX 82 55 84 56 44 57 87 58 81 59 80 60 45 62 71 63 54 64 70 65
REMARK SMILES IDX 55 66 58 67 69 68 85 69 56 70 57 71 68 73 86 74 59 75 46 76
REMARK SMILES IDX 47 77 52 78 48 79 49 80 51 81 53 82 50 83 72 84 73 85 78 86
REMARK SMILES IDX 74 87 75 88 77 89 79 90 76 91 60 92 61 93 66 94 62 95 63 96
REMARK SMILES IDX 65 97 67 98 64 99
REMARK H PARENT 18 13 84 61 58 72
REMARK Flexibility Score: inf
ROOT
ATOM      1  C   UNL     1       1.816  -0.232   0.912  1.00  0.00     0.188 C 
ENDROOT
BRANCH   1   2
ATOM      2  C   UNL     1       2.712  -0.884  -0.162  1.00  0.00     0.188 C 
BRANCH   2   3
ATOM      3  O   UNL     1       3.956  -1.347   0.340  1.00  0.00    -0.376 OA
BRANCH   3   4
ATOM      4  C   UNL     1       5.158  -0.956  -0.297  1.00  0.00     0.202 C 
BRANCH   4   5
ATOM      5  C   UNL     1       5.744   0.356   0.246  1.00  0.00     0.261 C 
BRANCH   5   6
ATOM      6  O   UNL     1       4.794   1.424   0.308  1.00  0.00    -0.461 OA
BRANCH   6   7
ATOM      7  C   UNL     1       4.417   1.953  -0.885  1.00  0.00     0.333 C 
ATOM      8  O   UNL     1       4.946   1.623  -1.941  1.00  0.00    -0.249 OA
BRANCH   7   9
ATOM      9  C   UNL     1       3.106   2.792  -0.728  1.00  0.00     0.223 C 
BRANCH   9  10
ATOM     10  N   UNL     1       3.203   3.749   0.381  1.00  0.00    -0.337 N 
ATOM     11  O   UNL     1       2.989   2.318   2.174  1.00  0.00    -0.273 OA
ATOM     12  C   UNL     1       3.179   3.445   1.731  1.00  0.00     0.242 C 
ATOM     13  H   UNL     1       3.293   4.699   0.141  1.00  0.00     0.164 HD
BRANCH  12  14
ATOM     14  C   UNL     1       3.216   4.640   2.690  1.00  0.00     0.248 C 
BRANCH  14  15
ATOM     15  N   UNL     1       4.114   5.697   2.237  1.00  0.00    -0.220 N 
ATOM     16  N   UNL     1       3.849   6.236   0.999  1.00  0.00    -0.169 NA
ATOM     17  C   UNL     1       5.215   6.044   3.010  1.00  0.00     0.267 A 
ATOM     18  C   UNL     1       4.724   7.044   0.499  1.00  0.00     0.091 A 
ATOM     19  C   UNL     1       6.131   7.043   2.418  1.00  0.00     0.075 A 
ATOM     20  O   UNL     1       5.483   5.583   4.115  1.00  0.00    -0.268 OA
ATOM     21  C   UNL     1       5.935   7.516   1.187  1.00  0.00     0.036 A 
BRANCH  18  22
ATOM     22  C   UNL     1       4.510   7.512  -0.879  1.00  0.00     0.002 A 
ATOM     23  C   UNL     1       3.320   8.177  -1.184  1.00  0.00     0.011 A 
ATOM     24  C   UNL     1       5.414   7.152  -1.883  1.00  0.00     0.011 A 
ATOM     25  C   UNL     1       3.052   8.530  -2.506  1.00  0.00     0.016 A 
ATOM     26  C   UNL     1       5.135   7.496  -3.206  1.00  0.00     0.016 A 
ATOM     27  C   UNL     1       3.962   8.191  -3.509  1.00  0.00     0.018 A 
ATOM     28  Br  UNL     1       3.574   8.630  -5.306  1.00  0.00    -0.051 Br
ENDBRANCH  18  22
ENDBRANCH  14  15
ENDBRANCH  12  14
ENDBRANCH   9  10
BRANCH   9  29
ATOM     29  C   UNL     1       2.647   3.359  -2.077  1.00  0.00    -0.014 A 
ATOM     30  C   UNL     1       2.314   4.697  -2.296  1.00  0.00     0.006 A 
ATOM     31  C   UNL     1       2.535   2.476  -3.177  1.00  0.00     0.006 A 
ATOM     32  C   UNL     1       2.011   5.153  -3.586  1.00  0.00     0.000 A 
ATOM     33  C   UNL     1       2.265   2.935  -4.466  1.00  0.00     0.000 A 
ATOM     34  C   UNL     1       2.028   4.284  -4.674  1.00  0.00     0.000 A 
ENDBRANCH   9  29
ENDBRANCH   7   9
ENDBRANCH   6   7
ENDBRANCH   5   6
ENDBRANCH   4   5
ENDBRANCH   3   4
ENDBRANCH   2   3
ENDBRANCH   1   2
BRANCH   1  35
ATOM     35  O   UNL     1       1.801  -0.727   2.240  1.00  0.00    -0.377 OA
BRANCH  35  36
ATOM     36  C   UNL     1       3.049  -1.104   2.792  1.00  0.00     0.188 C 
BRANCH  36  37
ATOM     37  C   UNL     1       3.326  -2.623   2.677  1.00  0.00     0.188 C 
BRANCH  37  38
ATOM     38  O   UNL     1       2.376  -3.518   2.104  1.00  0.00    -0.376 OA
BRANCH  38  39
ATOM     39  C   UNL     1       0.983  -3.271   2.208  1.00  0.00     0.202 C 
BRANCH  39  40
ATOM     40  C   UNL     1       0.316  -3.010   3.572  1.00  0.00     0.261 C 
BRANCH  40  41
ATOM     41  O   UNL     1       1.101  -2.341   4.565  1.00  0.00    -0.460 OA
BRANCH  41  42
ATOM     42  C   UNL     1       1.803  -3.137   5.403  1.00  0.00     0.338 C 
ATOM     43  O   UNL     1       1.815  -4.357   5.431  1.00  0.00    -0.246 OA
BRANCH  42  44
ATOM     44  C   UNL     1       2.716  -2.285   6.197  1.00  0.00     0.060 A 
ATOM     45  C   UNL     1       2.237  -1.169   6.886  1.00  0.00     0.016 A 
ATOM     46  C   UNL     1       4.082  -2.604   6.231  1.00  0.00     0.016 A 
ATOM     47  C   UNL     1       3.122  -0.401   7.644  1.00  0.00     0.010 A 
ATOM     48  C   UNL     1       4.969  -1.824   6.974  1.00  0.00     0.010 A 
ATOM     49  C   UNL     1       4.487  -0.739   7.716  1.00  0.00    -0.014 A 
BRANCH  49  50
ATOM     50  C   UNL     1       5.344  -0.088   8.735  1.00  0.00     0.031 A 
ATOM     51  C   UNL     1       6.350   0.964   8.392  1.00  0.00     0.074 A 
ATOM     52  C   UNL     1       5.187  -0.481  10.013  1.00  0.00     0.049 A 
ATOM     53  N   UNL     1       7.062   1.710   9.200  1.00  0.00    -0.248 NA
ATOM     54  C   UNL     1       6.603   1.201   6.965  1.00  0.00     0.031 C 
ATOM     55  C   UNL     1       4.282  -1.545  10.457  1.00  0.00     0.029 A 
ATOM     56  N   UNL     1       5.761  -0.025  11.169  1.00  0.00    -0.354 N 
ATOM     57  C   UNL     1       7.826   2.532   8.384  1.00  0.00     0.074 A 
ATOM     58  C   UNL     1       7.535   2.145   7.016  1.00  0.00     0.031 C 
ATOM     59  C   UNL     1       4.327  -1.627  11.795  1.00  0.00     0.029 A 
ATOM     60  C   UNL     1       5.275  -0.639  12.297  1.00  0.00     0.049 A 
ATOM     61  H   UNL     1       6.454   0.674  11.190  1.00  0.00     0.167 HD
ATOM     62  C   UNL     1       8.673   3.529   8.745  1.00  0.00     0.037 A 
ATOM     63  C   UNL     1       5.548  -0.416  13.594  1.00  0.00     0.037 A 
ATOM     64  C   UNL     1       8.978   3.887  10.110  1.00  0.00     0.049 A 
ATOM     65  C   UNL     1       6.506   0.680  13.962  1.00  0.00     0.074 A 
ATOM     66  C   UNL     1       9.796   4.903  10.576  1.00  0.00     0.029 A 
ATOM     67  N   UNL     1       8.489   3.230  11.230  1.00  0.00    -0.354 N 
ATOM     68  N   UNL     1       7.150   1.517  13.185  1.00  0.00    -0.248 NA
ATOM     69  C   UNL     1       6.760   0.872  15.396  1.00  0.00     0.031 C 
ATOM     70  C   UNL     1       9.842   4.828  11.974  1.00  0.00     0.029 A 
ATOM     71  C   UNL     1       9.005   3.803  12.384  1.00  0.00     0.049 A 
ATOM     72  H   UNL     1       7.865   2.469  11.209  1.00  0.00     0.167 HD
ATOM     73  C   UNL     1       7.857   2.356  14.036  1.00  0.00     0.074 A 
ATOM     74  C   UNL     1       7.542   1.940  15.387  1.00  0.00     0.031 C 
ATOM     75  C   UNL     1       8.691   3.380  13.726  1.00  0.00     0.037 A 
BRANCH  62  76
ATOM     76  C   UNL     1       9.324   4.311   7.640  1.00  0.00     0.057 A 
ATOM     77  C   UNL     1      10.703   4.236   7.411  1.00  0.00     0.134 A 
ATOM     78  C   UNL     1       8.582   5.171   6.819  1.00  0.00     0.134 A 
ATOM     79  F   UNL     1      11.480   3.450   8.172  1.00  0.00    -0.206 F 
ATOM     80  C   UNL     1      11.319   4.980   6.401  1.00  0.00     0.040 A 
ATOM     81  C   UNL     1       9.180   5.894   5.785  1.00  0.00     0.040 A 
ATOM     82  F   UNL     1       7.259   5.301   6.994  1.00  0.00    -0.206 F 
ATOM     83  C   UNL     1      10.554   5.803   5.577  1.00  0.00     0.006 A 
ENDBRANCH  62  76
BRANCH  63  84
ATOM     84  C   UNL     1       4.873  -1.216  14.646  1.00  0.00     0.057 A 
ATOM     85  C   UNL     1       5.160  -2.573  14.825  1.00  0.00     0.134 A 
ATOM     86  C   UNL     1       3.946  -0.629  15.516  1.00  0.00     0.134 A 
ATOM     87  F   UNL     1       6.029  -3.196  14.015  1.00  0.00    -0.206 F 
ATOM     88  C   UNL     1       4.556  -3.318  15.838  1.00  0.00     0.040 A 
ATOM     89  C   UNL     1       3.357  -1.355  16.552  1.00  0.00     0.040 A 
ATOM     90  F   UNL     1       3.640   0.672  15.400  1.00  0.00    -0.206 F 
ATOM     91  C   UNL     1       3.661  -2.705  16.713  1.00  0.00     0.006 A 
ENDBRANCH  63  84
BRANCH  75  92
ATOM     92  C   UNL     1       9.284   4.139  14.881  1.00  0.00     0.057 A 
ATOM     93  C   UNL     1       8.890   5.458  15.142  1.00  0.00     0.134 A 
ATOM     94  C   UNL     1      10.217   3.562  15.754  1.00  0.00     0.134 A 
ATOM     95  F   UNL     1       8.008   6.078  14.344  1.00  0.00    -0.206 F 
ATOM     96  C   UNL     1       9.389   6.168  16.235  1.00  0.00     0.040 A 
ATOM     97  C   UNL     1      10.697   4.250  16.870  1.00  0.00     0.040 A 
ATOM     98  F   UNL     1      10.627   2.298  15.572  1.00  0.00    -0.206 F 
ATOM     99  C   UNL     1      10.283   5.558  17.112  1.00  0.00     0.006 A 
ENDBRANCH  75  92
ENDBRANCH  49  50
ENDBRANCH  42  44
ENDBRANCH  41  42
ENDBRANCH  40  41
ENDBRANCH  39  40
ENDBRANCH  38  39
ENDBRANCH  37  38
ENDBRANCH  36  37
ENDBRANCH  35  36
ENDBRANCH   1  35
TORSDOF 25
