REMARK SMILES Cc1c(NC(=O)c2cccc(-c3cc4ccccc4oc3=O)c2)cccc1C(=O)OCCOCCOCCOCCOC(=O)c1ccc(-c2c3nc(c(-c4c(F)cccc4F)c4ccc([nH]4)c(-c4c(F)cccc4F)c4nc(c(-c5c(F)cccc5F)c5ccc2[nH]5)C=C4)C=C3)cc1
REMARK SMILES IDX 35 1 34 2 33 3 32 4 31 5 30 6 28 7 29 8 27 9 1 10 2 11 3 12
REMARK SMILES IDX 24 13 26 14 25 15 4 16 5 17 6 19 7 20 8 21 23 22 9 23 11 24
REMARK SMILES IDX 10 25 12 26 13 27 21 28 14 29 20 30 22 31 15 32 19 33 16 34
REMARK SMILES IDX 18 35 17 36 36 37 37 38 38 39 39 40 40 41 41 42 42 43 43 44
REMARK SMILES IDX 44 45 45 46 46 47 98 48 47 49 97 50 48 51 49 52 50 53 91 54
REMARK SMILES IDX 51 55 96 56 90 57 92 58 52 59 95 60 89 61 88 62 53 64 79 65
REMARK SMILES IDX 62 66 78 67 63 68 66 69 77 70 93 71 64 72 65 73 76 75 94 76
REMARK SMILES IDX 67 77 54 78 55 79 60 80 56 81 57 82 59 83 61 84 58 85 80 86
REMARK SMILES IDX 81 87 86 88 82 89 83 90 85 91 87 92 84 93 68 94 69 95 74 96
REMARK SMILES IDX 70 97 71 98 73 99 75 100 72 101
REMARK H PARENT 4 18 92 63 66 74
REMARK Flexibility Score: inf
ROOT
ATOM      1  C   UNL     1      -0.221   2.521  -3.040  1.00  0.00     0.188 C 
ENDROOT
BRANCH   1   2
ATOM      2  C   UNL     1      -1.265   2.804  -1.968  1.00  0.00     0.188 C 
BRANCH   2   3
ATOM      3  O   UNL     1      -1.137   4.140  -1.480  1.00  0.00    -0.376 OA
BRANCH   3   4
ATOM      4  C   UNL     1      -0.019   4.305  -0.612  1.00  0.00     0.202 C 
BRANCH   4   5
ATOM      5  C   UNL     1      -0.322   3.779   0.779  1.00  0.00     0.261 C 
BRANCH   5   6
ATOM      6  O   UNL     1      -0.275   2.345   0.847  1.00  0.00    -0.460 OA
BRANCH   6   7
ATOM      7  C   UNL     1      -1.134   1.833   1.765  1.00  0.00     0.338 C 
ATOM      8  O   UNL     1      -1.817   2.447   2.546  1.00  0.00    -0.246 OA
BRANCH   7   9
ATOM      9  C   UNL     1      -1.423   0.411   1.462  1.00  0.00     0.065 A 
ATOM     10  C   UNL     1       0.959  -0.447   1.671  1.00  0.00     0.047 C 
ATOM     11  C   UNL     1      -0.510  -0.672   1.421  1.00  0.00    -0.013 A 
ATOM     12  C   UNL     1      -1.029  -1.962   1.125  1.00  0.00     0.045 A 
ATOM     13  C   UNL     1      -2.414  -2.124   0.972  1.00  0.00     0.026 A 
ATOM     14  C   UNL     1      -2.788   0.222   1.196  1.00  0.00     0.016 A 
ATOM     15  C   UNL     1      -3.285  -1.043   0.963  1.00  0.00     0.003 A 
BRANCH  12  16
ATOM     16  N   UNL     1      -0.169  -3.082   0.989  1.00  0.00    -0.322 N 
ATOM     17  C   UNL     1      -0.354  -4.318   0.378  1.00  0.00     0.255 C 
ATOM     18  H   UNL     1       0.717  -2.963   1.401  1.00  0.00     0.170 HD
ATOM     19  O   UNL     1       0.446  -5.227   0.602  1.00  0.00    -0.269 OA
BRANCH  17  20
ATOM     20  C   UNL     1      -1.420  -4.564  -0.638  1.00  0.00     0.040 A 
ATOM     21  C   UNL     1      -2.116  -5.764  -0.694  1.00  0.00     0.014 A 
ATOM     22  C   UNL     1      -1.673  -3.608  -1.621  1.00  0.00     0.022 A 
ATOM     23  C   UNL     1      -3.106  -5.944  -1.670  1.00  0.00     0.001 A 
ATOM     24  C   UNL     1      -2.654  -3.755  -2.618  1.00  0.00    -0.010 A 
ATOM     25  C   UNL     1      -3.382  -4.944  -2.615  1.00  0.00     0.009 A 
BRANCH  24  26
ATOM     26  C   UNL     1      -2.909  -2.752  -3.703  1.00  0.00     0.068 A 
ATOM     27  C   UNL     1      -2.802  -1.413  -3.530  1.00  0.00     0.028 A 
ATOM     28  C   UNL     1      -2.270  -3.053  -5.034  1.00  0.00     0.344 A 
ATOM     29  C   UNL     1      -1.381  -1.092  -3.305  1.00  0.00     0.018 A 
ATOM     30  O   UNL     1      -0.934  -2.619  -5.129  1.00  0.00    -0.422 OA
ATOM     31  O   UNL     1      -2.858  -3.628  -5.939  1.00  0.00    -0.246 OA
ATOM     32  C   UNL     1      -0.964  -0.421  -2.172  1.00  0.00     0.012 A 
ATOM     33  C   UNL     1      -0.449  -1.786  -4.093  1.00  0.00     0.138 A 
ATOM     34  C   UNL     1       0.388  -0.464  -1.829  1.00  0.00     0.001 A 
ATOM     35  C   UNL     1       0.901  -1.817  -3.765  1.00  0.00     0.048 A 
ATOM     36  C   UNL     1       1.316  -1.157  -2.611  1.00  0.00     0.004 A 
ENDBRANCH  24  26
ENDBRANCH  17  20
ENDBRANCH  12  16
ENDBRANCH   7   9
ENDBRANCH   6   7
ENDBRANCH   5   6
ENDBRANCH   4   5
ENDBRANCH   3   4
ENDBRANCH   2   3
ENDBRANCH   1   2
BRANCH   1  37
ATOM     37  O   UNL     1       1.018   2.097  -2.483  1.00  0.00    -0.377 OA
BRANCH  37  38
ATOM     38  C   UNL     1       2.225   2.427  -3.164  1.00  0.00     0.188 C 
BRANCH  38  39
ATOM     39  C   UNL     1       2.149   2.708  -4.656  1.00  0.00     0.188 C 
BRANCH  39  40
ATOM     40  O   UNL     1       1.446   3.935  -4.789  1.00  0.00    -0.376 OA
BRANCH  40  41
ATOM     41  C   UNL     1       0.641   4.086  -5.946  1.00  0.00     0.202 C 
BRANCH  41  42
ATOM     42  C   UNL     1       1.525   4.454  -7.127  1.00  0.00     0.261 C 
BRANCH  42  43
ATOM     43  O   UNL     1       2.213   5.684  -6.795  1.00  0.00    -0.460 OA
BRANCH  43  44
ATOM     44  C   UNL     1       3.485   5.520  -6.335  1.00  0.00     0.338 C 
ATOM     45  O   UNL     1       4.336   4.828  -6.873  1.00  0.00    -0.246 OA
BRANCH  44  46
ATOM     46  C   UNL     1       3.636   6.055  -4.944  1.00  0.00     0.060 A 
ATOM     47  C   UNL     1       4.834   5.821  -4.247  1.00  0.00     0.016 A 
ATOM     48  C   UNL     1       2.502   6.437  -4.234  1.00  0.00     0.016 A 
ATOM     49  C   UNL     1       4.847   5.789  -2.841  1.00  0.00     0.010 A 
ATOM     50  C   UNL     1       2.491   6.269  -2.858  1.00  0.00     0.010 A 
ATOM     51  C   UNL     1       3.645   5.906  -2.142  1.00  0.00    -0.014 A 
BRANCH  51  52
ATOM     52  C   UNL     1       3.417   5.468  -0.742  1.00  0.00     0.031 A 
ATOM     53  C   UNL     1       2.587   6.328   0.173  1.00  0.00     0.074 A 
ATOM     54  C   UNL     1       3.655   4.164  -0.436  1.00  0.00     0.049 A 
ATOM     55  N   UNL     1       2.170   5.987   1.346  1.00  0.00    -0.248 NA
ATOM     56  C   UNL     1       2.120   7.671  -0.182  1.00  0.00     0.031 C 
ATOM     57  C   UNL     1       2.982   3.337   0.567  1.00  0.00     0.029 A 
ATOM     58  N   UNL     1       4.522   3.246  -1.008  1.00  0.00    -0.354 N 
ATOM     59  C   UNL     1       1.192   6.876   1.762  1.00  0.00     0.074 A 
ATOM     60  C   UNL     1       1.246   7.941   0.797  1.00  0.00     0.031 C 
ATOM     61  C   UNL     1       3.489   2.097   0.591  1.00  0.00     0.029 A 
ATOM     62  C   UNL     1       4.703   2.147  -0.167  1.00  0.00     0.049 A 
ATOM     63  H   UNL     1       4.952   3.355  -1.887  1.00  0.00     0.167 HD
ATOM     64  C   UNL     1       0.382   6.539   2.816  1.00  0.00     0.037 A 
ATOM     65  C   UNL     1       5.902   1.927   0.450  1.00  0.00     0.037 A 
ATOM     66  C   UNL     1       0.909   5.359   3.532  1.00  0.00     0.049 A 
ATOM     67  C   UNL     1       5.827   2.287   1.937  1.00  0.00     0.074 A 
ATOM     68  C   UNL     1       0.378   4.159   3.970  1.00  0.00     0.029 A 
ATOM     69  N   UNL     1       2.285   5.252   3.753  1.00  0.00    -0.354 N 
ATOM     70  N   UNL     1       5.016   3.213   2.414  1.00  0.00    -0.248 NA
ATOM     71  C   UNL     1       6.427   1.491   3.010  1.00  0.00     0.031 C 
ATOM     72  C   UNL     1       1.460   3.261   4.215  1.00  0.00     0.029 A 
ATOM     73  C   UNL     1       2.648   3.971   4.102  1.00  0.00     0.049 A 
ATOM     74  H   UNL     1       2.918   6.002   3.670  1.00  0.00     0.167 HD
ATOM     75  C   UNL     1       4.899   3.072   3.774  1.00  0.00     0.074 A 
ATOM     76  C   UNL     1       5.833   2.008   4.103  1.00  0.00     0.031 C 
ATOM     77  C   UNL     1       3.993   3.702   4.583  1.00  0.00     0.037 A 
BRANCH  64  78
ATOM     78  C   UNL     1      -0.996   7.145   3.124  1.00  0.00     0.057 A 
ATOM     79  C   UNL     1      -1.687   6.807   4.312  1.00  0.00     0.134 A 
ATOM     80  C   UNL     1      -1.756   7.956   2.253  1.00  0.00     0.134 A 
ATOM     81  F   UNL     1      -1.111   6.065   5.267  1.00  0.00    -0.206 F 
ATOM     82  C   UNL     1      -3.007   7.210   4.591  1.00  0.00     0.040 A 
ATOM     83  C   UNL     1      -3.055   8.419   2.550  1.00  0.00     0.040 A 
ATOM     84  F   UNL     1      -1.313   8.310   1.042  1.00  0.00    -0.206 F 
ATOM     85  C   UNL     1      -3.695   8.032   3.715  1.00  0.00     0.006 A 
ENDBRANCH  64  78
BRANCH  65  86
ATOM     86  C   UNL     1       6.989   1.843  -0.581  1.00  0.00     0.057 A 
ATOM     87  C   UNL     1       6.804   0.739  -1.449  1.00  0.00     0.134 A 
ATOM     88  C   UNL     1       7.468   3.019  -1.181  1.00  0.00     0.134 A 
ATOM     89  F   UNL     1       6.394  -0.438  -0.947  1.00  0.00    -0.206 F 
ATOM     90  C   UNL     1       6.746   0.896  -2.840  1.00  0.00     0.040 A 
ATOM     91  C   UNL     1       7.457   3.171  -2.581  1.00  0.00     0.040 A 
ATOM     92  F   UNL     1       7.716   4.107  -0.440  1.00  0.00    -0.206 F 
ATOM     93  C   UNL     1       7.013   2.137  -3.407  1.00  0.00     0.006 A 
ENDBRANCH  65  86
BRANCH  77  94
ATOM     94  C   UNL     1       4.318   4.169   5.990  1.00  0.00     0.057 A 
ATOM     95  C   UNL     1       5.632   4.310   6.454  1.00  0.00     0.134 A 
ATOM     96  C   UNL     1       3.326   4.743   6.827  1.00  0.00     0.134 A 
ATOM     97  F   UNL     1       6.683   3.902   5.730  1.00  0.00    -0.206 F 
ATOM     98  C   UNL     1       5.936   4.941   7.665  1.00  0.00     0.040 A 
ATOM     99  C   UNL     1       3.624   5.421   8.009  1.00  0.00     0.040 A 
ATOM    100  F   UNL     1       2.022   4.722   6.521  1.00  0.00    -0.206 F 
ATOM    101  C   UNL     1       4.935   5.514   8.438  1.00  0.00     0.006 A 
ENDBRANCH  77  94
ENDBRANCH  51  52
ENDBRANCH  44  46
ENDBRANCH  43  44
ENDBRANCH  42  43
ENDBRANCH  41  42
ENDBRANCH  40  41
ENDBRANCH  39  40
ENDBRANCH  38  39
ENDBRANCH  37  38
ENDBRANCH   1  37
TORSDOF 23
