REMARK SMILES CC[C@@](C)(NC(=O)N(C)[C@@H](C)C(C)C)C(=O)OCCOCCOCCOCCOC(=O)c1ccc(-c2c3nc(c(-c4c(F)cccc4F)c4ccc([nH]4)c(-c4c(F)cccc4F)c4nc(c(-c5c(F)cccc5F)c5ccc2[nH]5)C=C4)C=C3)cc1
REMARK SMILES IDX 22 1 21 2 20 3 19 4 18 5 17 6 15 7 16 8 3 9 4 10 2 11 1 12
REMARK SMILES IDX 5 13 6 14 7 16 8 17 9 18 10 19 11 20 12 21 13 22 14 23 23 24
REMARK SMILES IDX 24 25 25 26 26 27 27 28 28 29 29 30 30 31 31 32 32 33 33 34
REMARK SMILES IDX 85 35 34 36 84 37 35 38 36 39 37 40 78 41 38 42 83 43 77 44
REMARK SMILES IDX 79 45 39 46 82 47 76 48 75 49 40 51 66 52 49 53 65 54 50 55
REMARK SMILES IDX 53 56 64 57 80 58 51 59 52 60 63 62 81 63 54 64 41 65 42 66
REMARK SMILES IDX 47 67 43 68 44 69 46 70 48 71 45 72 67 73 68 74 73 75 69 76
REMARK SMILES IDX 70 77 72 78 74 79 71 80 55 81 56 82 61 83 57 84 58 85 60 86
REMARK SMILES IDX 62 87 59 88
REMARK H PARENT 5 15 79 50 53 61
REMARK Flexibility Score: inf
ROOT
ATOM      1  C   UNL     1       3.554  -0.043   2.404  1.00  0.00     0.188 C 
ENDROOT
BRANCH   1   2
ATOM      2  C   UNL     1       4.250  -0.633   1.174  1.00  0.00     0.188 C 
BRANCH   2   3
ATOM      3  O   UNL     1       4.777   0.234   0.172  1.00  0.00    -0.376 OA
BRANCH   3   4
ATOM      4  C   UNL     1       5.384   1.467   0.534  1.00  0.00     0.202 C 
BRANCH   4   5
ATOM      5  C   UNL     1       4.623   2.586  -0.180  1.00  0.00     0.261 C 
BRANCH   5   6
ATOM      6  O   UNL     1       3.391   2.815   0.523  1.00  0.00    -0.462 OA
BRANCH   6   7
ATOM      7  C   UNL     1       2.284   2.163   0.120  1.00  0.00     0.331 C 
ATOM      8  O   UNL     1       2.212   1.549  -0.935  1.00  0.00    -0.249 OA
BRANCH   7   9
ATOM      9  C   UNL     1       1.097   2.355   1.123  1.00  0.00     0.136 C 
ATOM     10  C   UNL     1       0.125   3.254   0.306  1.00  0.00     0.047 C 
BRANCH   9  11
ATOM     11  C   UNL     1       0.349   1.006   1.413  1.00  0.00     0.037 C 
ATOM     12  C   UNL     1       0.200   0.023   0.244  1.00  0.00     0.007 C 
ENDBRANCH   9  11
BRANCH   9  13
ATOM     13  N   UNL     1       1.341   3.132   2.430  1.00  0.00    -0.322 N 
ATOM     14  C   UNL     1       2.060   2.889   3.583  1.00  0.00     0.318 C 
ATOM     15  H   UNL     1       0.877   4.000   2.448  1.00  0.00     0.166 HD
ATOM     16  O   UNL     1       1.383   2.541   4.551  1.00  0.00    -0.249 OA
BRANCH  14  17
ATOM     17  N   UNL     1       3.375   3.383   3.694  1.00  0.00    -0.325 N 
ATOM     18  C   UNL     1       3.887   4.270   2.662  1.00  0.00     0.149 C 
BRANCH  17  19
ATOM     19  C   UNL     1       4.068   3.653   5.056  1.00  0.00     0.086 C 
ATOM     20  C   UNL     1       3.219   4.822   5.613  1.00  0.00     0.031 C 
BRANCH  19  21
ATOM     21  C   UNL     1       4.970   2.424   5.811  1.00  0.00     0.005 C 
ATOM     22  C   UNL     1       6.462   2.523   5.389  1.00  0.00     0.009 C 
ATOM     23  C   UNL     1       5.179   1.814   7.292  1.00  0.00     0.009 C 
ENDBRANCH  19  21
ENDBRANCH  17  19
ENDBRANCH  14  17
ENDBRANCH   9  13
ENDBRANCH   7   9
ENDBRANCH   6   7
ENDBRANCH   5   6
ENDBRANCH   4   5
ENDBRANCH   3   4
ENDBRANCH   2   3
ENDBRANCH   1   2
BRANCH   1  24
ATOM     24  O   UNL     1       4.434   0.467   3.388  1.00  0.00    -0.377 OA
BRANCH  24  25
ATOM     25  C   UNL     1       5.041  -0.493   4.241  1.00  0.00     0.188 C 
BRANCH  25  26
ATOM     26  C   UNL     1       4.147  -1.080   5.377  1.00  0.00     0.188 C 
BRANCH  26  27
ATOM     27  O   UNL     1       3.719  -0.237   6.477  1.00  0.00    -0.376 OA
BRANCH  27  28
ATOM     28  C   UNL     1       2.459   0.462   6.339  1.00  0.00     0.202 C 
BRANCH  28  29
ATOM     29  C   UNL     1       2.071   1.577   7.470  1.00  0.00     0.261 C 
BRANCH  29  30
ATOM     30  O   UNL     1       2.832   2.876   7.504  1.00  0.00    -0.460 OA
BRANCH  30  31
ATOM     31  C   UNL     1       3.077   3.618   8.651  1.00  0.00     0.338 C 
ATOM     32  O   UNL     1       2.609   3.352   9.744  1.00  0.00    -0.246 OA
BRANCH  31  33
ATOM     33  C   UNL     1       3.972   4.884   8.457  1.00  0.00     0.060 A 
ATOM     34  C   UNL     1       5.252   4.889   7.869  1.00  0.00     0.016 A 
ATOM     35  C   UNL     1       3.526   6.149   8.854  1.00  0.00     0.016 A 
ATOM     36  C   UNL     1       6.015   6.032   7.566  1.00  0.00     0.010 A 
ATOM     37  C   UNL     1       4.299   7.322   8.593  1.00  0.00     0.010 A 
ATOM     38  C   UNL     1       5.541   7.275   7.926  1.00  0.00    -0.014 A 
BRANCH  38  39
ATOM     39  C   UNL     1       6.430   8.465   7.820  1.00  0.00     0.031 A 
ATOM     40  C   UNL     1       7.162   8.870   9.064  1.00  0.00     0.074 A 
ATOM     41  C   UNL     1       6.612   9.165   6.682  1.00  0.00     0.049 A 
ATOM     42  N   UNL     1       7.696  10.015   9.389  1.00  0.00    -0.248 NA
ATOM     43  C   UNL     1       7.281   7.828  10.097  1.00  0.00     0.031 C 
ATOM     44  C   UNL     1       6.123   8.788   5.356  1.00  0.00     0.029 A 
ATOM     45  N   UNL     1       7.237  10.375   6.472  1.00  0.00    -0.354 N 
ATOM     46  C   UNL     1       8.128   9.861  10.702  1.00  0.00     0.074 A 
ATOM     47  C   UNL     1       7.822   8.504  11.097  1.00  0.00     0.031 C 
ATOM     48  C   UNL     1       6.408   9.776   4.486  1.00  0.00     0.029 A 
ATOM     49  C   UNL     1       7.042  10.880   5.205  1.00  0.00     0.049 A 
ATOM     50  H   UNL     1       7.770  10.834   7.160  1.00  0.00     0.167 HD
ATOM     51  C   UNL     1       8.696  10.787  11.509  1.00  0.00     0.037 A 
ATOM     52  C   UNL     1       7.287  12.113   4.711  1.00  0.00     0.037 A 
ATOM     53  C   UNL     1       9.001  12.124  11.076  1.00  0.00     0.049 A 
ATOM     54  C   UNL     1       7.856  13.162   5.636  1.00  0.00     0.074 A 
ATOM     55  C   UNL     1       9.551  13.168  11.797  1.00  0.00     0.029 A 
ATOM     56  N   UNL     1       8.784  12.596   9.787  1.00  0.00    -0.354 N 
ATOM     57  N   UNL     1       8.174  13.059   6.906  1.00  0.00    -0.248 NA
ATOM     58  C   UNL     1       8.086  14.500   5.071  1.00  0.00     0.031 C 
ATOM     59  C   UNL     1       9.629  14.283  10.953  1.00  0.00     0.029 A 
ATOM     60  C   UNL     1       9.180  13.917   9.692  1.00  0.00     0.049 A 
ATOM     61  H   UNL     1       8.403  12.066   9.050  1.00  0.00     0.167 HD
ATOM     62  C   UNL     1       8.666  14.303   7.284  1.00  0.00     0.074 A 
ATOM     63  C   UNL     1       8.612  15.144   6.104  1.00  0.00     0.031 C 
ATOM     64  C   UNL     1       9.123  14.717   8.493  1.00  0.00     0.037 A 
BRANCH  51  65
ATOM     65  C   UNL     1       8.926  10.395  12.942  1.00  0.00     0.057 A 
ATOM     66  C   UNL     1       9.869   9.429  13.318  1.00  0.00     0.134 A 
ATOM     67  C   UNL     1       8.145  10.958  13.961  1.00  0.00     0.134 A 
ATOM     68  F   UNL     1      10.633   8.829  12.392  1.00  0.00    -0.206 F 
ATOM     69  C   UNL     1       9.994   9.004  14.643  1.00  0.00     0.040 A 
ATOM     70  C   UNL     1       8.284  10.566  15.294  1.00  0.00     0.040 A 
ATOM     71  F   UNL     1       7.221  11.889  13.678  1.00  0.00    -0.206 F 
ATOM     72  C   UNL     1       9.201   9.575  15.636  1.00  0.00     0.006 A 
ENDBRANCH  51  65
BRANCH  52  73
ATOM     73  C   UNL     1       6.951  12.444   3.295  1.00  0.00     0.057 A 
ATOM     74  C   UNL     1       7.954  12.713   2.355  1.00  0.00     0.134 A 
ATOM     75  C   UNL     1       5.626  12.503   2.843  1.00  0.00     0.134 A 
ATOM     76  F   UNL     1       9.243  12.714   2.726  1.00  0.00    -0.206 F 
ATOM     77  C   UNL     1       7.656  13.019   1.023  1.00  0.00     0.040 A 
ATOM     78  C   UNL     1       5.313  12.783   1.509  1.00  0.00     0.040 A 
ATOM     79  F   UNL     1       4.611  12.273   3.688  1.00  0.00    -0.206 F 
ATOM     80  C   UNL     1       6.331  13.043   0.594  1.00  0.00     0.006 A 
ENDBRANCH  52  73
BRANCH  64  81
ATOM     81  C   UNL     1       9.650  16.120   8.581  1.00  0.00     0.057 A 
ATOM     82  C   UNL     1       8.804  17.235   8.578  1.00  0.00     0.134 A 
ATOM     83  C   UNL     1      11.025  16.348   8.726  1.00  0.00     0.134 A 
ATOM     84  F   UNL     1       7.479  17.083   8.432  1.00  0.00    -0.206 F 
ATOM     85  C   UNL     1       9.310  18.531   8.693  1.00  0.00     0.040 A 
ATOM     86  C   UNL     1      11.539  17.636   8.868  1.00  0.00     0.040 A 
ATOM     87  F   UNL     1      11.887  15.320   8.749  1.00  0.00    -0.206 F 
ATOM     88  C   UNL     1      10.681  18.733   8.846  1.00  0.00     0.006 A 
ENDBRANCH  64  81
ENDBRANCH  38  39
ENDBRANCH  31  33
ENDBRANCH  30  31
ENDBRANCH  29  30
ENDBRANCH  28  29
ENDBRANCH  27  28
ENDBRANCH  26  27
ENDBRANCH  25  26
ENDBRANCH  24  25
ENDBRANCH   1  24
TORSDOF 25
