REMARK SMILES O=C(CC1(CSC[C@@H]2COc3ccccc32)CC1)OCCOCCOCCOCCOC(=O)c1ccc(-c2c3nc(c(-c4c(F)cccc4F)c4ccc([nH]4)c(-c4c(F)cccc4F)c4nc(c(-c5c(F)cccc5F)c5ccc2[nH]5)C=C4)C=C3)cc1
REMARK SMILES IDX 23 1 22 2 21 3 20 4 19 5 2 6 1 7 3 8 4 9 17 10 18 11 5 12
REMARK SMILES IDX 6 13 7 14 8 15 9 16 16 17 10 18 11 19 15 20 12 21 14 22
REMARK SMILES IDX 13 23 24 24 25 25 26 26 27 27 28 28 29 29 30 30 31 31 32 32
REMARK SMILES IDX 33 33 34 34 35 35 87 36 36 37 86 38 37 39 38 40 39 41 80 42
REMARK SMILES IDX 40 43 85 44 79 45 81 46 41 47 84 48 78 49 77 50 42 52 68 53
REMARK SMILES IDX 51 54 67 55 52 56 55 57 66 58 82 59 53 60 54 61 65 63 83 64
REMARK SMILES IDX 56 65 43 66 44 67 49 68 45 69 46 70 48 71 50 72 47 73 69 74
REMARK SMILES IDX 70 75 75 76 71 77 72 78 74 79 76 80 73 81 57 82 58 83 63 84
REMARK SMILES IDX 59 85 60 86 62 87 64 88 61 89
REMARK H PARENT 81 51 55 62
REMARK Flexibility Score: inf
ROOT
ATOM      1  C   UNL     1       7.276  -1.763  -4.768  1.00  0.00     0.188 C 
ENDROOT
BRANCH   1   2
ATOM      2  O   UNL     1       7.652  -0.829  -3.764  1.00  0.00    -0.376 OA
BRANCH   2   3
ATOM      3  C   UNL     1       7.713   0.535  -4.130  1.00  0.00     0.202 C 
BRANCH   3   4
ATOM      4  C   UNL     1       9.019   1.098  -3.609  1.00  0.00     0.261 C 
BRANCH   4   5
ATOM      5  O   UNL     1      10.164   0.481  -4.223  1.00  0.00    -0.463 OA
BRANCH   5   6
ATOM      6  C   UNL     1      10.550  -0.806  -4.114  1.00  0.00     0.306 C 
ATOM      7  O   UNL     1      11.213  -1.282  -5.041  1.00  0.00    -0.252 OA
BRANCH   6   8
ATOM      8  C   UNL     1      10.191  -1.706  -2.948  1.00  0.00     0.130 C 
BRANCH   8   9
ATOM      9  C   UNL     1      10.093  -1.220  -1.501  1.00  0.00    -0.010 C 
ATOM     10  C   UNL     1      11.454  -1.220  -0.790  1.00  0.00     0.009 C 
ATOM     11  C   UNL     1      10.767   0.068  -1.037  1.00  0.00     0.009 C 
BRANCH   9  12
ATOM     12  C   UNL     1       9.019  -1.929  -0.674  1.00  0.00     0.077 C 
BRANCH  12  13
ATOM     13  S   UNL     1       7.284  -1.438  -0.634  1.00  0.00    -0.161 SA
BRANCH  13  14
ATOM     14  C   UNL     1       7.300   0.355  -0.319  1.00  0.00     0.081 C 
BRANCH  14  15
ATOM     15  C   UNL     1       7.248   0.874   1.127  1.00  0.00     0.071 C 
ATOM     16  C   UNL     1       7.445   2.411   1.106  1.00  0.00     0.238 C 
ATOM     17  C   UNL     1       8.411   0.504   1.968  1.00  0.00     0.001 A 
ATOM     18  O   UNL     1       8.769   2.752   1.581  1.00  0.00    -0.493 OA
ATOM     19  C   UNL     1       9.250   1.594   2.123  1.00  0.00     0.122 A 
ATOM     20  C   UNL     1       8.760  -0.734   2.479  1.00  0.00     0.008 A 
ATOM     21  C   UNL     1      10.497   1.473   2.702  1.00  0.00     0.047 A 
ATOM     22  C   UNL     1      10.031  -0.888   3.034  1.00  0.00     0.001 A 
ATOM     23  C   UNL     1      10.901   0.207   3.132  1.00  0.00     0.004 A 
ENDBRANCH  14  15
ENDBRANCH  13  14
ENDBRANCH  12  13
ENDBRANCH   9  12
ENDBRANCH   8   9
ENDBRANCH   6   8
ENDBRANCH   5   6
ENDBRANCH   4   5
ENDBRANCH   3   4
ENDBRANCH   2   3
ENDBRANCH   1   2
BRANCH   1  24
ATOM     24  C   UNL     1       6.044  -1.386  -5.583  1.00  0.00     0.188 C 
BRANCH  24  25
ATOM     25  O   UNL     1       4.823  -1.089  -4.913  1.00  0.00    -0.377 OA
BRANCH  25  26
ATOM     26  C   UNL     1       4.732  -1.152  -3.500  1.00  0.00     0.188 C 
BRANCH  26  27
ATOM     27  C   UNL     1       4.064  -2.392  -2.891  1.00  0.00     0.188 C 
BRANCH  27  28
ATOM     28  O   UNL     1       4.554  -3.675  -3.240  1.00  0.00    -0.376 OA
BRANCH  28  29
ATOM     29  C   UNL     1       4.415  -4.134  -4.579  1.00  0.00     0.202 C 
BRANCH  29  30
ATOM     30  C   UNL     1       3.105  -3.924  -5.362  1.00  0.00     0.261 C 
BRANCH  30  31
ATOM     31  O   UNL     1       2.753  -2.544  -5.584  1.00  0.00    -0.460 OA
BRANCH  31  32
ATOM     32  C   UNL     1       1.609  -2.126  -4.994  1.00  0.00     0.338 C 
ATOM     33  O   UNL     1       0.797  -2.820  -4.407  1.00  0.00    -0.246 OA
BRANCH  32  34
ATOM     34  C   UNL     1       1.522  -0.648  -4.961  1.00  0.00     0.060 A 
ATOM     35  C   UNL     1       1.325  -0.041  -3.710  1.00  0.00     0.016 A 
ATOM     36  C   UNL     1       1.472   0.118  -6.126  1.00  0.00     0.016 A 
ATOM     37  C   UNL     1       0.998   1.310  -3.623  1.00  0.00     0.010 A 
ATOM     38  C   UNL     1       1.116   1.473  -6.041  1.00  0.00     0.010 A 
ATOM     39  C   UNL     1       0.814   2.055  -4.794  1.00  0.00    -0.014 A 
BRANCH  39  40
ATOM     40  C   UNL     1       0.017   3.308  -4.708  1.00  0.00     0.031 A 
ATOM     41  C   UNL     1      -1.468   3.214  -4.957  1.00  0.00     0.074 A 
ATOM     42  C   UNL     1       0.560   4.480  -4.334  1.00  0.00     0.049 A 
ATOM     43  N   UNL     1      -2.386   4.145  -4.904  1.00  0.00    -0.248 NA
ATOM     44  C   UNL     1      -1.987   1.882  -5.312  1.00  0.00     0.031 C 
ATOM     45  C   UNL     1       1.966   4.697  -4.006  1.00  0.00     0.029 A 
ATOM     46  N   UNL     1      -0.022   5.712  -4.160  1.00  0.00    -0.354 N 
ATOM     47  C   UNL     1      -3.583   3.514  -5.226  1.00  0.00     0.074 A 
ATOM     48  C   UNL     1      -3.272   2.130  -5.505  1.00  0.00     0.031 C 
ATOM     49  C   UNL     1       2.140   5.990  -3.673  1.00  0.00     0.029 A 
ATOM     50  C   UNL     1       0.862   6.694  -3.787  1.00  0.00     0.049 A 
ATOM     51  H   UNL     1      -0.984   5.876  -4.292  1.00  0.00     0.167 HD
ATOM     52  C   UNL     1      -4.833   4.032  -5.274  1.00  0.00     0.037 A 
ATOM     53  C   UNL     1       0.661   8.009  -3.571  1.00  0.00     0.037 A 
ATOM     54  C   UNL     1      -5.148   5.408  -4.996  1.00  0.00     0.049 A 
ATOM     55  C   UNL     1      -0.729   8.581  -3.704  1.00  0.00     0.074 A 
ATOM     56  C   UNL     1      -6.385   6.028  -5.006  1.00  0.00     0.029 A 
ATOM     57  N   UNL     1      -4.215   6.379  -4.666  1.00  0.00    -0.354 N 
ATOM     58  N   UNL     1      -1.856   7.970  -3.983  1.00  0.00    -0.248 NA
ATOM     59  C   UNL     1      -0.875  10.027  -3.479  1.00  0.00     0.031 C 
ATOM     60  C   UNL     1      -6.193   7.388  -4.741  1.00  0.00     0.029 A 
ATOM     61  C   UNL     1      -4.846   7.600  -4.497  1.00  0.00     0.049 A 
ATOM     62  H   UNL     1      -3.248   6.223  -4.567  1.00  0.00     0.167 HD
ATOM     63  C   UNL     1      -2.846   8.946  -3.923  1.00  0.00     0.074 A 
ATOM     64  C   UNL     1      -2.187  10.187  -3.574  1.00  0.00     0.031 C 
ATOM     65  C   UNL     1      -4.181   8.826  -4.133  1.00  0.00     0.037 A 
BRANCH  52  66
ATOM     66  C   UNL     1      -5.947   3.111  -5.683  1.00  0.00     0.057 A 
ATOM     67  C   UNL     1      -6.395   2.069  -4.859  1.00  0.00     0.134 A 
ATOM     68  C   UNL     1      -6.588   3.278  -6.917  1.00  0.00     0.134 A 
ATOM     69  F   UNL     1      -5.814   1.842  -3.672  1.00  0.00    -0.206 F 
ATOM     70  C   UNL     1      -7.420   1.210  -5.261  1.00  0.00     0.040 A 
ATOM     71  C   UNL     1      -7.634   2.445  -7.317  1.00  0.00     0.040 A 
ATOM     72  F   UNL     1      -6.211   4.256  -7.754  1.00  0.00    -0.206 F 
ATOM     73  C   UNL     1      -8.047   1.402  -6.491  1.00  0.00     0.006 A 
ENDBRANCH  52  66
BRANCH  53  74
ATOM     74  C   UNL     1       1.800   8.893  -3.205  1.00  0.00     0.057 A 
ATOM     75  C   UNL     1       1.875   9.499  -1.944  1.00  0.00     0.134 A 
ATOM     76  C   UNL     1       2.816   9.190  -4.122  1.00  0.00     0.134 A 
ATOM     77  F   UNL     1       0.919   9.276  -1.030  1.00  0.00    -0.206 F 
ATOM     78  C   UNL     1       2.904  10.385  -1.617  1.00  0.00     0.040 A 
ATOM     79  C   UNL     1       3.865  10.052  -3.798  1.00  0.00     0.040 A 
ATOM     80  F   UNL     1       2.803   8.646  -5.347  1.00  0.00    -0.206 F 
ATOM     81  C   UNL     1       3.906  10.660  -2.545  1.00  0.00     0.006 A 
ENDBRANCH  53  74
BRANCH  65  82
ATOM     82  C   UNL     1      -5.029  10.050  -3.926  1.00  0.00     0.057 A 
ATOM     83  C   UNL     1      -4.980  11.152  -4.791  1.00  0.00     0.134 A 
ATOM     84  C   UNL     1      -5.932  10.113  -2.856  1.00  0.00     0.134 A 
ATOM     85  F   UNL     1      -4.133  11.162  -5.831  1.00  0.00    -0.206 F 
ATOM     86  C   UNL     1      -5.770  12.284  -4.577  1.00  0.00     0.040 A 
ATOM     87  C   UNL     1      -6.751  11.225  -2.651  1.00  0.00     0.040 A 
ATOM     88  F   UNL     1      -6.043   9.089  -1.996  1.00  0.00    -0.206 F 
ATOM     89  C   UNL     1      -6.663  12.319  -3.508  1.00  0.00     0.006 A 
ENDBRANCH  65  82
ENDBRANCH  39  40
ENDBRANCH  32  34
ENDBRANCH  31  32
ENDBRANCH  30  31
ENDBRANCH  29  30
ENDBRANCH  28  29
ENDBRANCH  27  28
ENDBRANCH  26  27
ENDBRANCH  25  26
ENDBRANCH  24  25
ENDBRANCH   1  24
TORSDOF 25
