REMARK SMILES O=C(OCCOCCOCCOCCOC(=O)c1ccc(-c2c3nc(c(-c4c(F)cccc4F)c4ccc([nH]4)c(-c4c(F)cccc4F)c4nc(c(-c5c(F)cccc5F)c5ccc2[nH]5)C=C4)C=C3)cc1)c1ccc(NC(=O)[C@@H]2CC=CC[C@H]2C(=O)Nc2cccc([N+](=O)[O-])c2)cc1
REMARK SMILES IDX 7 1 6 2 5 3 4 4 3 5 2 6 1 7 72 8 73 9 98 10 74 11 97 12
REMARK SMILES IDX 75 13 76 14 77 15 78 17 79 18 80 19 84 20 81 21 83 22 82 23
REMARK SMILES IDX 85 24 86 25 87 26 88 28 89 29 96 30 90 31 92 32 91 33 93 34
REMARK SMILES IDX 94 35 95 36 8 37 9 38 10 39 11 40 12 41 13 42 14 43 15 44
REMARK SMILES IDX 16 45 17 46 18 47 19 48 71 49 20 50 70 51 21 52 22 53 23 54
REMARK SMILES IDX 64 55 24 56 69 57 63 58 65 59 25 60 68 61 62 62 61 63 26 65
REMARK SMILES IDX 52 66 35 67 51 68 36 69 39 70 50 71 66 72 37 73 38 74 49 76
REMARK SMILES IDX 67 77 40 78 27 79 28 80 33 81 29 82 30 83 32 84 34 85 31 86
REMARK SMILES IDX 53 87 54 88 59 89 55 90 56 91 58 92 60 93 57 94 41 95 42 96
REMARK SMILES IDX 47 97 43 98 44 99 46 100 48 101 45 102
REMARK H PARENT 76 16 87 27 65 64 39 75
REMARK Flexibility Score: inf
ROOT
ATOM      1  C   UNL     1      12.059  -6.675  -1.573  1.00  0.00     0.188 C 
ENDROOT
BRANCH   1   2
ATOM      2  O   UNL     1      11.632  -5.314  -1.687  1.00  0.00    -0.376 OA
BRANCH   2   3
ATOM      3  C   UNL     1      12.384  -4.407  -0.877  1.00  0.00     0.202 C 
BRANCH   3   4
ATOM      4  C   UNL     1      12.016  -4.407   0.617  1.00  0.00     0.261 C 
BRANCH   4   5
ATOM      5  O   UNL     1      11.547  -5.683   1.094  1.00  0.00    -0.460 OA
BRANCH   5   6
ATOM      6  C   UNL     1      10.270  -6.127   1.233  1.00  0.00     0.338 C 
ATOM      7  O   UNL     1      10.082  -7.198   1.808  1.00  0.00    -0.246 OA
BRANCH   6   8
ATOM      8  C   UNL     1       9.071  -5.411   0.692  1.00  0.00     0.060 A 
ATOM      9  C   UNL     1       9.131  -4.383  -0.232  1.00  0.00     0.018 A 
ATOM     10  C   UNL     1       7.788  -5.846   1.065  1.00  0.00     0.018 A 
ATOM     11  C   UNL     1       7.996  -3.801  -0.768  1.00  0.00     0.027 A 
ATOM     12  C   UNL     1       6.631  -5.277   0.494  1.00  0.00     0.027 A 
ATOM     13  C   UNL     1       6.738  -4.270  -0.469  1.00  0.00     0.041 A 
BRANCH  13  14
ATOM     14  N   UNL     1       5.585  -3.788  -1.093  1.00  0.00    -0.326 N 
ATOM     15  C   UNL     1       5.357  -3.025  -2.194  1.00  0.00     0.228 C 
ATOM     16  H   UNL     1       4.757  -4.061  -0.635  1.00  0.00     0.169 HD
ATOM     17  O   UNL     1       4.176  -2.695  -2.384  1.00  0.00    -0.274 OA
BRANCH  15  18
ATOM     18  C   UNL     1       6.397  -2.565  -3.223  1.00  0.00     0.095 C 
ATOM     19  C   UNL     1       7.255  -3.675  -3.856  1.00  0.00     0.041 C 
ATOM     20  C   UNL     1       7.081  -1.231  -2.858  1.00  0.00     0.095 C 
ATOM     21  C   UNL     1       8.417  -3.164  -4.651  1.00  0.00    -0.030 C 
ATOM     22  C   UNL     1       8.450  -0.940  -3.515  1.00  0.00     0.041 C 
ATOM     23  C   UNL     1       8.946  -1.946  -4.503  1.00  0.00    -0.030 C 
BRANCH  20  24
ATOM     24  C   UNL     1       6.160  -0.000  -2.965  1.00  0.00     0.228 C 
ATOM     25  O   UNL     1       5.780   0.546  -1.921  1.00  0.00    -0.274 OA
ATOM     26  N   UNL     1       5.853   0.632  -4.141  1.00  0.00    -0.326 N 
ATOM     27  H   UNL     1       5.361   1.479  -4.038  1.00  0.00     0.169 HD
BRANCH  26  28
ATOM     28  C   UNL     1       6.126   0.270  -5.464  1.00  0.00     0.048 A 
ATOM     29  C   UNL     1       6.825   1.165  -6.274  1.00  0.00     0.026 A 
ATOM     30  C   UNL     1       5.682  -0.930  -6.005  1.00  0.00     0.111 A 
ATOM     31  C   UNL     1       7.218   0.786  -7.563  1.00  0.00     0.009 A 
ATOM     32  C   UNL     1       6.132  -1.341  -7.262  1.00  0.00     0.271 A 
ATOM     33  C   UNL     1       6.907  -0.486  -8.047  1.00  0.00     0.086 A 
BRANCH  32  34
ATOM     34  N   UNL     1       5.824  -2.699  -7.725  1.00  0.00     0.062 N 
ATOM     35  O   UNL     1       6.290  -3.055  -8.816  1.00  0.00    -0.258 OA
ATOM     36  O   UNL     1       5.138  -3.421  -6.986  1.00  0.00    -0.258 OA
ENDBRANCH  32  34
ENDBRANCH  26  28
ENDBRANCH  20  24
ENDBRANCH  15  18
ENDBRANCH  13  14
ENDBRANCH   6   8
ENDBRANCH   5   6
ENDBRANCH   4   5
ENDBRANCH   3   4
ENDBRANCH   2   3
ENDBRANCH   1   2
BRANCH   1  37
ATOM     37  C   UNL     1      12.221  -7.361  -2.928  1.00  0.00     0.188 C 
BRANCH  37  38
ATOM     38  O   UNL     1      13.220  -6.817  -3.784  1.00  0.00    -0.377 OA
BRANCH  38  39
ATOM     39  C   UNL     1      13.126  -5.436  -4.107  1.00  0.00     0.188 C 
BRANCH  39  40
ATOM     40  C   UNL     1      11.802  -4.875  -4.666  1.00  0.00     0.188 C 
BRANCH  40  41
ATOM     41  O   UNL     1      10.784  -5.834  -4.916  1.00  0.00    -0.376 OA
BRANCH  41  42
ATOM     42  C   UNL     1      10.570  -6.184  -6.281  1.00  0.00     0.202 C 
BRANCH  42  43
ATOM     43  C   UNL     1      11.645  -7.102  -6.875  1.00  0.00     0.261 C 
BRANCH  43  44
ATOM     44  O   UNL     1      12.951  -6.510  -6.960  1.00  0.00    -0.460 OA
BRANCH  44  45
ATOM     45  C   UNL     1      13.088  -5.391  -7.703  1.00  0.00     0.338 C 
ATOM     46  O   UNL     1      12.248  -4.864  -8.412  1.00  0.00    -0.246 OA
BRANCH  45  47
ATOM     47  C   UNL     1      14.371  -4.764  -7.320  1.00  0.00     0.060 A 
ATOM     48  C   UNL     1      14.378  -3.398  -7.006  1.00  0.00     0.016 A 
ATOM     49  C   UNL     1      15.532  -5.531  -7.168  1.00  0.00     0.016 A 
ATOM     50  C   UNL     1      15.556  -2.787  -6.576  1.00  0.00     0.010 A 
ATOM     51  C   UNL     1      16.713  -4.918  -6.748  1.00  0.00     0.010 A 
ATOM     52  C   UNL     1      16.738  -3.536  -6.490  1.00  0.00    -0.014 A 
BRANCH  52  53
ATOM     53  C   UNL     1      18.042  -2.836  -6.415  1.00  0.00     0.031 A 
ATOM     54  C   UNL     1      18.736  -2.539  -7.717  1.00  0.00     0.074 A 
ATOM     55  C   UNL     1      18.597  -2.464  -5.249  1.00  0.00     0.049 A 
ATOM     56  N   UNL     1      19.889  -1.964  -7.936  1.00  0.00    -0.248 NA
ATOM     57  C   UNL     1      18.027  -2.954  -8.940  1.00  0.00     0.031 C 
ATOM     58  C   UNL     1      18.017  -2.670  -3.924  1.00  0.00     0.029 A 
ATOM     59  N   UNL     1      19.792  -1.835  -5.001  1.00  0.00    -0.354 N 
ATOM     60  C   UNL     1      20.041  -1.950  -9.316  1.00  0.00     0.074 A 
ATOM     61  C   UNL     1      18.886  -2.606  -9.883  1.00  0.00     0.031 C 
ATOM     62  C   UNL     1      18.864  -2.181  -2.999  1.00  0.00     0.029 A 
ATOM     63  C   UNL     1      20.054  -1.652  -3.665  1.00  0.00     0.049 A 
ATOM     64  H   UNL     1      20.404  -1.542  -5.714  1.00  0.00     0.167 HD
ATOM     65  C   UNL     1      21.049  -1.427 -10.052  1.00  0.00     0.037 A 
ATOM     66  C   UNL     1      21.138  -1.130  -3.059  1.00  0.00     0.037 A 
ATOM     67  C   UNL     1      22.206  -0.788  -9.493  1.00  0.00     0.049 A 
ATOM     68  C   UNL     1      22.285  -0.621  -3.897  1.00  0.00     0.074 A 
ATOM     69  C   UNL     1      23.279  -0.217 -10.153  1.00  0.00     0.029 A 
ATOM     70  N   UNL     1      22.447  -0.647  -8.135  1.00  0.00    -0.354 N 
ATOM     71  N   UNL     1      22.403  -0.575  -5.203  1.00  0.00    -0.248 NA
ATOM     72  C   UNL     1      23.450  -0.089  -3.174  1.00  0.00     0.031 C 
ATOM     73  C   UNL     1      24.193   0.228  -9.192  1.00  0.00     0.029 A 
ATOM     74  C   UNL     1      23.663  -0.018  -7.935  1.00  0.00     0.049 A 
ATOM     75  H   UNL     1      21.842  -0.950  -7.419  1.00  0.00     0.167 HD
ATOM     76  C   UNL     1      23.634   0.020  -5.456  1.00  0.00     0.074 A 
ATOM     77  C   UNL     1      24.222   0.327  -4.169  1.00  0.00     0.031 C 
ATOM     78  C   UNL     1      24.225   0.293  -6.646  1.00  0.00     0.037 A 
BRANCH  65  79
ATOM     79  C   UNL     1      20.942  -1.556 -11.541  1.00  0.00     0.057 A 
ATOM     80  C   UNL     1      20.008  -0.818 -12.281  1.00  0.00     0.134 A 
ATOM     81  C   UNL     1      21.778  -2.432 -12.243  1.00  0.00     0.134 A 
ATOM     82  F   UNL     1      19.160   0.019 -11.665  1.00  0.00    -0.206 F 
ATOM     83  C   UNL     1      19.894  -0.965 -13.664  1.00  0.00     0.040 A 
ATOM     84  C   UNL     1      21.692  -2.567 -13.629  1.00  0.00     0.040 A 
ATOM     85  F   UNL     1      22.690  -3.170 -11.593  1.00  0.00    -0.206 F 
ATOM     86  C   UNL     1      20.743  -1.838 -14.342  1.00  0.00     0.006 A 
ENDBRANCH  65  79
BRANCH  66  87
ATOM     87  C   UNL     1      21.209  -1.056  -1.576  1.00  0.00     0.057 A 
ATOM     88  C   UNL     1      21.182   0.174  -0.909  1.00  0.00     0.134 A 
ATOM     89  C   UNL     1      21.351  -2.209  -0.794  1.00  0.00     0.134 A 
ATOM     90  F   UNL     1      21.076   1.316  -1.604  1.00  0.00    -0.206 F 
ATOM     91  C   UNL     1      21.315   0.259   0.479  1.00  0.00     0.040 A 
ATOM     92  C   UNL     1      21.460  -2.141   0.596  1.00  0.00     0.040 A 
ATOM     93  F   UNL     1      21.387  -3.418  -1.371  1.00  0.00    -0.206 F 
ATOM     94  C   UNL     1      21.451  -0.903   1.236  1.00  0.00     0.006 A 
ENDBRANCH  66  87
BRANCH  78  95
ATOM     95  C   UNL     1      25.551   0.997  -6.617  1.00  0.00     0.057 A 
ATOM     96  C   UNL     1      26.727   0.352  -6.214  1.00  0.00     0.134 A 
ATOM     97  C   UNL     1      25.657   2.327  -7.046  1.00  0.00     0.134 A 
ATOM     98  F   UNL     1      26.692  -0.918  -5.782  1.00  0.00    -0.206 F 
ATOM     99  C   UNL     1      27.957   1.012  -6.216  1.00  0.00     0.040 A 
ATOM    100  C   UNL     1      26.886   2.988  -7.080  1.00  0.00     0.040 A 
ATOM    101  F   UNL     1      24.572   2.999  -7.457  1.00  0.00    -0.206 F 
ATOM    102  C   UNL     1      28.040   2.332  -6.657  1.00  0.00     0.006 A 
ENDBRANCH  78  95
ENDBRANCH  52  53
ENDBRANCH  45  47
ENDBRANCH  44  45
ENDBRANCH  43  44
ENDBRANCH  42  43
ENDBRANCH  41  42
ENDBRANCH  40  41
ENDBRANCH  39  40
ENDBRANCH  38  39
ENDBRANCH  37  38
ENDBRANCH   1  37
TORSDOF 25
