REMARK SMILES Nc1ccc2[nH]cc(C(=O)OCCOCCOCCOCCOC(=O)c3ccc(-c4c5nc(c(-c6c(F)cccc6F)c6ccc([nH]6)c(-c6c(F)cccc6F)c6nc(c(-c7c(F)cccc7F)c7ccc4[nH]7)C=C6)C=C5)cc3)c2c1
REMARK SMILES IDX 18 1 17 2 16 3 15 4 14 5 13 6 12 7 11 8 9 9 10 10 8 11 2 12
REMARK SMILES IDX 3 13 81 14 4 15 80 16 5 17 6 18 7 19 1 21 19 24 20 25 21 26
REMARK SMILES IDX 22 27 23 28 24 29 25 30 26 31 27 32 79 33 28 34 78 35 29 36
REMARK SMILES IDX 30 37 31 38 72 39 32 40 77 41 71 42 73 43 33 44 76 45 70 46
REMARK SMILES IDX 69 47 34 49 60 50 43 51 59 52 44 53 47 54 58 55 74 56 45 57
REMARK SMILES IDX 46 58 57 60 75 61 48 62 35 63 36 64 41 65 37 66 38 67 40 68
REMARK SMILES IDX 42 69 39 70 61 71 62 72 67 73 63 74 64 75 66 76 68 77 65 78
REMARK SMILES IDX 49 79 50 80 55 81 51 82 52 83 54 84 56 85 53 86
REMARK H PARENT 6 20 1 22 1 23 73 48 47 59
REMARK Flexibility Score: inf
ROOT
ATOM      1  C   UNL     1      -2.029  -3.076  -4.832  1.00  0.00     0.188 C 
ENDROOT
BRANCH   1   2
ATOM      2  O   UNL     1      -1.889  -3.407  -3.452  1.00  0.00    -0.377 OA
BRANCH   2   3
ATOM      3  C   UNL     1      -2.643  -4.488  -2.941  1.00  0.00     0.188 C 
BRANCH   3   4
ATOM      4  C   UNL     1      -4.170  -4.389  -3.068  1.00  0.00     0.188 C 
BRANCH   4   5
ATOM      5  O   UNL     1      -4.614  -3.465  -4.056  1.00  0.00    -0.376 OA
BRANCH   5   6
ATOM      6  C   UNL     1      -5.367  -2.347  -3.603  1.00  0.00     0.202 C 
BRANCH   6   7
ATOM      7  C   UNL     1      -4.570  -1.196  -2.966  1.00  0.00     0.261 C 
BRANCH   7   8
ATOM      8  O   UNL     1      -3.671  -1.573  -1.915  1.00  0.00    -0.460 OA
BRANCH   8   9
ATOM      9  C   UNL     1      -4.230  -2.090  -0.785  1.00  0.00     0.340 C 
ATOM     10  O   UNL     1      -5.425  -2.158  -0.579  1.00  0.00    -0.246 OA
BRANCH   9  11
ATOM     11  C   UNL     1      -3.224  -2.715   0.069  1.00  0.00     0.085 A 
ATOM     12  C   UNL     1       0.226  -1.068   0.445  1.00  0.00     0.032 A 
ATOM     13  C   UNL     1       0.729  -2.027   1.323  1.00  0.00     0.027 A 
ATOM     14  C   UNL     1      -1.085  -1.198  -0.034  1.00  0.00     0.036 A 
ATOM     15  C   UNL     1      -0.014  -3.155   1.688  1.00  0.00     0.029 A 
ATOM     16  C   UNL     1      -1.878  -2.307   0.340  1.00  0.00     0.016 A 
ATOM     17  C   UNL     1      -1.313  -3.265   1.183  1.00  0.00     0.046 A 
ATOM     18  N   UNL     1      -2.257  -4.244   1.379  1.00  0.00    -0.360 N 
ATOM     19  C   UNL     1      -3.422  -3.908   0.747  1.00  0.00     0.099 A 
ATOM     20  H   UNL     1      -2.115  -5.068   1.899  1.00  0.00     0.166 HD
BRANCH  12  21
ATOM     21  N   UNL     1       0.961   0.075   0.160  1.00  0.00    -0.399 N 
ATOM     22  H   UNL     1       1.882   0.165   0.497  1.00  0.00     0.156 HD
ATOM     23  H   UNL     1       0.562   0.796  -0.379  1.00  0.00     0.156 HD
ENDBRANCH  12  21
ENDBRANCH   9  11
ENDBRANCH   8   9
ENDBRANCH   7   8
ENDBRANCH   6   7
ENDBRANCH   5   6
ENDBRANCH   4   5
ENDBRANCH   3   4
ENDBRANCH   2   3
ENDBRANCH   1   2
BRANCH   1  24
ATOM     24  C   UNL     1      -2.507  -4.131  -5.852  1.00  0.00     0.188 C 
BRANCH  24  25
ATOM     25  O   UNL     1      -2.073  -5.439  -5.521  1.00  0.00    -0.376 OA
BRANCH  25  26
ATOM     26  C   UNL     1      -1.026  -5.996  -6.298  1.00  0.00     0.202 C 
BRANCH  26  27
ATOM     27  C   UNL     1       0.322  -5.255  -6.332  1.00  0.00     0.261 C 
BRANCH  27  28
ATOM     28  O   UNL     1       0.228  -3.860  -6.657  1.00  0.00    -0.460 OA
BRANCH  28  29
ATOM     29  C   UNL     1       0.186  -3.463  -7.950  1.00  0.00     0.338 C 
ATOM     30  O   UNL     1       0.425  -4.133  -8.935  1.00  0.00    -0.246 OA
BRANCH  29  31
ATOM     31  C   UNL     1      -0.538  -2.161  -7.937  1.00  0.00     0.060 A 
ATOM     32  C   UNL     1      -0.263  -1.196  -6.965  1.00  0.00     0.016 A 
ATOM     33  C   UNL     1      -1.701  -2.065  -8.717  1.00  0.00     0.016 A 
ATOM     34  C   UNL     1      -1.217  -0.217  -6.692  1.00  0.00     0.010 A 
ATOM     35  C   UNL     1      -2.652  -1.077  -8.444  1.00  0.00     0.010 A 
ATOM     36  C   UNL     1      -2.433  -0.172  -7.404  1.00  0.00    -0.014 A 
BRANCH  36  37
ATOM     37  C   UNL     1      -3.308   0.985  -7.149  1.00  0.00     0.031 A 
ATOM     38  C   UNL     1      -2.618   2.286  -7.385  1.00  0.00     0.074 A 
ATOM     39  C   UNL     1      -4.634   1.019  -6.892  1.00  0.00     0.049 A 
ATOM     40  N   UNL     1      -2.383   3.241  -6.546  1.00  0.00    -0.248 NA
ATOM     41  C   UNL     1      -2.021   2.481  -8.716  1.00  0.00     0.031 C 
ATOM     42  C   UNL     1      -5.602  -0.073  -6.947  1.00  0.00     0.029 A 
ATOM     43  N   UNL     1      -5.415   2.112  -6.601  1.00  0.00    -0.354 N 
ATOM     44  C   UNL     1      -1.735   4.231  -7.279  1.00  0.00     0.074 A 
ATOM     45  C   UNL     1      -1.426   3.662  -8.566  1.00  0.00     0.031 C 
ATOM     46  C   UNL     1      -6.855   0.439  -6.885  1.00  0.00     0.029 A 
ATOM     47  C   UNL     1      -6.783   1.880  -6.683  1.00  0.00     0.049 A 
ATOM     48  H   UNL     1      -5.037   2.987  -6.355  1.00  0.00     0.167 HD
ATOM     49  C   UNL     1      -1.662   5.520  -6.856  1.00  0.00     0.037 A 
ATOM     50  C   UNL     1      -7.780   2.802  -6.645  1.00  0.00     0.037 A 
ATOM     51  C   UNL     1      -1.917   5.649  -5.448  1.00  0.00     0.049 A 
ATOM     52  C   UNL     1      -7.239   4.061  -6.083  1.00  0.00     0.074 A 
ATOM     53  C   UNL     1      -1.340   5.158  -4.293  1.00  0.00     0.029 A 
ATOM     54  N   UNL     1      -3.115   6.191  -5.057  1.00  0.00    -0.354 N 
ATOM     55  N   UNL     1      -6.971   4.261  -4.826  1.00  0.00    -0.248 NA
ATOM     56  C   UNL     1      -6.688   5.046  -7.002  1.00  0.00     0.031 C 
ATOM     57  C   UNL     1      -2.414   5.014  -3.366  1.00  0.00     0.029 A 
ATOM     58  C   UNL     1      -3.575   5.434  -4.014  1.00  0.00     0.049 A 
ATOM     59  H   UNL     1      -3.559   6.976  -5.452  1.00  0.00     0.167 HD
ATOM     60  C   UNL     1      -5.886   5.121  -4.832  1.00  0.00     0.074 A 
ATOM     61  C   UNL     1      -5.842   5.670  -6.181  1.00  0.00     0.031 C 
ATOM     62  C   UNL     1      -4.963   5.091  -3.828  1.00  0.00     0.037 A 
BRANCH  49  63
ATOM     63  C   UNL     1      -1.702   6.703  -7.789  1.00  0.00     0.057 A 
ATOM     64  C   UNL     1      -2.300   6.670  -9.066  1.00  0.00     0.134 A 
ATOM     65  C   UNL     1      -1.417   7.986  -7.292  1.00  0.00     0.134 A 
ATOM     66  F   UNL     1      -2.712   5.530  -9.635  1.00  0.00    -0.206 F 
ATOM     67  C   UNL     1      -2.606   7.826  -9.788  1.00  0.00     0.040 A 
ATOM     68  C   UNL     1      -1.771   9.151  -7.982  1.00  0.00     0.040 A 
ATOM     69  F   UNL     1      -0.866   8.147  -6.079  1.00  0.00    -0.206 F 
ATOM     70  C   UNL     1      -2.374   9.073  -9.231  1.00  0.00     0.006 A 
ENDBRANCH  49  63
BRANCH  50  71
ATOM     71  C   UNL     1      -9.151   2.760  -7.213  1.00  0.00     0.057 A 
ATOM     72  C   UNL     1      -9.443   2.024  -8.373  1.00  0.00     0.134 A 
ATOM     73  C   UNL     1     -10.153   3.648  -6.785  1.00  0.00     0.134 A 
ATOM     74  F   UNL     1      -8.532   1.209  -8.923  1.00  0.00    -0.206 F 
ATOM     75  C   UNL     1     -10.650   2.163  -9.067  1.00  0.00     0.040 A 
ATOM     76  C   UNL     1     -11.361   3.807  -7.478  1.00  0.00     0.040 A 
ATOM     77  F   UNL     1      -9.961   4.433  -5.715  1.00  0.00    -0.206 F 
ATOM     78  C   UNL     1     -11.609   3.067  -8.629  1.00  0.00     0.006 A 
ENDBRANCH  50  71
BRANCH  62  79
ATOM     79  C   UNL     1      -5.340   4.398  -2.552  1.00  0.00     0.057 A 
ATOM     80  C   UNL     1      -5.259   5.118  -1.354  1.00  0.00     0.134 A 
ATOM     81  C   UNL     1      -5.678   3.039  -2.460  1.00  0.00     0.134 A 
ATOM     82  F   UNL     1      -4.886   6.408  -1.362  1.00  0.00    -0.206 F 
ATOM     83  C   UNL     1      -5.527   4.525  -0.119  1.00  0.00     0.040 A 
ATOM     84  C   UNL     1      -5.989   2.446  -1.233  1.00  0.00     0.040 A 
ATOM     85  F   UNL     1      -5.672   2.244  -3.540  1.00  0.00    -0.206 F 
ATOM     86  C   UNL     1      -5.909   3.188  -0.058  1.00  0.00     0.006 A 
ENDBRANCH  62  79
ENDBRANCH  36  37
ENDBRANCH  29  31
ENDBRANCH  28  29
ENDBRANCH  27  28
ENDBRANCH  26  27
ENDBRANCH  25  26
ENDBRANCH  24  25
ENDBRANCH   1  24
TORSDOF 21
