REMARK SMILES CC[NH2+][C@]1(C(=O)OCCOCCOCCOCCOC(=O)c2ccc(-c3c4nc(c(-c5c(F)cccc5F)c5ccc([nH]5)c(-c5c(F)cccc5F)c5nc(c(-c6c(F)cccc6F)c6ccc3[nH]6)C=C5)C=C4)cc2)CCC[C@H]([N@@H+]2CCC[C@@H]2C(C)C)C1
REMARK SMILES IDX 13 1 12 2 11 3 10 4 9 5 8 6 7 7 5 8 6 9 4 10 76 11 88 12
REMARK SMILES IDX 77 13 79 14 78 15 3 16 2 19 1 20 80 21 81 22 84 23 82 25
REMARK SMILES IDX 83 26 85 27 86 28 87 29 14 30 15 31 16 32 17 33 18 34 19 35
REMARK SMILES IDX 20 36 21 37 22 38 23 39 75 40 24 41 74 42 25 43 26 44 27 45
REMARK SMILES IDX 68 46 28 47 73 48 67 49 69 50 29 51 72 52 66 53 65 54 30 56
REMARK SMILES IDX 56 57 39 58 55 59 40 60 43 61 54 62 70 63 41 64 42 65 53 67
REMARK SMILES IDX 71 68 44 69 31 70 32 71 37 72 33 73 34 74 36 75 38 76 35 77
REMARK SMILES IDX 57 78 58 79 63 80 59 81 60 82 62 83 64 84 61 85 45 86 46 87
REMARK SMILES IDX 51 88 47 89 48 90 50 91 52 92 49 93
REMARK H PARENT 3 17 3 18 80 24 69 55 43 66
REMARK Flexibility Score: inf
ROOT
ATOM      1  O   UNL     1       3.027  -1.019   1.185  1.00  0.00    -0.377 OA
ENDROOT
BRANCH   1   2
ATOM      2  C   UNL     1       1.629  -1.083   1.348  1.00  0.00     0.188 C 
BRANCH   2   3
ATOM      3  C   UNL     1       0.867  -0.170   0.380  1.00  0.00     0.188 C 
BRANCH   3   4
ATOM      4  O   UNL     1       1.673   0.187  -0.739  1.00  0.00    -0.376 OA
BRANCH   4   5
ATOM      5  C   UNL     1       2.222   1.502  -0.770  1.00  0.00     0.202 C 
BRANCH   5   6
ATOM      6  C   UNL     1       2.914   2.103   0.468  1.00  0.00     0.261 C 
BRANCH   6   7
ATOM      7  O   UNL     1       2.154   1.935   1.671  1.00  0.00    -0.459 OA
BRANCH   7   8
ATOM      8  C   UNL     1       1.717   2.980   2.430  1.00  0.00     0.368 C 
ATOM      9  O   UNL     1       1.835   4.158   2.125  1.00  0.00    -0.245 OA
BRANCH   8  10
ATOM     10  C   UNL     1       0.953   2.420   3.681  1.00  0.00     0.200 C 
ATOM     11  C   UNL     1       1.679   1.079   4.100  1.00  0.00     0.081 C 
ATOM     12  C   UNL     1       0.963   3.272   4.931  1.00  0.00     0.146 C 
ATOM     13  C   UNL     1       1.771   0.507   5.518  1.00  0.00     0.013 C 
ATOM     14  C   UNL     1       0.405   2.452   6.156  1.00  0.00     0.191 C 
ATOM     15  C   UNL     1       1.488   1.490   6.605  1.00  0.00     0.065 C 
BRANCH  10  16
ATOM     16  N   UNL     1      -0.494   2.276   3.368  1.00  0.00    -0.332 N 
ATOM     17  H   UNL     1      -0.634   1.299   3.111  1.00  0.00     0.347 HD
ATOM     18  H   UNL     1      -0.932   2.635   4.216  1.00  0.00     0.347 HD
BRANCH  16  19
ATOM     19  C   UNL     1      -1.142   3.065   2.334  1.00  0.00     0.257 C 
ATOM     20  C   UNL     1      -2.662   2.912   2.478  1.00  0.00     0.071 C 
ENDBRANCH  16  19
ENDBRANCH  10  16
BRANCH  14  21
ATOM     21  N   UNL     1      -1.008   1.933   6.072  1.00  0.00    -0.330 N 
ATOM     22  C   UNL     1      -1.655   2.194   7.389  1.00  0.00     0.262 C 
ATOM     23  C   UNL     1      -1.632   0.593   5.620  1.00  0.00     0.187 C 
ATOM     24  H   UNL     1      -1.146   2.412   5.182  1.00  0.00     0.348 HD
ATOM     25  C   UNL     1      -1.703   0.853   8.070  1.00  0.00     0.067 C 
ATOM     26  C   UNL     1      -2.052  -0.083   6.951  1.00  0.00     0.071 C 
BRANCH  23  27
ATOM     27  C   UNL     1      -1.366  -0.623   4.561  1.00  0.00     0.041 C 
ATOM     28  C   UNL     1      -2.451  -1.740   4.684  1.00  0.00     0.014 C 
ATOM     29  C   UNL     1      -1.388  -0.413   3.039  1.00  0.00     0.014 C 
ENDBRANCH  23  27
ENDBRANCH  14  21
ENDBRANCH   8  10
ENDBRANCH   7   8
ENDBRANCH   6   7
ENDBRANCH   5   6
ENDBRANCH   4   5
ENDBRANCH   3   4
ENDBRANCH   2   3
ENDBRANCH   1   2
BRANCH   1  30
ATOM     30  C   UNL     1       3.561  -1.848   0.161  1.00  0.00     0.188 C 
BRANCH  30  31
ATOM     31  C   UNL     1       2.667  -2.558  -0.900  1.00  0.00     0.188 C 
BRANCH  31  32
ATOM     32  O   UNL     1       1.347  -2.910  -0.510  1.00  0.00    -0.376 OA
BRANCH  32  33
ATOM     33  C   UNL     1       1.046  -4.239  -0.115  1.00  0.00     0.202 C 
BRANCH  33  34
ATOM     34  C   UNL     1       1.722  -4.817   1.141  1.00  0.00     0.261 C 
BRANCH  34  35
ATOM     35  O   UNL     1       3.143  -4.666   1.217  1.00  0.00    -0.460 OA
BRANCH  35  36
ATOM     36  C   UNL     1       3.881  -5.362   0.319  1.00  0.00     0.338 C 
ATOM     37  O   UNL     1       3.480  -6.120  -0.531  1.00  0.00    -0.246 OA
BRANCH  36  38
ATOM     38  C   UNL     1       5.270  -4.856   0.424  1.00  0.00     0.060 A 
ATOM     39  C   UNL     1       5.831  -4.217  -0.690  1.00  0.00     0.016 A 
ATOM     40  C   UNL     1       5.975  -4.938   1.627  1.00  0.00     0.016 A 
ATOM     41  C   UNL     1       7.106  -3.664  -0.607  1.00  0.00     0.010 A 
ATOM     42  C   UNL     1       7.273  -4.425   1.695  1.00  0.00     0.010 A 
ATOM     43  C   UNL     1       7.851  -3.813   0.569  1.00  0.00    -0.014 A 
BRANCH  43  44
ATOM     44  C   UNL     1       9.310  -3.567   0.525  1.00  0.00     0.031 A 
ATOM     45  C   UNL     1      10.200  -4.738   0.214  1.00  0.00     0.074 A 
ATOM     46  C   UNL     1       9.831  -2.343   0.714  1.00  0.00     0.049 A 
ATOM     47  N   UNL     1      11.503  -4.800   0.151  1.00  0.00    -0.248 NA
ATOM     48  C   UNL     1       9.520  -6.015  -0.063  1.00  0.00     0.031 C 
ATOM     49  C   UNL     1       9.068  -1.124   0.967  1.00  0.00     0.029 A 
ATOM     50  N   UNL     1      11.141  -1.933   0.726  1.00  0.00    -0.354 N 
ATOM     51  C   UNL     1      11.798  -6.120  -0.165  1.00  0.00     0.074 A 
ATOM     52  C   UNL     1      10.543  -6.831  -0.253  1.00  0.00     0.031 C 
ATOM     53  C   UNL     1       9.926  -0.101   1.129  1.00  0.00     0.029 A 
ATOM     54  C   UNL     1      11.297  -0.601   1.023  1.00  0.00     0.049 A 
ATOM     55  H   UNL     1      11.897  -2.535   0.540  1.00  0.00     0.167 HD
ATOM     56  C   UNL     1      13.009  -6.688  -0.367  1.00  0.00     0.037 A 
ATOM     57  C   UNL     1      12.421   0.118   1.213  1.00  0.00     0.037 A 
ATOM     58  C   UNL     1      14.255  -5.977  -0.269  1.00  0.00     0.049 A 
ATOM     59  C   UNL     1      13.762  -0.556   1.063  1.00  0.00     0.074 A 
ATOM     60  C   UNL     1      15.536  -6.457  -0.469  1.00  0.00     0.029 A 
ATOM     61  N   UNL     1      14.374  -4.638   0.070  1.00  0.00    -0.354 N 
ATOM     62  N   UNL     1      14.035  -1.798   0.742  1.00  0.00    -0.248 NA
ATOM     63  C   UNL     1      14.952   0.275   1.299  1.00  0.00     0.031 C 
ATOM     64  C   UNL     1      16.435  -5.424  -0.189  1.00  0.00     0.029 A 
ATOM     65  C   UNL     1      15.711  -4.282   0.117  1.00  0.00     0.049 A 
ATOM     66  H   UNL     1      13.620  -4.031   0.250  1.00  0.00     0.167 HD
ATOM     67  C   UNL     1      15.422  -1.889   0.707  1.00  0.00     0.074 A 
ATOM     68  C   UNL     1      15.934  -0.573   1.027  1.00  0.00     0.031 C 
ATOM     69  C   UNL     1      16.203  -2.964   0.431  1.00  0.00     0.037 A 
BRANCH  56  70
ATOM     70  C   UNL     1      13.040  -8.156  -0.670  1.00  0.00     0.057 A 
ATOM     71  C   UNL     1      12.585  -8.676  -1.889  1.00  0.00     0.134 A 
ATOM     72  C   UNL     1      13.554  -9.062   0.267  1.00  0.00     0.134 A 
ATOM     73  F   UNL     1      12.061  -7.866  -2.821  1.00  0.00    -0.206 F 
ATOM     74  C   UNL     1      12.620 -10.046  -2.156  1.00  0.00     0.040 A 
ATOM     75  C   UNL     1      13.621 -10.429  -0.000  1.00  0.00     0.040 A 
ATOM     76  F   UNL     1      14.003  -8.631   1.455  1.00  0.00    -0.206 F 
ATOM     77  C   UNL     1      13.148 -10.926  -1.213  1.00  0.00     0.006 A 
ENDBRANCH  56  70
BRANCH  57  78
ATOM     78  C   UNL     1      12.334   1.553   1.590  1.00  0.00     0.057 A 
ATOM     79  C   UNL     1      12.767   2.563   0.724  1.00  0.00     0.134 A 
ATOM     80  C   UNL     1      11.841   1.947   2.841  1.00  0.00     0.134 A 
ATOM     81  F   UNL     1      13.275   2.250  -0.478  1.00  0.00    -0.206 F 
ATOM     82  C   UNL     1      12.732   3.909   1.093  1.00  0.00     0.040 A 
ATOM     83  C   UNL     1      11.773   3.290   3.212  1.00  0.00     0.040 A 
ATOM     84  F   UNL     1      11.412   1.029   3.720  1.00  0.00    -0.206 F 
ATOM     85  C   UNL     1      12.228   4.276   2.339  1.00  0.00     0.006 A 
ENDBRANCH  57  78
BRANCH  69  86
ATOM     86  C   UNL     1      17.691  -2.756   0.418  1.00  0.00     0.057 A 
ATOM     87  C   UNL     1      18.423  -2.533   1.591  1.00  0.00     0.134 A 
ATOM     88  C   UNL     1      18.408  -2.835  -0.784  1.00  0.00     0.134 A 
ATOM     89  F   UNL     1      17.798  -2.438   2.774  1.00  0.00    -0.206 F 
ATOM     90  C   UNL     1      19.809  -2.369   1.565  1.00  0.00     0.040 A 
ATOM     91  C   UNL     1      19.797  -2.705  -0.818  1.00  0.00     0.040 A 
ATOM     92  F   UNL     1      17.772  -3.062  -1.944  1.00  0.00    -0.206 F 
ATOM     93  C   UNL     1      20.501  -2.464   0.359  1.00  0.00     0.006 A 
ENDBRANCH  69  86
ENDBRANCH  43  44
ENDBRANCH  36  38
ENDBRANCH  35  36
ENDBRANCH  34  35
ENDBRANCH  33  34
ENDBRANCH  32  33
ENDBRANCH  31  32
ENDBRANCH  30  31
ENDBRANCH   1  30
TORSDOF 24
