REMARK SMILES Cc1cccc(CC(=O)N2CCC3(CCC(=O)N([C@H](C)C(=O)OCCOCCOCCOCCOC(=O)c4ccc(-c5c6nc(c(-c7c(F)cccc7F)c7ccc([nH]7)c(-c7c(F)cccc7F)c7nc(c(-c8c(F)cccc8F)c8ccc5[nH]8)C=C7)C=C6)cc4)C3)CC2)c1
REMARK SMILES IDX 28 1 27 2 26 3 25 4 24 5 23 6 21 7 22 8 19 9 20 10 18 11
REMARK SMILES IDX 8 12 9 13 10 14 11 15 94 16 12 17 93 18 13 19 14 20 92 21
REMARK SMILES IDX 15 22 16 23 17 24 7 25 6 26 1 27 2 28 3 29 95 30 4 31 5 32
REMARK SMILES IDX 29 33 30 34 31 35 32 36 33 37 34 38 35 39 36 40 37 41 38 42
REMARK SMILES IDX 39 43 91 44 40 45 90 46 41 47 42 48 43 49 84 50 44 51 89 52
REMARK SMILES IDX 83 53 85 54 45 55 88 56 82 57 81 58 46 60 72 61 55 62 71 63
REMARK SMILES IDX 56 64 59 65 70 66 86 67 57 68 58 69 69 71 87 72 60 73 47 74
REMARK SMILES IDX 48 75 53 76 49 77 50 78 52 79 54 80 51 81 73 82 74 83 79 84
REMARK SMILES IDX 75 85 76 86 78 87 80 88 77 89 61 90 62 91 67 92 63 93 64 94
REMARK SMILES IDX 66 95 68 96 65 97
REMARK H PARENT 85 59 59 70
REMARK Flexibility Score: inf
ROOT
ATOM      1  C   UNL     1      -0.729   4.242  -4.367  1.00  0.00     0.188 C 
ENDROOT
BRANCH   1   2
ATOM      2  C   UNL     1      -0.515   5.602  -3.674  1.00  0.00     0.188 C 
BRANCH   2   3
ATOM      3  O   UNL     1      -1.588   6.518  -3.542  1.00  0.00    -0.376 OA
BRANCH   3   4
ATOM      4  C   UNL     1      -1.770   7.440  -4.611  1.00  0.00     0.202 C 
BRANCH   4   5
ATOM      5  C   UNL     1      -0.705   8.511  -4.823  1.00  0.00     0.261 C 
BRANCH   5   6
ATOM      6  O   UNL     1       0.273   8.028  -5.739  1.00  0.00    -0.462 OA
BRANCH   6   7
ATOM      7  C   UNL     1       1.503   7.768  -5.251  1.00  0.00     0.328 C 
ATOM      8  O   UNL     1       1.926   8.094  -4.160  1.00  0.00    -0.250 OA
BRANCH   7   9
ATOM      9  C   UNL     1       2.237   6.844  -6.218  1.00  0.00     0.192 C 
ATOM     10  C   UNL     1       1.437   5.587  -6.515  1.00  0.00     0.044 C 
BRANCH   9  11
ATOM     11  N   UNL     1       2.684   7.596  -7.388  1.00  0.00    -0.329 N 
ATOM     12  C   UNL     1       8.315   5.151  -6.980  1.00  0.00     0.226 C 
ATOM     13  O   UNL     1       8.449   3.982  -6.596  1.00  0.00    -0.275 OA
ATOM     14  N   UNL     1       7.328   5.470  -7.898  1.00  0.00    -0.342 N 
ATOM     15  C   UNL     1       6.079   4.731  -7.832  1.00  0.00     0.120 C 
ATOM     16  C   UNL     1       7.274   6.628  -8.781  1.00  0.00     0.120 C 
ATOM     17  C   UNL     1       5.009   5.681  -7.293  1.00  0.00     0.030 C 
ATOM     18  C   UNL     1       6.301   7.643  -8.222  1.00  0.00     0.030 C 
ATOM     19  C   UNL     1       4.911   7.016  -8.103  1.00  0.00    -0.008 C 
ATOM     20  C   UNL     1       4.317   6.757  -9.526  1.00  0.00     0.019 C 
ATOM     21  C   UNL     1       4.038   8.057  -7.372  1.00  0.00     0.127 C 
ATOM     22  C   UNL     1       2.839   6.397  -9.473  1.00  0.00     0.101 C 
ATOM     23  C   UNL     1       2.181   7.489  -8.672  1.00  0.00     0.223 C 
ATOM     24  O   UNL     1       1.614   8.405  -9.255  1.00  0.00    -0.275 OA
BRANCH  12  25
ATOM     25  C   UNL     1       9.050   6.252  -6.214  1.00  0.00     0.135 C 
BRANCH  25  26
ATOM     26  C   UNL     1       9.573   7.440  -6.974  1.00  0.00    -0.038 A 
ATOM     27  C   UNL     1       8.766  11.158  -7.253  1.00  0.00     0.044 C 
ATOM     28  C   UNL     1       9.371   9.810  -7.513  1.00  0.00    -0.051 A 
ATOM     29  C   UNL     1      10.188   9.606  -8.630  1.00  0.00     0.003 A 
ATOM     30  C   UNL     1       9.094   8.727  -6.672  1.00  0.00     0.007 A 
ATOM     31  C   UNL     1      10.740   8.349  -8.887  1.00  0.00     0.001 A 
ATOM     32  C   UNL     1      10.454   7.271  -8.049  1.00  0.00     0.004 A 
ENDBRANCH  25  26
ENDBRANCH  12  25
ENDBRANCH   9  11
ENDBRANCH   7   9
ENDBRANCH   6   7
ENDBRANCH   5   6
ENDBRANCH   4   5
ENDBRANCH   3   4
ENDBRANCH   2   3
ENDBRANCH   1   2
BRANCH   1  33
ATOM     33  O   UNL     1      -1.009   4.189  -5.759  1.00  0.00    -0.377 OA
BRANCH  33  34
ATOM     34  C   UNL     1      -2.364   4.209  -6.196  1.00  0.00     0.188 C 
BRANCH  34  35
ATOM     35  C   UNL     1      -3.375   3.546  -5.275  1.00  0.00     0.188 C 
BRANCH  35  36
ATOM     36  O   UNL     1      -3.615   4.431  -4.184  1.00  0.00    -0.376 OA
BRANCH  36  37
ATOM     37  C   UNL     1      -3.892   3.836  -2.920  1.00  0.00     0.202 C 
BRANCH  37  38
ATOM     38  C   UNL     1      -5.078   2.870  -2.937  1.00  0.00     0.261 C 
BRANCH  38  39
ATOM     39  O   UNL     1      -6.284   3.596  -3.252  1.00  0.00    -0.460 OA
BRANCH  39  40
ATOM     40  C   UNL     1      -6.684   3.526  -4.550  1.00  0.00     0.338 C 
ATOM     41  O   UNL     1      -6.815   2.492  -5.191  1.00  0.00    -0.246 OA
BRANCH  40  42
ATOM     42  C   UNL     1      -6.629   4.880  -5.182  1.00  0.00     0.060 A 
ATOM     43  C   UNL     1      -6.765   5.011  -6.576  1.00  0.00     0.016 A 
ATOM     44  C   UNL     1      -6.056   5.915  -4.458  1.00  0.00     0.016 A 
ATOM     45  C   UNL     1      -6.145   6.077  -7.256  1.00  0.00     0.010 A 
ATOM     46  C   UNL     1      -5.347   6.880  -5.145  1.00  0.00     0.010 A 
ATOM     47  C   UNL     1      -5.341   6.969  -6.547  1.00  0.00    -0.014 A 
BRANCH  47  48
ATOM     48  C   UNL     1      -4.331   7.897  -7.115  1.00  0.00     0.031 A 
ATOM     49  C   UNL     1      -4.149   9.261  -6.495  1.00  0.00     0.074 A 
ATOM     50  C   UNL     1      -3.346   7.388  -7.900  1.00  0.00     0.049 A 
ATOM     51  N   UNL     1      -3.165  10.068  -6.709  1.00  0.00    -0.248 NA
ATOM     52  C   UNL     1      -5.093   9.831  -5.535  1.00  0.00     0.031 C 
ATOM     53  C   UNL     1      -1.955   7.839  -7.926  1.00  0.00     0.029 A 
ATOM     54  N   UNL     1      -3.325   6.297  -8.767  1.00  0.00    -0.354 N 
ATOM     55  C   UNL     1      -3.172  11.075  -5.757  1.00  0.00     0.074 A 
ATOM     56  C   UNL     1      -4.436  10.909  -5.090  1.00  0.00     0.031 C 
ATOM     57  C   UNL     1      -1.240   7.078  -8.758  1.00  0.00     0.029 A 
ATOM     58  C   UNL     1      -2.168   6.353  -9.560  1.00  0.00     0.049 A 
ATOM     59  H   UNL     1      -4.015   5.596  -8.815  1.00  0.00     0.167 HD
ATOM     60  C   UNL     1      -2.053  11.851  -5.594  1.00  0.00     0.037 A 
ATOM     61  C   UNL     1      -2.216   6.580 -10.907  1.00  0.00     0.037 A 
ATOM     62  C   UNL     1      -1.082  11.594  -6.671  1.00  0.00     0.049 A 
ATOM     63  C   UNL     1      -1.714   7.976 -11.284  1.00  0.00     0.074 A 
ATOM     64  C   UNL     1       0.248  11.213  -6.713  1.00  0.00     0.029 A 
ATOM     65  N   UNL     1      -1.529  11.570  -7.993  1.00  0.00    -0.354 N 
ATOM     66  N   UNL     1      -1.787   9.011 -10.472  1.00  0.00    -0.248 NA
ATOM     67  C   UNL     1      -0.947   8.290 -12.492  1.00  0.00     0.031 C 
ATOM     68  C   UNL     1       0.570  10.908  -8.060  1.00  0.00     0.029 A 
ATOM     69  C   UNL     1      -0.554  11.115  -8.846  1.00  0.00     0.049 A 
ATOM     70  H   UNL     1      -2.430  11.846  -8.278  1.00  0.00     0.167 HD
ATOM     71  C   UNL     1      -1.026  10.044 -10.964  1.00  0.00     0.074 A 
ATOM     72  C   UNL     1      -0.562   9.559 -12.252  1.00  0.00     0.031 C 
ATOM     73  C   UNL     1      -0.733  11.199 -10.286  1.00  0.00     0.037 A 
BRANCH  60  74
ATOM     74  C   UNL     1      -1.699  12.752  -4.398  1.00  0.00     0.057 A 
ATOM     75  C   UNL     1      -0.489  13.492  -4.376  1.00  0.00     0.134 A 
ATOM     76  C   UNL     1      -2.433  12.875  -3.202  1.00  0.00     0.134 A 
ATOM     77  F   UNL     1       0.328  13.543  -5.437  1.00  0.00    -0.206 F 
ATOM     78  C   UNL     1      -0.038  14.232  -3.267  1.00  0.00     0.040 A 
ATOM     79  C   UNL     1      -2.019  13.655  -2.103  1.00  0.00     0.040 A 
ATOM     80  F   UNL     1      -3.581  12.227  -2.997  1.00  0.00    -0.206 F 
ATOM     81  C   UNL     1      -0.808  14.323  -2.122  1.00  0.00     0.006 A 
ENDBRANCH  60  74
BRANCH  61  82
ATOM     82  C   UNL     1      -3.129   5.591 -11.563  1.00  0.00     0.057 A 
ATOM     83  C   UNL     1      -2.645   4.266 -11.450  1.00  0.00     0.134 A 
ATOM     84  C   UNL     1      -4.510   5.762 -11.391  1.00  0.00     0.134 A 
ATOM     85  F   UNL     1      -1.345   4.009 -11.672  1.00  0.00    -0.206 F 
ATOM     86  C   UNL     1      -3.404   3.262 -10.835  1.00  0.00     0.040 A 
ATOM     87  C   UNL     1      -5.288   4.750 -10.802  1.00  0.00     0.040 A 
ATOM     88  F   UNL     1      -5.066   6.972 -11.541  1.00  0.00    -0.206 F 
ATOM     89  C   UNL     1      -4.713   3.529 -10.445  1.00  0.00     0.006 A 
ENDBRANCH  61  82
BRANCH  73  90
ATOM     90  C   UNL     1      -0.540  12.569 -10.918  1.00  0.00     0.057 A 
ATOM     91  C   UNL     1      -0.887  12.871 -12.240  1.00  0.00     0.134 A 
ATOM     92  C   UNL     1      -0.223  13.704 -10.121  1.00  0.00     0.134 A 
ATOM     93  F   UNL     1      -1.288  11.928 -13.101  1.00  0.00    -0.206 F 
ATOM     94  C   UNL     1      -0.902  14.184 -12.734  1.00  0.00     0.040 A 
ATOM     95  C   UNL     1      -0.287  15.017 -10.590  1.00  0.00     0.040 A 
ATOM     96  F   UNL     1       0.114  13.610  -8.827  1.00  0.00    -0.206 F 
ATOM     97  C   UNL     1      -0.623  15.263 -11.906  1.00  0.00     0.006 A 
ENDBRANCH  73  90
ENDBRANCH  47  48
ENDBRANCH  40  42
ENDBRANCH  39  40
ENDBRANCH  38  39
ENDBRANCH  37  38
ENDBRANCH  36  37
ENDBRANCH  35  36
ENDBRANCH  34  35
ENDBRANCH  33  34
ENDBRANCH   1  33
TORSDOF 23
