REMARK SMILES C[C@@H](NS(=O)(=O)c1ccccc1)C(=O)OCCOCCOCCOCCOC(=O)c1ccc(-c2c3nc(c(-c4c(F)cccc4F)c4ccc([nH]4)c(-c4c(F)cccc4F)c4nc(c(-c5c(F)cccc5F)c5ccc2[nH]5)C=C4)C=C3)cc1
REMARK SMILES IDX 20 1 19 2 18 3 17 4 16 5 15 6 13 7 14 8 2 9 1 10 3 11 4 13
REMARK SMILES IDX 5 14 6 15 7 16 8 17 12 18 9 19 11 20 10 21 21 22 22 23 23 24
REMARK SMILES IDX 24 25 25 26 26 27 27 28 28 29 29 30 30 31 31 32 83 33 32 34
REMARK SMILES IDX 82 35 33 36 34 37 35 38 76 39 36 40 81 41 75 42 77 43 37 44
REMARK SMILES IDX 80 45 74 46 73 47 38 49 64 50 47 51 63 52 48 53 51 54 62 55
REMARK SMILES IDX 78 56 49 57 50 58 61 60 79 61 52 62 39 63 40 64 45 65 41 66
REMARK SMILES IDX 42 67 44 68 46 69 43 70 65 71 66 72 71 73 67 74 68 75 70 76
REMARK SMILES IDX 72 77 69 78 53 79 54 80 59 81 55 82 56 83 58 84 60 85 57 86
REMARK H PARENT 3 12 77 48 51 59
REMARK Flexibility Score: inf
ROOT
ATOM      1  C   UNL     1      -1.432  -0.530   1.702  1.00  0.00     0.188 C 
ENDROOT
BRANCH   1   2
ATOM      2  C   UNL     1      -2.413   0.582   2.100  1.00  0.00     0.188 C 
BRANCH   2   3
ATOM      3  O   UNL     1      -3.590   0.652   1.307  1.00  0.00    -0.376 OA
BRANCH   3   4
ATOM      4  C   UNL     1      -3.564   1.496   0.166  1.00  0.00     0.202 C 
BRANCH   4   5
ATOM      5  C   UNL     1      -2.667   1.034  -0.985  1.00  0.00     0.261 C 
BRANCH   5   6
ATOM      6  O   UNL     1      -1.238   1.181  -0.884  1.00  0.00    -0.462 OA
BRANCH   6   7
ATOM      7  C   UNL     1      -0.654   2.199  -0.207  1.00  0.00     0.323 C 
ATOM      8  O   UNL     1      -1.223   3.000   0.520  1.00  0.00    -0.250 OA
BRANCH   7   9
ATOM      9  C   UNL     1       0.810   2.345  -0.587  1.00  0.00     0.176 C 
ATOM     10  C   UNL     1       1.507   1.003  -0.790  1.00  0.00     0.038 C 
BRANCH   9  11
ATOM     11  N   UNL     1       0.883   3.153  -1.825  1.00  0.00    -0.197 NA
ATOM     12  H   UNL     1       0.203   2.764  -2.479  1.00  0.00     0.142 HD
BRANCH  11  13
ATOM     13  S   UNL     1       0.582   4.813  -1.721  1.00  0.00     0.241 S 
ATOM     14  O   UNL     1       1.144   5.263  -0.467  1.00  0.00    -0.207 OA
ATOM     15  O   UNL     1       1.024   5.359  -2.985  1.00  0.00    -0.207 OA
BRANCH  13  16
ATOM     16  C   UNL     1      -1.182   5.004  -1.669  1.00  0.00     0.082 A 
ATOM     17  C   UNL     1      -1.734   5.939  -0.786  1.00  0.00     0.022 A 
ATOM     18  C   UNL     1      -2.013   4.186  -2.440  1.00  0.00     0.022 A 
ATOM     19  C   UNL     1      -3.121   6.037  -0.654  1.00  0.00     0.001 A 
ATOM     20  C   UNL     1      -3.401   4.284  -2.295  1.00  0.00     0.001 A 
ATOM     21  C   UNL     1      -3.952   5.200  -1.398  1.00  0.00     0.000 A 
ENDBRANCH  13  16
ENDBRANCH  11  13
ENDBRANCH   9  11
ENDBRANCH   7   9
ENDBRANCH   6   7
ENDBRANCH   5   6
ENDBRANCH   4   5
ENDBRANCH   3   4
ENDBRANCH   2   3
ENDBRANCH   1   2
BRANCH   1  22
ATOM     22  O   UNL     1      -1.845  -1.481   0.733  1.00  0.00    -0.377 OA
BRANCH  22  23
ATOM     23  C   UNL     1      -3.152  -2.039   0.802  1.00  0.00     0.188 C 
BRANCH  23  24
ATOM     24  C   UNL     1      -3.897  -2.159   2.143  1.00  0.00     0.188 C 
BRANCH  24  25
ATOM     25  O   UNL     1      -3.058  -2.110   3.289  1.00  0.00    -0.376 OA
BRANCH  25  26
ATOM     26  C   UNL     1      -2.790  -3.353   3.920  1.00  0.00     0.202 C 
BRANCH  26  27
ATOM     27  C   UNL     1      -1.779  -4.225   3.170  1.00  0.00     0.261 C 
BRANCH  27  28
ATOM     28  O   UNL     1      -2.204  -4.718   1.889  1.00  0.00    -0.460 OA
BRANCH  28  29
ATOM     29  C   UNL     1      -3.364  -5.404   1.805  1.00  0.00     0.338 C 
ATOM     30  O   UNL     1      -4.117  -5.715   2.709  1.00  0.00    -0.246 OA
BRANCH  29  31
ATOM     31  C   UNL     1      -3.664  -5.567   0.370  1.00  0.00     0.060 A 
ATOM     32  C   UNL     1      -4.875  -5.077  -0.143  1.00  0.00     0.016 A 
ATOM     33  C   UNL     1      -2.723  -6.165  -0.470  1.00  0.00     0.016 A 
ATOM     34  C   UNL     1      -5.159  -5.214  -1.503  1.00  0.00     0.010 A 
ATOM     35  C   UNL     1      -3.019  -6.325  -1.821  1.00  0.00     0.010 A 
ATOM     36  C   UNL     1      -4.251  -5.884  -2.334  1.00  0.00    -0.014 A 
BRANCH  36  37
ATOM     37  C   UNL     1      -4.670  -6.384  -3.663  1.00  0.00     0.031 A 
ATOM     38  C   UNL     1      -5.225  -7.777  -3.727  1.00  0.00     0.074 A 
ATOM     39  C   UNL     1      -4.484  -5.671  -4.786  1.00  0.00     0.049 A 
ATOM     40  N   UNL     1      -5.493  -8.522  -4.767  1.00  0.00    -0.248 NA
ATOM     41  C   UNL     1      -5.494  -8.425  -2.432  1.00  0.00     0.031 C 
ATOM     42  C   UNL     1      -3.976  -4.303  -4.849  1.00  0.00     0.029 A 
ATOM     43  N   UNL     1      -4.670  -6.027  -6.098  1.00  0.00    -0.354 N 
ATOM     44  C   UNL     1      -5.938  -9.732  -4.251  1.00  0.00     0.074 A 
ATOM     45  C   UNL     1      -5.891  -9.629  -2.810  1.00  0.00     0.031 C 
ATOM     46  C   UNL     1      -3.853  -3.948  -6.141  1.00  0.00     0.029 A 
ATOM     47  C   UNL     1      -4.236  -5.077  -6.989  1.00  0.00     0.049 A 
ATOM     48  H   UNL     1      -5.075  -6.881  -6.374  1.00  0.00     0.167 HD
ATOM     49  C   UNL     1      -6.346 -10.835  -4.920  1.00  0.00     0.037 A 
ATOM     50  C   UNL     1      -4.123  -5.134  -8.331  1.00  0.00     0.037 A 
ATOM     51  C   UNL     1      -6.377 -10.939  -6.351  1.00  0.00     0.049 A 
ATOM     52  C   UNL     1      -4.530  -6.390  -9.059  1.00  0.00     0.074 A 
ATOM     53  C   UNL     1      -6.803 -12.000  -7.129  1.00  0.00     0.029 A 
ATOM     54  N   UNL     1      -5.947  -9.947  -7.220  1.00  0.00    -0.354 N 
ATOM     55  N   UNL     1      -4.990  -7.517  -8.570  1.00  0.00    -0.248 NA
ATOM     56  C   UNL     1      -4.399  -6.384 -10.524  1.00  0.00     0.031 C 
ATOM     57  C   UNL     1      -6.581 -11.669  -8.470  1.00  0.00     0.029 A 
ATOM     58  C   UNL     1      -6.069 -10.382  -8.527  1.00  0.00     0.049 A 
ATOM     59  H   UNL     1      -5.605  -9.065  -6.946  1.00  0.00     0.167 HD
ATOM     60  C   UNL     1      -5.228  -8.342  -9.664  1.00  0.00     0.074 A 
ATOM     61  C   UNL     1      -4.863  -7.585 -10.844  1.00  0.00     0.031 C 
ATOM     62  C   UNL     1      -5.710  -9.609  -9.690  1.00  0.00     0.037 A 
BRANCH  49  63
ATOM     63  C   UNL     1      -6.739 -12.023  -4.094  1.00  0.00     0.057 A 
ATOM     64  C   UNL     1      -7.909 -12.037  -3.322  1.00  0.00     0.134 A 
ATOM     65  C   UNL     1      -5.922 -13.159  -4.053  1.00  0.00     0.134 A 
ATOM     66  F   UNL     1      -8.722 -10.970  -3.300  1.00  0.00    -0.206 F 
ATOM     67  C   UNL     1      -8.233 -13.126  -2.512  1.00  0.00     0.040 A 
ATOM     68  C   UNL     1      -6.250 -14.264  -3.268  1.00  0.00     0.040 A 
ATOM     69  F   UNL     1      -4.787 -13.208  -4.766  1.00  0.00    -0.206 F 
ATOM     70  C   UNL     1      -7.404 -14.245  -2.486  1.00  0.00     0.006 A 
ENDBRANCH  49  63
BRANCH  50  71
ATOM     71  C   UNL     1      -3.569  -3.973  -9.072  1.00  0.00     0.057 A 
ATOM     72  C   UNL     1      -4.381  -3.174  -9.883  1.00  0.00     0.134 A 
ATOM     73  C   UNL     1      -2.213  -3.634  -8.983  1.00  0.00     0.134 A 
ATOM     74  F   UNL     1      -5.682  -3.464 -10.029  1.00  0.00    -0.206 F 
ATOM     75  C   UNL     1      -3.865  -2.082 -10.585  1.00  0.00     0.040 A 
ATOM     76  C   UNL     1      -1.688  -2.532  -9.660  1.00  0.00     0.040 A 
ATOM     77  F   UNL     1      -1.381  -4.361  -8.222  1.00  0.00    -0.206 F 
ATOM     78  C   UNL     1      -2.515  -1.754 -10.468  1.00  0.00     0.006 A 
ENDBRANCH  50  71
BRANCH  62  79
ATOM     79  C   UNL     1      -5.914 -10.253 -11.030  1.00  0.00     0.057 A 
ATOM     80  C   UNL     1      -4.843 -10.733 -11.793  1.00  0.00     0.134 A 
ATOM     81  C   UNL     1      -7.209 -10.476 -11.518  1.00  0.00     0.134 A 
ATOM     82  F   UNL     1      -3.579 -10.543 -11.385  1.00  0.00    -0.206 F 
ATOM     83  C   UNL     1      -5.052 -11.407 -12.997  1.00  0.00     0.040 A 
ATOM     84  C   UNL     1      -7.431 -11.169 -12.708  1.00  0.00     0.040 A 
ATOM     85  F   UNL     1      -8.279 -10.052 -10.828  1.00  0.00    -0.206 F 
ATOM     86  C   UNL     1      -6.350 -11.636 -13.452  1.00  0.00     0.006 A 
ENDBRANCH  62  79
ENDBRANCH  36  37
ENDBRANCH  29  31
ENDBRANCH  28  29
ENDBRANCH  27  28
ENDBRANCH  26  27
ENDBRANCH  25  26
ENDBRANCH  24  25
ENDBRANCH  23  24
ENDBRANCH  22  23
ENDBRANCH   1  22
TORSDOF 23
