REMARK SMILES Cc1cc(OC(F)(F)F)cc2c1O[C@H](C(F)(F)F)C(C(=O)OCCOCCOCCOCCOC(=O)c1ccc(-c3c4nc(c(-c5c(F)cccc5F)c5ccc([nH]5)c(-c5c(F)cccc5F)c5nc(c(-c6c(F)cccc6F)c6ccc3[nH]6)C=C5)C=C4)cc1)=C2
REMARK SMILES IDX 28 1 27 2 26 3 25 4 24 5 23 6 22 7 20 8 21 9 19 10 1 11 2 12
REMARK SMILES IDX 3 13 12 14 4 15 11 16 13 17 10 18 91 19 14 20 5 21 6 22 7 23
REMARK SMILES IDX 8 24 9 25 15 26 16 27 17 28 18 29 29 30 30 31 31 32 32 33
REMARK SMILES IDX 33 34 34 35 35 36 36 37 37 38 38 39 90 40 39 41 89 42 40 43
REMARK SMILES IDX 41 44 42 45 83 46 43 47 88 48 82 49 84 50 44 51 87 52 81 53
REMARK SMILES IDX 80 54 45 56 71 57 54 58 70 59 55 60 58 61 69 62 85 63 56 64
REMARK SMILES IDX 57 65 68 67 86 68 59 69 46 70 47 71 52 72 48 73 49 74 51 75
REMARK SMILES IDX 53 76 50 77 72 78 73 79 78 80 74 81 75 82 77 83 79 84 76 85
REMARK SMILES IDX 60 86 61 87 66 88 62 89 63 90 65 91 67 92 64 93
REMARK H PARENT 84 55 58 66
REMARK Flexibility Score: inf
ROOT
ATOM      1  O   UNL     1       3.283  -6.901   2.169  1.00  0.00    -0.377 OA
ENDROOT
BRANCH   1   2
ATOM      2  C   UNL     1       2.897  -5.997   3.192  1.00  0.00     0.188 C 
BRANCH   2   3
ATOM      3  C   UNL     1       1.877  -6.601   4.176  1.00  0.00     0.188 C 
BRANCH   3   4
ATOM      4  O   UNL     1       1.787  -8.012   4.204  1.00  0.00    -0.376 OA
BRANCH   4   5
ATOM      5  C   UNL     1       1.166  -8.779   3.186  1.00  0.00     0.202 C 
BRANCH   5   6
ATOM      6  C   UNL     1       0.647  -8.280   1.822  1.00  0.00     0.261 C 
BRANCH   6   7
ATOM      7  O   UNL     1       0.657  -6.880   1.570  1.00  0.00    -0.460 OA
BRANCH   7   8
ATOM      8  C   UNL     1      -0.411  -6.180   1.992  1.00  0.00     0.338 C 
ATOM      9  O   UNL     1      -1.404  -6.618   2.543  1.00  0.00    -0.246 OA
BRANCH   8  10
ATOM     10  C   UNL     1      -0.096  -4.746   1.825  1.00  0.00     0.087 C 
ATOM     11  C   UNL     1       1.023  -0.103   0.003  1.00  0.00     0.048 C 
ATOM     12  C   UNL     1       0.510  -0.656   1.304  1.00  0.00    -0.005 A 
ATOM     13  C   UNL     1       0.130   0.225   2.333  1.00  0.00     0.054 A 
ATOM     14  C   UNL     1       0.409  -2.039   1.511  1.00  0.00     0.131 A 
ATOM     15  C   UNL     1      -0.348  -0.264   3.550  1.00  0.00     0.130 A 
ATOM     16  C   UNL     1      -0.112  -2.529   2.709  1.00  0.00     0.021 A 
ATOM     17  O   UNL     1       0.831  -2.848   0.494  1.00  0.00    -0.475 OA
ATOM     18  C   UNL     1      -0.451  -1.644   3.736  1.00  0.00     0.058 A 
ATOM     19  C   UNL     1      -0.379  -3.947   2.860  1.00  0.00     0.027 C 
ATOM     20  C   UNL     1       0.578  -4.277   0.562  1.00  0.00     0.316 C 
BRANCH  15  21
ATOM     21  O   UNL     1      -0.752   0.478   4.622  1.00  0.00    -0.406 OA
BRANCH  21  22
ATOM     22  C   UNL     1      -0.958   1.865   4.419  1.00  0.00     0.573 C 
ATOM     23  F   UNL     1       0.207   2.494   4.159  1.00  0.00    -0.132 F 
ATOM     24  F   UNL     1      -1.829   2.089   3.412  1.00  0.00    -0.132 F 
ATOM     25  F   UNL     1      -1.478   2.395   5.549  1.00  0.00    -0.132 F 
ENDBRANCH  21  22
ENDBRANCH  15  21
BRANCH  20  26
ATOM     26  C   UNL     1      -0.200  -4.683  -0.695  1.00  0.00     0.430 C 
ATOM     27  F   UNL     1       0.370  -4.173  -1.814  1.00  0.00    -0.167 F 
ATOM     28  F   UNL     1      -0.237  -6.026  -0.859  1.00  0.00    -0.167 F 
ATOM     29  F   UNL     1      -1.479  -4.246  -0.657  1.00  0.00    -0.167 F 
ENDBRANCH  20  26
ENDBRANCH   8  10
ENDBRANCH   7   8
ENDBRANCH   6   7
ENDBRANCH   5   6
ENDBRANCH   4   5
ENDBRANCH   3   4
ENDBRANCH   2   3
ENDBRANCH   1   2
BRANCH   1  30
ATOM     30  C   UNL     1       4.390  -7.758   2.446  1.00  0.00     0.188 C 
BRANCH  30  31
ATOM     31  C   UNL     1       4.673  -8.237   3.890  1.00  0.00     0.188 C 
BRANCH  31  32
ATOM     32  O   UNL     1       4.567  -7.212   4.868  1.00  0.00    -0.376 OA
BRANCH  32  33
ATOM     33  C   UNL     1       5.747  -6.668   5.431  1.00  0.00     0.202 C 
BRANCH  33  34
ATOM     34  C   UNL     1       6.651  -5.851   4.497  1.00  0.00     0.261 C 
BRANCH  34  35
ATOM     35  O   UNL     1       7.058  -6.503   3.287  1.00  0.00    -0.460 OA
BRANCH  35  36
ATOM     36  C   UNL     1       7.836  -7.598   3.401  1.00  0.00     0.338 C 
ATOM     37  O   UNL     1       8.257  -8.107   4.427  1.00  0.00    -0.246 OA
BRANCH  36  38
ATOM     38  C   UNL     1       7.960  -8.187   2.056  1.00  0.00     0.060 A 
ATOM     39  C   UNL     1       7.420  -9.454   1.801  1.00  0.00     0.016 A 
ATOM     40  C   UNL     1       8.619  -7.477   1.050  1.00  0.00     0.016 A 
ATOM     41  C   UNL     1       7.568 -10.034   0.541  1.00  0.00     0.010 A 
ATOM     42  C   UNL     1       8.798  -8.071  -0.198  1.00  0.00     0.010 A 
ATOM     43  C   UNL     1       8.306  -9.365  -0.443  1.00  0.00    -0.014 A 
BRANCH  43  44
ATOM     44  C   UNL     1       8.795 -10.101  -1.630  1.00  0.00     0.031 A 
ATOM     45  C   UNL     1      10.146 -10.751  -1.538  1.00  0.00     0.074 A 
ATOM     46  C   UNL     1       8.079 -10.165  -2.764  1.00  0.00     0.049 A 
ATOM     47  N   UNL     1      10.854 -11.338  -2.467  1.00  0.00    -0.248 NA
ATOM     48  C   UNL     1      10.788 -10.728  -0.213  1.00  0.00     0.031 C 
ATOM     49  C   UNL     1       6.736  -9.625  -2.953  1.00  0.00     0.029 A 
ATOM     50  N   UNL     1       8.406 -10.701  -3.984  1.00  0.00    -0.354 N 
ATOM     51  C   UNL     1      12.023 -11.753  -1.840  1.00  0.00     0.074 A 
ATOM     52  C   UNL     1      11.944 -11.323  -0.462  1.00  0.00     0.031 C 
ATOM     53  C   UNL     1       6.360  -9.835  -4.227  1.00  0.00     0.029 A 
ATOM     54  C   UNL     1       7.454 -10.483  -4.949  1.00  0.00     0.049 A 
ATOM     55  H   UNL     1       9.242 -11.193  -4.151  1.00  0.00     0.167 HD
ATOM     56  C   UNL     1      13.068 -12.433  -2.365  1.00  0.00     0.037 A 
ATOM     57  C   UNL     1       7.489 -10.745  -6.270  1.00  0.00     0.037 A 
ATOM     58  C   UNL     1      13.155 -12.824  -3.746  1.00  0.00     0.049 A 
ATOM     59  C   UNL     1       8.723 -11.380  -6.862  1.00  0.00     0.074 A 
ATOM     60  C   UNL     1      14.168 -13.515  -4.386  1.00  0.00     0.029 A 
ATOM     61  N   UNL     1      12.197 -12.537  -4.706  1.00  0.00    -0.354 N 
ATOM     62  N   UNL     1       9.815 -11.792  -6.263  1.00  0.00    -0.248 NA
ATOM     63  C   UNL     1       8.730 -11.577  -8.319  1.00  0.00     0.031 C 
ATOM     64  C   UNL     1      13.852 -13.589  -5.747  1.00  0.00     0.029 A 
ATOM     65  C   UNL     1      12.612 -13.000  -5.943  1.00  0.00     0.049 A 
ATOM     66  H   UNL     1      11.346 -12.071  -4.534  1.00  0.00     0.167 HD
ATOM     67  C   UNL     1      10.625 -12.319  -7.263  1.00  0.00     0.074 A 
ATOM     68  C   UNL     1       9.889 -12.191  -8.504  1.00  0.00     0.031 C 
ATOM     69  C   UNL     1      11.866 -12.860  -7.168  1.00  0.00     0.037 A 
BRANCH  56  70
ATOM     70  C   UNL     1      14.210 -12.750  -1.445  1.00  0.00     0.057 A 
ATOM     71  C   UNL     1      15.450 -12.117  -1.603  1.00  0.00     0.134 A 
ATOM     72  C   UNL     1      14.086 -13.675  -0.399  1.00  0.00     0.134 A 
ATOM     73  F   UNL     1      15.638 -11.221  -2.583  1.00  0.00    -0.206 F 
ATOM     74  C   UNL     1      16.522 -12.390  -0.752  1.00  0.00     0.040 A 
ATOM     75  C   UNL     1      15.142 -13.933   0.477  1.00  0.00     0.040 A 
ATOM     76  F   UNL     1      12.920 -14.302  -0.180  1.00  0.00    -0.206 F 
ATOM     77  C   UNL     1      16.367 -13.293   0.297  1.00  0.00     0.006 A 
ENDBRANCH  56  70
BRANCH  57  78
ATOM     78  C   UNL     1       6.342 -10.382  -7.141  1.00  0.00     0.057 A 
ATOM     79  C   UNL     1       6.012  -9.046  -7.400  1.00  0.00     0.134 A 
ATOM     80  C   UNL     1       5.578 -11.368  -7.776  1.00  0.00     0.134 A 
ATOM     81  F   UNL     1       6.706  -8.052  -6.827  1.00  0.00    -0.206 F 
ATOM     82  C   UNL     1       4.962  -8.704  -8.255  1.00  0.00     0.040 A 
ATOM     83  C   UNL     1       4.545 -11.040  -8.655  1.00  0.00     0.040 A 
ATOM     84  F   UNL     1       5.862 -12.665  -7.589  1.00  0.00    -0.206 F 
ATOM     85  C   UNL     1       4.232  -9.704  -8.893  1.00  0.00     0.006 A 
ENDBRANCH  57  78
BRANCH  69  86
ATOM     86  C   UNL     1      12.491 -13.375  -8.433  1.00  0.00     0.057 A 
ATOM     87  C   UNL     1      12.678 -14.750  -8.628  1.00  0.00     0.134 A 
ATOM     88  C   UNL     1      12.942 -12.514  -9.441  1.00  0.00     0.134 A 
ATOM     89  F   UNL     1      12.281 -15.631  -7.697  1.00  0.00    -0.206 F 
ATOM     90  C   UNL     1      13.294 -15.248  -9.777  1.00  0.00     0.040 A 
ATOM     91  C   UNL     1      13.531 -13.002 -10.609  1.00  0.00     0.040 A 
ATOM     92  F   UNL     1      12.782 -11.187  -9.323  1.00  0.00    -0.206 F 
ATOM     93  C   UNL     1      13.715 -14.373 -10.775  1.00  0.00     0.006 A 
ENDBRANCH  69  86
ENDBRANCH  43  44
ENDBRANCH  36  38
ENDBRANCH  35  36
ENDBRANCH  34  35
ENDBRANCH  33  34
ENDBRANCH  32  33
ENDBRANCH  31  32
ENDBRANCH  30  31
ENDBRANCH   1  30
TORSDOF 23
