REMARK SMILES O=C(OCCOCCOCCOCCOC(=O)c1ccccc1/C=N/n1cnnc1SCc1ccccc1)c1ccc(-c2c3nc(c(-c4c(F)cccc4F)c4ccc([nH]4)c(-c4c(F)cccc4F)c4nc(c(-c5c(F)cccc5F)c5ccc2[nH]5)C=C4)C=C3)cc1
REMARK SMILES IDX 10 1 9 2 8 3 7 4 6 5 5 6 4 7 3 8 2 9 1 10 39 11 40 12 92 13
REMARK SMILES IDX 41 14 91 15 42 16 43 17 44 18 85 19 45 20 90 21 84 22 86 23
REMARK SMILES IDX 46 24 89 25 83 26 82 27 47 29 73 30 56 31 72 32 57 33 60 34
REMARK SMILES IDX 71 35 87 36 58 37 59 38 70 40 88 41 61 42 48 43 49 44 54 45
REMARK SMILES IDX 50 46 51 47 53 48 55 49 52 50 74 51 75 52 80 53 76 54 77 55
REMARK SMILES IDX 79 56 81 57 78 58 62 59 63 60 68 61 64 62 65 63 67 64 69 65
REMARK SMILES IDX 66 66 11 67 12 68 13 69 14 70 15 71 16 72 17 73 18 74 19 75
REMARK SMILES IDX 23 76 20 77 22 78 21 79 24 80 25 81 26 82 27 83 30 84 28 85
REMARK SMILES IDX 29 86 31 87 32 88 33 89 34 90 38 91 35 92 37 93 36 94
REMARK H PARENT 86 28 60 39
REMARK Flexibility Score: inf
ROOT
ATOM      1  C   UNL     1       4.136  -2.767   1.521  1.00  0.00     0.188 C 
ENDROOT
BRANCH   1   2
ATOM      2  O   UNL     1       2.804  -2.938   1.098  1.00  0.00    -0.377 OA
BRANCH   2   3
ATOM      3  C   UNL     1       2.250  -1.778   0.501  1.00  0.00     0.188 C 
BRANCH   3   4
ATOM      4  C   UNL     1       2.937  -1.233  -0.768  1.00  0.00     0.188 C 
BRANCH   4   5
ATOM      5  O   UNL     1       4.237  -0.665  -0.857  1.00  0.00    -0.376 OA
BRANCH   5   6
ATOM      6  C   UNL     1       4.987   0.050   0.100  1.00  0.00     0.202 C 
BRANCH   6   7
ATOM      7  C   UNL     1       4.432   1.192   0.943  1.00  0.00     0.261 C 
BRANCH   7   8
ATOM      8  O   UNL     1       3.054   1.098   1.266  1.00  0.00    -0.460 OA
BRANCH   8   9
ATOM      9  C   UNL     1       1.990   1.451   0.522  1.00  0.00     0.338 C 
ATOM     10  O   UNL     1       0.872   1.255   1.000  1.00  0.00    -0.246 OA
BRANCH   9  11
ATOM     11  C   UNL     1       2.057   2.013  -0.857  1.00  0.00     0.060 A 
ATOM     12  C   UNL     1       3.184   2.517  -1.505  1.00  0.00     0.016 A 
ATOM     13  C   UNL     1       0.816   2.068  -1.524  1.00  0.00     0.016 A 
ATOM     14  C   UNL     1       3.035   3.267  -2.657  1.00  0.00     0.010 A 
ATOM     15  C   UNL     1       0.665   2.784  -2.695  1.00  0.00     0.010 A 
ATOM     16  C   UNL     1       1.762   3.463  -3.192  1.00  0.00    -0.014 A 
BRANCH  16  17
ATOM     17  C   UNL     1       1.651   4.358  -4.324  1.00  0.00     0.031 A 
ATOM     18  C   UNL     1       2.400   3.897  -5.514  1.00  0.00     0.074 A 
ATOM     19  C   UNL     1       0.952   5.508  -4.272  1.00  0.00     0.049 A 
ATOM     20  N   UNL     1       3.502   4.389  -5.972  1.00  0.00    -0.248 NA
ATOM     21  C   UNL     1       1.990   2.639  -6.153  1.00  0.00     0.031 C 
ATOM     22  C   UNL     1       0.007   5.959  -3.249  1.00  0.00     0.029 A 
ATOM     23  N   UNL     1       0.904   6.511  -5.191  1.00  0.00    -0.354 N 
ATOM     24  C   UNL     1       3.809   3.639  -7.101  1.00  0.00     0.074 A 
ATOM     25  C   UNL     1       2.954   2.482  -7.062  1.00  0.00     0.031 C 
ATOM     26  C   UNL     1      -0.686   7.024  -3.718  1.00  0.00     0.029 A 
ATOM     27  C   UNL     1      -0.131   7.419  -5.001  1.00  0.00     0.049 A 
ATOM     28  H   UNL     1       1.550   6.587  -5.930  1.00  0.00     0.167 HD
ATOM     29  C   UNL     1       4.559   4.180  -8.098  1.00  0.00     0.037 A 
ATOM     30  C   UNL     1      -0.518   8.386  -5.872  1.00  0.00     0.037 A 
ATOM     31  C   UNL     1       5.315   5.312  -7.617  1.00  0.00     0.049 A 
ATOM     32  C   UNL     1       0.621   8.642  -6.790  1.00  0.00     0.074 A 
ATOM     33  C   UNL     1       6.266   5.496  -6.631  1.00  0.00     0.029 A 
ATOM     34  N   UNL     1       4.847   6.567  -7.921  1.00  0.00    -0.354 N 
ATOM     35  N   UNL     1       1.728   9.222  -6.420  1.00  0.00    -0.248 NA
ATOM     36  C   UNL     1       0.716   7.822  -7.989  1.00  0.00     0.031 C 
ATOM     37  C   UNL     1       5.961   6.766  -6.057  1.00  0.00     0.029 A 
ATOM     38  C   UNL     1       4.902   7.319  -6.777  1.00  0.00     0.049 A 
ATOM     39  H   UNL     1       4.530   6.872  -8.802  1.00  0.00     0.167 HD
ATOM     40  C   UNL     1       2.728   8.489  -7.039  1.00  0.00     0.074 A 
ATOM     41  C   UNL     1       2.043   7.690  -8.054  1.00  0.00     0.031 C 
ATOM     42  C   UNL     1       3.968   8.377  -6.477  1.00  0.00     0.037 A 
BRANCH  29  43
ATOM     43  C   UNL     1       4.266   3.974  -9.566  1.00  0.00     0.057 A 
ATOM     44  C   UNL     1       5.118   4.566 -10.517  1.00  0.00     0.134 A 
ATOM     45  C   UNL     1       3.034   3.513 -10.075  1.00  0.00     0.134 A 
ATOM     46  F   UNL     1       6.319   5.046 -10.160  1.00  0.00    -0.206 F 
ATOM     47  C   UNL     1       4.728   4.780 -11.844  1.00  0.00     0.040 A 
ATOM     48  C   UNL     1       2.655   3.679 -11.409  1.00  0.00     0.040 A 
ATOM     49  F   UNL     1       2.086   2.971  -9.303  1.00  0.00    -0.206 F 
ATOM     50  C   UNL     1       3.486   4.349 -12.290  1.00  0.00     0.006 A 
ENDBRANCH  29  43
BRANCH  30  51
ATOM     51  C   UNL     1      -1.885   8.867  -6.180  1.00  0.00     0.057 A 
ATOM     52  C   UNL     1      -2.090  10.042  -6.920  1.00  0.00     0.134 A 
ATOM     53  C   UNL     1      -3.006   8.033  -6.027  1.00  0.00     0.134 A 
ATOM     54  F   UNL     1      -1.073  10.884  -7.156  1.00  0.00    -0.206 F 
ATOM     55  C   UNL     1      -3.327  10.352  -7.502  1.00  0.00     0.040 A 
ATOM     56  C   UNL     1      -4.247   8.333  -6.599  1.00  0.00     0.040 A 
ATOM     57  F   UNL     1      -2.909   6.852  -5.399  1.00  0.00    -0.206 F 
ATOM     58  C   UNL     1      -4.407   9.488  -7.354  1.00  0.00     0.006 A 
ENDBRANCH  30  51
BRANCH  42  59
ATOM     59  C   UNL     1       4.306   9.284  -5.326  1.00  0.00     0.057 A 
ATOM     60  C   UNL     1       3.624   9.306  -4.099  1.00  0.00     0.134 A 
ATOM     61  C   UNL     1       5.451  10.081  -5.426  1.00  0.00     0.134 A 
ATOM     62  F   UNL     1       2.579   8.500  -3.868  1.00  0.00    -0.206 F 
ATOM     63  C   UNL     1       4.035  10.128  -3.044  1.00  0.00     0.040 A 
ATOM     64  C   UNL     1       5.894  10.877  -4.369  1.00  0.00     0.040 A 
ATOM     65  F   UNL     1       6.187  10.069  -6.549  1.00  0.00    -0.206 F 
ATOM     66  C   UNL     1       5.177  10.914  -3.176  1.00  0.00     0.006 A 
ENDBRANCH  42  59
ENDBRANCH  16  17
ENDBRANCH   9  11
ENDBRANCH   8   9
ENDBRANCH   7   8
ENDBRANCH   6   7
ENDBRANCH   5   6
ENDBRANCH   4   5
ENDBRANCH   3   4
ENDBRANCH   2   3
ENDBRANCH   1   2
BRANCH   1  67
ATOM     67  C   UNL     1       5.173  -3.352   0.539  1.00  0.00     0.188 C 
BRANCH  67  68
ATOM     68  O   UNL     1       4.782  -3.960  -0.683  1.00  0.00    -0.376 OA
BRANCH  68  69
ATOM     69  C   UNL     1       3.623  -4.773  -0.779  1.00  0.00     0.202 C 
BRANCH  69  70
ATOM     70  C   UNL     1       3.331  -5.882   0.239  1.00  0.00     0.261 C 
BRANCH  70  71
ATOM     71  O   UNL     1       3.732  -5.616   1.583  1.00  0.00    -0.460 OA
BRANCH  71  72
ATOM     72  C   UNL     1       4.925  -6.129   1.987  1.00  0.00     0.338 C 
ATOM     73  O   UNL     1       5.693  -6.804   1.355  1.00  0.00    -0.246 OA
BRANCH  72  74
ATOM     74  C   UNL     1       5.188  -5.577   3.340  1.00  0.00     0.068 A 
ATOM     75  C   UNL     1       6.403  -4.911   3.562  1.00  0.00     0.016 A 
ATOM     76  C   UNL     1       4.216  -5.614   4.343  1.00  0.00     0.009 A 
ATOM     77  C   UNL     1       6.643  -4.281   4.783  1.00  0.00     0.001 A 
ATOM     78  C   UNL     1       4.472  -4.998   5.573  1.00  0.00     0.010 A 
ATOM     79  C   UNL     1       5.684  -4.337   5.792  1.00  0.00     0.001 A 
BRANCH  76  80
ATOM     80  C   UNL     1       2.985  -6.407   4.131  1.00  0.00     0.143 C 
ATOM     81  N   UNL     1       1.903  -6.231   4.818  1.00  0.00    -0.172 NA
BRANCH  81  82
ATOM     82  N   UNL     1       0.918  -7.178   4.623  1.00  0.00    -0.195 N 
ATOM     83  C   UNL     1       0.667  -7.970   3.523  1.00  0.00     0.251 A 
ATOM     84  C   UNL     1       0.025  -7.651   5.572  1.00  0.00     0.212 A 
ATOM     85  N   UNL     1      -0.286  -8.835   3.771  1.00  0.00    -0.136 NA
ATOM     86  N   UNL     1      -0.701  -8.623   5.059  1.00  0.00    -0.122 NA
BRANCH  84  87
ATOM     87  S   UNL     1      -0.120  -7.162   7.228  1.00  0.00    -0.080 SA
BRANCH  87  88
ATOM     88  C   UNL     1       1.457  -6.458   7.724  1.00  0.00     0.113 C 
BRANCH  88  89
ATOM     89  C   UNL     1       2.606  -7.414   7.981  1.00  0.00    -0.038 A 
ATOM     90  C   UNL     1       3.219  -8.168   6.969  1.00  0.00     0.004 A 
ATOM     91  C   UNL     1       3.170  -7.486   9.262  1.00  0.00     0.004 A 
ATOM     92  C   UNL     1       4.391  -8.892   7.191  1.00  0.00     0.000 A 
ATOM     93  C   UNL     1       4.320  -8.245   9.501  1.00  0.00     0.000 A 
ATOM     94  C   UNL     1       4.944  -8.928   8.461  1.00  0.00     0.000 A 
ENDBRANCH  88  89
ENDBRANCH  87  88
ENDBRANCH  84  87
ENDBRANCH  81  82
ENDBRANCH  76  80
ENDBRANCH  72  74
ENDBRANCH  71  72
ENDBRANCH  70  71
ENDBRANCH  69  70
ENDBRANCH  68  69
ENDBRANCH  67  68
ENDBRANCH   1  67
TORSDOF 25
