REMARK SMILES O=C(CCC(=O)OCCOCCOCCOCCOC(=O)c1ccc(-c2c3nc(c(-c4c(F)cccc4F)c4ccc([nH]4)c(-c4c(F)cccc4F)c4nc(c(-c5c(F)cccc5F)c5ccc2[nH]5)C=C4)C=C3)cc1)Nc1ccc(C(=O)N2CCOCC2)cc1
REMARK SMILES IDX 12 1 11 2 10 3 9 4 8 5 7 6 5 7 6 8 4 9 3 10 2 11 1 12 76 13
REMARK SMILES IDX 77 15 78 16 90 17 79 18 89 19 80 20 81 21 82 22 83 23 84 24
REMARK SMILES IDX 88 25 85 26 87 27 86 28 13 29 14 30 15 31 16 32 17 33 18 34
REMARK SMILES IDX 19 35 20 36 21 37 22 38 23 39 75 40 24 41 74 42 25 43 26 44
REMARK SMILES IDX 27 45 68 46 28 47 73 48 67 49 69 50 29 51 72 52 66 53 65 54
REMARK SMILES IDX 30 56 56 57 39 58 55 59 40 60 43 61 54 62 70 63 41 64 42 65
REMARK SMILES IDX 53 67 71 68 44 69 31 70 32 71 37 72 33 73 34 74 36 75 38 76
REMARK SMILES IDX 35 77 57 78 58 79 63 80 59 81 60 82 62 83 64 84 61 85 45 86
REMARK SMILES IDX 46 87 51 88 47 89 48 90 50 91 52 92 49 93
REMARK H PARENT 76 14 69 55 43 66
REMARK Flexibility Score: inf
ROOT
ATOM      1  C   UNL     1       5.729  -0.904   0.191  1.00  0.00     0.188 C 
ENDROOT
BRANCH   1   2
ATOM      2  C   UNL     1       6.908  -0.127  -0.402  1.00  0.00     0.188 C 
BRANCH   2   3
ATOM      3  O   UNL     1       7.567   0.808   0.428  1.00  0.00    -0.376 OA
BRANCH   3   4
ATOM      4  C   UNL     1       6.965   2.060   0.725  1.00  0.00     0.202 C 
BRANCH   4   5
ATOM      5  C   UNL     1       5.826   2.681  -0.106  1.00  0.00     0.261 C 
BRANCH   5   6
ATOM      6  O   UNL     1       4.771   1.790  -0.527  1.00  0.00    -0.463 OA
BRANCH   6   7
ATOM      7  C   UNL     1       4.407   1.891  -1.829  1.00  0.00     0.306 C 
ATOM      8  O   UNL     1       4.927   2.672  -2.620  1.00  0.00    -0.252 OA
BRANCH   7   9
ATOM      9  C   UNL     1       3.333   0.931  -2.301  1.00  0.00     0.132 C 
BRANCH   9  10
ATOM     10  C   UNL     1       2.576  -0.056  -1.426  1.00  0.00     0.112 C 
BRANCH  10  11
ATOM     11  C   UNL     1       1.755   0.464  -0.271  1.00  0.00     0.224 C 
ATOM     12  O   UNL     1       0.537   0.296  -0.260  1.00  0.00    -0.275 OA
ATOM     13  N   UNL     1       2.489   1.059   0.728  1.00  0.00    -0.326 N 
ATOM     14  H   UNL     1       3.455   1.172   0.573  1.00  0.00     0.169 HD
BRANCH  13  15
ATOM     15  C   UNL     1       1.976   1.516   1.948  1.00  0.00     0.041 A 
ATOM     16  C   UNL     1       2.589   2.617   2.548  1.00  0.00     0.027 A 
ATOM     17  C   UNL     1       0.854   0.938   2.535  1.00  0.00     0.027 A 
ATOM     18  C   UNL     1       1.984   3.229   3.646  1.00  0.00     0.016 A 
ATOM     19  C   UNL     1       0.267   1.530   3.647  1.00  0.00     0.016 A 
ATOM     20  C   UNL     1       0.804   2.701   4.186  1.00  0.00     0.040 A 
BRANCH  20  21
ATOM     21  C   UNL     1      -0.013   3.552   5.085  1.00  0.00     0.254 C 
ATOM     22  O   UNL     1       0.035   4.766   4.881  1.00  0.00    -0.269 OA
ATOM     23  N   UNL     1      -0.900   2.970   5.972  1.00  0.00    -0.334 N 
ATOM     24  C   UNL     1      -0.757   1.697   6.683  1.00  0.00     0.148 C 
ATOM     25  C   UNL     1      -2.145   3.664   6.275  1.00  0.00     0.148 C 
ATOM     26  C   UNL     1      -2.001   0.812   6.487  1.00  0.00     0.181 C 
ATOM     27  C   UNL     1      -3.300   2.723   5.926  1.00  0.00     0.181 C 
ATOM     28  O   UNL     1      -3.227   1.525   6.721  1.00  0.00    -0.378 OA
ENDBRANCH  20  21
ENDBRANCH  13  15
ENDBRANCH  10  11
ENDBRANCH   9  10
ENDBRANCH   7   9
ENDBRANCH   6   7
ENDBRANCH   5   6
ENDBRANCH   4   5
ENDBRANCH   3   4
ENDBRANCH   2   3
ENDBRANCH   1   2
BRANCH   1  29
ATOM     29  O   UNL     1       4.966  -0.218   1.165  1.00  0.00    -0.377 OA
BRANCH  29  30
ATOM     30  C   UNL     1       5.393  -0.223   2.527  1.00  0.00     0.188 C 
BRANCH  30  31
ATOM     31  C   UNL     1       6.758  -0.806   2.944  1.00  0.00     0.188 C 
BRANCH  31  32
ATOM     32  O   UNL     1       7.151  -1.971   2.239  1.00  0.00    -0.376 OA
BRANCH  32  33
ATOM     33  C   UNL     1       6.886  -3.235   2.833  1.00  0.00     0.202 C 
BRANCH  33  34
ATOM     34  C   UNL     1       5.407  -3.598   3.039  1.00  0.00     0.261 C 
BRANCH  34  35
ATOM     35  O   UNL     1       4.700  -2.777   3.985  1.00  0.00    -0.460 OA
BRANCH  35  36
ATOM     36  C   UNL     1       5.176  -2.752   5.248  1.00  0.00     0.338 C 
ATOM     37  O   UNL     1       6.097  -3.400   5.703  1.00  0.00    -0.246 OA
BRANCH  36  38
ATOM     38  C   UNL     1       4.499  -1.661   5.976  1.00  0.00     0.060 A 
ATOM     39  C   UNL     1       5.278  -0.620   6.492  1.00  0.00     0.016 A 
ATOM     40  C   UNL     1       3.122  -1.698   6.205  1.00  0.00     0.016 A 
ATOM     41  C   UNL     1       4.689   0.362   7.288  1.00  0.00     0.010 A 
ATOM     42  C   UNL     1       2.536  -0.719   7.014  1.00  0.00     0.010 A 
ATOM     43  C   UNL     1       3.324   0.294   7.594  1.00  0.00    -0.014 A 
BRANCH  43  44
ATOM     44  C   UNL     1       2.773   1.176   8.655  1.00  0.00     0.031 A 
ATOM     45  C   UNL     1       2.531   0.607  10.027  1.00  0.00     0.074 A 
ATOM     46  C   UNL     1       2.543   2.483   8.433  1.00  0.00     0.049 A 
ATOM     47  N   UNL     1       2.093   1.203  11.106  1.00  0.00    -0.248 NA
ATOM     48  C   UNL     1       2.838  -0.820  10.209  1.00  0.00     0.031 C 
ATOM     49  C   UNL     1       2.793   3.184   7.177  1.00  0.00     0.029 A 
ATOM     50  N   UNL     1       2.031   3.450   9.261  1.00  0.00    -0.354 N 
ATOM     51  C   UNL     1       2.100   0.234  12.101  1.00  0.00     0.074 A 
ATOM     52  C   UNL     1       2.519  -1.004  11.481  1.00  0.00     0.031 C 
ATOM     53  C   UNL     1       2.393   4.462   7.303  1.00  0.00     0.029 A 
ATOM     54  C   UNL     1       1.861   4.666   8.645  1.00  0.00     0.049 A 
ATOM     55  H   UNL     1       1.808   3.288  10.206  1.00  0.00     0.167 HD
ATOM     56  C   UNL     1       1.815   0.369  13.419  1.00  0.00     0.037 A 
ATOM     57  C   UNL     1       1.327   5.812   9.108  1.00  0.00     0.037 A 
ATOM     58  C   UNL     1       1.392   1.598  14.039  1.00  0.00     0.049 A 
ATOM     59  C   UNL     1       0.884   5.902  10.536  1.00  0.00     0.074 A 
ATOM     60  C   UNL     1       1.126   1.843  15.376  1.00  0.00     0.029 A 
ATOM     61  N   UNL     1       1.154   2.785  13.363  1.00  0.00    -0.354 N 
ATOM     62  N   UNL     1       0.934   4.991  11.477  1.00  0.00    -0.248 NA
ATOM     63  C   UNL     1       0.341   7.195  10.973  1.00  0.00     0.031 C 
ATOM     64  C   UNL     1       0.666   3.159  15.498  1.00  0.00     0.029 A 
ATOM     65  C   UNL     1       0.706   3.755  14.248  1.00  0.00     0.049 A 
ATOM     66  H   UNL     1       1.284   2.921  12.397  1.00  0.00     0.167 HD
ATOM     67  C   UNL     1       0.475   5.614  12.630  1.00  0.00     0.074 A 
ATOM     68  C   UNL     1       0.146   6.978  12.265  1.00  0.00     0.031 C 
ATOM     69  C   UNL     1       0.362   5.106  13.882  1.00  0.00     0.037 A 
BRANCH  56  70
ATOM     70  C   UNL     1       1.934  -0.861  14.273  1.00  0.00     0.057 A 
ATOM     71  C   UNL     1       3.175  -1.440  14.573  1.00  0.00     0.134 A 
ATOM     72  C   UNL     1       0.793  -1.465  14.814  1.00  0.00     0.134 A 
ATOM     73  F   UNL     1       4.307  -0.921  14.074  1.00  0.00    -0.206 F 
ATOM     74  C   UNL     1       3.273  -2.595  15.353  1.00  0.00     0.040 A 
ATOM     75  C   UNL     1       0.880  -2.602  15.619  1.00  0.00     0.040 A 
ATOM     76  F   UNL     1      -0.426  -0.960  14.570  1.00  0.00    -0.206 F 
ATOM     77  C   UNL     1       2.123  -3.175  15.883  1.00  0.00     0.006 A 
ENDBRANCH  56  70
BRANCH  57  78
ATOM     78  C   UNL     1       1.181   6.981   8.209  1.00  0.00     0.057 A 
ATOM     79  C   UNL     1       2.057   8.067   8.266  1.00  0.00     0.134 A 
ATOM     80  C   UNL     1       0.127   7.045   7.293  1.00  0.00     0.134 A 
ATOM     81  F   UNL     1       3.049   8.087   9.169  1.00  0.00    -0.206 F 
ATOM     82  C   UNL     1       1.901   9.173   7.428  1.00  0.00     0.040 A 
ATOM     83  C   UNL     1      -0.020   8.124   6.423  1.00  0.00     0.040 A 
ATOM     84  F   UNL     1      -0.797   6.076   7.269  1.00  0.00    -0.206 F 
ATOM     85  C   UNL     1       0.869   9.195   6.491  1.00  0.00     0.006 A 
ENDBRANCH  57  78
BRANCH  69  86
ATOM     86  C   UNL     1      -0.089   6.052  14.957  1.00  0.00     0.057 A 
ATOM     87  C   UNL     1      -1.395   6.557  15.010  1.00  0.00     0.134 A 
ATOM     88  C   UNL     1       0.809   6.483  15.943  1.00  0.00     0.134 A 
ATOM     89  F   UNL     1      -2.300   6.198  14.087  1.00  0.00    -0.206 F 
ATOM     90  C   UNL     1      -1.778   7.490  15.975  1.00  0.00     0.040 A 
ATOM     91  C   UNL     1       0.428   7.390  16.933  1.00  0.00     0.040 A 
ATOM     92  F   UNL     1       2.073   6.034  15.959  1.00  0.00    -0.206 F 
ATOM     93  C   UNL     1      -0.865   7.907  16.942  1.00  0.00     0.006 A 
ENDBRANCH  69  86
ENDBRANCH  43  44
ENDBRANCH  36  38
ENDBRANCH  35  36
ENDBRANCH  34  35
ENDBRANCH  33  34
ENDBRANCH  32  33
ENDBRANCH  31  32
ENDBRANCH  30  31
ENDBRANCH  29  30
ENDBRANCH   1  29
TORSDOF 24
