REMARK SMILES Cc1sc(-c2ccco2)nc1C(=O)N[C@@H](C(=O)OCCOCCOCCOCCOC(=O)c1ccc(-c2c3nc(c(-c4c(F)cccc4F)c4ccc([nH]4)c(-c4c(F)cccc4F)c4nc(c(-c5c(F)cccc5F)c5ccc2[nH]5)C=C4)C=C3)cc1)C(C)C
REMARK SMILES IDX 23 1 22 2 21 3 20 4 19 5 18 6 16 7 17 8 15 9 14 10 12 11
REMARK SMILES IDX 13 12 11 14 1 15 2 16 3 17 4 18 10 19 5 20 6 21 9 22 7 23
REMARK SMILES IDX 8 24 87 25 88 26 89 27 24 28 25 29 26 30 27 31 28 32 29 33
REMARK SMILES IDX 30 34 31 35 32 36 33 37 34 38 86 39 35 40 85 41 36 42 37 43
REMARK SMILES IDX 38 44 79 45 39 46 84 47 78 48 80 49 40 50 83 51 77 52 76 53
REMARK SMILES IDX 41 55 67 56 50 57 66 58 51 59 54 60 65 61 81 62 52 63 53 64
REMARK SMILES IDX 64 66 82 67 55 68 42 69 43 70 48 71 44 72 45 73 47 74 49 75
REMARK SMILES IDX 46 76 68 77 69 78 74 79 70 80 71 81 73 82 75 83 72 84 56 85
REMARK SMILES IDX 57 86 62 87 58 88 59 89 61 90 63 91 60 92
REMARK H PARENT 14 13 80 54 54 65
REMARK Flexibility Score: inf
ROOT
ATOM      1  C   UNL     1       3.772  -4.758   1.328  1.00  0.00     0.188 C 
ENDROOT
BRANCH   1   2
ATOM      2  C   UNL     1       5.166  -4.116   1.357  1.00  0.00     0.188 C 
BRANCH   2   3
ATOM      3  O   UNL     1       5.747  -3.781   2.600  1.00  0.00    -0.376 OA
BRANCH   3   4
ATOM      4  C   UNL     1       5.161  -2.840   3.485  1.00  0.00     0.202 C 
BRANCH   4   5
ATOM      5  C   UNL     1       4.095  -1.783   3.123  1.00  0.00     0.261 C 
BRANCH   5   6
ATOM      6  O   UNL     1       3.304  -1.997   1.951  1.00  0.00    -0.462 OA
BRANCH   6   7
ATOM      7  C   UNL     1       3.651  -1.299   0.840  1.00  0.00     0.328 C 
ATOM      8  O   UNL     1       4.575  -0.495   0.803  1.00  0.00    -0.250 OA
BRANCH   7   9
ATOM      9  C   UNL     1       2.801  -1.690  -0.403  1.00  0.00     0.195 C 
BRANCH   9  10
ATOM     10  N   UNL     1       1.580  -2.379  -0.035  1.00  0.00    -0.337 N 
ATOM     11  C   UNL     1       0.330  -1.902   0.247  1.00  0.00     0.271 C 
ATOM     12  O   UNL     1      -0.476  -2.783   0.569  1.00  0.00    -0.267 OA
ATOM     13  H   UNL     1       1.665  -3.358   0.023  1.00  0.00     0.164 HD
BRANCH  11  14
ATOM     14  C   UNL     1      -0.107  -0.487   0.114  1.00  0.00     0.142 A 
ATOM     15  C   UNL     1       1.931   1.296   0.218  1.00  0.00     0.059 C 
ATOM     16  C   UNL     1       0.546   0.756   0.044  1.00  0.00     0.035 A 
ATOM     17  S   UNL     1      -0.622   2.001  -0.278  1.00  0.00    -0.115 S 
ATOM     18  C   UNL     1      -1.883   0.897  -0.059  1.00  0.00     0.160 A 
ATOM     19  N   UNL     1      -1.516  -0.342   0.124  1.00  0.00    -0.227 NA
BRANCH  18  20
ATOM     20  C   UNL     1      -3.238   1.345  -0.024  1.00  0.00     0.162 A 
ATOM     21  C   UNL     1      -4.236   1.007   0.874  1.00  0.00     0.053 A 
ATOM     22  O   UNL     1      -3.727   2.287  -0.893  1.00  0.00    -0.462 OA
ATOM     23  C   UNL     1      -5.362   1.806   0.559  1.00  0.00     0.043 A 
ATOM     24  C   UNL     1      -5.007   2.548  -0.539  1.00  0.00     0.196 A 
ENDBRANCH  18  20
ENDBRANCH  11  14
ENDBRANCH   9  10
BRANCH   9  25
ATOM     25  C   UNL     1       3.606  -2.402  -1.521  1.00  0.00     0.017 C 
ATOM     26  C   UNL     1       2.755  -2.498  -2.795  1.00  0.00     0.010 C 
ATOM     27  C   UNL     1       4.901  -1.645  -1.845  1.00  0.00     0.010 C 
ENDBRANCH   9  25
ENDBRANCH   7   9
ENDBRANCH   6   7
ENDBRANCH   5   6
ENDBRANCH   4   5
ENDBRANCH   3   4
ENDBRANCH   2   3
ENDBRANCH   1   2
BRANCH   1  28
ATOM     28  O   UNL     1       3.003  -4.555   2.491  1.00  0.00    -0.377 OA
BRANCH  28  29
ATOM     29  C   UNL     1       3.135  -5.504   3.541  1.00  0.00     0.188 C 
BRANCH  29  30
ATOM     30  C   UNL     1       4.399  -6.387   3.627  1.00  0.00     0.188 C 
BRANCH  30  31
ATOM     31  O   UNL     1       4.847  -6.926   2.392  1.00  0.00    -0.376 OA
BRANCH  31  32
ATOM     32  C   UNL     1       4.426  -8.227   2.006  1.00  0.00     0.202 C 
BRANCH  32  33
ATOM     33  C   UNL     1       2.922  -8.468   1.787  1.00  0.00     0.261 C 
BRANCH  33  34
ATOM     34  O   UNL     1       2.068  -8.242   2.918  1.00  0.00    -0.460 OA
BRANCH  34  35
ATOM     35  C   UNL     1       2.341  -8.913   4.059  1.00  0.00     0.338 C 
ATOM     36  O   UNL     1       3.187  -9.760   4.232  1.00  0.00    -0.246 OA
BRANCH  35  37
ATOM     37  C   UNL     1       1.557  -8.279   5.143  1.00  0.00     0.060 A 
ATOM     38  C   UNL     1       2.240  -7.739   6.240  1.00  0.00     0.016 A 
ATOM     39  C   UNL     1       0.163  -8.220   5.077  1.00  0.00     0.016 A 
ATOM     40  C   UNL     1       1.529  -7.178   7.299  1.00  0.00     0.010 A 
ATOM     41  C   UNL     1      -0.550  -7.682   6.151  1.00  0.00     0.010 A 
ATOM     42  C   UNL     1       0.129  -7.197   7.283  1.00  0.00    -0.014 A 
BRANCH  42  43
ATOM     43  C   UNL     1      -0.615  -6.925   8.535  1.00  0.00     0.031 A 
ATOM     44  C   UNL     1      -1.058  -8.100   9.364  1.00  0.00     0.074 A 
ATOM     45  C   UNL     1      -0.865  -5.671   8.949  1.00  0.00     0.049 A 
ATOM     46  N   UNL     1      -1.760  -8.124  10.467  1.00  0.00    -0.248 NA
ATOM     47  C   UNL     1      -0.653  -9.429   8.877  1.00  0.00     0.031 C 
ATOM     48  C   UNL     1      -0.444  -4.452   8.263  1.00  0.00     0.029 A 
ATOM     49  N   UNL     1      -1.546  -5.221  10.053  1.00  0.00    -0.354 N 
ATOM     50  C   UNL     1      -1.888  -9.467  10.800  1.00  0.00     0.074 A 
ATOM     51  C   UNL     1      -1.220 -10.228   9.768  1.00  0.00     0.031 C 
ATOM     52  C   UNL     1      -0.891  -3.389   8.954  1.00  0.00     0.029 A 
ATOM     53  C   UNL     1      -1.657  -3.854  10.110  1.00  0.00     0.049 A 
ATOM     54  H   UNL     1      -1.918  -5.821  10.738  1.00  0.00     0.167 HD
ATOM     55  C   UNL     1      -2.500 -10.017  11.875  1.00  0.00     0.037 A 
ATOM     56  C   UNL     1      -2.326  -3.073  10.981  1.00  0.00     0.037 A 
ATOM     57  C   UNL     1      -3.169  -9.257  12.897  1.00  0.00     0.049 A 
ATOM     58  C   UNL     1      -3.075  -3.713  12.123  1.00  0.00     0.074 A 
ATOM     59  C   UNL     1      -3.811  -9.719  14.032  1.00  0.00     0.029 A 
ATOM     60  N   UNL     1      -3.292  -7.876  12.900  1.00  0.00    -0.354 N 
ATOM     61  N   UNL     1      -3.174  -4.981  12.444  1.00  0.00    -0.248 NA
ATOM     62  C   UNL     1      -3.804  -2.810  13.026  1.00  0.00     0.031 C 
ATOM     63  C   UNL     1      -4.375  -8.621  14.691  1.00  0.00     0.029 A 
ATOM     64  C   UNL     1      -4.026  -7.470  14.003  1.00  0.00     0.049 A 
ATOM     65  H   UNL     1      -2.914  -7.273  12.220  1.00  0.00     0.167 HD
ATOM     66  C   UNL     1      -3.944  -5.025  13.601  1.00  0.00     0.074 A 
ATOM     67  C   UNL     1      -4.276  -3.655  13.932  1.00  0.00     0.031 C 
ATOM     68  C   UNL     1      -4.340  -6.101  14.325  1.00  0.00     0.037 A 
BRANCH  55  69
ATOM     69  C   UNL     1      -2.502 -11.515  11.977  1.00  0.00     0.057 A 
ATOM     70  C   UNL     1      -1.337 -12.245  12.248  1.00  0.00     0.134 A 
ATOM     71  C   UNL     1      -3.693 -12.236  11.825  1.00  0.00     0.134 A 
ATOM     72  F   UNL     1      -0.159 -11.618  12.387  1.00  0.00    -0.206 F 
ATOM     73  C   UNL     1      -1.352 -13.638  12.336  1.00  0.00     0.040 A 
ATOM     74  C   UNL     1      -3.727 -13.626  11.942  1.00  0.00     0.040 A 
ATOM     75  F   UNL     1      -4.846 -11.600  11.566  1.00  0.00    -0.206 F 
ATOM     76  C   UNL     1      -2.552 -14.332  12.191  1.00  0.00     0.006 A 
ENDBRANCH  55  69
BRANCH  56  77
ATOM     77  C   UNL     1      -2.341  -1.598  10.803  1.00  0.00     0.057 A 
ATOM     78  C   UNL     1      -1.721  -0.747  11.725  1.00  0.00     0.134 A 
ATOM     79  C   UNL     1      -3.005  -1.002   9.724  1.00  0.00     0.134 A 
ATOM     80  F   UNL     1      -1.091  -1.254  12.795  1.00  0.00    -0.206 F 
ATOM     81  C   UNL     1      -1.778   0.642  11.593  1.00  0.00     0.040 A 
ATOM     82  C   UNL     1      -3.045   0.384   9.563  1.00  0.00     0.040 A 
ATOM     83  F   UNL     1      -3.623  -1.760   8.806  1.00  0.00    -0.206 F 
ATOM     84  C   UNL     1      -2.437   1.211  10.505  1.00  0.00     0.006 A 
ENDBRANCH  56  77
BRANCH  68  85
ATOM     85  C   UNL     1      -5.134  -5.842  15.575  1.00  0.00     0.057 A 
ATOM     86  C   UNL     1      -6.456  -5.381  15.537  1.00  0.00     0.134 A 
ATOM     87  C   UNL     1      -4.578  -6.101  16.836  1.00  0.00     0.134 A 
ATOM     88  F   UNL     1      -7.047  -5.104  14.364  1.00  0.00    -0.206 F 
ATOM     89  C   UNL     1      -7.186  -5.161  16.707  1.00  0.00     0.040 A 
ATOM     90  C   UNL     1      -5.309  -5.915  18.010  1.00  0.00     0.040 A 
ATOM     91  F   UNL     1      -3.321  -6.556  16.946  1.00  0.00    -0.206 F 
ATOM     92  C   UNL     1      -6.615  -5.436  17.948  1.00  0.00     0.006 A 
ENDBRANCH  68  85
ENDBRANCH  42  43
ENDBRANCH  35  37
ENDBRANCH  34  35
ENDBRANCH  33  34
ENDBRANCH  32  33
ENDBRANCH  31  32
ENDBRANCH  30  31
ENDBRANCH  29  30
ENDBRANCH  28  29
ENDBRANCH   1  28
TORSDOF 24
