REMARK SMILES CC1(C)[C@H](O)CC[C@@]2(C)[C@@H]1CC[C@]1(C)Oc3oc(C(=O)OCCOCCOCCOCCOC(=O)c4ccc(-c5c6nc(c(-c7c(F)cccc7F)c7ccc([nH]7)c(-c7c(F)cccc7F)c7nc(c(-c8c(F)cccc8F)c8ccc5[nH]8)C=C7)C=C6)cc4)cc(=O)c3C[C@@H]21
REMARK SMILES IDX 28 1 27 2 26 3 25 4 24 5 23 6 22 7 21 8 19 9 20 10 18 11
REMARK SMILES IDX 1 12 2 13 4 14 10 15 3 16 6 17 8 18 11 19 7 20 95 21 9 22
REMARK SMILES IDX 12 23 13 24 94 25 15 26 14 27 93 28 16 29 91 30 17 31 90 32
REMARK SMILES IDX 92 33 5 34 29 36 30 37 31 38 32 39 33 40 34 41 35 42 36 43
REMARK SMILES IDX 37 44 89 45 38 46 88 47 39 48 40 49 41 50 82 51 42 52 87 53
REMARK SMILES IDX 81 54 83 55 43 56 86 57 80 58 79 59 44 61 70 62 53 63 69 64
REMARK SMILES IDX 54 65 57 66 68 67 84 68 55 69 56 70 67 72 85 73 58 74 45 75
REMARK SMILES IDX 46 76 51 77 47 78 48 79 50 80 52 81 49 82 71 83 72 84 77 85
REMARK SMILES IDX 73 86 74 87 76 88 78 89 75 90 59 91 60 92 65 93 61 94 62 95
REMARK SMILES IDX 64 96 66 97 63 98
REMARK H PARENT 5 35 83 60 57 71
REMARK Flexibility Score: inf
ROOT
ATOM      1  C   UNL     1      -1.367   6.827  -1.147  1.00  0.00     0.188 C 
ENDROOT
BRANCH   1   2
ATOM      2  O   UNL     1      -1.466   5.439  -1.403  1.00  0.00    -0.377 OA
BRANCH   2   3
ATOM      3  C   UNL     1      -2.146   4.626  -0.452  1.00  0.00     0.188 C 
BRANCH   3   4
ATOM      4  C   UNL     1      -2.835   5.187   0.828  1.00  0.00     0.188 C 
BRANCH   4   5
ATOM      5  O   UNL     1      -2.291   6.415   1.288  1.00  0.00    -0.376 OA
BRANCH   5   6
ATOM      6  C   UNL     1      -1.685   6.513   2.560  1.00  0.00     0.202 C 
BRANCH   6   7
ATOM      7  C   UNL     1      -0.308   5.867   2.668  1.00  0.00     0.261 C 
BRANCH   7   8
ATOM      8  O   UNL     1      -0.260   4.537   2.170  1.00  0.00    -0.457 OA
BRANCH   8   9
ATOM      9  C   UNL     1      -1.063   3.580   2.725  1.00  0.00     0.374 C 
ATOM     10  O   UNL     1      -1.754   3.673   3.696  1.00  0.00    -0.242 OA
BRANCH   9  11
ATOM     11  C   UNL     1      -1.014   2.451   1.755  1.00  0.00     0.219 A 
ATOM     12  C   UNL     1       1.087  -2.251  -0.522  1.00  0.00     0.014 C 
ATOM     13  C   UNL     1       0.026  -2.697   0.830  1.00  0.00    -0.006 C 
ATOM     14  C   UNL     1      -0.039  -4.139   1.502  1.00  0.00     0.120 C 
ATOM     15  C   UNL     1      -1.435  -3.500  -0.073  1.00  0.00     0.004 C 
ATOM     16  C   UNL     1       1.543  -2.589   1.578  1.00  0.00     0.014 C 
ATOM     17  C   UNL     1       0.532  -5.059   0.386  1.00  0.00     0.033 C 
ATOM     18  C   UNL     1      -1.043  -3.274  -1.464  1.00  0.00    -0.022 C 
ATOM     19  C   UNL     1      -3.015  -3.431   0.108  1.00  0.00     0.009 C 
ATOM     20  C   UNL     1       0.238  -4.482  -1.186  1.00  0.00     0.010 C 
ATOM     21  C   UNL     1      -1.502  -1.541  -1.307  1.00  0.00     0.044 C 
ATOM     22  C   UNL     1      -1.785  -3.873  -2.665  1.00  0.00     0.012 C 
ATOM     23  C   UNL     1      -3.700  -2.143  -0.312  1.00  0.00     0.049 C 
ATOM     24  C   UNL     1      -2.616  -1.119  -0.115  1.00  0.00     0.113 C 
ATOM     25  C   UNL     1      -0.675  -0.242  -1.586  1.00  0.00     0.055 C 
ATOM     26  O   UNL     1      -3.072   0.252  -0.358  1.00  0.00    -0.458 OA
ATOM     27  C   UNL     1      -2.356  -1.167   1.453  1.00  0.00     0.057 C 
ATOM     28  C   UNL     1      -0.782   0.739  -0.441  1.00  0.00     0.081 A 
ATOM     29  C   UNL     1      -1.993   1.067   0.053  1.00  0.00     0.292 A 
ATOM     30  C   UNL     1       0.329   1.046   0.475  1.00  0.00     0.192 A 
ATOM     31  O   UNL     1      -2.157   1.863   1.211  1.00  0.00    -0.418 OA
ATOM     32  C   UNL     1       0.218   2.170   1.354  1.00  0.00     0.107 A 
ATOM     33  O   UNL     1       1.295   0.342   0.696  1.00  0.00    -0.289 OA
BRANCH  14  34
ATOM     34  O   UNL     1       0.447  -4.315   2.833  1.00  0.00    -0.393 OA
ATOM     35  H   UNL     1       1.399  -4.131   2.857  1.00  0.00     0.210 HD
ENDBRANCH  14  34
ENDBRANCH   9  11
ENDBRANCH   8   9
ENDBRANCH   7   8
ENDBRANCH   6   7
ENDBRANCH   5   6
ENDBRANCH   4   5
ENDBRANCH   3   4
ENDBRANCH   2   3
ENDBRANCH   1   2
BRANCH   1  36
ATOM     36  C   UNL     1      -2.714   7.580  -1.173  1.00  0.00     0.188 C 
BRANCH  36  37
ATOM     37  O   UNL     1      -3.844   6.729  -1.122  1.00  0.00    -0.376 OA
BRANCH  37  38
ATOM     38  C   UNL     1      -4.512   6.326  -2.300  1.00  0.00     0.202 C 
BRANCH  38  39
ATOM     39  C   UNL     1      -3.768   5.885  -3.570  1.00  0.00     0.261 C 
BRANCH  39  40
ATOM     40  O   UNL     1      -2.548   6.553  -3.896  1.00  0.00    -0.460 OA
BRANCH  40  41
ATOM     41  C   UNL     1      -2.624   7.825  -4.335  1.00  0.00     0.338 C 
ATOM     42  O   UNL     1      -3.620   8.506  -4.482  1.00  0.00    -0.246 OA
BRANCH  41  43
ATOM     43  C   UNL     1      -1.232   8.308  -4.433  1.00  0.00     0.060 A 
ATOM     44  C   UNL     1      -0.763   9.269  -3.524  1.00  0.00     0.016 A 
ATOM     45  C   UNL     1      -0.383   7.763  -5.396  1.00  0.00     0.016 A 
ATOM     46  C   UNL     1       0.567   9.674  -3.564  1.00  0.00     0.010 A 
ATOM     47  C   UNL     1       0.932   8.218  -5.479  1.00  0.00     0.010 A 
ATOM     48  C   UNL     1       1.401   9.189  -4.577  1.00  0.00    -0.014 A 
BRANCH  48  49
ATOM     49  C   UNL     1       2.666   9.894  -4.863  1.00  0.00     0.031 A 
ATOM     50  C   UNL     1       2.604  11.062  -5.805  1.00  0.00     0.074 A 
ATOM     51  C   UNL     1       3.827   9.514  -4.308  1.00  0.00     0.049 A 
ATOM     52  N   UNL     1       3.572  11.798  -6.282  1.00  0.00    -0.248 NA
ATOM     53  C   UNL     1       1.261  11.451  -6.272  1.00  0.00     0.031 C 
ATOM     54  C   UNL     1       3.994   8.436  -3.336  1.00  0.00     0.029 A 
ATOM     55  N   UNL     1       5.096   9.995  -4.503  1.00  0.00    -0.354 N 
ATOM     56  C   UNL     1       2.956  12.737  -7.099  1.00  0.00     0.074 A 
ATOM     57  C   UNL     1       1.537  12.463  -7.077  1.00  0.00     0.031 C 
ATOM     58  C   UNL     1       5.301   8.320  -3.038  1.00  0.00     0.029 A 
ATOM     59  C   UNL     1       6.059   9.291  -3.825  1.00  0.00     0.049 A 
ATOM     60  H   UNL     1       5.296  10.771  -5.075  1.00  0.00     0.167 HD
ATOM     61  C   UNL     1       3.524  13.742  -7.803  1.00  0.00     0.037 A 
ATOM     62  C   UNL     1       7.400   9.406  -3.871  1.00  0.00     0.037 A 
ATOM     63  C   UNL     1       4.940  13.983  -7.852  1.00  0.00     0.049 A 
ATOM     64  C   UNL     1       8.016  10.453  -4.766  1.00  0.00     0.074 A 
ATOM     65  C   UNL     1       5.624  14.966  -8.544  1.00  0.00     0.029 A 
ATOM     66  N   UNL     1       5.890  13.218  -7.194  1.00  0.00    -0.354 N 
ATOM     67  N   UNL     1       7.431  11.353  -5.520  1.00  0.00    -0.248 NA
ATOM     68  C   UNL     1       9.485  10.497  -4.815  1.00  0.00     0.031 C 
ATOM     69  C   UNL     1       6.993  14.757  -8.353  1.00  0.00     0.029 A 
ATOM     70  C   UNL     1       7.159  13.687  -7.488  1.00  0.00     0.049 A 
ATOM     71  H   UNL     1       5.692  12.454  -6.605  1.00  0.00     0.167 HD
ATOM     72  C   UNL     1       8.457  12.091  -6.101  1.00  0.00     0.074 A 
ATOM     73  C   UNL     1       9.699  11.543  -5.598  1.00  0.00     0.031 C 
ATOM     74  C   UNL     1       8.383  13.130  -6.970  1.00  0.00     0.037 A 
BRANCH  61  75
ATOM     75  C   UNL     1       2.610  14.618  -8.606  1.00  0.00     0.057 A 
ATOM     76  C   UNL     1       2.620  14.565 -10.005  1.00  0.00     0.134 A 
ATOM     77  C   UNL     1       1.723  15.518  -7.999  1.00  0.00     0.134 A 
ATOM     78  F   UNL     1       3.441  13.723 -10.650  1.00  0.00    -0.206 F 
ATOM     79  C   UNL     1       1.786  15.380 -10.772  1.00  0.00     0.040 A 
ATOM     80  C   UNL     1       0.863  16.317  -8.754  1.00  0.00     0.040 A 
ATOM     81  F   UNL     1       1.647  15.600  -6.661  1.00  0.00    -0.206 F 
ATOM     82  C   UNL     1       0.899  16.254 -10.146  1.00  0.00     0.006 A 
ENDBRANCH  61  75
BRANCH  62  83
ATOM     83  C   UNL     1       8.268   8.495  -3.080  1.00  0.00     0.057 A 
ATOM     84  C   UNL     1       8.362   7.130  -3.381  1.00  0.00     0.134 A 
ATOM     85  C   UNL     1       9.082   8.984  -2.051  1.00  0.00     0.134 A 
ATOM     86  F   UNL     1       7.611   6.597  -4.355  1.00  0.00    -0.206 F 
ATOM     87  C   UNL     1       9.237   6.288  -2.692  1.00  0.00     0.040 A 
ATOM     88  C   UNL     1       9.983   8.159  -1.375  1.00  0.00     0.040 A 
ATOM     89  F   UNL     1       9.057  10.286  -1.732  1.00  0.00    -0.206 F 
ATOM     90  C   UNL     1      10.061   6.805  -1.696  1.00  0.00     0.006 A 
ENDBRANCH  62  83
BRANCH  74  91
ATOM     91  C   UNL     1       9.677  13.770  -7.388  1.00  0.00     0.057 A 
ATOM     92  C   UNL     1       9.994  15.068  -6.968  1.00  0.00     0.134 A 
ATOM     93  C   UNL     1      10.597  13.118  -8.220  1.00  0.00     0.134 A 
ATOM     94  F   UNL     1       9.152  15.756  -6.182  1.00  0.00    -0.206 F 
ATOM     95  C   UNL     1      11.179  15.694  -7.356  1.00  0.00     0.040 A 
ATOM     96  C   UNL     1      11.802  13.720  -8.586  1.00  0.00     0.040 A 
ATOM     97  F   UNL     1      10.360  11.869  -8.649  1.00  0.00    -0.206 F 
ATOM     98  C   UNL     1      12.093  15.014  -8.159  1.00  0.00     0.006 A 
ENDBRANCH  74  91
ENDBRANCH  48  49
ENDBRANCH  41  43
ENDBRANCH  40  41
ENDBRANCH  39  40
ENDBRANCH  38  39
ENDBRANCH  37  38
ENDBRANCH  36  37
ENDBRANCH   1  36
TORSDOF 21
