REMARK SMILES CCCN1C(=O)CO[C@H](C(=O)OCCOCCOCCOCCOC(=O)c2ccc(-c3c4nc(c(-c5c(F)cccc5F)c5ccc([nH]5)c(-c5c(F)cccc5F)c5nc(c(-c6c(F)cccc6F)c6ccc3[nH]6)C=C5)C=C4)cc2)[C@@H]1c1cncn1C1CC1
REMARK SMILES IDX 18 1 17 2 16 3 15 4 14 5 13 6 12 7 10 8 11 9 9 10 4 11 5 12
REMARK SMILES IDX 81 13 6 14 7 15 8 16 3 17 2 18 1 19 82 20 83 21 86 22 84 23
REMARK SMILES IDX 85 24 87 25 88 26 89 27 19 28 20 29 21 30 22 31 23 32 24 33
REMARK SMILES IDX 25 34 26 35 27 36 28 37 80 38 29 39 79 40 30 41 31 42 32 43
REMARK SMILES IDX 73 44 33 45 78 46 72 47 74 48 34 49 77 50 71 51 70 52 35 54
REMARK SMILES IDX 61 55 44 56 60 57 45 58 48 59 59 60 75 61 46 62 47 63 58 65
REMARK SMILES IDX 76 66 49 67 36 68 37 69 42 70 38 71 39 72 41 73 43 74 40 75
REMARK SMILES IDX 62 76 63 77 68 78 64 79 65 80 67 81 69 82 66 83 50 84 51 85
REMARK SMILES IDX 56 86 52 87 53 88 55 89 57 90 54 91
REMARK H PARENT 74 53 48 64
REMARK Flexibility Score: inf
ROOT
ATOM      1  O   UNL     1       0.245  -5.428  -3.054  1.00  0.00    -0.377 OA
ENDROOT
BRANCH   1   2
ATOM      2  C   UNL     1       0.284  -4.907  -4.367  1.00  0.00     0.188 C 
BRANCH   2   3
ATOM      3  C   UNL     1       1.664  -4.994  -5.049  1.00  0.00     0.188 C 
BRANCH   3   4
ATOM      4  O   UNL     1       2.671  -5.886  -4.581  1.00  0.00    -0.376 OA
BRANCH   4   5
ATOM      5  C   UNL     1       2.973  -6.013  -3.198  1.00  0.00     0.202 C 
BRANCH   5   6
ATOM      6  C   UNL     1       3.131  -4.788  -2.296  1.00  0.00     0.261 C 
BRANCH   6   7
ATOM      7  O   UNL     1       2.194  -3.739  -2.551  1.00  0.00    -0.461 OA
BRANCH   7   8
ATOM      8  C   UNL     1       2.688  -2.610  -3.096  1.00  0.00     0.337 C 
ATOM      9  O   UNL     1       3.870  -2.414  -3.360  1.00  0.00    -0.249 OA
BRANCH   8  10
ATOM     10  C   UNL     1       1.618  -1.538  -3.302  1.00  0.00     0.257 C 
ATOM     11  N   UNL     1       1.011   0.671  -2.454  1.00  0.00    -0.329 N 
ATOM     12  C   UNL     1       0.085   0.716  -3.511  1.00  0.00     0.249 C 
ATOM     13  C   UNL     1       1.595  -0.606  -2.078  1.00  0.00     0.174 C 
ATOM     14  O   UNL     1      -0.343   1.767  -3.988  1.00  0.00    -0.272 OA
ATOM     15  C   UNL     1      -0.365  -0.647  -4.102  1.00  0.00     0.261 C 
ATOM     16  O   UNL     1       0.273  -1.827  -3.637  1.00  0.00    -0.354 OA
BRANCH  11  17
ATOM     17  C   UNL     1       1.691   1.901  -2.025  1.00  0.00     0.120 C 
BRANCH  17  18
ATOM     18  C   UNL     1       1.598   2.227  -0.532  1.00  0.00     0.018 C 
ATOM     19  C   UNL     1       2.574   1.498   0.380  1.00  0.00     0.006 C 
ENDBRANCH  17  18
ENDBRANCH  11  17
BRANCH  13  20
ATOM     20  C   UNL     1       1.064  -1.242  -0.802  1.00  0.00     0.064 A 
ATOM     21  C   UNL     1       1.839  -2.150  -0.065  1.00  0.00     0.136 A 
ATOM     22  N   UNL     1      -0.060  -1.101   0.006  1.00  0.00    -0.330 N 
ATOM     23  N   UNL     1       1.234  -2.599   1.060  1.00  0.00    -0.245 NA
ATOM     24  C   UNL     1       0.094  -1.967   1.070  1.00  0.00     0.199 A 
BRANCH  22  25
ATOM     25  C   UNL     1      -1.267  -0.290   0.032  1.00  0.00     0.088 C 
ATOM     26  C   UNL     1      -1.697   0.908  -0.759  1.00  0.00     0.027 C 
ATOM     27  C   UNL     1      -2.337  -0.411  -1.028  1.00  0.00     0.027 C 
ENDBRANCH  22  25
ENDBRANCH  13  20
ENDBRANCH   8  10
ENDBRANCH   7   8
ENDBRANCH   6   7
ENDBRANCH   5   6
ENDBRANCH   4   5
ENDBRANCH   3   4
ENDBRANCH   2   3
ENDBRANCH   1   2
BRANCH   1  28
ATOM     28  C   UNL     1      -0.316  -6.724  -2.908  1.00  0.00     0.188 C 
BRANCH  28  29
ATOM     29  C   UNL     1       0.038  -7.781  -3.978  1.00  0.00     0.188 C 
BRANCH  29  30
ATOM     30  O   UNL     1      -0.133  -7.342  -5.318  1.00  0.00    -0.376 OA
BRANCH  30  31
ATOM     31  C   UNL     1      -1.328  -7.676  -6.007  1.00  0.00     0.202 C 
BRANCH  31  32
ATOM     32  C   UNL     1      -2.656  -7.108  -5.475  1.00  0.00     0.261 C 
BRANCH  32  33
ATOM     33  O   UNL     1      -2.982  -7.416  -4.111  1.00  0.00    -0.460 OA
BRANCH  33  34
ATOM     34  C   UNL     1      -3.080  -8.716  -3.775  1.00  0.00     0.338 C 
ATOM     35  O   UNL     1      -2.997  -9.678  -4.525  1.00  0.00    -0.246 OA
BRANCH  34  36
ATOM     36  C   UNL     1      -3.102  -8.815  -2.303  1.00  0.00     0.060 A 
ATOM     37  C   UNL     1      -2.117  -9.584  -1.669  1.00  0.00     0.016 A 
ATOM     38  C   UNL     1      -4.099  -8.185  -1.554  1.00  0.00     0.016 A 
ATOM     39  C   UNL     1      -2.166  -9.782  -0.292  1.00  0.00     0.010 A 
ATOM     40  C   UNL     1      -4.162  -8.405  -0.175  1.00  0.00     0.010 A 
ATOM     41  C   UNL     1      -3.227  -9.249   0.450  1.00  0.00    -0.014 A 
BRANCH  41  42
ATOM     42  C   UNL     1      -3.483  -9.790   1.806  1.00  0.00     0.031 A 
ATOM     43  C   UNL     1      -4.513 -10.880   1.950  1.00  0.00     0.074 A 
ATOM     44  C   UNL     1      -2.774  -9.382   2.872  1.00  0.00     0.049 A 
ATOM     45  N   UNL     1      -4.904 -11.521   3.021  1.00  0.00    -0.248 NA
ATOM     46  C   UNL     1      -5.195 -11.304   0.715  1.00  0.00     0.031 C 
ATOM     47  C   UNL     1      -1.722  -8.368   2.852  1.00  0.00     0.029 A 
ATOM     48  N   UNL     1      -2.837  -9.779   4.184  1.00  0.00    -0.354 N 
ATOM     49  C   UNL     1      -5.880 -12.412   2.591  1.00  0.00     0.074 A 
ATOM     50  C   UNL     1      -6.047 -12.209   1.170  1.00  0.00     0.031 C 
ATOM     51  C   UNL     1      -1.244  -8.214   4.100  1.00  0.00     0.029 A 
ATOM     52  C   UNL     1      -1.974  -9.098   5.007  1.00  0.00     0.049 A 
ATOM     53  H   UNL     1      -3.444 -10.485   4.504  1.00  0.00     0.167 HD
ATOM     54  C   UNL     1      -6.570 -13.325   3.314  1.00  0.00     0.037 A 
ATOM     55  C   UNL     1      -1.811  -9.171   6.342  1.00  0.00     0.037 A 
ATOM     56  C   UNL     1      -6.397 -13.530   4.728  1.00  0.00     0.049 A 
ATOM     57  C   UNL     1      -2.631 -10.159   7.133  1.00  0.00     0.074 A 
ATOM     58  C   UNL     1      -7.031 -14.446   5.548  1.00  0.00     0.029 A 
ATOM     59  N   UNL     1      -5.532 -12.803   5.531  1.00  0.00    -0.354 N 
ATOM     60  N   UNL     1      -3.530 -11.018   6.714  1.00  0.00    -0.248 NA
ATOM     61  C   UNL     1      -2.401 -10.197   8.584  1.00  0.00     0.031 C 
ATOM     62  C   UNL     1      -6.596 -14.231   6.860  1.00  0.00     0.029 A 
ATOM     63  C   UNL     1      -5.637 -13.231   6.845  1.00  0.00     0.049 A 
ATOM     64  H   UNL     1      -4.933 -12.089   5.215  1.00  0.00     0.167 HD
ATOM     65  C   UNL     1      -3.945 -11.719   7.841  1.00  0.00     0.074 A 
ATOM     66  C   UNL     1      -3.184 -11.197   8.957  1.00  0.00     0.031 C 
ATOM     67  C   UNL     1      -4.869 -12.706   7.945  1.00  0.00     0.037 A 
BRANCH  54  68
ATOM     68  C   UNL     1      -7.601 -14.146   2.595  1.00  0.00     0.057 A 
ATOM     69  C   UNL     1      -7.254 -15.141   1.673  1.00  0.00     0.134 A 
ATOM     70  C   UNL     1      -8.964 -13.961   2.861  1.00  0.00     0.134 A 
ATOM     71  F   UNL     1      -5.968 -15.358   1.357  1.00  0.00    -0.206 F 
ATOM     72  C   UNL     1      -8.225 -15.909   1.027  1.00  0.00     0.040 A 
ATOM     73  C   UNL     1      -9.942 -14.742   2.245  1.00  0.00     0.040 A 
ATOM     74  F   UNL     1      -9.367 -13.025   3.734  1.00  0.00    -0.206 F 
ATOM     75  C   UNL     1      -9.574 -15.716   1.320  1.00  0.00     0.006 A 
ENDBRANCH  54  68
BRANCH  55  76
ATOM     76  C   UNL     1      -0.848  -8.271   7.029  1.00  0.00     0.057 A 
ATOM     77  C   UNL     1       0.294  -8.770   7.668  1.00  0.00     0.134 A 
ATOM     78  C   UNL     1      -1.073  -6.891   7.103  1.00  0.00     0.134 A 
ATOM     79  F   UNL     1       0.554 -10.086   7.655  1.00  0.00    -0.206 F 
ATOM     80  C   UNL     1       1.159  -7.936   8.379  1.00  0.00     0.040 A 
ATOM     81  C   UNL     1      -0.200  -6.041   7.784  1.00  0.00     0.040 A 
ATOM     82  F   UNL     1      -2.149  -6.347   6.514  1.00  0.00    -0.206 F 
ATOM     83  C   UNL     1       0.914  -6.566   8.435  1.00  0.00     0.006 A 
ENDBRANCH  55  76
BRANCH  67  84
ATOM     84  C   UNL     1      -5.069 -13.322   9.302  1.00  0.00     0.057 A 
ATOM     85  C   UNL     1      -5.649 -12.619  10.366  1.00  0.00     0.134 A 
ATOM     86  C   UNL     1      -4.684 -14.649   9.543  1.00  0.00     0.134 A 
ATOM     87  F   UNL     1      -6.035 -11.343  10.207  1.00  0.00    -0.206 F 
ATOM     88  C   UNL     1      -5.798 -13.195  11.629  1.00  0.00     0.040 A 
ATOM     89  C   UNL     1      -4.860 -15.248  10.791  1.00  0.00     0.040 A 
ATOM     90  F   UNL     1      -4.136 -15.388   8.566  1.00  0.00    -0.206 F 
ATOM     91  C   UNL     1      -5.407 -14.516  11.842  1.00  0.00     0.006 A 
ENDBRANCH  67  84
ENDBRANCH  41  42
ENDBRANCH  34  36
ENDBRANCH  33  34
ENDBRANCH  32  33
ENDBRANCH  31  32
ENDBRANCH  30  31
ENDBRANCH  29  30
ENDBRANCH  28  29
ENDBRANCH   1  28
TORSDOF 24
