REMARK SMILES CC1=C(C(=O)OCCOCCOCCOCCOC(=O)c2ccc(-c3c4nc(c(-c5c(F)cccc5F)c5ccc([nH]5)c(-c5c(F)cccc5F)c5nc(c(-c6c(F)cccc6F)c6ccc3[nH]6)C=C5)C=C4)cc2)N2C(=O)[C@H](NC(=O)c3c(Cl)c(C(F)(F)F)nn3C)[C@@H]2SC1
REMARK SMILES IDX 11 1 10 2 9 3 8 4 7 5 6 6 4 7 5 8 3 9 1 10 2 11 95 12 75 13
REMARK SMILES IDX 94 14 76 15 93 16 77 17 78 18 79 19 80 20 81 22 82 23 83 24
REMARK SMILES IDX 91 25 84 26 85 27 90 28 92 29 86 30 87 31 88 32 89 33 12 34
REMARK SMILES IDX 13 35 14 36 15 37 16 38 17 39 18 40 19 41 20 42 21 43 22 44
REMARK SMILES IDX 74 45 23 46 73 47 24 48 25 49 26 50 67 51 27 52 72 53 66 54
REMARK SMILES IDX 68 55 28 56 71 57 65 58 64 59 29 61 55 62 38 63 54 64 39 65
REMARK SMILES IDX 42 66 53 67 69 68 40 69 41 70 52 72 70 73 43 74 30 75 31 76
REMARK SMILES IDX 36 77 32 78 33 79 35 80 37 81 34 82 56 83 57 84 62 85 58 86
REMARK SMILES IDX 59 87 61 88 63 89 60 90 44 91 45 92 50 93 46 94 47 95 49 96
REMARK SMILES IDX 51 97 48 98
REMARK H PARENT 79 21 68 60 42 71
REMARK Flexibility Score: inf
ROOT
ATOM      1  C   UNL     1      -1.241  -3.051  -0.456  1.00  0.00     0.188 C 
ENDROOT
BRANCH   1   2
ATOM      2  C   UNL     1      -0.392  -4.258  -0.902  1.00  0.00     0.188 C 
BRANCH   2   3
ATOM      3  O   UNL     1       0.344  -4.888   0.142  1.00  0.00    -0.376 OA
BRANCH   3   4
ATOM      4  C   UNL     1       1.760  -4.840  -0.002  1.00  0.00     0.202 C 
BRANCH   4   5
ATOM      5  C   UNL     1       2.349  -3.506   0.455  1.00  0.00     0.261 C 
BRANCH   5   6
ATOM      6  O   UNL     1       1.750  -2.394  -0.226  1.00  0.00    -0.459 OA
BRANCH   6   7
ATOM      7  C   UNL     1       2.226  -2.091  -1.456  1.00  0.00     0.355 C 
ATOM      8  O   UNL     1       3.179  -2.613  -2.007  1.00  0.00    -0.244 OA
BRANCH   7   9
ATOM      9  C   UNL     1       1.316  -1.072  -2.083  1.00  0.00     0.131 C 
ATOM     10  C   UNL     1       1.448   0.415  -0.052  1.00  0.00     0.043 C 
ATOM     11  C   UNL     1       1.010   0.097  -1.463  1.00  0.00    -0.032 C 
ATOM     12  C   UNL     1       0.190   1.207  -2.096  1.00  0.00     0.105 C 
ATOM     13  N   UNL     1       0.777  -1.369  -3.298  1.00  0.00    -0.289 N 
ATOM     14  S   UNL     1       0.047   1.086  -3.909  1.00  0.00    -0.129 SA
ATOM     15  C   UNL     1       0.790  -2.376  -4.197  1.00  0.00     0.253 C 
ATOM     16  C   UNL     1      -0.359  -0.669  -3.857  1.00  0.00     0.181 C 
ATOM     17  O   UNL     1       1.316  -3.459  -4.221  1.00  0.00    -0.272 OA
ATOM     18  C   UNL     1      -0.156  -1.531  -5.142  1.00  0.00     0.206 C 
BRANCH  18  19
ATOM     19  N   UNL     1       0.533  -0.897  -6.293  1.00  0.00    -0.336 N 
ATOM     20  C   UNL     1       0.152  -0.800  -7.607  1.00  0.00     0.271 C 
ATOM     21  H   UNL     1       1.399  -0.481  -6.080  1.00  0.00     0.164 HD
ATOM     22  O   UNL     1       0.966  -0.345  -8.406  1.00  0.00    -0.267 OA
BRANCH  20  23
ATOM     23  C   UNL     1      -1.164  -1.223  -8.000  1.00  0.00     0.145 A 
ATOM     24  C   UNL     1      -1.513  -2.080  -9.029  1.00  0.00     0.104 A 
ATOM     25  N   UNL     1      -2.357  -0.725  -7.549  1.00  0.00    -0.261 N 
ATOM     26  Cl  UNL     1      -0.476  -2.946 -10.059  1.00  0.00    -0.079 Cl
ATOM     27  C   UNL     1      -2.929  -2.099  -9.071  1.00  0.00     0.185 A 
ATOM     28  N   UNL     1      -3.437  -1.304  -8.107  1.00  0.00    -0.166 NA
ATOM     29  C   UNL     1      -2.579   0.365  -6.627  1.00  0.00     0.174 C 
BRANCH  27  30
ATOM     30  C   UNL     1      -3.782  -2.861 -10.045  1.00  0.00     0.436 C 
ATOM     31  F   UNL     1      -3.594  -2.433 -11.323  1.00  0.00    -0.164 F 
ATOM     32  F   UNL     1      -3.504  -4.192 -10.034  1.00  0.00    -0.164 F 
ATOM     33  F   UNL     1      -5.115  -2.747  -9.795  1.00  0.00    -0.164 F 
ENDBRANCH  27  30
ENDBRANCH  20  23
ENDBRANCH  18  19
ENDBRANCH   7   9
ENDBRANCH   6   7
ENDBRANCH   5   6
ENDBRANCH   4   5
ENDBRANCH   3   4
ENDBRANCH   2   3
ENDBRANCH   1   2
BRANCH   1  34
ATOM     34  O   UNL     1      -1.207  -2.630   0.897  1.00  0.00    -0.377 OA
BRANCH  34  35
ATOM     35  C   UNL     1      -1.332  -3.600   1.931  1.00  0.00     0.188 C 
BRANCH  35  36
ATOM     36  C   UNL     1      -2.115  -4.909   1.696  1.00  0.00     0.188 C 
BRANCH  36  37
ATOM     37  O   UNL     1      -2.946  -4.911   0.542  1.00  0.00    -0.376 OA
BRANCH  37  38
ATOM     38  C   UNL     1      -4.346  -4.846   0.775  1.00  0.00     0.202 C 
BRANCH  38  39
ATOM     39  C   UNL     1      -4.837  -3.457   1.202  1.00  0.00     0.261 C 
BRANCH  39  40
ATOM     40  O   UNL     1      -4.338  -3.014   2.474  1.00  0.00    -0.460 OA
BRANCH  40  41
ATOM     41  C   UNL     1      -4.675  -3.765   3.545  1.00  0.00     0.338 C 
ATOM     42  O   UNL     1      -5.395  -4.746   3.566  1.00  0.00    -0.246 OA
BRANCH  41  43
ATOM     43  C   UNL     1      -3.882  -3.300   4.695  1.00  0.00     0.060 A 
ATOM     44  C   UNL     1      -3.075  -4.222   5.371  1.00  0.00     0.016 A 
ATOM     45  C   UNL     1      -3.963  -1.972   5.120  1.00  0.00     0.016 A 
ATOM     46  C   UNL     1      -2.388  -3.829   6.517  1.00  0.00     0.010 A 
ATOM     47  C   UNL     1      -3.287  -1.583   6.277  1.00  0.00     0.010 A 
ATOM     48  C   UNL     1      -2.535  -2.522   7.003  1.00  0.00    -0.014 A 
BRANCH  48  49
ATOM     49  C   UNL     1      -2.097  -2.212   8.382  1.00  0.00     0.031 A 
ATOM     50  C   UNL     1      -3.112  -2.323   9.488  1.00  0.00     0.074 A 
ATOM     51  C   UNL     1      -0.826  -1.875   8.656  1.00  0.00     0.049 A 
ATOM     52  N   UNL     1      -2.968  -2.120  10.772  1.00  0.00    -0.248 NA
ATOM     53  C   UNL     1      -4.474  -2.716   9.088  1.00  0.00     0.031 C 
ATOM     54  C   UNL     1       0.251  -1.759   7.676  1.00  0.00     0.029 A 
ATOM     55  N   UNL     1      -0.231  -1.566   9.853  1.00  0.00    -0.354 N 
ATOM     56  C   UNL     1      -4.216  -2.365  11.331  1.00  0.00     0.074 A 
ATOM     57  C   UNL     1      -5.114  -2.692  10.246  1.00  0.00     0.031 C 
ATOM     58  C   UNL     1       1.379  -1.399   8.313  1.00  0.00     0.029 A 
ATOM     59  C   UNL     1       1.097  -1.241   9.739  1.00  0.00     0.049 A 
ATOM     60  H   UNL     1      -0.712  -1.577  10.712  1.00  0.00     0.167 HD
ATOM     61  C   UNL     1      -4.580  -2.334  12.634  1.00  0.00     0.037 A 
ATOM     62  C   UNL     1       1.978  -0.853  10.682  1.00  0.00     0.037 A 
ATOM     63  C   UNL     1      -3.691  -2.001  13.713  1.00  0.00     0.049 A 
ATOM     64  C   UNL     1       1.534  -0.767  12.119  1.00  0.00     0.074 A 
ATOM     65  C   UNL     1      -3.959  -1.952  15.069  1.00  0.00     0.029 A 
ATOM     66  N   UNL     1      -2.358  -1.652  13.554  1.00  0.00    -0.354 N 
ATOM     67  N   UNL     1       0.362  -1.037  12.643  1.00  0.00    -0.248 NA
ATOM     68  C   UNL     1       2.540  -0.330  13.098  1.00  0.00     0.031 C 
ATOM     69  C   UNL     1      -2.800  -1.531  15.728  1.00  0.00     0.029 A 
ATOM     70  C   UNL     1      -1.796  -1.364  14.786  1.00  0.00     0.049 A 
ATOM     71  H   UNL     1      -1.883  -1.613  12.693  1.00  0.00     0.167 HD
ATOM     72  C   UNL     1       0.498  -0.833  14.011  1.00  0.00     0.074 A 
ATOM     73  C   UNL     1       1.870  -0.427  14.238  1.00  0.00     0.031 C 
ATOM     74  C   UNL     1      -0.427  -0.970  14.993  1.00  0.00     0.037 A 
BRANCH  61  75
ATOM     75  C   UNL     1      -6.011  -2.650  12.953  1.00  0.00     0.057 A 
ATOM     76  C   UNL     1      -6.519  -3.952  12.855  1.00  0.00     0.134 A 
ATOM     77  C   UNL     1      -6.887  -1.642  13.373  1.00  0.00     0.134 A 
ATOM     78  F   UNL     1      -5.735  -4.958  12.438  1.00  0.00    -0.206 F 
ATOM     79  C   UNL     1      -7.855  -4.236  13.142  1.00  0.00     0.040 A 
ATOM     80  C   UNL     1      -8.219  -1.919  13.686  1.00  0.00     0.040 A 
ATOM     81  F   UNL     1      -6.464  -0.374  13.485  1.00  0.00    -0.206 F 
ATOM     82  C   UNL     1      -8.707  -3.218  13.565  1.00  0.00     0.006 A 
ENDBRANCH  61  75
BRANCH  62  83
ATOM     83  C   UNL     1       3.373  -0.517  10.305  1.00  0.00     0.057 A 
ATOM     84  C   UNL     1       4.446  -1.331  10.688  1.00  0.00     0.134 A 
ATOM     85  C   UNL     1       3.670   0.642   9.578  1.00  0.00     0.134 A 
ATOM     86  F   UNL     1       4.226  -2.442  11.406  1.00  0.00    -0.206 F 
ATOM     87  C   UNL     1       5.765  -0.995  10.380  1.00  0.00     0.040 A 
ATOM     88  C   UNL     1       4.983   0.979   9.243  1.00  0.00     0.040 A 
ATOM     89  F   UNL     1       2.687   1.464   9.181  1.00  0.00    -0.206 F 
ATOM     90  C   UNL     1       6.036   0.162   9.652  1.00  0.00     0.006 A 
ENDBRANCH  62  83
BRANCH  74  91
ATOM     91  C   UNL     1       0.023  -0.718  16.403  1.00  0.00     0.057 A 
ATOM     92  C   UNL     1       0.289   0.573  16.876  1.00  0.00     0.134 A 
ATOM     93  C   UNL     1       0.151  -1.779  17.309  1.00  0.00     0.134 A 
ATOM     94  F   UNL     1       0.194   1.630  16.056  1.00  0.00    -0.206 F 
ATOM     95  C   UNL     1       0.692   0.797  18.194  1.00  0.00     0.040 A 
ATOM     96  C   UNL     1       0.527  -1.564  18.635  1.00  0.00     0.040 A 
ATOM     97  F   UNL     1      -0.100  -3.039  16.923  1.00  0.00    -0.206 F 
ATOM     98  C   UNL     1       0.805  -0.273  19.079  1.00  0.00     0.006 A 
ENDBRANCH  74  91
ENDBRANCH  48  49
ENDBRANCH  41  43
ENDBRANCH  40  41
ENDBRANCH  39  40
ENDBRANCH  38  39
ENDBRANCH  37  38
ENDBRANCH  36  37
ENDBRANCH  35  36
ENDBRANCH  34  35
ENDBRANCH   1  34
TORSDOF 23
