REMARK SMILES CC1(C)[C@@]2(C(=O)OCCOCCOCCOCCOC(=O)c3ccc(-c4c5nc(c(-c6c(F)cccc6F)c6ccc([nH]6)c(-c6c(F)cccc6F)c6nc(c(-c7c(F)cccc7F)c7ccc4[nH]7)C=C6)C=C5)cc3)CC[C@]1(C)/C(=N/NC(=O)c1ccc(Cl)cc1)C2
REMARK SMILES IDX 13 1 12 2 11 3 10 4 9 5 8 6 7 7 5 8 6 9 4 10 1 11 2 12 3 13
REMARK SMILES IDX 78 14 76 15 92 16 77 17 79 18 80 19 81 20 82 21 83 22 84 24
REMARK SMILES IDX 85 25 86 26 91 27 87 28 90 29 88 30 89 31 14 32 15 33 16 34
REMARK SMILES IDX 17 35 18 36 19 37 20 38 21 39 22 40 23 41 75 42 24 43 74 44
REMARK SMILES IDX 25 45 26 46 27 47 68 48 28 49 73 50 67 51 69 52 29 53 72 54
REMARK SMILES IDX 66 55 65 56 30 58 56 59 39 60 55 61 40 62 43 63 54 64 70 65
REMARK SMILES IDX 41 66 42 67 53 69 71 70 44 71 31 72 32 73 37 74 33 75 34 76
REMARK SMILES IDX 36 77 38 78 35 79 57 80 58 81 63 82 59 83 60 84 62 85 64 86
REMARK SMILES IDX 61 87 45 88 46 89 51 90 47 91 48 92 50 93 52 94 49 95
REMARK H PARENT 82 23 69 57 43 68
REMARK Flexibility Score: inf
ROOT
ATOM      1  O   UNL     1      -0.150  -2.998   4.245  1.00  0.00    -0.377 OA
ENDROOT
BRANCH   1   2
ATOM      2  C   UNL     1       1.231  -2.671   4.193  1.00  0.00     0.188 C 
BRANCH   2   3
ATOM      3  C   UNL     1       1.547  -1.193   4.416  1.00  0.00     0.188 C 
BRANCH   3   4
ATOM      4  O   UNL     1       0.816  -0.539   5.446  1.00  0.00    -0.376 OA
BRANCH   4   5
ATOM      5  C   UNL     1      -0.504  -0.085   5.121  1.00  0.00     0.202 C 
BRANCH   5   6
ATOM      6  C   UNL     1      -0.624   0.836   3.905  1.00  0.00     0.261 C 
BRANCH   6   7
ATOM      7  O   UNL     1      -0.796   0.051   2.705  1.00  0.00    -0.463 OA
BRANCH   7   8
ATOM      8  C   UNL     1       0.075   0.275   1.688  1.00  0.00     0.313 C 
ATOM      9  O   UNL     1       0.994   1.083   1.721  1.00  0.00    -0.252 OA
BRANCH   8  10
ATOM     10  C   UNL     1      -0.291  -0.533   0.463  1.00  0.00     0.079 C 
ATOM     11  C   UNL     1       1.768   0.181  -0.975  1.00  0.00     0.013 C 
ATOM     12  C   UNL     1       0.869  -0.973  -0.479  1.00  0.00    -0.008 C 
ATOM     13  C   UNL     1       1.810  -2.057   0.092  1.00  0.00     0.013 C 
ATOM     14  C   UNL     1      -0.134  -1.514  -1.547  1.00  0.00     0.014 C 
ATOM     15  C   UNL     1      -1.194   0.343  -0.468  1.00  0.00     0.021 C 
ATOM     16  C   UNL     1      -1.038  -1.867   0.736  1.00  0.00     0.073 C 
ATOM     17  C   UNL     1      -1.022  -0.298  -1.856  1.00  0.00     0.014 C 
ATOM     18  C   UNL     1       0.461  -2.200  -2.760  1.00  0.00     0.018 C 
ATOM     19  C   UNL     1      -1.048  -2.409  -0.671  1.00  0.00     0.046 C 
ATOM     20  N   UNL     1      -1.637  -3.420  -1.220  1.00  0.00    -0.181 NA
BRANCH  20  21
ATOM     21  N   UNL     1      -2.409  -4.366  -0.641  1.00  0.00    -0.243 N 
ATOM     22  C   UNL     1      -3.333  -4.422   0.374  1.00  0.00     0.271 C 
ATOM     23  H   UNL     1      -2.273  -5.249  -1.056  1.00  0.00     0.194 HD
ATOM     24  O   UNL     1      -3.780  -5.518   0.722  1.00  0.00    -0.267 OA
BRANCH  22  25
ATOM     25  C   UNL     1      -3.856  -3.237   1.059  1.00  0.00     0.041 A 
ATOM     26  C   UNL     1      -3.848  -3.253   2.463  1.00  0.00     0.015 A 
ATOM     27  C   UNL     1      -4.364  -2.134   0.363  1.00  0.00     0.015 A 
ATOM     28  C   UNL     1      -4.262  -2.129   3.174  1.00  0.00     0.021 A 
ATOM     29  C   UNL     1      -4.782  -1.009   1.083  1.00  0.00     0.021 A 
ATOM     30  C   UNL     1      -4.709  -1.005   2.480  1.00  0.00     0.041 A 
ATOM     31  Cl  UNL     1      -5.144   0.410   3.358  1.00  0.00    -0.084 Cl
ENDBRANCH  22  25
ENDBRANCH  20  21
ENDBRANCH   8  10
ENDBRANCH   7   8
ENDBRANCH   6   7
ENDBRANCH   5   6
ENDBRANCH   4   5
ENDBRANCH   3   4
ENDBRANCH   2   3
ENDBRANCH   1   2
BRANCH   1  32
ATOM     32  C   UNL     1      -0.597  -3.525   5.499  1.00  0.00     0.188 C 
BRANCH  32  33
ATOM     33  C   UNL     1       0.211  -4.697   6.076  1.00  0.00     0.188 C 
BRANCH  33  34
ATOM     34  O   UNL     1       0.771  -5.626   5.153  1.00  0.00    -0.376 OA
BRANCH  34  35
ATOM     35  C   UNL     1      -0.028  -6.076   4.062  1.00  0.00     0.202 C 
BRANCH  35  36
ATOM     36  C   UNL     1      -1.120  -7.076   4.429  1.00  0.00     0.261 C 
BRANCH  36  37
ATOM     37  O   UNL     1      -2.281  -6.402   4.942  1.00  0.00    -0.460 OA
BRANCH  37  38
ATOM     38  C   UNL     1      -2.530  -6.583   6.254  1.00  0.00     0.338 C 
ATOM     39  O   UNL     1      -1.873  -7.225   7.063  1.00  0.00    -0.246 OA
BRANCH  38  40
ATOM     40  C   UNL     1      -3.694  -5.777   6.641  1.00  0.00     0.060 A 
ATOM     41  C   UNL     1      -3.572  -4.912   7.734  1.00  0.00     0.016 A 
ATOM     42  C   UNL     1      -4.924  -5.968   6.007  1.00  0.00     0.016 A 
ATOM     43  C   UNL     1      -4.704  -4.282   8.245  1.00  0.00     0.010 A 
ATOM     44  C   UNL     1      -6.059  -5.347   6.528  1.00  0.00     0.010 A 
ATOM     45  C   UNL     1      -5.957  -4.544   7.676  1.00  0.00    -0.014 A 
BRANCH  45  46
ATOM     46  C   UNL     1      -7.186  -4.144   8.394  1.00  0.00     0.031 A 
ATOM     47  C   UNL     1      -7.848  -5.147   9.298  1.00  0.00     0.074 A 
ATOM     48  C   UNL     1      -7.704  -2.915   8.239  1.00  0.00     0.049 A 
ATOM     49  N   UNL     1      -8.963  -5.048   9.974  1.00  0.00    -0.248 NA
ATOM     50  C   UNL     1      -7.159  -6.440   9.455  1.00  0.00     0.031 C 
ATOM     51  C   UNL     1      -7.130  -1.853   7.415  1.00  0.00     0.029 A 
ATOM     52  N   UNL     1      -8.843  -2.362   8.763  1.00  0.00    -0.354 N 
ATOM     53  C   UNL     1      -9.112  -6.263  10.632  1.00  0.00     0.074 A 
ATOM     54  C   UNL     1      -7.988  -7.093  10.256  1.00  0.00     0.031 C 
ATOM     55  C   UNL     1      -7.935  -0.778   7.471  1.00  0.00     0.029 A 
ATOM     56  C   UNL     1      -9.089  -1.089   8.312  1.00  0.00     0.049 A 
ATOM     57  H   UNL     1      -9.428  -2.832   9.400  1.00  0.00     0.167 HD
ATOM     58  C   UNL     1     -10.096  -6.649  11.477  1.00  0.00     0.037 A 
ATOM     59  C   UNL     1     -10.143  -0.282   8.539  1.00  0.00     0.037 A 
ATOM     60  C   UNL     1     -11.217  -5.824  11.839  1.00  0.00     0.049 A 
ATOM     61  C   UNL     1     -11.258  -0.758   9.430  1.00  0.00     0.074 A 
ATOM     62  C   UNL     1     -12.261  -6.113  12.699  1.00  0.00     0.029 A 
ATOM     63  N   UNL     1     -11.441  -4.546  11.350  1.00  0.00    -0.354 N 
ATOM     64  N   UNL     1     -11.378  -1.897  10.070  1.00  0.00    -0.248 NA
ATOM     65  C   UNL     1     -12.385   0.164   9.630  1.00  0.00     0.031 C 
ATOM     66  C   UNL     1     -13.140  -5.024  12.698  1.00  0.00     0.029 A 
ATOM     67  C   UNL     1     -12.619  -4.041  11.872  1.00  0.00     0.049 A 
ATOM     68  H   UNL     1     -10.849  -4.069  10.724  1.00  0.00     0.167 HD
ATOM     69  C   UNL     1     -12.577  -1.818  10.768  1.00  0.00     0.074 A 
ATOM     70  C   UNL     1     -13.143  -0.516  10.480  1.00  0.00     0.031 C 
ATOM     71  C   UNL     1     -13.159  -2.738  11.576  1.00  0.00     0.037 A 
BRANCH  58  72
ATOM     72  C   UNL     1     -10.013  -8.035  12.044  1.00  0.00     0.057 A 
ATOM     73  C   UNL     1      -9.076  -8.375  13.029  1.00  0.00     0.134 A 
ATOM     74  C   UNL     1     -10.892  -9.037  11.613  1.00  0.00     0.134 A 
ATOM     75  F   UNL     1      -8.195  -7.465  13.471  1.00  0.00    -0.206 F 
ATOM     76  C   UNL     1      -9.004  -9.667  13.551  1.00  0.00     0.040 A 
ATOM     77  C   UNL     1     -10.844 -10.327  12.144  1.00  0.00     0.040 A 
ATOM     78  F   UNL     1     -11.812  -8.777  10.673  1.00  0.00    -0.206 F 
ATOM     79  C   UNL     1      -9.894 -10.646  13.113  1.00  0.00     0.006 A 
ENDBRANCH  58  72
BRANCH  59  80
ATOM     80  C   UNL     1     -10.200   1.056   7.901  1.00  0.00     0.057 A 
ATOM     81  C   UNL     1     -10.058   2.224   8.657  1.00  0.00     0.134 A 
ATOM     82  C   UNL     1     -10.409   1.198   6.524  1.00  0.00     0.134 A 
ATOM     83  F   UNL     1      -9.878   2.152   9.984  1.00  0.00    -0.206 F 
ATOM     84  C   UNL     1     -10.137   3.488   8.069  1.00  0.00     0.040 A 
ATOM     85  C   UNL     1     -10.468   2.454   5.920  1.00  0.00     0.040 A 
ATOM     86  F   UNL     1     -10.552   0.115   5.746  1.00  0.00    -0.206 F 
ATOM     87  C   UNL     1     -10.338   3.604   6.695  1.00  0.00     0.006 A 
ENDBRANCH  59  80
BRANCH  71  88
ATOM     88  C   UNL     1     -14.452  -2.356  12.231  1.00  0.00     0.057 A 
ATOM     89  C   UNL     1     -15.655  -2.304  11.515  1.00  0.00     0.134 A 
ATOM     90  C   UNL     1     -14.501  -2.079  13.603  1.00  0.00     0.134 A 
ATOM     91  F   UNL     1     -15.672  -2.547  10.196  1.00  0.00    -0.206 F 
ATOM     92  C   UNL     1     -16.858  -1.969  12.138  1.00  0.00     0.040 A 
ATOM     93  C   UNL     1     -15.701  -1.767  14.241  1.00  0.00     0.040 A 
ATOM     94  F   UNL     1     -13.385  -2.122  14.346  1.00  0.00    -0.206 F 
ATOM     95  C   UNL     1     -16.884  -1.706  13.507  1.00  0.00     0.006 A 
ENDBRANCH  71  88
ENDBRANCH  45  46
ENDBRANCH  38  40
ENDBRANCH  37  38
ENDBRANCH  36  37
ENDBRANCH  35  36
ENDBRANCH  34  35
ENDBRANCH  33  34
ENDBRANCH  32  33
ENDBRANCH   1  32
TORSDOF 22
