REMARK SMILES COc1ccc(F)c(NC(=O)N2CCCC[C@@H]2C(=O)OCCOCCOCCOCCOC(=O)c2ccc(-c3c4nc(c(-c5c(F)cccc5F)c5ccc([nH]5)c(-c5c(F)cccc5F)c5nc(c(-c6c(F)cccc6F)c6ccc3[nH]6)C=C5)C=C4)cc2)c1
REMARK SMILES IDX 25 1 24 2 23 3 22 4 21 5 20 6 18 7 19 8 17 9 12 10 13 11
REMARK SMILES IDX 14 12 16 13 15 14 10 15 9 16 11 18 8 19 3 20 4 21 89 22 5 23
REMARK SMILES IDX 6 24 7 25 2 26 1 27 26 28 27 29 28 30 29 31 30 32 31 33
REMARK SMILES IDX 32 34 33 35 34 36 35 37 36 38 88 39 37 40 87 41 38 42 39 43
REMARK SMILES IDX 40 44 81 45 41 46 86 47 80 48 82 49 42 50 85 51 79 52 78 53
REMARK SMILES IDX 43 55 69 56 52 57 68 58 53 59 56 60 67 61 83 62 54 63 55 64
REMARK SMILES IDX 66 66 84 67 57 68 44 69 45 70 50 71 46 72 47 73 49 74 51 75
REMARK SMILES IDX 48 76 70 77 71 78 76 79 72 80 73 81 75 82 77 83 74 84 58 85
REMARK SMILES IDX 59 86 64 87 60 88 61 89 63 90 65 91 62 92
REMARK H PARENT 9 17 82 54 56 65
REMARK Flexibility Score: inf
ROOT
ATOM      1  C   UNL     1      -1.532   0.106   3.095  1.00  0.00     0.188 C 
ENDROOT
BRANCH   1   2
ATOM      2  C   UNL     1      -0.109   0.587   3.427  1.00  0.00     0.188 C 
BRANCH   2   3
ATOM      3  O   UNL     1       0.146   0.762   4.811  1.00  0.00    -0.376 OA
BRANCH   3   4
ATOM      4  C   UNL     1       0.254   2.073   5.338  1.00  0.00     0.202 C 
BRANCH   4   5
ATOM      5  C   UNL     1      -1.040   2.922   5.509  1.00  0.00     0.261 C 
BRANCH   5   6
ATOM      6  O   UNL     1      -1.992   2.917   4.422  1.00  0.00    -0.462 OA
BRANCH   6   7
ATOM      7  C   UNL     1      -1.458   3.429   3.295  1.00  0.00     0.329 C 
ATOM      8  O   UNL     1      -0.287   3.776   3.304  1.00  0.00    -0.250 OA
BRANCH   7   9
ATOM      9  C   UNL     1      -2.342   3.444   2.025  1.00  0.00     0.196 C 
ATOM     10  N   UNL     1      -2.362   4.740   1.282  1.00  0.00    -0.311 N 
ATOM     11  C   UNL     1      -3.298   4.897   0.175  1.00  0.00     0.122 C 
ATOM     12  C   UNL     1      -4.680   4.314   0.432  1.00  0.00     0.022 C 
ATOM     13  C   UNL     1      -3.770   2.905   2.255  1.00  0.00     0.037 C 
ATOM     14  C   UNL     1      -4.570   2.891   0.953  1.00  0.00     0.005 C 
BRANCH  10  15
ATOM     15  C   UNL     1      -1.660   5.857   1.659  1.00  0.00     0.322 C 
ATOM     16  N   UNL     1      -0.297   5.856   1.672  1.00  0.00    -0.305 N 
ATOM     17  H   UNL     1       0.095   6.673   2.056  1.00  0.00     0.171 HD
ATOM     18  O   UNL     1      -2.257   6.881   2.001  1.00  0.00    -0.248 OA
BRANCH  16  19
ATOM     19  C   UNL     1       0.667   4.911   1.241  1.00  0.00     0.082 A 
ATOM     20  C   UNL     1       1.252   2.794   0.208  1.00  0.00     0.121 A 
ATOM     21  C   UNL     1       2.399   2.711   1.002  1.00  0.00     0.049 A 
ATOM     22  C   UNL     1       0.413   3.914   0.300  1.00  0.00     0.075 A 
ATOM     23  C   UNL     1       2.720   3.757   1.869  1.00  0.00     0.045 A 
ATOM     24  C   UNL     1       1.870   4.857   1.966  1.00  0.00     0.147 A 
ATOM     25  F   UNL     1       2.131   5.789   2.898  1.00  0.00    -0.205 F 
BRANCH  20  26
ATOM     26  O   UNL     1       0.834   1.837  -0.676  1.00  0.00    -0.497 OA
ATOM     27  C   UNL     1       1.239   0.501  -0.393  1.00  0.00     0.278 C 
ENDBRANCH  20  26
ENDBRANCH  16  19
ENDBRANCH  10  15
ENDBRANCH   7   9
ENDBRANCH   6   7
ENDBRANCH   5   6
ENDBRANCH   4   5
ENDBRANCH   3   4
ENDBRANCH   2   3
ENDBRANCH   1   2
BRANCH   1  28
ATOM     28  O   UNL     1      -2.526   0.189   4.104  1.00  0.00    -0.377 OA
BRANCH  28  29
ATOM     29  C   UNL     1      -2.241  -0.318   5.407  1.00  0.00     0.188 C 
BRANCH  29  30
ATOM     30  C   UNL     1      -1.225  -1.468   5.592  1.00  0.00     0.188 C 
BRANCH  30  31
ATOM     31  O   UNL     1      -0.894  -2.156   4.399  1.00  0.00    -0.376 OA
BRANCH  31  32
ATOM     32  C   UNL     1      -1.601  -3.357   4.136  1.00  0.00     0.202 C 
BRANCH  32  33
ATOM     33  C   UNL     1      -3.134  -3.274   4.036  1.00  0.00     0.261 C 
BRANCH  33  34
ATOM     34  O   UNL     1      -3.834  -2.775   5.192  1.00  0.00    -0.460 OA
BRANCH  34  35
ATOM     35  C   UNL     1      -3.653  -3.402   6.372  1.00  0.00     0.338 C 
ATOM     36  O   UNL     1      -3.012  -4.423   6.573  1.00  0.00    -0.246 OA
BRANCH  35  37
ATOM     37  C   UNL     1      -4.173  -2.525   7.445  1.00  0.00     0.060 A 
ATOM     38  C   UNL     1      -3.297  -2.087   8.450  1.00  0.00     0.016 A 
ATOM     39  C   UNL     1      -5.512  -2.127   7.456  1.00  0.00     0.016 A 
ATOM     40  C   UNL     1      -3.769  -1.297   9.497  1.00  0.00     0.010 A 
ATOM     41  C   UNL     1      -5.992  -1.362   8.524  1.00  0.00     0.010 A 
ATOM     42  C   UNL     1      -5.131  -0.985   9.571  1.00  0.00    -0.014 A 
BRANCH  42  43
ATOM     43  C   UNL     1      -5.683  -0.492  10.855  1.00  0.00     0.031 A 
ATOM     44  C   UNL     1      -6.293  -1.497  11.794  1.00  0.00     0.074 A 
ATOM     45  C   UNL     1      -5.593   0.800  11.213  1.00  0.00     0.049 A 
ATOM     46  N   UNL     1      -6.846  -1.314  12.964  1.00  0.00    -0.248 NA
ATOM     47  C   UNL     1      -6.275  -2.902  11.350  1.00  0.00     0.031 C 
ATOM     48  C   UNL     1      -4.975   1.857  10.417  1.00  0.00     0.029 A 
ATOM     49  N   UNL     1      -6.026   1.439  12.349  1.00  0.00    -0.354 N 
ATOM     50  C   UNL     1      -7.248  -2.574  13.390  1.00  0.00     0.074 A 
ATOM     51  C   UNL     1      -6.904  -3.510  12.343  1.00  0.00     0.031 C 
ATOM     52  C   UNL     1      -5.075   3.019  11.086  1.00  0.00     0.029 A 
ATOM     53  C   UNL     1      -5.792   2.792  12.341  1.00  0.00     0.049 A 
ATOM     54  H   UNL     1      -6.462   0.972  13.097  1.00  0.00     0.167 HD
ATOM     55  C   UNL     1      -7.841  -2.921  14.555  1.00  0.00     0.037 A 
ATOM     56  C   UNL     1      -6.136   3.740  13.236  1.00  0.00     0.037 A 
ATOM     57  C   UNL     1      -8.174  -1.988  15.598  1.00  0.00     0.049 A 
ATOM     58  C   UNL     1      -6.859   3.342  14.496  1.00  0.00     0.074 A 
ATOM     59  C   UNL     1      -8.756  -2.246  16.826  1.00  0.00     0.029 A 
ATOM     60  N   UNL     1      -7.965  -0.619  15.531  1.00  0.00    -0.354 N 
ATOM     61  N   UNL     1      -7.221   2.147  14.900  1.00  0.00    -0.248 NA
ATOM     62  C   UNL     1      -7.219   4.421  15.428  1.00  0.00     0.031 C 
ATOM     63  C   UNL     1      -8.960  -1.026  17.475  1.00  0.00     0.029 A 
ATOM     64  C   UNL     1      -8.439  -0.014  16.684  1.00  0.00     0.049 A 
ATOM     65  H   UNL     1      -7.542  -0.147  14.778  1.00  0.00     0.167 HD
ATOM     66  C   UNL     1      -7.829   2.327  16.137  1.00  0.00     0.074 A 
ATOM     67  C   UNL     1      -7.773   3.745  16.425  1.00  0.00     0.031 C 
ATOM     68  C   UNL     1      -8.381   1.400  16.959  1.00  0.00     0.037 A 
BRANCH  55  69
ATOM     69  C   UNL     1      -8.198  -4.365  14.756  1.00  0.00     0.057 A 
ATOM     70  C   UNL     1      -9.540  -4.764  14.794  1.00  0.00     0.134 A 
ATOM     71  C   UNL     1      -7.225  -5.350  14.970  1.00  0.00     0.134 A 
ATOM     72  F   UNL     1     -10.522  -3.872  14.598  1.00  0.00    -0.206 F 
ATOM     73  C   UNL     1      -9.903  -6.086  15.056  1.00  0.00     0.040 A 
ATOM     74  C   UNL     1      -7.575  -6.682  15.203  1.00  0.00     0.040 A 
ATOM     75  F   UNL     1      -5.921  -5.040  14.928  1.00  0.00    -0.206 F 
ATOM     76  C   UNL     1      -8.918  -7.050  15.259  1.00  0.00     0.006 A 
ENDBRANCH  55  69
BRANCH  56  77
ATOM     77  C   UNL     1      -5.797   5.160  12.962  1.00  0.00     0.057 A 
ATOM     78  C   UNL     1      -6.416   5.866  11.922  1.00  0.00     0.134 A 
ATOM     79  C   UNL     1      -4.828   5.837  13.711  1.00  0.00     0.134 A 
ATOM     80  F   UNL     1      -7.355   5.276  11.168  1.00  0.00    -0.206 F 
ATOM     81  C   UNL     1      -6.062   7.182  11.618  1.00  0.00     0.040 A 
ATOM     82  C   UNL     1      -4.484   7.162  13.435  1.00  0.00     0.040 A 
ATOM     83  F   UNL     1      -4.219   5.224  14.737  1.00  0.00    -0.206 F 
ATOM     84  C   UNL     1      -5.094   7.834  12.377  1.00  0.00     0.006 A 
ENDBRANCH  56  77
BRANCH  68  85
ATOM     85  C   UNL     1      -8.958   1.874  18.264  1.00  0.00     0.057 A 
ATOM     86  C   UNL     1      -8.363   1.511  19.480  1.00  0.00     0.134 A 
ATOM     87  C   UNL     1     -10.143   2.618  18.323  1.00  0.00     0.134 A 
ATOM     88  F   UNL     1      -7.235   0.785  19.498  1.00  0.00    -0.206 F 
ATOM     89  C   UNL     1      -8.933   1.858  20.706  1.00  0.00     0.040 A 
ATOM     90  C   UNL     1     -10.705   2.998  19.543  1.00  0.00     0.040 A 
ATOM     91  F   UNL     1     -10.761   3.004  17.197  1.00  0.00    -0.206 F 
ATOM     92  C   UNL     1     -10.106   2.608  20.739  1.00  0.00     0.006 A 
ENDBRANCH  68  85
ENDBRANCH  42  43
ENDBRANCH  35  37
ENDBRANCH  34  35
ENDBRANCH  33  34
ENDBRANCH  32  33
ENDBRANCH  31  32
ENDBRANCH  30  31
ENDBRANCH  29  30
ENDBRANCH  28  29
ENDBRANCH   1  28
TORSDOF 23
