REMARK SMILES Cc1ccc(C[N@H+]2CCC[C@@H](C(=O)OCCOCCOCCOCCOC(=O)c3ccc(-c4c5nc(c(-c6c(F)cccc6F)c6ccc([nH]6)c(-c6c(F)cccc6F)c6nc(c(-c7c(F)cccc7F)c7ccc4[nH]7)C=C6)C=C5)cc3)C2)o1
REMARK SMILES IDX 20 1 19 2 18 3 17 4 16 5 15 6 14 7 12 8 13 9 11 10 7 11 8 12
REMARK SMILES IDX 83 13 9 15 10 16 6 17 5 18 1 19 2 20 3 21 84 22 4 23 21 24
REMARK SMILES IDX 22 25 23 26 24 27 25 28 26 29 27 30 28 31 29 32 30 33 82 34
REMARK SMILES IDX 31 35 81 36 32 37 33 38 34 39 75 40 35 41 80 42 74 43 76 44
REMARK SMILES IDX 36 45 79 46 73 47 72 48 37 50 63 51 46 52 62 53 47 54 50 55
REMARK SMILES IDX 61 56 77 57 48 58 49 59 60 61 78 62 51 63 38 64 39 65 44 66
REMARK SMILES IDX 40 67 41 68 43 69 45 70 42 71 64 72 65 73 70 74 66 75 67 76
REMARK SMILES IDX 69 77 71 78 68 79 52 80 53 81 58 82 54 83 55 84 57 85 59 86
REMARK SMILES IDX 56 87
REMARK H PARENT 7 14 76 49 50 60
REMARK Flexibility Score: inf
ROOT
ATOM      1  O   UNL     1       1.312   6.479   4.398  1.00  0.00    -0.377 OA
ENDROOT
BRANCH   1   2
ATOM      2  C   UNL     1       1.011   5.104   4.531  1.00  0.00     0.188 C 
BRANCH   2   3
ATOM      3  C   UNL     1       1.852   4.191   3.619  1.00  0.00     0.188 C 
BRANCH   3   4
ATOM      4  O   UNL     1       2.956   4.724   2.905  1.00  0.00    -0.376 OA
BRANCH   4   5
ATOM      5  C   UNL     1       2.868   5.982   2.255  1.00  0.00     0.202 C 
BRANCH   5   6
ATOM      6  C   UNL     1       1.590   6.514   1.564  1.00  0.00     0.261 C 
BRANCH   6   7
ATOM      7  O   UNL     1       0.329   5.901   1.885  1.00  0.00    -0.463 OA
BRANCH   7   8
ATOM      8  C   UNL     1      -0.028   4.899   1.050  1.00  0.00     0.314 C 
ATOM      9  O   UNL     1       0.672   4.543   0.107  1.00  0.00    -0.252 OA
BRANCH   8  10
ATOM     10  C   UNL     1      -1.405   4.294   1.371  1.00  0.00     0.154 C 
ATOM     11  N   UNL     1      -2.657   2.222   0.650  1.00  0.00    -0.328 N 
ATOM     12  C   UNL     1      -2.711   1.707   2.019  1.00  0.00     0.262 C 
ATOM     13  C   UNL     1      -1.480   3.073   0.457  1.00  0.00     0.278 C 
ATOM     14  H   UNL     1      -3.503   2.778   0.519  1.00  0.00     0.348 HD
ATOM     15  C   UNL     1      -2.799   2.870   3.003  1.00  0.00     0.062 C 
ATOM     16  C   UNL     1      -1.640   3.849   2.821  1.00  0.00     0.027 C 
BRANCH  11  17
ATOM     17  C   UNL     1      -2.668   1.146  -0.368  1.00  0.00     0.338 C 
BRANCH  17  18
ATOM     18  C   UNL     1      -1.561   0.140  -0.282  1.00  0.00     0.158 A 
ATOM     19  C   UNL     1       2.000  -0.116  -0.167  1.00  0.00     0.087 C 
ATOM     20  C   UNL     1       0.559  -0.443  -0.199  1.00  0.00     0.101 A 
ATOM     21  C   UNL     1      -0.169  -1.597  -0.011  1.00  0.00     0.046 A 
ATOM     22  O   UNL     1      -0.283   0.596  -0.432  1.00  0.00    -0.460 OA
ATOM     23  C   UNL     1      -1.536  -1.222  -0.065  1.00  0.00     0.052 A 
ENDBRANCH  17  18
ENDBRANCH  11  17
ENDBRANCH   8  10
ENDBRANCH   7   8
ENDBRANCH   6   7
ENDBRANCH   5   6
ENDBRANCH   4   5
ENDBRANCH   3   4
ENDBRANCH   2   3
ENDBRANCH   1   2
BRANCH   1  24
ATOM     24  C   UNL     1       2.102   7.030   5.433  1.00  0.00     0.188 C 
BRANCH  24  25
ATOM     25  C   UNL     1       3.332   6.220   5.892  1.00  0.00     0.188 C 
BRANCH  25  26
ATOM     26  O   UNL     1       3.054   4.860   6.207  1.00  0.00    -0.376 OA
BRANCH  26  27
ATOM     27  C   UNL     1       2.889   4.488   7.568  1.00  0.00     0.202 C 
BRANCH  27  28
ATOM     28  C   UNL     1       1.614   4.960   8.290  1.00  0.00     0.261 C 
BRANCH  28  29
ATOM     29  O   UNL     1       1.367   6.373   8.289  1.00  0.00    -0.460 OA
BRANCH  29  30
ATOM     30  C   UNL     1       2.289   7.168   8.871  1.00  0.00     0.338 C 
ATOM     31  O   UNL     1       3.292   6.814   9.467  1.00  0.00    -0.246 OA
BRANCH  30  32
ATOM     32  C   UNL     1       1.999   8.564   8.475  1.00  0.00     0.060 A 
ATOM     33  C   UNL     1       2.990   9.286   7.794  1.00  0.00     0.016 A 
ATOM     34  C   UNL     1       0.755   9.145   8.734  1.00  0.00     0.016 A 
ATOM     35  C   UNL     1       2.752  10.602   7.401  1.00  0.00     0.010 A 
ATOM     36  C   UNL     1       0.529  10.476   8.369  1.00  0.00     0.010 A 
ATOM     37  C   UNL     1       1.541  11.219   7.735  1.00  0.00    -0.014 A 
BRANCH  37  38
ATOM     38  C   UNL     1       1.432  12.694   7.639  1.00  0.00     0.031 A 
ATOM     39  C   UNL     1       1.713  13.501   8.877  1.00  0.00     0.074 A 
ATOM     40  C   UNL     1       1.131  13.310   6.484  1.00  0.00     0.049 A 
ATOM     41  N   UNL     1       1.658  14.794   9.061  1.00  0.00    -0.248 NA
ATOM     42  C   UNL     1       2.110  12.738  10.072  1.00  0.00     0.031 C 
ATOM     43  C   UNL     1       0.892  12.644   5.206  1.00  0.00     0.029 A 
ATOM     44  N   UNL     1       0.971  14.645   6.207  1.00  0.00    -0.354 N 
ATOM     45  C   UNL     1       2.002  14.998  10.392  1.00  0.00     0.074 A 
ATOM     46  C   UNL     1       2.232  13.695  10.976  1.00  0.00     0.031 C 
ATOM     47  C   UNL     1       0.607  13.576   4.279  1.00  0.00     0.029 A 
ATOM     48  C   UNL     1       0.610  14.897   4.907  1.00  0.00     0.049 A 
ATOM     49  H   UNL     1       1.103  15.354   6.877  1.00  0.00     0.167 HD
ATOM     50  C   UNL     1       2.122  16.166  11.066  1.00  0.00     0.037 A 
ATOM     51  C   UNL     1       0.297  16.061   4.303  1.00  0.00     0.037 A 
ATOM     52  C   UNL     1       1.883  17.459  10.482  1.00  0.00     0.049 A 
ATOM     53  C   UNL     1       0.347  17.342   5.096  1.00  0.00     0.074 A 
ATOM     54  C   UNL     1       1.994  18.705  11.073  1.00  0.00     0.029 A 
ATOM     55  N   UNL     1       1.469  17.670   9.175  1.00  0.00    -0.354 N 
ATOM     56  N   UNL     1       0.697  17.531   6.346  1.00  0.00    -0.248 NA
ATOM     57  C   UNL     1      -0.041  18.572   4.392  1.00  0.00     0.031 C 
ATOM     58  C   UNL     1       1.582  19.665  10.143  1.00  0.00     0.029 A 
ATOM     59  C   UNL     1       1.283  19.024   8.951  1.00  0.00     0.049 A 
ATOM     60  H   UNL     1       1.328  16.962   8.506  1.00  0.00     0.167 HD
ATOM     61  C   UNL     1       0.603  18.900   6.568  1.00  0.00     0.074 A 
ATOM     62  C   UNL     1       0.173  19.495   5.320  1.00  0.00     0.031 C 
ATOM     63  C   UNL     1       0.856  19.603   7.701  1.00  0.00     0.037 A 
BRANCH  50  64
ATOM     64  C   UNL     1       2.482  16.084  12.521  1.00  0.00     0.057 A 
ATOM     65  C   UNL     1       3.746  15.661  12.957  1.00  0.00     0.134 A 
ATOM     66  C   UNL     1       1.545  16.428  13.504  1.00  0.00     0.134 A 
ATOM     67  F   UNL     1       4.685  15.298  12.070  1.00  0.00    -0.206 F 
ATOM     68  C   UNL     1       4.051  15.550  14.315  1.00  0.00     0.040 A 
ATOM     69  C   UNL     1       1.849  16.352  14.863  1.00  0.00     0.040 A 
ATOM     70  F   UNL     1       0.316  16.842  13.158  1.00  0.00    -0.206 F 
ATOM     71  C   UNL     1       3.102  15.902  15.272  1.00  0.00     0.006 A 
ENDBRANCH  50  64
BRANCH  51  72
ATOM     72  C   UNL     1      -0.098  16.072   2.872  1.00  0.00     0.057 A 
ATOM     73  C   UNL     1       0.718  16.659   1.898  1.00  0.00     0.134 A 
ATOM     74  C   UNL     1      -1.307  15.509   2.443  1.00  0.00     0.134 A 
ATOM     75  F   UNL     1       1.876  17.239   2.249  1.00  0.00    -0.206 F 
ATOM     76  C   UNL     1       0.344  16.696   0.554  1.00  0.00     0.040 A 
ATOM     77  C   UNL     1      -1.682  15.515   1.099  1.00  0.00     0.040 A 
ATOM     78  F   UNL     1      -2.136  14.934   3.326  1.00  0.00    -0.206 F 
ATOM     79  C   UNL     1      -0.857  16.116   0.150  1.00  0.00     0.006 A 
ENDBRANCH  51  72
BRANCH  63  80
ATOM     80  C   UNL     1       0.715  21.098   7.636  1.00  0.00     0.057 A 
ATOM     81  C   UNL     1      -0.532  21.725   7.527  1.00  0.00     0.134 A 
ATOM     82  C   UNL     1       1.845  21.923   7.731  1.00  0.00     0.134 A 
ATOM     83  F   UNL     1      -1.654  20.996   7.422  1.00  0.00    -0.206 F 
ATOM     84  C   UNL     1      -0.649  23.117   7.489  1.00  0.00     0.040 A 
ATOM     85  C   UNL     1       1.738  23.314   7.727  1.00  0.00     0.040 A 
ATOM     86  F   UNL     1       3.070  21.389   7.850  1.00  0.00    -0.206 F 
ATOM     87  C   UNL     1       0.488  23.915   7.598  1.00  0.00     0.006 A 
ENDBRANCH  63  80
ENDBRANCH  37  38
ENDBRANCH  30  32
ENDBRANCH  29  30
ENDBRANCH  28  29
ENDBRANCH  27  28
ENDBRANCH  26  27
ENDBRANCH  25  26
ENDBRANCH  24  25
ENDBRANCH   1  24
TORSDOF 22
