REMARK SMILES O=C(CSc1nc2ncccc2[nH]1)OCCOCCOCCOCCOC(=O)c1ccc(-c2c3nc(c(-c4c(F)cccc4F)c4ccc([nH]4)c(-c4c(F)cccc4F)c4nc(c(-c5c(F)cccc5F)c5ccc2[nH]5)C=C4)C=C3)cc1
REMARK SMILES IDX 20 1 19 2 18 3 17 4 16 5 15 6 14 7 2 8 1 9 3 10 4 11 5 12
REMARK SMILES IDX 6 13 13 14 7 15 12 16 8 18 11 19 9 20 10 21 21 22 22 23
REMARK SMILES IDX 23 24 24 25 25 26 26 27 27 28 28 29 29 30 30 31 82 32 31 33
REMARK SMILES IDX 81 34 32 35 33 36 34 37 75 38 35 39 80 40 74 41 76 42 36 43
REMARK SMILES IDX 79 44 73 45 72 46 37 48 63 49 46 50 62 51 47 52 50 53 61 54
REMARK SMILES IDX 77 55 48 56 49 57 60 59 78 60 51 61 38 62 39 63 44 64 40 65
REMARK SMILES IDX 41 66 43 67 45 68 42 69 64 70 65 71 70 72 66 73 67 74 69 75
REMARK SMILES IDX 71 76 68 77 52 78 53 79 58 80 54 81 55 82 57 83 59 84 56 85
REMARK H PARENT 13 17 76 47 50 58
REMARK Flexibility Score: inf
ROOT
ATOM      1  O   UNL     1       2.907   3.077  -2.397  1.00  0.00    -0.377 OA
ENDROOT
BRANCH   1   2
ATOM      2  C   UNL     1       2.118   2.598  -1.321  1.00  0.00     0.188 C 
BRANCH   2   3
ATOM      3  C   UNL     1       2.661   1.531  -0.363  1.00  0.00     0.188 C 
BRANCH   3   4
ATOM      4  O   UNL     1       4.042   1.607  -0.067  1.00  0.00    -0.376 OA
BRANCH   4   5
ATOM      5  C   UNL     1       4.861   0.444   0.010  1.00  0.00     0.202 C 
BRANCH   5   6
ATOM      6  C   UNL     1       4.424  -0.859  -0.664  1.00  0.00     0.261 C 
BRANCH   6   7
ATOM      7  O   UNL     1       3.173  -1.494  -0.299  1.00  0.00    -0.463 OA
BRANCH   7   8
ATOM      8  C   UNL     1       2.353  -1.196   0.737  1.00  0.00     0.316 C 
ATOM      9  O   UNL     1       1.136  -1.207   0.556  1.00  0.00    -0.251 OA
BRANCH   8  10
ATOM     10  C   UNL     1       2.958  -0.816   2.070  1.00  0.00     0.200 C 
BRANCH  10  11
ATOM     11  S   UNL     1       4.199  -2.042   2.599  1.00  0.00    -0.076 SA
BRANCH  11  12
ATOM     12  C   UNL     1       3.137  -3.394   2.609  1.00  0.00     0.168 A 
ATOM     13  N   UNL     1       1.859  -3.336   2.872  1.00  0.00    -0.203 NA
ATOM     14  N   UNL     1       3.544  -4.622   2.192  1.00  0.00    -0.332 N 
ATOM     15  C   UNL     1       1.405  -4.591   2.611  1.00  0.00     0.178 A 
ATOM     16  C   UNL     1       2.439  -5.431   2.206  1.00  0.00     0.086 A 
ATOM     17  H   UNL     1       4.458  -4.881   1.931  1.00  0.00     0.169 HD
ATOM     18  N   UNL     1       0.124  -4.989   2.738  1.00  0.00    -0.235 NA
ATOM     19  C   UNL     1       2.226  -6.773   1.921  1.00  0.00     0.032 A 
ATOM     20  C   UNL     1      -0.077  -6.291   2.458  1.00  0.00     0.114 A 
ATOM     21  C   UNL     1       0.906  -7.198   2.071  1.00  0.00     0.022 A 
ENDBRANCH  11  12
ENDBRANCH  10  11
ENDBRANCH   8  10
ENDBRANCH   7   8
ENDBRANCH   6   7
ENDBRANCH   5   6
ENDBRANCH   4   5
ENDBRANCH   3   4
ENDBRANCH   2   3
ENDBRANCH   1   2
BRANCH   1  22
ATOM     22  C   UNL     1       4.300   2.853  -2.382  1.00  0.00     0.188 C 
BRANCH  22  23
ATOM     23  C   UNL     1       5.239   3.700  -1.483  1.00  0.00     0.188 C 
BRANCH  23  24
ATOM     24  O   UNL     1       4.958   4.244  -0.203  1.00  0.00    -0.376 OA
BRANCH  24  25
ATOM     25  C   UNL     1       3.755   4.859   0.219  1.00  0.00     0.202 C 
BRANCH  25  26
ATOM     26  C   UNL     1       2.989   5.894  -0.607  1.00  0.00     0.261 C 
BRANCH  26  27
ATOM     27  O   UNL     1       3.122   5.730  -1.997  1.00  0.00    -0.460 OA
BRANCH  27  28
ATOM     28  C   UNL     1       4.247   6.277  -2.463  1.00  0.00     0.338 C 
ATOM     29  O   UNL     1       5.130   6.848  -1.806  1.00  0.00    -0.246 OA
BRANCH  28  30
ATOM     30  C   UNL     1       4.267   6.199  -3.917  1.00  0.00     0.060 A 
ATOM     31  C   UNL     1       5.459   6.635  -4.489  1.00  0.00     0.016 A 
ATOM     32  C   UNL     1       3.028   6.290  -4.565  1.00  0.00     0.016 A 
ATOM     33  C   UNL     1       5.351   7.521  -5.523  1.00  0.00     0.010 A 
ATOM     34  C   UNL     1       2.920   7.190  -5.592  1.00  0.00     0.010 A 
ATOM     35  C   UNL     1       4.069   7.871  -5.977  1.00  0.00    -0.014 A 
BRANCH  35  36
ATOM     36  C   UNL     1       4.010   8.858  -7.021  1.00  0.00     0.031 A 
ATOM     37  C   UNL     1       4.447   8.275  -8.298  1.00  0.00     0.074 A 
ATOM     38  C   UNL     1       3.649  10.139  -6.845  1.00  0.00     0.049 A 
ATOM     39  N   UNL     1       5.623   8.379  -8.814  1.00  0.00    -0.248 NA
ATOM     40  C   UNL     1       3.593   7.255  -8.920  1.00  0.00     0.031 C 
ATOM     41  C   UNL     1       2.984  10.774  -5.709  1.00  0.00     0.029 A 
ATOM     42  N   UNL     1       3.780  11.156  -7.735  1.00  0.00    -0.354 N 
ATOM     43  C   UNL     1       5.587   7.608  -9.964  1.00  0.00     0.074 A 
ATOM     44  C   UNL     1       4.415   6.782  -9.857  1.00  0.00     0.031 C 
ATOM     45  C   UNL     1       2.578  12.016  -6.073  1.00  0.00     0.029 A 
ATOM     46  C   UNL     1       3.084  12.309  -7.405  1.00  0.00     0.049 A 
ATOM     47  H   UNL     1       4.327  11.080  -8.550  1.00  0.00     0.167 HD
ATOM     48  C   UNL     1       6.369   7.945 -11.022  1.00  0.00     0.037 A 
ATOM     49  C   UNL     1       2.915  13.383  -8.218  1.00  0.00     0.037 A 
ATOM     50  C   UNL     1       7.443   8.819 -10.601  1.00  0.00     0.049 A 
ATOM     51  C   UNL     1       3.981  13.331  -9.254  1.00  0.00     0.074 A 
ATOM     52  C   UNL     1       8.499   8.714  -9.715  1.00  0.00     0.029 A 
ATOM     53  N   UNL     1       7.285  10.164 -10.837  1.00  0.00    -0.354 N 
ATOM     54  N   UNL     1       5.240  13.557  -9.004  1.00  0.00    -0.248 NA
ATOM     55  C   UNL     1       3.716  12.574 -10.469  1.00  0.00     0.031 C 
ATOM     56  C   UNL     1       8.626  10.007  -9.125  1.00  0.00     0.029 A 
ATOM     57  C   UNL     1       7.687  10.848  -9.722  1.00  0.00     0.049 A 
ATOM     58  H   UNL     1       6.941  10.566 -11.667  1.00  0.00     0.167 HD
ATOM     59  C   UNL     1       5.923  12.605  -9.747  1.00  0.00     0.074 A 
ATOM     60  C   UNL     1       4.941  12.094 -10.702  1.00  0.00     0.031 C 
ATOM     61  C   UNL     1       7.127  12.119  -9.323  1.00  0.00     0.037 A 
BRANCH  48  62
ATOM     62  C   UNL     1       5.886   7.895 -12.453  1.00  0.00     0.057 A 
ATOM     63  C   UNL     1       4.538   7.774 -12.853  1.00  0.00     0.134 A 
ATOM     64  C   UNL     1       6.768   8.320 -13.462  1.00  0.00     0.134 A 
ATOM     65  F   UNL     1       3.557   7.395 -12.030  1.00  0.00    -0.206 F 
ATOM     66  C   UNL     1       4.091   8.135 -14.125  1.00  0.00     0.040 A 
ATOM     67  C   UNL     1       6.323   8.727 -14.723  1.00  0.00     0.040 A 
ATOM     68  F   UNL     1       8.081   8.452 -13.220  1.00  0.00    -0.206 F 
ATOM     69  C   UNL     1       4.977   8.655 -15.052  1.00  0.00     0.006 A 
ENDBRANCH  48  62
BRANCH  49  70
ATOM     70  C   UNL     1       1.756  14.294  -8.348  1.00  0.00     0.057 A 
ATOM     71  C   UNL     1       0.451  13.865  -8.055  1.00  0.00     0.134 A 
ATOM     72  C   UNL     1       1.864  15.506  -9.048  1.00  0.00     0.134 A 
ATOM     73  F   UNL     1       0.228  12.688  -7.453  1.00  0.00    -0.206 F 
ATOM     74  C   UNL     1      -0.680  14.583  -8.457  1.00  0.00     0.040 A 
ATOM     75  C   UNL     1       0.739  16.232  -9.461  1.00  0.00     0.040 A 
ATOM     76  F   UNL     1       3.064  15.979  -9.412  1.00  0.00    -0.206 F 
ATOM     77  C   UNL     1      -0.540  15.763  -9.177  1.00  0.00     0.006 A 
ENDBRANCH  49  70
BRANCH  61  78
ATOM     78  C   UNL     1       7.820  12.852  -8.207  1.00  0.00     0.057 A 
ATOM     79  C   UNL     1       9.120  13.321  -8.428  1.00  0.00     0.134 A 
ATOM     80  C   UNL     1       7.302  13.005  -6.912  1.00  0.00     0.134 A 
ATOM     81  F   UNL     1       9.701  13.161  -9.628  1.00  0.00    -0.206 F 
ATOM     82  C   UNL     1       9.868  13.927  -7.418  1.00  0.00     0.040 A 
ATOM     83  C   UNL     1       8.028  13.645  -5.901  1.00  0.00     0.040 A 
ATOM     84  F   UNL     1       6.107  12.501  -6.576  1.00  0.00    -0.206 F 
ATOM     85  C   UNL     1       9.318  14.103  -6.152  1.00  0.00     0.006 A 
ENDBRANCH  61  78
ENDBRANCH  35  36
ENDBRANCH  28  30
ENDBRANCH  27  28
ENDBRANCH  26  27
ENDBRANCH  25  26
ENDBRANCH  24  25
ENDBRANCH  23  24
ENDBRANCH  22  23
ENDBRANCH   1  22
TORSDOF 22
