REMARK SMILES CC[N@@H+](C[C@@H]1CCCO1)[C@@H](C)c1ccc(C(=O)OCCOCCOCCOCCOC(=O)c2ccc(-c3c4nc(c(-c5c(F)cccc5F)c5ccc([nH]5)c(-c5c(F)cccc5F)c5nc(c(-c6c(F)cccc6F)c6ccc3[nH]6)C=C5)C=C4)cc2)o1
REMARK SMILES IDX 23 1 22 2 21 3 20 4 19 5 18 6 16 7 17 8 15 9 12 10 13 11
REMARK SMILES IDX 87 12 14 13 10 14 11 15 3 16 2 18 1 19 4 20 5 21 6 22 9 23
REMARK SMILES IDX 7 24 8 25 24 26 25 27 26 28 27 29 28 30 29 31 30 32 31 33
REMARK SMILES IDX 32 34 33 35 34 36 86 37 35 38 85 39 36 40 37 41 38 42 79 43
REMARK SMILES IDX 39 44 84 45 78 46 80 47 40 48 83 49 77 50 76 51 41 53 67 54
REMARK SMILES IDX 50 55 66 56 51 57 54 58 65 59 81 60 52 61 53 62 64 64 82 65
REMARK SMILES IDX 55 66 42 67 43 68 48 69 44 70 45 71 47 72 49 73 46 74 68 75
REMARK SMILES IDX 69 76 74 77 70 78 71 79 73 80 75 81 72 82 56 83 57 84 62 85
REMARK SMILES IDX 58 86 59 87 61 88 63 89 60 90
REMARK H PARENT 3 17 80 52 54 63
REMARK Flexibility Score: inf
ROOT
ATOM      1  C   UNL     1       4.228  -2.701  -0.139  1.00  0.00     0.188 C 
ENDROOT
BRANCH   1   2
ATOM      2  C   UNL     1       2.870  -3.387   0.060  1.00  0.00     0.188 C 
BRANCH   2   3
ATOM      3  O   UNL     1       2.759  -4.654  -0.588  1.00  0.00    -0.376 OA
BRANCH   3   4
ATOM      4  C   UNL     1       1.763  -4.716  -1.607  1.00  0.00     0.202 C 
BRANCH   4   5
ATOM      5  C   UNL     1       2.313  -4.327  -2.986  1.00  0.00     0.261 C 
BRANCH   5   6
ATOM      6  O   UNL     1       2.732  -2.957  -3.086  1.00  0.00    -0.457 OA
BRANCH   6   7
ATOM      7  C   UNL     1       1.758  -2.014  -2.959  1.00  0.00     0.374 C 
ATOM      8  O   UNL     1       0.559  -2.261  -2.908  1.00  0.00    -0.242 OA
BRANCH   7   9
ATOM      9  C   UNL     1       2.386  -0.735  -2.745  1.00  0.00     0.212 A 
ATOM     10  C   UNL     1       2.716   1.110  -1.578  1.00  0.00     0.162 A 
ATOM     11  C   UNL     1       3.754   1.023  -2.491  1.00  0.00     0.053 A 
ATOM     12  O   UNL     1       1.844   0.092  -1.802  1.00  0.00    -0.448 OA
ATOM     13  C   UNL     1       3.561  -0.179  -3.213  1.00  0.00     0.059 A 
BRANCH  10  14
ATOM     14  C   UNL     1       2.508   2.034  -0.393  1.00  0.00     0.248 C 
ATOM     15  C   UNL     1       3.567   1.718   0.672  1.00  0.00     0.084 C 
BRANCH  14  16
ATOM     16  N   UNL     1       1.115   2.193   0.093  1.00  0.00    -0.324 N 
ATOM     17  H   UNL     1       0.592   2.051  -0.771  1.00  0.00     0.348 HD
BRANCH  16  18
ATOM     18  C   UNL     1       0.552   1.167   0.988  1.00  0.00     0.259 C 
ATOM     19  C   UNL     1       0.148  -0.157   0.361  1.00  0.00     0.071 C 
ENDBRANCH  16  18
BRANCH  16  20
ATOM     20  C   UNL     1       0.879   3.549   0.653  1.00  0.00     0.295 C 
BRANCH  20  21
ATOM     21  C   UNL     1       1.190   3.915   2.140  1.00  0.00     0.173 C 
ATOM     22  C   UNL     1       2.126   5.104   2.292  1.00  0.00     0.040 C 
ATOM     23  O   UNL     1       1.782   2.871   2.930  1.00  0.00    -0.372 OA
ATOM     24  C   UNL     1       2.597   4.950   3.718  1.00  0.00     0.031 C 
ATOM     25  C   UNL     1       2.699   3.449   3.868  1.00  0.00     0.161 C 
ENDBRANCH  20  21
ENDBRANCH  16  20
ENDBRANCH  14  16
ENDBRANCH  10  14
ENDBRANCH   7   9
ENDBRANCH   6   7
ENDBRANCH   5   6
ENDBRANCH   4   5
ENDBRANCH   3   4
ENDBRANCH   2   3
ENDBRANCH   1   2
BRANCH   1  26
ATOM     26  O   UNL     1       5.128  -3.341  -1.024  1.00  0.00    -0.377 OA
BRANCH  26  27
ATOM     27  C   UNL     1       5.679  -4.604  -0.657  1.00  0.00     0.188 C 
BRANCH  27  28
ATOM     28  C   UNL     1       5.457  -5.215   0.739  1.00  0.00     0.188 C 
BRANCH  28  29
ATOM     29  O   UNL     1       5.627  -4.287   1.809  1.00  0.00    -0.376 OA
BRANCH  29  30
ATOM     30  C   UNL     1       6.754  -4.517   2.649  1.00  0.00     0.202 C 
BRANCH  30  31
ATOM     31  C   UNL     1       8.005  -3.806   2.127  1.00  0.00     0.261 C 
BRANCH  31  32
ATOM     32  O   UNL     1       8.501  -4.342   0.890  1.00  0.00    -0.460 OA
BRANCH  32  33
ATOM     33  C   UNL     1       8.946  -5.617   0.924  1.00  0.00     0.338 C 
ATOM     34  O   UNL     1       9.020  -6.352   1.892  1.00  0.00    -0.246 OA
BRANCH  33  35
ATOM     35  C   UNL     1       9.196  -6.045  -0.464  1.00  0.00     0.060 A 
ATOM     36  C   UNL     1       8.617  -7.236  -0.915  1.00  0.00     0.016 A 
ATOM     37  C   UNL     1       9.999  -5.274  -1.309  1.00  0.00     0.016 A 
ATOM     38  C   UNL     1       8.864  -7.675  -2.216  1.00  0.00     0.010 A 
ATOM     39  C   UNL     1      10.257  -5.722  -2.603  1.00  0.00     0.010 A 
ATOM     40  C   UNL     1       9.711  -6.935  -3.053  1.00  0.00    -0.014 A 
BRANCH  40  41
ATOM     41  C   UNL     1      10.161  -7.488  -4.348  1.00  0.00     0.031 A 
ATOM     42  C   UNL     1      11.425  -8.296  -4.383  1.00  0.00     0.074 A 
ATOM     43  C   UNL     1       9.481  -7.237  -5.479  1.00  0.00     0.049 A 
ATOM     44  N   UNL     1      12.060  -8.799  -5.409  1.00  0.00    -0.248 NA
ATOM     45  C   UNL     1      12.060  -8.572  -3.083  1.00  0.00     0.031 C 
ATOM     46  C   UNL     1       8.229  -6.488  -5.567  1.00  0.00     0.029 A 
ATOM     47  N   UNL     1       9.768  -7.574  -6.777  1.00  0.00    -0.354 N 
ATOM     48  C   UNL     1      13.163  -9.455  -4.882  1.00  0.00     0.074 A 
ATOM     49  C   UNL     1      13.126  -9.269  -3.448  1.00  0.00     0.031 C 
ATOM     50  C   UNL     1       7.864  -6.406  -6.859  1.00  0.00     0.029 A 
ATOM     51  C   UNL     1       8.871  -7.070  -7.685  1.00  0.00     0.049 A 
ATOM     52  H   UNL     1      10.543  -8.125  -7.032  1.00  0.00     0.167 HD
ATOM     53  C   UNL     1      14.120 -10.153  -5.535  1.00  0.00     0.037 A 
ATOM     54  C   UNL     1       8.883  -7.119  -9.030  1.00  0.00     0.037 A 
ATOM     55  C   UNL     1      14.174 -10.319  -6.961  1.00  0.00     0.049 A 
ATOM     56  C   UNL     1      10.013  -7.815  -9.739  1.00  0.00     0.074 A 
ATOM     57  C   UNL     1      15.096 -11.023  -7.715  1.00  0.00     0.029 A 
ATOM     58  N   UNL     1      13.271  -9.757  -7.849  1.00  0.00    -0.354 N 
ATOM     59  N   UNL     1      11.038  -8.456  -9.232  1.00  0.00    -0.248 NA
ATOM     60  C   UNL     1       9.994  -7.781 -11.209  1.00  0.00     0.031 C 
ATOM     61  C   UNL     1      14.770 -10.857  -9.066  1.00  0.00     0.029 A 
ATOM     62  C   UNL     1      13.629 -10.074  -9.148  1.00  0.00     0.049 A 
ATOM     63  H   UNL     1      12.492  -9.213  -7.595  1.00  0.00     0.167 HD
ATOM     64  C   UNL     1      11.773  -8.917 -10.316  1.00  0.00     0.074 A 
ATOM     65  C   UNL     1      11.076  -8.486 -11.510  1.00  0.00     0.031 C 
ATOM     66  C   UNL     1      12.922  -9.635 -10.322  1.00  0.00     0.037 A 
BRANCH  53  67
ATOM     67  C   UNL     1      15.197 -10.771  -4.699  1.00  0.00     0.057 A 
ATOM     68  C   UNL     1      14.966 -11.933  -3.952  1.00  0.00     0.134 A 
ATOM     69  C   UNL     1      16.474 -10.202  -4.641  1.00  0.00     0.134 A 
ATOM     70  F   UNL     1      13.756 -12.512  -3.953  1.00  0.00    -0.206 F 
ATOM     71  C   UNL     1      15.966 -12.499  -3.162  1.00  0.00     0.040 A 
ATOM     72  C   UNL     1      17.487 -10.768  -3.866  1.00  0.00     0.040 A 
ATOM     73  F   UNL     1      16.754  -9.085  -5.330  1.00  0.00    -0.206 F 
ATOM     74  C   UNL     1      17.232 -11.918  -3.120  1.00  0.00     0.006 A 
ENDBRANCH  53  67
BRANCH  54  75
ATOM     75  C   UNL     1       7.799  -6.470  -9.805  1.00  0.00     0.057 A 
ATOM     76  C   UNL     1       6.828  -7.233 -10.461  1.00  0.00     0.134 A 
ATOM     77  C   UNL     1       7.721  -5.078  -9.925  1.00  0.00     0.134 A 
ATOM     78  F   UNL     1       6.868  -8.572 -10.402  1.00  0.00    -0.206 F 
ATOM     79  C   UNL     1       5.821  -6.635 -11.220  1.00  0.00     0.040 A 
ATOM     80  C   UNL     1       6.710  -4.466 -10.666  1.00  0.00     0.040 A 
ATOM     81  F   UNL     1       8.628  -4.295  -9.322  1.00  0.00    -0.206 F 
ATOM     82  C   UNL     1       5.758  -5.246 -11.320  1.00  0.00     0.006 A 
ENDBRANCH  54  75
BRANCH  66  83
ATOM     83  C   UNL     1      13.486 -10.015 -11.657  1.00  0.00     0.057 A 
ATOM     84  C   UNL     1      14.191  -9.096 -12.442  1.00  0.00     0.134 A 
ATOM     85  C   UNL     1      13.368 -11.325 -12.136  1.00  0.00     0.134 A 
ATOM     86  F   UNL     1      14.327  -7.822 -12.042  1.00  0.00    -0.206 F 
ATOM     87  C   UNL     1      14.752  -9.465 -13.665  1.00  0.00     0.040 A 
ATOM     88  C   UNL     1      13.938 -11.711 -13.349  1.00  0.00     0.040 A 
ATOM     89  F   UNL     1      12.708 -12.252 -11.425  1.00  0.00    -0.206 F 
ATOM     90  C   UNL     1      14.632 -10.779 -14.118  1.00  0.00     0.006 A 
ENDBRANCH  66  83
ENDBRANCH  40  41
ENDBRANCH  33  35
ENDBRANCH  32  33
ENDBRANCH  31  32
ENDBRANCH  30  31
ENDBRANCH  29  30
ENDBRANCH  28  29
ENDBRANCH  27  28
ENDBRANCH  26  27
ENDBRANCH   1  26
TORSDOF 25
