REMARK SMILES O=C(OCCOCCOCCOCCOC(=O)c1ccc(-c2c3nc(c(-c4c(F)cccc4F)c4ccc([nH]4)c(-c4c(F)cccc4F)c4nc(c(-c5c(F)cccc5F)c5ccc2[nH]5)C=C4)C=C3)cc1)C1=Cc2cc(Cl)cc(-c3ccc(O)cc3)c2O[C@@H]1C(F)(F)F
REMARK SMILES IDX 9 1 8 2 7 3 6 4 5 5 4 6 3 7 2 8 1 9 72 10 73 11 89 12 74 13
REMARK SMILES IDX 88 14 75 15 87 16 76 17 79 18 77 19 78 20 90 21 91 22 92 23
REMARK SMILES IDX 93 24 80 25 81 26 86 27 82 28 85 29 83 30 84 31 10 33 11 34
REMARK SMILES IDX 12 35 13 36 14 37 15 38 16 39 17 40 18 41 19 42 71 43 20 44
REMARK SMILES IDX 70 45 21 46 22 47 23 48 64 49 24 50 69 51 63 52 65 53 25 54
REMARK SMILES IDX 68 55 62 56 61 57 26 59 52 60 35 61 51 62 36 63 39 64 50 65
REMARK SMILES IDX 66 66 37 67 38 68 49 70 67 71 40 72 27 73 28 74 33 75 29 76
REMARK SMILES IDX 30 77 32 78 34 79 31 80 53 81 54 82 59 83 55 84 56 85 58 86
REMARK SMILES IDX 60 87 57 88 41 89 42 90 47 91 43 92 44 93 46 94 48 95 45 96
REMARK H PARENT 84 32 65 58 39 69
REMARK Flexibility Score: inf
ROOT
ATOM      1  O   UNL     1       2.269  -2.839   3.019  1.00  0.00    -0.377 OA
ENDROOT
BRANCH   1   2
ATOM      2  C   UNL     1       1.550  -2.128   2.051  1.00  0.00     0.188 C 
BRANCH   2   3
ATOM      3  C   UNL     1       2.087  -2.457   0.669  1.00  0.00     0.188 C 
BRANCH   3   4
ATOM      4  O   UNL     1       3.445  -2.175   0.193  1.00  0.00    -0.376 OA
BRANCH   4   5
ATOM      5  C   UNL     1       4.244  -0.875  -0.442  1.00  0.00     0.202 C 
BRANCH   5   6
ATOM      6  C   UNL     1       3.541   1.191  -0.550  1.00  0.00     0.261 C 
BRANCH   6   7
ATOM      7  O   UNL     1       2.648   1.785  -1.629  1.00  0.00    -0.460 OA
BRANCH   7   8
ATOM      8  C   UNL     1       2.855   1.231  -2.829  1.00  0.00     0.338 C 
ATOM      9  O   UNL     1       2.214   1.368  -3.841  1.00  0.00    -0.246 OA
BRANCH   8  10
ATOM     10  C   UNL     1       3.699   0.143  -2.367  1.00  0.00     0.087 C 
ATOM     11  C   UNL     1       5.076   0.525  -2.079  1.00  0.00     0.027 C 
ATOM     12  C   UNL     1       2.426  -0.453  -1.059  1.00  0.00     0.316 C 
ATOM     13  C   UNL     1       5.740   0.733  -0.424  1.00  0.00     0.019 A 
ATOM     14  O   UNL     1       3.069  -0.099   0.760  1.00  0.00    -0.475 OA
ATOM     15  C   UNL     1       7.049   1.133  -0.331  1.00  0.00     0.032 A 
ATOM     16  C   UNL     1       4.769   0.584   1.013  1.00  0.00     0.135 A 
ATOM     17  C   UNL     1       7.503   1.399   0.961  1.00  0.00     0.042 A 
ATOM     18  C   UNL     1       5.300   0.982   2.248  1.00  0.00     0.026 A 
ATOM     19  Cl  UNL     1       9.164   1.861   1.143  1.00  0.00    -0.084 Cl
ATOM     20  C   UNL     1       6.688   1.343   2.150  1.00  0.00     0.033 A 
BRANCH  12  21
ATOM     21  C   UNL     1       2.184  -1.863  -2.010  1.00  0.00     0.430 C 
ATOM     22  F   UNL     1       1.343  -2.829  -1.601  1.00  0.00    -0.167 F 
ATOM     23  F   UNL     1       1.614  -1.432  -3.182  1.00  0.00    -0.167 F 
ATOM     24  F   UNL     1       3.328  -2.480  -2.404  1.00  0.00    -0.167 F 
ENDBRANCH  12  21
BRANCH  18  25
ATOM     25  C   UNL     1       4.722   1.110   3.585  1.00  0.00    -0.014 A 
ATOM     26  C   UNL     1       4.334   2.330   4.159  1.00  0.00     0.012 A 
ATOM     27  C   UNL     1       4.763   0.032   4.451  1.00  0.00     0.012 A 
ATOM     28  C   UNL     1       3.786   2.388   5.455  1.00  0.00     0.047 A 
ATOM     29  C   UNL     1       4.037   0.037   5.638  1.00  0.00     0.047 A 
ATOM     30  C   UNL     1       3.556   1.218   6.151  1.00  0.00     0.115 A 
BRANCH  30  31
ATOM     31  O   UNL     1       2.907   1.246   7.343  1.00  0.00    -0.508 OA
ATOM     32  H   UNL     1       2.584   2.058   7.682  1.00  0.00     0.293 HD
ENDBRANCH  30  31
ENDBRANCH  18  25
ENDBRANCH   8  10
ENDBRANCH   7   8
ENDBRANCH   6   7
ENDBRANCH   5   6
ENDBRANCH   4   5
ENDBRANCH   3   4
ENDBRANCH   2   3
ENDBRANCH   1   2
BRANCH   1  33
ATOM     33  C   UNL     1       3.549  -2.276   3.159  1.00  0.00     0.188 C 
BRANCH  33  34
ATOM     34  C   UNL     1       4.742  -3.136   2.774  1.00  0.00     0.188 C 
BRANCH  34  35
ATOM     35  O   UNL     1       4.420  -4.313   2.086  1.00  0.00    -0.376 OA
BRANCH  35  36
ATOM     36  C   UNL     1       3.796  -5.380   2.785  1.00  0.00     0.202 C 
BRANCH  36  37
ATOM     37  C   UNL     1       3.100  -5.246   4.161  1.00  0.00     0.261 C 
BRANCH  37  38
ATOM     38  O   UNL     1       3.689  -4.400   5.167  1.00  0.00    -0.460 OA
BRANCH  38  39
ATOM     39  C   UNL     1       4.955  -4.640   5.568  1.00  0.00     0.338 C 
ATOM     40  O   UNL     1       5.682  -5.544   5.204  1.00  0.00    -0.246 OA
BRANCH  39  41
ATOM     41  C   UNL     1       5.390  -3.466   6.373  1.00  0.00     0.060 A 
ATOM     42  C   UNL     1       6.595  -2.818   6.056  1.00  0.00     0.016 A 
ATOM     43  C   UNL     1       4.588  -2.970   7.405  1.00  0.00     0.016 A 
ATOM     44  C   UNL     1       7.021  -1.700   6.789  1.00  0.00     0.010 A 
ATOM     45  C   UNL     1       5.009  -1.847   8.132  1.00  0.00     0.010 A 
ATOM     46  C   UNL     1       6.252  -1.229   7.861  1.00  0.00    -0.014 A 
BRANCH  46  47
ATOM     47  C   UNL     1       6.860  -0.343   8.896  1.00  0.00     0.031 A 
ATOM     48  C   UNL     1       7.223  -1.013  10.199  1.00  0.00     0.074 A 
ATOM     49  C   UNL     1       7.107   0.974   8.737  1.00  0.00     0.049 A 
ATOM     50  N   UNL     1       7.743  -0.508  11.286  1.00  0.00    -0.248 NA
ATOM     51  C   UNL     1       6.935  -2.456  10.290  1.00  0.00     0.031 C 
ATOM     52  C   UNL     1       6.850   1.760   7.534  1.00  0.00     0.029 A 
ATOM     53  N   UNL     1       7.628   1.894   9.621  1.00  0.00    -0.354 N 
ATOM     54  C   UNL     1       7.837  -1.572  12.173  1.00  0.00     0.074 A 
ATOM     55  C   UNL     1       7.211  -2.712  11.554  1.00  0.00     0.031 C 
ATOM     56  C   UNL     1       7.176   3.047   7.764  1.00  0.00     0.029 A 
ATOM     57  C   UNL     1       7.686   3.178   9.126  1.00  0.00     0.049 A 
ATOM     58  H   UNL     1       7.931   1.655  10.526  1.00  0.00     0.167 HD
ATOM     59  C   UNL     1       8.450  -1.628  13.376  1.00  0.00     0.037 A 
ATOM     60  C   UNL     1       8.118   4.321   9.703  1.00  0.00     0.037 A 
ATOM     61  C   UNL     1       9.089  -0.506  13.995  1.00  0.00     0.049 A 
ATOM     62  C   UNL     1       8.714   4.264  11.092  1.00  0.00     0.074 A 
ATOM     63  C   UNL     1       9.768  -0.460  15.197  1.00  0.00     0.029 A 
ATOM     64  N   UNL     1       9.112   0.774  13.464  1.00  0.00    -0.354 N 
ATOM     65  N   UNL     1       8.877   3.231  11.884  1.00  0.00    -0.248 NA
ATOM     66  C   UNL     1       9.224   5.527  11.648  1.00  0.00     0.031 C 
ATOM     67  C   UNL     1      10.135   0.868  15.433  1.00  0.00     0.029 A 
ATOM     68  C   UNL     1       9.764   1.629  14.335  1.00  0.00     0.049 A 
ATOM     69  H   UNL     1       8.723   1.036  12.598  1.00  0.00     0.167 HD
ATOM     70  C   UNL     1       9.567   3.706  12.996  1.00  0.00     0.074 A 
ATOM     71  C   UNL     1       9.789   5.119  12.775  1.00  0.00     0.031 C 
ATOM     72  C   UNL     1       9.994   3.030  14.092  1.00  0.00     0.037 A 
BRANCH  59  73
ATOM     73  C   UNL     1       8.434  -2.952  14.081  1.00  0.00     0.057 A 
ATOM     74  C   UNL     1       9.111  -4.074  13.576  1.00  0.00     0.134 A 
ATOM     75  C   UNL     1       7.696  -3.118  15.257  1.00  0.00     0.134 A 
ATOM     76  F   UNL     1       9.813  -3.990  12.435  1.00  0.00    -0.206 F 
ATOM     77  C   UNL     1       9.012  -5.322  14.190  1.00  0.00     0.040 A 
ATOM     78  C   UNL     1       7.624  -4.353  15.902  1.00  0.00     0.040 A 
ATOM     79  F   UNL     1       7.020  -2.089  15.789  1.00  0.00    -0.206 F 
ATOM     80  C   UNL     1       8.271  -5.462  15.361  1.00  0.00     0.006 A 
ENDBRANCH  59  73
BRANCH  60  81
ATOM     81  C   UNL     1       8.072   5.619   8.970  1.00  0.00     0.057 A 
ATOM     82  C   UNL     1       9.248   6.276   8.580  1.00  0.00     0.134 A 
ATOM     83  C   UNL     1       6.862   6.274   8.709  1.00  0.00     0.134 A 
ATOM     84  F   UNL     1      10.444   5.720   8.825  1.00  0.00    -0.206 F 
ATOM     85  C   UNL     1       9.226   7.545   7.992  1.00  0.00     0.040 A 
ATOM     86  C   UNL     1       6.824   7.531   8.097  1.00  0.00     0.040 A 
ATOM     87  F   UNL     1       5.697   5.710   9.057  1.00  0.00    -0.206 F 
ATOM     88  C   UNL     1       8.009   8.175   7.747  1.00  0.00     0.006 A 
ENDBRANCH  60  81
BRANCH  72  89
ATOM     89  C   UNL     1      10.812   3.783  15.105  1.00  0.00     0.057 A 
ATOM     90  C   UNL     1      10.276   4.802  15.901  1.00  0.00     0.134 A 
ATOM     91  C   UNL     1      12.157   3.442  15.315  1.00  0.00     0.134 A 
ATOM     92  F   UNL     1       8.997   5.180  15.754  1.00  0.00    -0.206 F 
ATOM     93  C   UNL     1      11.056   5.482  16.838  1.00  0.00     0.040 A 
ATOM     94  C   UNL     1      12.934   4.086  16.277  1.00  0.00     0.040 A 
ATOM     95  F   UNL     1      12.732   2.462  14.602  1.00  0.00    -0.206 F 
ATOM     96  C   UNL     1      12.387   5.119  17.033  1.00  0.00     0.006 A 
ENDBRANCH  72  89
ENDBRANCH  46  47
ENDBRANCH  39  41
ENDBRANCH  38  39
ENDBRANCH  37  38
ENDBRANCH  36  37
ENDBRANCH  35  36
ENDBRANCH  34  35
ENDBRANCH  33  34
ENDBRANCH   1  33
TORSDOF 23
