REMARK SMILES COC(=O)C1CCN(C(=O)N[C@@H]2C=C[C@H](C(=O)OCCOCCOCCOCCOC(=O)c3ccc(-c4c5nc(c(-c6c(F)cccc6F)c6ccc([nH]6)c(-c6c(F)cccc6F)c6nc(c(-c7c(F)cccc7F)c7ccc4[nH]7)C=C6)C=C5)cc3)C2)CC1
REMARK SMILES IDX 23 1 22 2 21 3 20 4 19 5 18 6 16 7 17 8 15 9 12 10 13 11
REMARK SMILES IDX 87 12 14 13 11 14 5 15 6 16 89 17 7 18 88 19 8 20 9 21 10 22
REMARK SMILES IDX 3 24 4 25 2 26 1 27 24 28 25 29 26 30 27 31 28 32 29 33
REMARK SMILES IDX 30 34 31 35 32 36 33 37 34 38 86 39 35 40 85 41 36 42 37 43
REMARK SMILES IDX 38 44 79 45 39 46 84 47 78 48 80 49 40 50 83 51 77 52 76 53
REMARK SMILES IDX 41 55 67 56 50 57 66 58 51 59 54 60 65 61 81 62 52 63 53 64
REMARK SMILES IDX 64 66 82 67 55 68 42 69 43 70 48 71 44 72 45 73 47 74 49 75
REMARK SMILES IDX 46 76 68 77 69 78 74 79 70 80 71 81 73 82 75 83 72 84 56 85
REMARK SMILES IDX 57 86 62 87 58 88 59 89 61 90 63 91 60 92
REMARK H PARENT 11 23 80 54 54 65
REMARK Flexibility Score: inf
ROOT
ATOM      1  C   UNL     1       1.414   5.139  -5.538  1.00  0.00     0.188 C 
ENDROOT
BRANCH   1   2
ATOM      2  C   UNL     1       1.820   6.363  -4.719  1.00  0.00     0.188 C 
BRANCH   2   3
ATOM      3  O   UNL     1       1.012   7.528  -4.764  1.00  0.00    -0.376 OA
BRANCH   3   4
ATOM      4  C   UNL     1       0.491   7.984  -6.008  1.00  0.00     0.202 C 
BRANCH   4   5
ATOM      5  C   UNL     1       1.415   8.106  -7.237  1.00  0.00     0.261 C 
BRANCH   5   6
ATOM      6  O   UNL     1       1.838   6.862  -7.852  1.00  0.00    -0.463 OA
BRANCH   6   7
ATOM      7  C   UNL     1       3.173   6.580  -7.848  1.00  0.00     0.312 C 
ATOM      8  O   UNL     1       4.018   7.306  -7.337  1.00  0.00    -0.252 OA
BRANCH   7   9
ATOM      9  C   UNL     1       3.504   5.325  -8.682  1.00  0.00     0.124 C 
ATOM     10  C   UNL     1       3.965   3.112  -7.605  1.00  0.00     0.107 C 
ATOM     11  C   UNL     1       5.193   3.771  -8.089  1.00  0.00    -0.006 C 
ATOM     12  C   UNL     1       2.882   3.954  -8.332  1.00  0.00     0.048 C 
ATOM     13  C   UNL     1       4.967   4.979  -8.621  1.00  0.00    -0.014 C 
BRANCH  10  14
ATOM     14  N   UNL     1       3.758   2.910  -6.151  1.00  0.00    -0.332 N 
ATOM     15  C   UNL     1       6.685   6.293  -3.795  1.00  0.00     0.102 C 
ATOM     16  C   UNL     1       5.794   5.604  -2.734  1.00  0.00     0.037 C 
ATOM     17  C   UNL     1       6.224   5.870  -5.196  1.00  0.00     0.037 C 
ATOM     18  C   UNL     1       5.409   4.131  -3.020  1.00  0.00     0.122 C 
ATOM     19  C   UNL     1       6.277   4.354  -5.247  1.00  0.00     0.122 C 
ATOM     20  N   UNL     1       5.196   3.854  -4.452  1.00  0.00    -0.325 N 
ATOM     21  C   UNL     1       4.118   3.147  -4.877  1.00  0.00     0.317 C 
ATOM     22  O   UNL     1       3.340   2.645  -4.053  1.00  0.00    -0.249 OA
ATOM     23  H   UNL     1       2.978   2.313  -6.087  1.00  0.00     0.165 HD
BRANCH  15  24
ATOM     24  C   UNL     1       8.186   6.021  -3.717  1.00  0.00     0.308 C 
ATOM     25  O   UNL     1       8.903   5.934  -4.711  1.00  0.00    -0.252 OA
BRANCH  24  26
ATOM     26  O   UNL     1       8.651   5.915  -2.448  1.00  0.00    -0.469 OA
ATOM     27  C   UNL     1      10.053   5.623  -2.398  1.00  0.00     0.282 C 
ENDBRANCH  24  26
ENDBRANCH  15  24
ENDBRANCH  10  14
ENDBRANCH   7   9
ENDBRANCH   6   7
ENDBRANCH   5   6
ENDBRANCH   4   5
ENDBRANCH   3   4
ENDBRANCH   2   3
ENDBRANCH   1   2
BRANCH   1  28
ATOM     28  O   UNL     1       0.297   5.307  -6.389  1.00  0.00    -0.377 OA
BRANCH  28  29
ATOM     29  C   UNL     1      -0.953   4.818  -5.931  1.00  0.00     0.188 C 
BRANCH  29  30
ATOM     30  C   UNL     1      -1.239   4.898  -4.424  1.00  0.00     0.188 C 
BRANCH  30  31
ATOM     31  O   UNL     1      -0.239   4.287  -3.623  1.00  0.00    -0.376 OA
BRANCH  31  32
ATOM     32  C   UNL     1      -0.390   2.927  -3.237  1.00  0.00     0.202 C 
BRANCH  32  33
ATOM     33  C   UNL     1      -0.420   1.836  -4.324  1.00  0.00     0.261 C 
BRANCH  33  34
ATOM     34  O   UNL     1      -1.446   1.931  -5.330  1.00  0.00    -0.460 OA
BRANCH  34  35
ATOM     35  C   UNL     1      -2.740   1.974  -4.939  1.00  0.00     0.338 C 
ATOM     36  O   UNL     1      -3.172   1.859  -3.816  1.00  0.00    -0.246 OA
BRANCH  35  37
ATOM     37  C   UNL     1      -3.539   2.401  -6.115  1.00  0.00     0.060 A 
ATOM     38  C   UNL     1      -4.255   3.603  -6.040  1.00  0.00     0.016 A 
ATOM     39  C   UNL     1      -3.566   1.641  -7.286  1.00  0.00     0.016 A 
ATOM     40  C   UNL     1      -5.008   4.043  -7.131  1.00  0.00     0.010 A 
ATOM     41  C   UNL     1      -4.346   2.066  -8.368  1.00  0.00     0.010 A 
ATOM     42  C   UNL     1      -5.088   3.259  -8.289  1.00  0.00    -0.014 A 
BRANCH  42  43
ATOM     43  C   UNL     1      -6.073   3.599  -9.345  1.00  0.00     0.031 A 
ATOM     44  C   UNL     1      -7.404   2.898  -9.337  1.00  0.00     0.074 A 
ATOM     45  C   UNL     1      -5.802   4.521 -10.286  1.00  0.00     0.049 A 
ATOM     46  N   UNL     1      -8.392   2.976 -10.190  1.00  0.00    -0.248 NA
ATOM     47  C   UNL     1      -7.651   1.982  -8.210  1.00  0.00     0.031 C 
ATOM     48  C   UNL     1      -4.571   5.304 -10.373  1.00  0.00     0.029 A 
ATOM     49  N   UNL     1      -6.546   4.944 -11.360  1.00  0.00    -0.354 N 
ATOM     50  C   UNL     1      -9.372   2.117  -9.711  1.00  0.00     0.074 A 
ATOM     51  C   UNL     1      -8.853   1.510  -8.505  1.00  0.00     0.031 C 
ATOM     52  C   UNL     1      -4.635   6.097 -11.457  1.00  0.00     0.029 A 
ATOM     53  C   UNL     1      -5.893   5.850 -12.160  1.00  0.00     0.049 A 
ATOM     54  H   UNL     1      -7.461   4.627 -11.540  1.00  0.00     0.167 HD
ATOM     55  C   UNL     1     -10.596   1.860 -10.229  1.00  0.00     0.037 A 
ATOM     56  C   UNL     1      -6.258   6.390 -13.341  1.00  0.00     0.037 A 
ATOM     57  C   UNL     1     -11.108   2.463 -11.431  1.00  0.00     0.049 A 
ATOM     58  C   UNL     1      -7.591   6.020 -13.942  1.00  0.00     0.074 A 
ATOM     59  C   UNL     1     -12.345   2.286 -12.024  1.00  0.00     0.029 A 
ATOM     60  N   UNL     1     -10.403   3.350 -12.231  1.00  0.00    -0.354 N 
ATOM     61  N   UNL     1      -8.525   5.232 -13.466  1.00  0.00    -0.248 NA
ATOM     62  C   UNL     1      -7.920   6.614 -15.247  1.00  0.00     0.031 C 
ATOM     63  C   UNL     1     -12.366   3.015 -13.216  1.00  0.00     0.029 A 
ATOM     64  C   UNL     1     -11.166   3.698 -13.333  1.00  0.00     0.049 A 
ATOM     65  H   UNL     1      -9.496   3.682 -12.043  1.00  0.00     0.167 HD
ATOM     66  C   UNL     1      -9.558   5.257 -14.396  1.00  0.00     0.074 A 
ATOM     67  C   UNL     1      -9.145   6.153 -15.455  1.00  0.00     0.031 C 
ATOM     68  C   UNL     1     -10.742   4.596 -14.377  1.00  0.00     0.037 A 
BRANCH  55  69
ATOM     69  C   UNL     1     -11.457   0.856  -9.519  1.00  0.00     0.057 A 
ATOM     70  C   UNL     1     -12.054   1.130  -8.281  1.00  0.00     0.134 A 
ATOM     71  C   UNL     1     -11.730  -0.386 -10.107  1.00  0.00     0.134 A 
ATOM     72  F   UNL     1     -11.821   2.294  -7.657  1.00  0.00    -0.206 F 
ATOM     73  C   UNL     1     -12.878   0.198  -7.647  1.00  0.00     0.040 A 
ATOM     74  C   UNL     1     -12.575  -1.314  -9.496  1.00  0.00     0.040 A 
ATOM     75  F   UNL     1     -11.193  -0.712 -11.292  1.00  0.00    -0.206 F 
ATOM     76  C   UNL     1     -13.148  -1.025  -8.259  1.00  0.00     0.006 A 
ENDBRANCH  55  69
BRANCH  56  77
ATOM     77  C   UNL     1      -5.337   7.308 -14.063  1.00  0.00     0.057 A 
ATOM     78  C   UNL     1      -5.660   8.655 -14.269  1.00  0.00     0.134 A 
ATOM     79  C   UNL     1      -4.131   6.848 -14.608  1.00  0.00     0.134 A 
ATOM     80  F   UNL     1      -6.814   9.151 -13.798  1.00  0.00    -0.206 F 
ATOM     81  C   UNL     1      -4.833   9.503 -15.008  1.00  0.00     0.040 A 
ATOM     82  C   UNL     1      -3.279   7.692 -15.322  1.00  0.00     0.040 A 
ATOM     83  F   UNL     1      -3.760   5.569 -14.451  1.00  0.00    -0.206 F 
ATOM     84  C   UNL     1      -3.635   9.023 -15.533  1.00  0.00     0.006 A 
ENDBRANCH  56  77
BRANCH  68  85
ATOM     85  C   UNL     1     -11.691   4.840 -15.517  1.00  0.00     0.057 A 
ATOM     86  C   UNL     1     -11.443   4.349 -16.805  1.00  0.00     0.134 A 
ATOM     87  C   UNL     1     -12.892   5.532 -15.310  1.00  0.00     0.134 A 
ATOM     88  F   UNL     1     -10.307   3.688 -17.075  1.00  0.00    -0.206 F 
ATOM     89  C   UNL     1     -12.344   4.558 -17.851  1.00  0.00     0.040 A 
ATOM     90  C   UNL     1     -13.815   5.719 -16.339  1.00  0.00     0.040 A 
ATOM     91  F   UNL     1     -13.198   6.018 -14.097  1.00  0.00    -0.206 F 
ATOM     92  C   UNL     1     -13.539   5.238 -17.617  1.00  0.00     0.006 A 
ENDBRANCH  68  85
ENDBRANCH  42  43
ENDBRANCH  35  37
ENDBRANCH  34  35
ENDBRANCH  33  34
ENDBRANCH  32  33
ENDBRANCH  31  32
ENDBRANCH  30  31
ENDBRANCH  29  30
ENDBRANCH  28  29
ENDBRANCH   1  28
TORSDOF 23
