REMARK SMILES Cc1ccc(-c2cc([C@@H](C)C(=O)OCCOCCOCCOCCOC(=O)c3ccc(-c4c5nc(c(-c6c(F)cccc6F)c6ccc([nH]6)c(-c6c(F)cccc6F)c6nc(c(-c7c(F)cccc7F)c7ccc4[nH]7)C=C6)C=C5)cc3)ccc2C[C@H]2CCCC2=O)cc1
REMARK SMILES IDX 18 1 17 2 16 3 15 4 14 5 13 6 11 7 12 8 9 9 10 10 8 11 6 12
REMARK SMILES IDX 7 13 84 14 83 15 82 16 5 17 1 18 2 19 3 20 93 21 4 22 92 23
REMARK SMILES IDX 85 24 86 25 87 26 90 27 88 28 89 29 91 30 19 31 20 32 21 33
REMARK SMILES IDX 22 34 23 35 24 36 25 37 26 38 27 39 28 40 29 41 81 42 30 43
REMARK SMILES IDX 80 44 31 45 32 46 33 47 74 48 34 49 79 50 73 51 75 52 35 53
REMARK SMILES IDX 78 54 72 55 71 56 36 58 62 59 45 60 61 61 46 62 49 63 60 64
REMARK SMILES IDX 76 65 47 66 48 67 59 69 77 70 50 71 37 72 38 73 43 74 39 75
REMARK SMILES IDX 40 76 42 77 44 78 41 79 63 80 64 81 69 82 65 83 66 84 68 85
REMARK SMILES IDX 70 86 67 87 51 88 52 89 57 90 53 91 54 92 56 93 58 94 55 95
REMARK H PARENT 75 57 49 68
REMARK Flexibility Score: inf
ROOT
ATOM      1  C   UNL     1      -3.850   2.689  -0.346  1.00  0.00     0.188 C 
ENDROOT
BRANCH   1   2
ATOM      2  C   UNL     1      -3.695   3.512  -1.620  1.00  0.00     0.188 C 
BRANCH   2   3
ATOM      3  O   UNL     1      -4.529   4.648  -1.757  1.00  0.00    -0.376 OA
BRANCH   3   4
ATOM      4  C   UNL     1      -5.893   4.349  -2.058  1.00  0.00     0.202 C 
BRANCH   4   5
ATOM      5  C   UNL     1      -6.119   3.426  -3.257  1.00  0.00     0.261 C 
BRANCH   5   6
ATOM      6  O   UNL     1      -6.006   2.032  -2.886  1.00  0.00    -0.463 OA
BRANCH   6   7
ATOM      7  C   UNL     1      -5.320   1.236  -3.744  1.00  0.00     0.313 C 
ATOM      8  O   UNL     1      -4.783   1.631  -4.776  1.00  0.00    -0.252 OA
BRANCH   7   9
ATOM      9  C   UNL     1      -5.307  -0.231  -3.341  1.00  0.00     0.126 C 
ATOM     10  C   UNL     1      -6.645  -0.867  -3.725  1.00  0.00     0.025 C 
BRANCH   9  11
ATOM     11  C   UNL     1      -4.780  -0.535  -1.940  1.00  0.00    -0.033 A 
ATOM     12  C   UNL     1      -2.811  -0.798  -0.444  1.00  0.00    -0.015 A 
ATOM     13  C   UNL     1      -3.394  -0.481  -1.702  1.00  0.00     0.013 A 
ATOM     14  C   UNL     1      -3.645  -1.260   0.606  1.00  0.00    -0.039 A 
ATOM     15  C   UNL     1      -5.035  -1.281   0.375  1.00  0.00     0.004 A 
ATOM     16  C   UNL     1      -5.591  -0.908  -0.865  1.00  0.00     0.005 A 
BRANCH  12  17
ATOM     17  C   UNL     1      -1.354  -0.596  -0.299  1.00  0.00    -0.018 A 
ATOM     18  C   UNL     1       2.913   0.056   0.044  1.00  0.00     0.044 C 
ATOM     19  C   UNL     1       1.436  -0.165  -0.078  1.00  0.00    -0.051 A 
ATOM     20  C   UNL     1       0.920  -1.456  -0.244  1.00  0.00     0.004 A 
ATOM     21  C   UNL     1       0.555   0.911  -0.022  1.00  0.00     0.004 A 
ATOM     22  C   UNL     1      -0.458  -1.667  -0.367  1.00  0.00     0.009 A 
ATOM     23  C   UNL     1      -0.818   0.692  -0.124  1.00  0.00     0.009 A 
ENDBRANCH  12  17
BRANCH  14  24
ATOM     24  C   UNL     1      -3.084  -1.928   1.857  1.00  0.00     0.047 C 
BRANCH  24  25
ATOM     25  C   UNL     1      -3.338  -1.435   3.286  1.00  0.00     0.060 C 
ATOM     26  C   UNL     1      -2.908  -0.009   3.617  1.00  0.00     0.012 C 
ATOM     27  C   UNL     1      -4.785  -1.464   3.727  1.00  0.00     0.136 C 
ATOM     28  C   UNL     1      -4.196   0.786   3.614  1.00  0.00     0.009 C 
ATOM     29  C   UNL     1      -5.270  -0.118   4.183  1.00  0.00     0.076 C 
ATOM     30  O   UNL     1      -5.472  -2.476   3.772  1.00  0.00    -0.299 OA
ENDBRANCH  24  25
ENDBRANCH  14  24
ENDBRANCH   9  11
ENDBRANCH   7   9
ENDBRANCH   6   7
ENDBRANCH   5   6
ENDBRANCH   4   5
ENDBRANCH   3   4
ENDBRANCH   2   3
ENDBRANCH   1   2
BRANCH   1  31
ATOM     31  O   UNL     1      -5.145   2.326   0.078  1.00  0.00    -0.377 OA
BRANCH  31  32
ATOM     32  C   UNL     1      -5.659   2.927   1.260  1.00  0.00     0.188 C 
BRANCH  32  33
ATOM     33  C   UNL     1      -4.689   3.637   2.200  1.00  0.00     0.188 C 
BRANCH  33  34
ATOM     34  O   UNL     1      -4.284   4.869   1.611  1.00  0.00    -0.376 OA
BRANCH  34  35
ATOM     35  C   UNL     1      -3.074   5.410   2.138  1.00  0.00     0.202 C 
BRANCH  35  36
ATOM     36  C   UNL     1      -3.169   5.784   3.623  1.00  0.00     0.261 C 
BRANCH  36  37
ATOM     37  O   UNL     1      -4.227   6.747   3.797  1.00  0.00    -0.460 OA
BRANCH  37  38
ATOM     38  C   UNL     1      -5.347   6.268   4.406  1.00  0.00     0.338 C 
ATOM     39  O   UNL     1      -5.364   5.628   5.442  1.00  0.00    -0.246 OA
BRANCH  38  40
ATOM     40  C   UNL     1      -6.516   6.364   3.476  1.00  0.00     0.060 A 
ATOM     41  C   UNL     1      -7.703   5.679   3.786  1.00  0.00     0.016 A 
ATOM     42  C   UNL     1      -6.313   6.820   2.178  1.00  0.00     0.016 A 
ATOM     43  C   UNL     1      -8.601   5.311   2.767  1.00  0.00     0.010 A 
ATOM     44  C   UNL     1      -7.143   6.359   1.169  1.00  0.00     0.010 A 
ATOM     45  C   UNL     1      -8.280   5.572   1.432  1.00  0.00    -0.014 A 
BRANCH  45  46
ATOM     46  C   UNL     1      -8.882   4.908   0.248  1.00  0.00     0.031 A 
ATOM     47  C   UNL     1      -9.093   5.674  -1.030  1.00  0.00     0.074 A 
ATOM     48  C   UNL     1      -8.925   3.551   0.174  1.00  0.00     0.049 A 
ATOM     49  N   UNL     1      -9.420   5.136  -2.158  1.00  0.00    -0.248 NA
ATOM     50  C   UNL     1      -8.976   7.128  -1.147  1.00  0.00     0.031 C 
ATOM     51  C   UNL     1      -8.752   2.757  -1.049  1.00  0.00     0.029 A 
ATOM     52  N   UNL     1      -9.023   2.561   1.137  1.00  0.00    -0.354 N 
ATOM     53  C   UNL     1      -9.223   6.047  -3.167  1.00  0.00     0.074 A 
ATOM     54  C   UNL     1      -9.070   7.301  -2.473  1.00  0.00     0.031 C 
ATOM     55  C   UNL     1      -8.837   1.451  -0.781  1.00  0.00     0.029 A 
ATOM     56  C   UNL     1      -9.383   1.339   0.541  1.00  0.00     0.049 A 
ATOM     57  H   UNL     1      -8.864   2.693   2.100  1.00  0.00     0.167 HD
ATOM     58  C   UNL     1      -9.104   5.596  -4.454  1.00  0.00     0.037 A 
ATOM     59  C   UNL     1     -10.616   0.783   0.758  1.00  0.00     0.037 A 
ATOM     60  C   UNL     1      -9.560   4.190  -4.610  1.00  0.00     0.049 A 
ATOM     61  C   UNL     1     -11.573   0.878  -0.430  1.00  0.00     0.074 A 
ATOM     62  C   UNL     1      -9.114   3.036  -5.239  1.00  0.00     0.029 A 
ATOM     63  N   UNL     1     -10.704   3.786  -3.924  1.00  0.00    -0.354 N 
ATOM     64  N   UNL     1     -11.231   1.222  -1.647  1.00  0.00    -0.248 NA
ATOM     65  C   UNL     1     -13.017   0.672  -0.315  1.00  0.00     0.031 C 
ATOM     66  C   UNL     1     -10.024   1.967  -4.948  1.00  0.00     0.029 A 
ATOM     67  C   UNL     1     -11.040   2.472  -4.161  1.00  0.00     0.049 A 
ATOM     68  H   UNL     1     -11.219   4.380  -3.332  1.00  0.00     0.167 HD
ATOM     69  C   UNL     1     -12.351   1.436  -2.406  1.00  0.00     0.074 A 
ATOM     70  C   UNL     1     -13.444   1.034  -1.538  1.00  0.00     0.031 C 
ATOM     71  C   UNL     1     -12.320   2.000  -3.654  1.00  0.00     0.037 A 
BRANCH  58  72
ATOM     72  C   UNL     1      -8.476   6.402  -5.597  1.00  0.00     0.057 A 
ATOM     73  C   UNL     1      -8.491   5.918  -6.924  1.00  0.00     0.134 A 
ATOM     74  C   UNL     1      -7.748   7.605  -5.454  1.00  0.00     0.134 A 
ATOM     75  F   UNL     1      -9.146   4.798  -7.257  1.00  0.00    -0.206 F 
ATOM     76  C   UNL     1      -7.827   6.551  -7.991  1.00  0.00     0.040 A 
ATOM     77  C   UNL     1      -7.142   8.285  -6.526  1.00  0.00     0.040 A 
ATOM     78  F   UNL     1      -7.525   8.174  -4.266  1.00  0.00    -0.206 F 
ATOM     79  C   UNL     1      -7.161   7.749  -7.799  1.00  0.00     0.006 A 
ENDBRANCH  58  72
BRANCH  59  80
ATOM     80  C   UNL     1     -10.942   0.798   2.209  1.00  0.00     0.057 A 
ATOM     81  C   UNL     1     -10.173  -0.069   3.008  1.00  0.00     0.134 A 
ATOM     82  C   UNL     1     -11.434   1.962   2.810  1.00  0.00     0.134 A 
ATOM     83  F   UNL     1      -9.701  -1.214   2.492  1.00  0.00    -0.206 F 
ATOM     84  C   UNL     1      -9.720   0.314   4.271  1.00  0.00     0.040 A 
ATOM     85  C   UNL     1     -10.989   2.352   4.079  1.00  0.00     0.040 A 
ATOM     86  F   UNL     1     -12.181   2.827   2.108  1.00  0.00    -0.206 F 
ATOM     87  C   UNL     1     -10.085   1.556   4.785  1.00  0.00     0.006 A 
ENDBRANCH  59  80
BRANCH  71  88
ATOM     88  C   UNL     1     -13.559   2.281  -4.471  1.00  0.00     0.057 A 
ATOM     89  C   UNL     1     -14.637   1.391  -4.556  1.00  0.00     0.134 A 
ATOM     90  C   UNL     1     -13.675   3.443  -5.267  1.00  0.00     0.134 A 
ATOM     91  F   UNL     1     -14.592   0.192  -3.957  1.00  0.00    -0.206 F 
ATOM     92  C   UNL     1     -15.799   1.691  -5.280  1.00  0.00     0.040 A 
ATOM     93  C   UNL     1     -14.808   3.730  -6.032  1.00  0.00     0.040 A 
ATOM     94  F   UNL     1     -12.706   4.365  -5.330  1.00  0.00    -0.206 F 
ATOM     95  C   UNL     1     -15.890   2.867  -6.016  1.00  0.00     0.006 A 
ENDBRANCH  71  88
ENDBRANCH  45  46
ENDBRANCH  38  40
ENDBRANCH  37  38
ENDBRANCH  36  37
ENDBRANCH  35  36
ENDBRANCH  34  35
ENDBRANCH  33  34
ENDBRANCH  32  33
ENDBRANCH  31  32
ENDBRANCH   1  31
TORSDOF 24
