REMARK SMILES O=C(OCCOCCOCCOCCOC(=O)[C@@H]1CCCCN1c1ccccc1[N+](=O)[O-])c1ccc(-c2c3nc(c(-c4c(F)cccc4F)c4ccc([nH]4)c(-c4c(F)cccc4F)c4nc(c(-c5c(F)cccc5F)c5ccc2[nH]5)C=C4)C=C3)cc1
REMARK SMILES IDX 9 1 8 2 7 3 6 4 5 5 4 6 3 7 2 8 1 9 33 10 34 11 86 12 35 13
REMARK SMILES IDX 85 14 36 15 37 16 38 17 79 18 39 19 84 20 78 21 80 22 40 23
REMARK SMILES IDX 83 24 77 25 76 26 41 28 67 29 50 30 66 31 51 32 54 33 65 34
REMARK SMILES IDX 81 35 52 36 53 37 64 39 82 40 55 41 42 42 43 43 48 44 44 45
REMARK SMILES IDX 45 46 47 47 49 48 46 49 68 50 69 51 74 52 70 53 71 54 73 55
REMARK SMILES IDX 75 56 72 57 56 58 57 59 62 60 58 61 59 62 61 63 63 64 60 65
REMARK SMILES IDX 10 66 11 67 12 68 13 69 14 70 15 71 16 72 17 73 18 74 19 75
REMARK SMILES IDX 23 76 20 77 22 78 21 79 24 80 25 81 29 82 26 83 28 84 27 85
REMARK SMILES IDX 30 86 31 87 32 88
REMARK H PARENT 80 27 54 38
REMARK Flexibility Score: inf
ROOT
ATOM      1  O   UNL     1       2.094   2.401  -2.493  1.00  0.00    -0.377 OA
ENDROOT
BRANCH   1   2
ATOM      2  C   UNL     1       1.647   2.015  -1.203  1.00  0.00     0.188 C 
BRANCH   2   3
ATOM      3  C   UNL     1       2.228   0.700  -0.674  1.00  0.00     0.188 C 
BRANCH   3   4
ATOM      4  O   UNL     1       3.624   0.775  -0.354  1.00  0.00    -0.376 OA
BRANCH   4   5
ATOM      5  C   UNL     1       4.478  -0.267  -0.841  1.00  0.00     0.202 C 
BRANCH   5   6
ATOM      6  C   UNL     1       4.252  -1.676  -0.288  1.00  0.00     0.261 C 
BRANCH   6   7
ATOM      7  O   UNL     1       2.933  -1.921   0.216  1.00  0.00    -0.460 OA
BRANCH   7   8
ATOM      8  C   UNL     1       2.391  -1.582   1.411  1.00  0.00     0.338 C 
ATOM      9  O   UNL     1       1.236  -1.940   1.640  1.00  0.00    -0.246 OA
BRANCH   8  10
ATOM     10  C   UNL     1       3.076  -0.742   2.447  1.00  0.00     0.060 A 
ATOM     11  C   UNL     1       4.290  -0.082   2.274  1.00  0.00     0.016 A 
ATOM     12  C   UNL     1       2.420  -0.573   3.680  1.00  0.00     0.016 A 
ATOM     13  C   UNL     1       4.839   0.728   3.242  1.00  0.00     0.010 A 
ATOM     14  C   UNL     1       2.994   0.191   4.703  1.00  0.00     0.010 A 
ATOM     15  C   UNL     1       4.222   0.818   4.478  1.00  0.00    -0.014 A 
BRANCH  15  16
ATOM     16  C   UNL     1       5.097   1.294   5.552  1.00  0.00     0.031 A 
ATOM     17  C   UNL     1       5.856   0.244   6.306  1.00  0.00     0.074 A 
ATOM     18  C   UNL     1       5.409   2.598   5.620  1.00  0.00     0.049 A 
ATOM     19  N   UNL     1       6.712   0.373   7.279  1.00  0.00    -0.248 NA
ATOM     20  C   UNL     1       5.649  -1.152   5.868  1.00  0.00     0.031 C 
ATOM     21  C   UNL     1       4.888   3.639   4.728  1.00  0.00     0.029 A 
ATOM     22  N   UNL     1       6.282   3.260   6.434  1.00  0.00    -0.354 N 
ATOM     23  C   UNL     1       7.107  -0.920   7.596  1.00  0.00     0.074 A 
ATOM     24  C   UNL     1       6.422  -1.822   6.704  1.00  0.00     0.031 C 
ATOM     25  C   UNL     1       5.460   4.812   5.045  1.00  0.00     0.029 A 
ATOM     26  C   UNL     1       6.322   4.612   6.203  1.00  0.00     0.049 A 
ATOM     27  H   UNL     1       6.828   2.811   7.119  1.00  0.00     0.167 HD
ATOM     28  C   UNL     1       7.957  -1.308   8.572  1.00  0.00     0.037 A 
ATOM     29  C   UNL     1       6.959   5.569   6.900  1.00  0.00     0.037 A 
ATOM     30  C   UNL     1       8.606  -0.365   9.438  1.00  0.00     0.049 A 
ATOM     31  C   UNL     1       7.768   5.123   8.088  1.00  0.00     0.074 A 
ATOM     32  C   UNL     1       9.397  -0.597  10.544  1.00  0.00     0.029 A 
ATOM     33  N   UNL     1       8.520   1.014   9.278  1.00  0.00    -0.354 N 
ATOM     34  N   UNL     1       8.044   3.901   8.489  1.00  0.00    -0.248 NA
ATOM     35  C   UNL     1       8.333   6.177   8.936  1.00  0.00     0.031 C 
ATOM     36  C   UNL     1       9.746   0.647  11.084  1.00  0.00     0.029 A 
ATOM     37  C   UNL     1       9.224   1.652  10.279  1.00  0.00     0.049 A 
ATOM     38  H   UNL     1       8.029   1.469   8.556  1.00  0.00     0.167 HD
ATOM     39  C   UNL     1       8.832   4.037   9.621  1.00  0.00     0.074 A 
ATOM     40  C   UNL     1       9.002   5.463   9.831  1.00  0.00     0.031 C 
ATOM     41  C   UNL     1       9.366   3.081  10.423  1.00  0.00     0.037 A 
BRANCH  28  42
ATOM     42  C   UNL     1       8.093  -2.784   8.799  1.00  0.00     0.057 A 
ATOM     43  C   UNL     1       8.756  -3.631   7.901  1.00  0.00     0.134 A 
ATOM     44  C   UNL     1       7.453  -3.381   9.893  1.00  0.00     0.134 A 
ATOM     45  F   UNL     1       9.351  -3.131   6.807  1.00  0.00    -0.206 F 
ATOM     46  C   UNL     1       8.746  -5.020   8.063  1.00  0.00     0.040 A 
ATOM     47  C   UNL     1       7.458  -4.764  10.080  1.00  0.00     0.040 A 
ATOM     48  F   UNL     1       6.783  -2.632  10.782  1.00  0.00    -0.206 F 
ATOM     49  C   UNL     1       8.096  -5.589   9.156  1.00  0.00     0.006 A 
ENDBRANCH  28  42
BRANCH  29  50
ATOM     50  C   UNL     1       6.792   7.005   6.555  1.00  0.00     0.057 A 
ATOM     51  C   UNL     1       7.877   7.796   6.162  1.00  0.00     0.134 A 
ATOM     52  C   UNL     1       5.541   7.634   6.637  1.00  0.00     0.134 A 
ATOM     53  F   UNL     1       9.105   7.263   6.078  1.00  0.00    -0.206 F 
ATOM     54  C   UNL     1       7.730   9.158   5.884  1.00  0.00     0.040 A 
ATOM     55  C   UNL     1       5.373   8.986   6.335  1.00  0.00     0.040 A 
ATOM     56  F   UNL     1       4.455   6.939   7.009  1.00  0.00    -0.206 F 
ATOM     57  C   UNL     1       6.474   9.756   5.967  1.00  0.00     0.006 A 
ENDBRANCH  29  50
BRANCH  41  58
ATOM     58  C   UNL     1      10.219   3.561  11.556  1.00  0.00     0.057 A 
ATOM     59  C   UNL     1       9.668   4.167  12.690  1.00  0.00     0.134 A 
ATOM     60  C   UNL     1      11.604   3.361  11.525  1.00  0.00     0.134 A 
ATOM     61  F   UNL     1       8.348   4.396  12.767  1.00  0.00    -0.206 F 
ATOM     62  C   UNL     1      10.473   4.581  13.750  1.00  0.00     0.040 A 
ATOM     63  C   UNL     1      12.414   3.741  12.592  1.00  0.00     0.040 A 
ATOM     64  F   UNL     1      12.185   2.773  10.468  1.00  0.00    -0.206 F 
ATOM     65  C   UNL     1      11.849   4.359  13.706  1.00  0.00     0.006 A 
ENDBRANCH  41  58
ENDBRANCH  15  16
ENDBRANCH   8  10
ENDBRANCH   7   8
ENDBRANCH   6   7
ENDBRANCH   5   6
ENDBRANCH   4   5
ENDBRANCH   3   4
ENDBRANCH   2   3
ENDBRANCH   1   2
BRANCH   1  66
ATOM     66  C   UNL     1       3.470   2.190  -2.735  1.00  0.00     0.188 C 
BRANCH  66  67
ATOM     67  C   UNL     1       4.509   2.998  -1.921  1.00  0.00     0.188 C 
BRANCH  67  68
ATOM     68  O   UNL     1       3.937   3.751  -0.864  1.00  0.00    -0.376 OA
BRANCH  68  69
ATOM     69  C   UNL     1       3.640   5.112  -1.168  1.00  0.00     0.202 C 
BRANCH  69  70
ATOM     70  C   UNL     1       2.874   5.414  -2.472  1.00  0.00     0.261 C 
BRANCH  70  71
ATOM     71  O   UNL     1       3.490   4.871  -3.667  1.00  0.00    -0.462 OA
BRANCH  71  72
ATOM     72  C   UNL     1       4.471   5.589  -4.273  1.00  0.00     0.328 C 
ATOM     73  O   UNL     1       4.737   6.742  -3.932  1.00  0.00    -0.250 OA
BRANCH  72  74
ATOM     74  C   UNL     1       5.190   4.786  -5.430  1.00  0.00     0.192 C 
ATOM     75  C   UNL     1       4.861   3.289  -5.484  1.00  0.00     0.037 C 
ATOM     76  N   UNL     1       6.677   4.825  -5.383  1.00  0.00    -0.353 N 
ATOM     77  C   UNL     1       5.556   2.499  -6.589  1.00  0.00     0.005 C 
ATOM     78  C   UNL     1       7.389   4.224  -6.508  1.00  0.00     0.118 C 
ATOM     79  C   UNL     1       7.064   2.731  -6.555  1.00  0.00     0.022 C 
BRANCH  76  80
ATOM     80  C   UNL     1       7.337   5.638  -4.489  1.00  0.00     0.116 A 
ATOM     81  C   UNL     1       7.697   5.072  -3.250  1.00  0.00     0.033 A 
ATOM     82  C   UNL     1       7.591   7.008  -4.670  1.00  0.00     0.292 A 
ATOM     83  C   UNL     1       8.237   5.843  -2.218  1.00  0.00     0.003 A 
ATOM     84  C   UNL     1       8.138   7.789  -3.636  1.00  0.00     0.088 A 
ATOM     85  C   UNL     1       8.447   7.205  -2.408  1.00  0.00     0.007 A 
BRANCH  82  86
ATOM     86  N   UNL     1       7.284   7.689  -5.930  1.00  0.00     0.064 N 
ATOM     87  O   UNL     1       8.074   8.576  -6.291  1.00  0.00    -0.258 OA
ATOM     88  O   UNL     1       6.271   7.366  -6.569  1.00  0.00    -0.258 OA
ENDBRANCH  82  86
ENDBRANCH  76  80
ENDBRANCH  72  74
ENDBRANCH  71  72
ENDBRANCH  70  71
ENDBRANCH  69  70
ENDBRANCH  68  69
ENDBRANCH  67  68
ENDBRANCH  66  67
ENDBRANCH   1  66
TORSDOF 22
