REMARK SMILES CSc1nc(O)nc(C)c1C(=O)N1C[C@@H](O)C[C@@H]1C(=O)OCCOCCOCCOCCOC(=O)c1ccc(-c2c3nc(c(-c4c(F)cccc4F)c4ccc([nH]4)c(-c4c(F)cccc4F)c4nc(c(-c5c(F)cccc5F)c5ccc2[nH]5)C=C4)C=C3)cc1
REMARK SMILES IDX 26 1 25 2 24 3 23 4 22 5 21 6 19 7 20 8 18 9 13 10 14 11
REMARK SMILES IDX 15 12 17 13 11 14 12 15 10 16 3 17 4 18 5 19 8 20 7 21 9 22
REMARK SMILES IDX 2 23 1 24 6 25 16 27 27 29 28 30 29 31 30 32 31 33 32 34
REMARK SMILES IDX 33 35 34 36 35 37 36 38 37 39 89 40 38 41 88 42 39 43 40 44
REMARK SMILES IDX 41 45 82 46 42 47 87 48 81 49 83 50 43 51 86 52 80 53 79 54
REMARK SMILES IDX 44 56 70 57 53 58 69 59 54 60 57 61 68 62 84 63 55 64 56 65
REMARK SMILES IDX 67 67 85 68 58 69 45 70 46 71 51 72 47 73 48 74 50 75 52 76
REMARK SMILES IDX 49 77 71 78 72 79 77 80 73 81 74 82 76 83 78 84 75 85 59 86
REMARK SMILES IDX 60 87 65 88 61 89 62 90 64 91 66 92 63 93
REMARK H PARENT 6 26 16 28 83 55 57 66
REMARK Flexibility Score: inf
ROOT
ATOM      1  C   UNL     1      -2.018  -2.392   2.901  1.00  0.00     0.188 C 
ENDROOT
BRANCH   1   2
ATOM      2  C   UNL     1      -2.044  -0.957   3.455  1.00  0.00     0.188 C 
BRANCH   2   3
ATOM      3  O   UNL     1      -3.372  -0.579   3.813  1.00  0.00    -0.376 OA
BRANCH   3   4
ATOM      4  C   UNL     1      -3.995   0.361   2.945  1.00  0.00     0.202 C 
BRANCH   4   5
ATOM      5  C   UNL     1      -4.446  -0.241   1.609  1.00  0.00     0.261 C 
BRANCH   5   6
ATOM      6  O   UNL     1      -3.399  -0.840   0.816  1.00  0.00    -0.462 OA
BRANCH   6   7
ATOM      7  C   UNL     1      -2.337  -0.079   0.431  1.00  0.00     0.329 C 
ATOM      8  O   UNL     1      -2.260   1.129   0.590  1.00  0.00    -0.250 OA
BRANCH   7   9
ATOM      9  C   UNL     1      -1.289  -0.975  -0.259  1.00  0.00     0.198 C 
ATOM     10  N   UNL     1       0.155  -0.818   0.097  1.00  0.00    -0.322 N 
ATOM     11  C   UNL     1       0.881  -0.704  -1.154  1.00  0.00     0.152 C 
ATOM     12  C   UNL     1      -0.068   0.064  -2.054  1.00  0.00     0.136 C 
ATOM     13  C   UNL     1      -1.381  -0.650  -1.760  1.00  0.00     0.071 C 
BRANCH  10  14
ATOM     14  C   UNL     1       0.795  -1.596   1.060  1.00  0.00     0.259 C 
ATOM     15  O   UNL     1       0.934  -2.798   0.852  1.00  0.00    -0.269 OA
BRANCH  14  16
ATOM     16  C   UNL     1       1.343  -0.963   2.320  1.00  0.00     0.093 A 
ATOM     17  C   UNL     1       1.346   0.405   2.610  1.00  0.00     0.116 A 
ATOM     18  N   UNL     1       1.751   0.922   3.795  1.00  0.00    -0.188 NA
ATOM     19  C   UNL     1       2.180   0.061   4.699  1.00  0.00     0.315 A 
ATOM     20  C   UNL     1       1.892  -1.756   3.345  1.00  0.00     0.058 A 
ATOM     21  N   UNL     1       2.299  -1.248   4.543  1.00  0.00    -0.200 NA
ATOM     22  C   UNL     1       2.157  -3.233   3.245  1.00  0.00     0.068 C 
BRANCH  17  23
ATOM     23  S   UNL     1       0.917   1.718   1.485  1.00  0.00    -0.109 SA
ATOM     24  C   UNL     1       2.539   1.921   0.719  1.00  0.00     0.092 C 
ENDBRANCH  17  23
BRANCH  19  25
ATOM     25  O   UNL     1       2.566   0.543   5.908  1.00  0.00    -0.479 OA
ATOM     26  H   UNL     1       2.508   1.461   6.086  1.00  0.00     0.297 HD
ENDBRANCH  19  25
ENDBRANCH  14  16
ENDBRANCH  10  14
BRANCH  12  27
ATOM     27  O   UNL     1       0.239   0.001  -3.432  1.00  0.00    -0.391 OA
ATOM     28  H   UNL     1       0.248  -0.926  -3.719  1.00  0.00     0.211 HD
ENDBRANCH  12  27
ENDBRANCH   7   9
ENDBRANCH   6   7
ENDBRANCH   5   6
ENDBRANCH   4   5
ENDBRANCH   3   4
ENDBRANCH   2   3
ENDBRANCH   1   2
BRANCH   1  29
ATOM     29  O   UNL     1      -2.155  -3.421   3.865  1.00  0.00    -0.377 OA
BRANCH  29  30
ATOM     30  C   UNL     1      -3.273  -3.264   4.712  1.00  0.00     0.188 C 
BRANCH  30  31
ATOM     31  C   UNL     1      -2.958  -2.591   6.063  1.00  0.00     0.188 C 
BRANCH  31  32
ATOM     32  O   UNL     1      -1.645  -2.332   6.551  1.00  0.00    -0.376 OA
BRANCH  32  33
ATOM     33  C   UNL     1      -0.477  -2.900   5.992  1.00  0.00     0.202 C 
BRANCH  33  34
ATOM     34  C   UNL     1      -0.230  -4.409   6.070  1.00  0.00     0.261 C 
BRANCH  34  35
ATOM     35  O   UNL     1      -1.386  -5.224   5.948  1.00  0.00    -0.460 OA
BRANCH  35  36
ATOM     36  C   UNL     1      -2.029  -5.501   7.101  1.00  0.00     0.338 C 
ATOM     37  O   UNL     1      -1.732  -5.179   8.237  1.00  0.00    -0.246 OA
BRANCH  36  38
ATOM     38  C   UNL     1      -3.287  -6.145   6.704  1.00  0.00     0.060 A 
ATOM     39  C   UNL     1      -4.494  -5.554   7.100  1.00  0.00     0.016 A 
ATOM     40  C   UNL     1      -3.264  -7.263   5.863  1.00  0.00     0.016 A 
ATOM     41  C   UNL     1      -5.692  -6.067   6.632  1.00  0.00     0.010 A 
ATOM     42  C   UNL     1      -4.466  -7.828   5.460  1.00  0.00     0.010 A 
ATOM     43  C   UNL     1      -5.673  -7.246   5.876  1.00  0.00    -0.014 A 
BRANCH  43  44
ATOM     44  C   UNL     1      -6.894  -8.063   5.868  1.00  0.00     0.031 A 
ATOM     45  C   UNL     1      -7.136  -8.898   7.093  1.00  0.00     0.074 A 
ATOM     46  C   UNL     1      -7.739  -8.043   4.828  1.00  0.00     0.049 A 
ATOM     47  N   UNL     1      -8.131  -9.692   7.375  1.00  0.00    -0.248 NA
ATOM     48  C   UNL     1      -6.113  -8.813   8.154  1.00  0.00     0.031 C 
ATOM     49  C   UNL     1      -7.594  -7.220   3.629  1.00  0.00     0.029 A 
ATOM     50  N   UNL     1      -8.893  -8.746   4.624  1.00  0.00    -0.354 N 
ATOM     51  C   UNL     1      -7.861 -10.181   8.648  1.00  0.00     0.074 A 
ATOM     52  C   UNL     1      -6.604  -9.620   9.076  1.00  0.00     0.031 C 
ATOM     53  C   UNL     1      -8.627  -7.474   2.804  1.00  0.00     0.029 A 
ATOM     54  C   UNL     1      -9.479  -8.493   3.411  1.00  0.00     0.049 A 
ATOM     55  H   UNL     1      -9.268  -9.373   5.285  1.00  0.00     0.167 HD
ATOM     56  C   UNL     1      -8.601 -11.032   9.391  1.00  0.00     0.037 A 
ATOM     57  C   UNL     1     -10.576  -9.051   2.867  1.00  0.00     0.037 A 
ATOM     58  C   UNL     1      -9.813 -11.630   8.913  1.00  0.00     0.049 A 
ATOM     59  C   UNL     1     -11.307 -10.102   3.661  1.00  0.00     0.074 A 
ATOM     60  C   UNL     1     -10.653 -12.518   9.554  1.00  0.00     0.029 A 
ATOM     61  N   UNL     1     -10.335 -11.415   7.644  1.00  0.00    -0.354 N 
ATOM     62  N   UNL     1     -11.078 -10.530   4.881  1.00  0.00    -0.248 NA
ATOM     63  C   UNL     1     -12.443 -10.754   2.998  1.00  0.00     0.031 C 
ATOM     64  C   UNL     1     -11.655 -12.886   8.648  1.00  0.00     0.029 A 
ATOM     65  C   UNL     1     -11.466 -12.187   7.463  1.00  0.00     0.049 A 
ATOM     66  H   UNL     1      -9.955 -10.803   6.973  1.00  0.00     0.167 HD
ATOM     67  C   UNL     1     -12.053 -11.483   5.143  1.00  0.00     0.074 A 
ATOM     68  C   UNL     1     -12.883 -11.558   3.955  1.00  0.00     0.031 C 
ATOM     69  C   UNL     1     -12.255 -12.230   6.258  1.00  0.00     0.037 A 
BRANCH  56  70
ATOM     70  C   UNL     1      -8.060 -11.394  10.742  1.00  0.00     0.057 A 
ATOM     71  C   UNL     1      -7.518 -12.663  10.973  1.00  0.00     0.134 A 
ATOM     72  C   UNL     1      -8.010 -10.468  11.794  1.00  0.00     0.134 A 
ATOM     73  F   UNL     1      -7.517 -13.590  10.004  1.00  0.00    -0.206 F 
ATOM     74  C   UNL     1      -6.942 -12.998  12.199  1.00  0.00     0.040 A 
ATOM     75  C   UNL     1      -7.413 -10.783  13.017  1.00  0.00     0.040 A 
ATOM     76  F   UNL     1      -8.479  -9.222  11.626  1.00  0.00    -0.206 F 
ATOM     77  C   UNL     1      -6.879 -12.053  13.222  1.00  0.00     0.006 A 
ENDBRANCH  56  70
BRANCH  57  78
ATOM     78  C   UNL     1     -11.043  -8.642   1.520  1.00  0.00     0.057 A 
ATOM     79  C   UNL     1     -10.315  -8.946   0.363  1.00  0.00     0.134 A 
ATOM     80  C   UNL     1     -12.250  -7.952   1.356  1.00  0.00     0.134 A 
ATOM     81  F   UNL     1      -9.150  -9.606   0.450  1.00  0.00    -0.206 F 
ATOM     82  C   UNL     1     -10.766  -8.576  -0.905  1.00  0.00     0.040 A 
ATOM     83  C   UNL     1     -12.724  -7.594   0.092  1.00  0.00     0.040 A 
ATOM     84  F   UNL     1     -13.004  -7.649   2.423  1.00  0.00    -0.206 F 
ATOM     85  C   UNL     1     -11.978  -7.903  -1.044  1.00  0.00     0.006 A 
ENDBRANCH  57  78
BRANCH  69  86
ATOM     86  C   UNL     1     -13.426 -13.165   6.239  1.00  0.00     0.057 A 
ATOM     87  C   UNL     1     -14.558 -12.900   7.020  1.00  0.00     0.134 A 
ATOM     88  C   UNL     1     -13.418 -14.342   5.480  1.00  0.00     0.134 A 
ATOM     89  F   UNL     1     -14.620 -11.795   7.778  1.00  0.00    -0.206 F 
ATOM     90  C   UNL     1     -15.641 -13.777   7.050  1.00  0.00     0.040 A 
ATOM     91  C   UNL     1     -14.508 -15.211   5.479  1.00  0.00     0.040 A 
ATOM     92  F   UNL     1     -12.367 -14.642   4.702  1.00  0.00    -0.206 F 
ATOM     93  C   UNL     1     -15.621 -14.932   6.271  1.00  0.00     0.006 A 
ENDBRANCH  69  86
ENDBRANCH  43  44
ENDBRANCH  36  38
ENDBRANCH  35  36
ENDBRANCH  34  35
ENDBRANCH  33  34
ENDBRANCH  32  33
ENDBRANCH  31  32
ENDBRANCH  30  31
ENDBRANCH  29  30
ENDBRANCH   1  29
TORSDOF 25
