REMARK SMILES COc1ccc(-c2ccc(S(=O)(=O)NC(C)(C)C)cc2)c(C(=O)OCCOCCOCCOCCOC(=O)c2ccc(-c3c4nc(c(-c5c(F)cccc5F)c5ccc([nH]5)c(-c5c(F)cccc5F)c5nc(c(-c6c(F)cccc6F)c6ccc3[nH]6)C=C5)C=C4)cc2)c1
REMARK SMILES IDX 29 1 28 2 27 3 26 4 25 5 24 6 22 7 23 8 21 9 3 10 4 11 93 12
REMARK SMILES IDX 5 13 6 14 2 15 1 16 7 17 8 18 20 19 9 20 19 21 10 22 11 23
REMARK SMILES IDX 12 24 13 25 14 26 15 28 16 29 17 30 18 31 30 32 31 33 32 34
REMARK SMILES IDX 33 35 34 36 35 37 36 38 37 39 38 40 39 41 40 42 92 43 41 44
REMARK SMILES IDX 91 45 42 46 43 47 44 48 85 49 45 50 90 51 84 52 86 53 46 54
REMARK SMILES IDX 89 55 83 56 82 57 47 59 73 60 56 61 72 62 57 63 60 64 71 65
REMARK SMILES IDX 87 66 58 67 59 68 70 70 88 71 61 72 48 73 49 74 54 75 50 76
REMARK SMILES IDX 51 77 53 78 55 79 52 80 74 81 75 82 80 83 76 84 77 85 79 86
REMARK SMILES IDX 81 87 78 88 62 89 63 90 68 91 64 92 65 93 67 94 69 95 66 96
REMARK H PARENT 14 27 86 58 60 69
REMARK Flexibility Score: inf
ROOT
ATOM      1  C   UNL     1       4.836   4.319   0.874  1.00  0.00     0.188 C 
ENDROOT
BRANCH   1   2
ATOM      2  C   UNL     1       5.599   4.668   2.163  1.00  0.00     0.188 C 
BRANCH   2   3
ATOM      3  O   UNL     1       6.595   3.716   2.522  1.00  0.00    -0.376 OA
BRANCH   3   4
ATOM      4  C   UNL     1       6.335   3.066   3.765  1.00  0.00     0.202 C 
BRANCH   4   5
ATOM      5  C   UNL     1       5.459   1.828   3.579  1.00  0.00     0.261 C 
BRANCH   5   6
ATOM      6  O   UNL     1       4.170   2.101   3.000  1.00  0.00    -0.460 OA
BRANCH   6   7
ATOM      7  C   UNL     1       3.231   2.702   3.773  1.00  0.00     0.338 C 
ATOM      8  O   UNL     1       3.385   3.072   4.921  1.00  0.00    -0.246 OA
BRANCH   7   9
ATOM      9  C   UNL     1       1.991   2.873   2.953  1.00  0.00     0.071 A 
ATOM     10  C   UNL     1       0.543   1.958   1.217  1.00  0.00     0.119 A 
ATOM     11  C   UNL     1      -0.259   3.092   1.313  1.00  0.00     0.047 A 
ATOM     12  C   UNL     1       1.652   1.840   2.051  1.00  0.00     0.062 A 
ATOM     13  C   UNL     1       0.057   4.117   2.208  1.00  0.00     0.013 A 
ATOM     14  C   UNL     1       1.198   4.043   3.027  1.00  0.00    -0.004 A 
BRANCH  10  15
ATOM     15  O   UNL     1       0.149   1.057   0.268  1.00  0.00    -0.497 OA
ATOM     16  C   UNL     1       0.942  -0.114   0.115  1.00  0.00     0.278 C 
ENDBRANCH  10  15
BRANCH  14  17
ATOM     17  C   UNL     1       1.602   5.263   3.742  1.00  0.00    -0.017 A 
ATOM     18  C   UNL     1       0.966   5.741   4.894  1.00  0.00     0.010 A 
ATOM     19  C   UNL     1       2.631   6.036   3.195  1.00  0.00     0.010 A 
ATOM     20  C   UNL     1       1.357   6.964   5.465  1.00  0.00     0.022 A 
ATOM     21  C   UNL     1       3.103   7.183   3.818  1.00  0.00     0.022 A 
ATOM     22  C   UNL     1       2.425   7.685   4.915  1.00  0.00     0.082 A 
BRANCH  22  23
ATOM     23  S   UNL     1       2.847   9.270   5.586  1.00  0.00     0.241 S 
ATOM     24  O   UNL     1       1.674  10.105   5.502  1.00  0.00    -0.207 OA
ATOM     25  O   UNL     1       3.500   9.005   6.852  1.00  0.00    -0.207 OA
BRANCH  23  26
ATOM     26  N   UNL     1       4.067   9.896   4.607  1.00  0.00    -0.206 NA
ATOM     27  H   UNL     1       4.587   9.079   4.287  1.00  0.00     0.141 HD
BRANCH  26  28
ATOM     28  C   UNL     1       3.919  10.748   3.396  1.00  0.00     0.025 C 
ATOM     29  C   UNL     1       2.931  11.898   3.590  1.00  0.00     0.028 C 
ATOM     30  C   UNL     1       5.316  11.352   3.131  1.00  0.00     0.028 C 
ATOM     31  C   UNL     1       3.525   9.932   2.163  1.00  0.00     0.028 C 
ENDBRANCH  26  28
ENDBRANCH  23  26
ENDBRANCH  22  23
ENDBRANCH  14  17
ENDBRANCH   7   9
ENDBRANCH   6   7
ENDBRANCH   5   6
ENDBRANCH   4   5
ENDBRANCH   3   4
ENDBRANCH   2   3
ENDBRANCH   1   2
BRANCH   1  32
ATOM     32  O   UNL     1       5.505   3.633  -0.170  1.00  0.00    -0.377 OA
BRANCH  32  33
ATOM     33  C   UNL     1       6.895   3.847  -0.341  1.00  0.00     0.188 C 
BRANCH  33  34
ATOM     34  C   UNL     1       7.433   5.283  -0.234  1.00  0.00     0.188 C 
BRANCH  34  35
ATOM     35  O   UNL     1       6.434   6.293  -0.369  1.00  0.00    -0.376 OA
BRANCH  35  36
ATOM     36  C   UNL     1       6.435   6.999  -1.606  1.00  0.00     0.202 C 
BRANCH  36  37
ATOM     37  C   UNL     1       5.788   6.225  -2.760  1.00  0.00     0.261 C 
BRANCH  37  38
ATOM     38  O   UNL     1       6.493   5.040  -3.163  1.00  0.00    -0.460 OA
BRANCH  38  39
ATOM     39  C   UNL     1       7.768   5.179  -3.587  1.00  0.00     0.338 C 
ATOM     40  O   UNL     1       8.398   6.210  -3.728  1.00  0.00    -0.246 OA
BRANCH  39  41
ATOM     41  C   UNL     1       8.348   3.823  -3.659  1.00  0.00     0.060 A 
ATOM     42  C   UNL     1       9.495   3.538  -2.906  1.00  0.00     0.016 A 
ATOM     43  C   UNL     1       7.720   2.825  -4.407  1.00  0.00     0.016 A 
ATOM     44  C   UNL     1      10.022   2.247  -2.908  1.00  0.00     0.010 A 
ATOM     45  C   UNL     1       8.264   1.541  -4.430  1.00  0.00     0.010 A 
ATOM     46  C   UNL     1       9.427   1.252  -3.696  1.00  0.00    -0.014 A 
BRANCH  46  47
ATOM     47  C   UNL     1      10.116  -0.040  -3.909  1.00  0.00     0.031 A 
ATOM     48  C   UNL     1      11.053  -0.157  -5.078  1.00  0.00     0.074 A 
ATOM     49  C   UNL     1       9.896  -1.094  -3.104  1.00  0.00     0.049 A 
ATOM     50  N   UNL     1      11.718  -1.196  -5.508  1.00  0.00    -0.248 NA
ATOM     51  C   UNL     1      11.261   1.066  -5.873  1.00  0.00     0.031 C 
ATOM     52  C   UNL     1       9.023  -1.101  -1.932  1.00  0.00     0.029 A 
ATOM     53  N   UNL     1      10.381  -2.377  -3.171  1.00  0.00    -0.354 N 
ATOM     54  C   UNL     1      12.422  -0.755  -6.620  1.00  0.00     0.074 A 
ATOM     55  C   UNL     1      12.090   0.639  -6.813  1.00  0.00     0.031 C 
ATOM     56  C   UNL     1       9.015  -2.338  -1.403  1.00  0.00     0.029 A 
ATOM     57  C   UNL     1       9.862  -3.212  -2.213  1.00  0.00     0.049 A 
ATOM     58  H   UNL     1      11.039  -2.669  -3.843  1.00  0.00     0.167 HD
ATOM     59  C   UNL     1      13.275  -1.449  -7.407  1.00  0.00     0.037 A 
ATOM     60  C   UNL     1      10.035  -4.536  -2.032  1.00  0.00     0.037 A 
ATOM     61  C   UNL     1      13.600  -2.836  -7.224  1.00  0.00     0.049 A 
ATOM     62  C   UNL     1      10.940  -5.301  -2.965  1.00  0.00     0.074 A 
ATOM     63  C   UNL     1      14.480  -3.618  -7.950  1.00  0.00     0.029 A 
ATOM     64  N   UNL     1      13.044  -3.652  -6.251  1.00  0.00    -0.354 N 
ATOM     65  N   UNL     1      11.645  -4.862  -3.979  1.00  0.00    -0.248 NA
ATOM     66  C   UNL     1      11.069  -6.747  -2.728  1.00  0.00     0.031 C 
ATOM     67  C   UNL     1      14.424  -4.920  -7.444  1.00  0.00     0.029 A 
ATOM     68  C   UNL     1      13.540  -4.938  -6.377  1.00  0.00     0.049 A 
ATOM     69  H   UNL     1      12.393  -3.360  -5.572  1.00  0.00     0.167 HD
ATOM     70  C   UNL     1      12.317  -5.969  -4.485  1.00  0.00     0.074 A 
ATOM     71  C   UNL     1      11.946  -7.098  -3.658  1.00  0.00     0.031 C 
ATOM     72  C   UNL     1      13.164  -6.046  -5.540  1.00  0.00     0.037 A 
BRANCH  59  73
ATOM     73  C   UNL     1      13.901  -0.720  -8.554  1.00  0.00     0.057 A 
ATOM     74  C   UNL     1      14.939   0.200  -8.361  1.00  0.00     0.134 A 
ATOM     75  C   UNL     1      13.488  -0.970  -9.868  1.00  0.00     0.134 A 
ATOM     76  F   UNL     1      15.364   0.496  -7.124  1.00  0.00    -0.206 F 
ATOM     77  C   UNL     1      15.540   0.854  -9.438  1.00  0.00     0.040 A 
ATOM     78  C   UNL     1      14.094  -0.337 -10.954  1.00  0.00     0.040 A 
ATOM     79  F   UNL     1      12.496  -1.838 -10.117  1.00  0.00    -0.206 F 
ATOM     80  C   UNL     1      15.123   0.579 -10.739  1.00  0.00     0.006 A 
ENDBRANCH  59  73
BRANCH  60  81
ATOM     81  C   UNL     1       9.317  -5.247  -0.944  1.00  0.00     0.057 A 
ATOM     82  C   UNL     1      10.003  -5.775   0.156  1.00  0.00     0.134 A 
ATOM     83  C   UNL     1       7.935  -5.464  -1.007  1.00  0.00     0.134 A 
ATOM     84  F   UNL     1      11.332  -5.625   0.257  1.00  0.00    -0.206 F 
ATOM     85  C   UNL     1       9.346  -6.513   1.142  1.00  0.00     0.040 A 
ATOM     86  C   UNL     1       7.262  -6.181  -0.017  1.00  0.00     0.040 A 
ATOM     87  F   UNL     1       7.221  -4.987  -2.037  1.00  0.00    -0.206 F 
ATOM     88  C   UNL     1       7.970  -6.716   1.058  1.00  0.00     0.006 A 
ENDBRANCH  60  81
BRANCH  72  89
ATOM     89  C   UNL     1      13.765  -7.385  -5.846  1.00  0.00     0.057 A 
ATOM     90  C   UNL     1      13.018  -8.408  -6.444  1.00  0.00     0.134 A 
ATOM     91  C   UNL     1      15.118  -7.636  -5.587  1.00  0.00     0.134 A 
ATOM     92  F   UNL     1      11.715  -8.233  -6.707  1.00  0.00    -0.206 F 
ATOM     93  C   UNL     1      13.594  -9.640  -6.758  1.00  0.00     0.040 A 
ATOM     94  C   UNL     1      15.710  -8.856  -5.918  1.00  0.00     0.040 A 
ATOM     95  F   UNL     1      15.890  -6.694  -5.025  1.00  0.00    -0.206 F 
ATOM     96  C   UNL     1      14.945  -9.864  -6.502  1.00  0.00     0.006 A 
ENDBRANCH  72  89
ENDBRANCH  46  47
ENDBRANCH  39  41
ENDBRANCH  38  39
ENDBRANCH  37  38
ENDBRANCH  36  37
ENDBRANCH  35  36
ENDBRANCH  34  35
ENDBRANCH  33  34
ENDBRANCH  32  33
ENDBRANCH   1  32
TORSDOF 25
