REMARK SMILES [NH3+][C@@H](CNc1ccc(C(=O)OCCOCCOCCOCCOC(=O)c2ccc(-c3c4nc(c(-c5c(F)cccc5F)c5ccc([nH]5)c(-c5c(F)cccc5F)c5nc(c(-c6c(F)cccc6F)c6ccc3[nH]6)C=C5)C=C4)cc2)c(F)c1F)c1ccccc1
REMARK SMILES IDX 16 1 15 2 14 3 13 4 12 5 11 6 9 7 10 8 8 9 5 10 6 11 82 12
REMARK SMILES IDX 7 13 80 14 83 15 81 16 4 17 3 19 2 20 1 21 84 25 85 26 89 27
REMARK SMILES IDX 86 28 88 29 87 30 17 31 18 32 19 33 20 34 21 35 22 36 23 37
REMARK SMILES IDX 24 38 25 39 26 40 27 41 79 42 28 43 78 44 29 45 30 46 31 47
REMARK SMILES IDX 72 48 32 49 77 50 71 51 73 52 33 53 76 54 70 55 69 56 34 58
REMARK SMILES IDX 60 59 43 60 59 61 44 62 47 63 58 64 74 65 45 66 46 67 57 69
REMARK SMILES IDX 75 70 48 71 35 72 36 73 41 74 37 75 38 76 40 77 42 78 39 79
REMARK SMILES IDX 61 80 62 81 67 82 63 83 64 84 66 85 68 86 65 87 49 88 50 89
REMARK SMILES IDX 55 90 51 91 52 92 54 93 56 94 53 95
REMARK H PARENT 4 18 1 22 1 23 1 24 73 57 47 68
REMARK Flexibility Score: inf
ROOT
ATOM      1  C   UNL     1      -3.908   0.117   6.707  1.00  0.00     0.188 C 
ENDROOT
BRANCH   1   2
ATOM      2  C   UNL     1      -3.395   0.404   8.135  1.00  0.00     0.188 C 
BRANCH   2   3
ATOM      3  O   UNL     1      -4.355   1.005   8.985  1.00  0.00    -0.376 OA
BRANCH   3   4
ATOM      4  C   UNL     1      -4.205   2.369   9.330  1.00  0.00     0.202 C 
BRANCH   4   5
ATOM      5  C   UNL     1      -4.176   3.414   8.206  1.00  0.00     0.261 C 
BRANCH   5   6
ATOM      6  O   UNL     1      -3.370   3.088   7.066  1.00  0.00    -0.460 OA
BRANCH   6   7
ATOM      7  C   UNL     1      -2.033   3.205   7.204  1.00  0.00     0.341 C 
ATOM      8  O   UNL     1      -1.429   3.536   8.209  1.00  0.00    -0.246 OA
BRANCH   7   9
ATOM      9  C   UNL     1      -1.386   2.647   6.003  1.00  0.00     0.099 A 
ATOM     10  C   UNL     1      -0.074   1.571   3.749  1.00  0.00     0.074 A 
ATOM     11  C   UNL     1       0.234   1.114   5.034  1.00  0.00     0.030 A 
ATOM     12  C   UNL     1      -1.088   2.541   3.625  1.00  0.00     0.182 A 
ATOM     13  C   UNL     1      -0.395   1.666   6.158  1.00  0.00     0.021 A 
ATOM     14  C   UNL     1      -1.752   3.062   4.731  1.00  0.00     0.175 A 
ATOM     15  F   UNL     1      -1.421   2.982   2.399  1.00  0.00    -0.201 F 
ATOM     16  F   UNL     1      -2.713   3.980   4.552  1.00  0.00    -0.203 F 
BRANCH  10  17
ATOM     17  N   UNL     1       0.573   1.103   2.613  1.00  0.00    -0.376 N 
ATOM     18  H   UNL     1       0.812   1.749   1.910  1.00  0.00     0.160 HD
BRANCH  17  19
ATOM     19  C   UNL     1       0.917  -0.306   2.411  1.00  0.00     0.183 C 
BRANCH  19  20
ATOM     20  C   UNL     1       0.454  -0.831   1.007  1.00  0.00     0.231 C 
BRANCH  20  21
ATOM     21  N   UNL     1       1.014  -0.066  -0.121  1.00  0.00    -0.350 N 
ATOM     22  H   UNL     1       2.029  -0.022  -0.032  1.00  0.00     0.345 HD
ATOM     23  H   UNL     1       0.630   0.879  -0.114  1.00  0.00     0.345 HD
ATOM     24  H   UNL     1       0.769  -0.526  -0.998  1.00  0.00     0.345 HD
ENDBRANCH  20  21
BRANCH  20  25
ATOM     25  C   UNL     1      -1.065  -0.936   0.936  1.00  0.00     0.011 A 
ATOM     26  C   UNL     1      -1.886   0.197   0.806  1.00  0.00     0.010 A 
ATOM     27  C   UNL     1      -1.685  -2.185   1.100  1.00  0.00     0.010 A 
ATOM     28  C   UNL     1      -3.274   0.097   0.902  1.00  0.00     0.001 A 
ATOM     29  C   UNL     1      -3.077  -2.287   1.177  1.00  0.00     0.001 A 
ATOM     30  C   UNL     1      -3.869  -1.145   1.096  1.00  0.00     0.000 A 
ENDBRANCH  20  25
ENDBRANCH  19  20
ENDBRANCH  17  19
ENDBRANCH  10  17
ENDBRANCH   7   9
ENDBRANCH   6   7
ENDBRANCH   5   6
ENDBRANCH   4   5
ENDBRANCH   3   4
ENDBRANCH   2   3
ENDBRANCH   1   2
BRANCH   1  31
ATOM     31  O   UNL     1      -5.176   0.618   6.307  1.00  0.00    -0.377 OA
BRANCH  31  32
ATOM     32  C   UNL     1      -6.302   0.495   7.171  1.00  0.00     0.188 C 
BRANCH  32  33
ATOM     33  C   UNL     1      -6.405  -0.646   8.210  1.00  0.00     0.188 C 
BRANCH  33  34
ATOM     34  O   UNL     1      -5.382  -1.622   8.118  1.00  0.00    -0.376 OA
BRANCH  34  35
ATOM     35  C   UNL     1      -5.735  -2.895   7.607  1.00  0.00     0.202 C 
BRANCH  35  36
ATOM     36  C   UNL     1      -6.215  -2.946   6.150  1.00  0.00     0.261 C 
BRANCH  36  37
ATOM     37  O   UNL     1      -7.305  -2.074   5.812  1.00  0.00    -0.460 OA
BRANCH  37  38
ATOM     38  C   UNL     1      -8.502  -2.321   6.383  1.00  0.00     0.338 C 
ATOM     39  O   UNL     1      -8.779  -3.215   7.166  1.00  0.00    -0.246 OA
BRANCH  38  40
ATOM     40  C   UNL     1      -9.397  -1.198   6.037  1.00  0.00     0.060 A 
ATOM     41  C   UNL     1      -9.913  -0.389   7.058  1.00  0.00     0.016 A 
ATOM     42  C   UNL     1      -9.703  -0.934   4.700  1.00  0.00     0.016 A 
ATOM     43  C   UNL     1     -10.758   0.676   6.743  1.00  0.00     0.010 A 
ATOM     44  C   UNL     1     -10.566   0.118   4.389  1.00  0.00     0.010 A 
ATOM     45  C   UNL     1     -11.120   0.911   5.410  1.00  0.00    -0.014 A 
BRANCH  45  46
ATOM     46  C   UNL     1     -12.211   1.863   5.093  1.00  0.00     0.031 A 
ATOM     47  C   UNL     1     -13.589   1.314   4.846  1.00  0.00     0.074 A 
ATOM     48  C   UNL     1     -11.990   3.188   5.030  1.00  0.00     0.049 A 
ATOM     49  N   UNL     1     -14.683   1.937   4.489  1.00  0.00    -0.248 NA
ATOM     50  C   UNL     1     -13.753  -0.138   5.024  1.00  0.00     0.031 C 
ATOM     51  C   UNL     1     -10.711   3.846   5.287  1.00  0.00     0.029 A 
ATOM     52  N   UNL     1     -12.843   4.217   4.715  1.00  0.00    -0.354 N 
ATOM     53  C   UNL     1     -15.660   0.955   4.393  1.00  0.00     0.074 A 
ATOM     54  C   UNL     1     -15.024  -0.309   4.697  1.00  0.00     0.031 C 
ATOM     55  C   UNL     1     -10.861   5.170   5.107  1.00  0.00     0.029 A 
ATOM     56  C   UNL     1     -12.233   5.447   4.685  1.00  0.00     0.049 A 
ATOM     57  H   UNL     1     -13.801   4.085   4.527  1.00  0.00     0.167 HD
ATOM     58  C   UNL     1     -16.972   1.093   4.087  1.00  0.00     0.037 A 
ATOM     59  C   UNL     1     -12.723   6.651   4.331  1.00  0.00     0.037 A 
ATOM     60  C   UNL     1     -17.599   2.351   3.777  1.00  0.00     0.049 A 
ATOM     61  C   UNL     1     -14.165   6.768   3.907  1.00  0.00     0.074 A 
ATOM     62  C   UNL     1     -18.925   2.599   3.469  1.00  0.00     0.029 A 
ATOM     63  N   UNL     1     -16.940   3.570   3.722  1.00  0.00    -0.354 N 
ATOM     64  N   UNL     1     -15.090   5.840   3.846  1.00  0.00    -0.248 NA
ATOM     65  C   UNL     1     -14.632   8.102   3.501  1.00  0.00     0.031 C 
ATOM     66  C   UNL     1     -19.056   3.958   3.168  1.00  0.00     0.029 A 
ATOM     67  C   UNL     1     -17.826   4.569   3.353  1.00  0.00     0.049 A 
ATOM     68  H   UNL     1     -15.985   3.705   3.916  1.00  0.00     0.167 HD
ATOM     69  C   UNL     1     -16.251   6.482   3.427  1.00  0.00     0.074 A 
ATOM     70  C   UNL     1     -15.917   7.881   3.264  1.00  0.00     0.031 C 
ATOM     71  C   UNL     1     -17.482   5.960   3.200  1.00  0.00     0.037 A 
BRANCH  58  72
ATOM     72  C   UNL     1     -17.807  -0.153   4.043  1.00  0.00     0.057 A 
ATOM     73  C   UNL     1     -18.138  -0.868   5.202  1.00  0.00     0.134 A 
ATOM     74  C   UNL     1     -18.310  -0.630   2.826  1.00  0.00     0.134 A 
ATOM     75  F   UNL     1     -17.676  -0.475   6.399  1.00  0.00    -0.206 F 
ATOM     76  C   UNL     1     -18.916  -2.026   5.148  1.00  0.00     0.040 A 
ATOM     77  C   UNL     1     -19.114  -1.769   2.763  1.00  0.00     0.040 A 
ATOM     78  F   UNL     1     -18.035   0.008   1.678  1.00  0.00    -0.206 F 
ATOM     79  C   UNL     1     -19.414  -2.474   3.926  1.00  0.00     0.006 A 
ENDBRANCH  58  72
BRANCH  59  80
ATOM     80  C   UNL     1     -11.843   7.849   4.339  1.00  0.00     0.057 A 
ATOM     81  C   UNL     1     -12.054   8.900   5.239  1.00  0.00     0.134 A 
ATOM     82  C   UNL     1     -10.789   7.986   3.426  1.00  0.00     0.134 A 
ATOM     83  F   UNL     1     -13.064   8.842   6.120  1.00  0.00    -0.206 F 
ATOM     84  C   UNL     1     -11.265  10.052   5.218  1.00  0.00     0.040 A 
ATOM     85  C   UNL     1      -9.973   9.119   3.414  1.00  0.00     0.040 A 
ATOM     86  F   UNL     1     -10.534   7.018   2.535  1.00  0.00    -0.206 F 
ATOM     87  C   UNL     1     -10.217  10.160   4.307  1.00  0.00     0.006 A 
ENDBRANCH  59  80
BRANCH  71  88
ATOM     88  C   UNL     1     -18.572   6.910   2.790  1.00  0.00     0.057 A 
ATOM     89  C   UNL     1     -18.596   7.516   1.527  1.00  0.00     0.134 A 
ATOM     90  C   UNL     1     -19.637   7.188   3.658  1.00  0.00     0.134 A 
ATOM     91  F   UNL     1     -17.602   7.301   0.651  1.00  0.00    -0.206 F 
ATOM     92  C   UNL     1     -19.625   8.382   1.152  1.00  0.00     0.040 A 
ATOM     93  C   UNL     1     -20.687   8.028   3.282  1.00  0.00     0.040 A 
ATOM     94  F   UNL     1     -19.685   6.634   4.878  1.00  0.00    -0.206 F 
ATOM     95  C   UNL     1     -20.679   8.634   2.028  1.00  0.00     0.006 A 
ENDBRANCH  71  88
ENDBRANCH  45  46
ENDBRANCH  38  40
ENDBRANCH  37  38
ENDBRANCH  36  37
ENDBRANCH  35  36
ENDBRANCH  34  35
ENDBRANCH  33  34
ENDBRANCH  32  33
ENDBRANCH  31  32
ENDBRANCH   1  31
TORSDOF 25
