REMARK SMILES Cc1c(CC(=O)OCCOCCOCCOCCOC(=O)c2ccc(-c3c4nc(c(-c5c(F)cccc5F)c5ccc([nH]5)c(-c5c(F)cccc5F)c5nc(c(-c6c(F)cccc6F)c6ccc3[nH]6)C=C5)C=C4)cc2)cc(-c2ccc(S(C)(=O)=O)cc2)n1-c1cccc(F)c1
REMARK SMILES IDX 12 1 11 2 10 3 9 4 8 5 7 6 5 7 6 8 4 9 3 10 1 11 2 12 88 13
REMARK SMILES IDX 76 14 77 15 89 16 90 17 95 18 91 19 93 20 92 21 94 22 78 23
REMARK SMILES IDX 79 24 87 25 80 26 86 27 81 28 82 29 83 30 84 31 85 32 13 33
REMARK SMILES IDX 14 34 15 35 16 36 17 37 18 38 19 39 20 40 21 41 22 42 23 43
REMARK SMILES IDX 75 44 24 45 74 46 25 47 26 48 27 49 68 50 28 51 73 52 67 53
REMARK SMILES IDX 69 54 29 55 72 56 66 57 65 58 30 60 56 61 39 62 55 63 40 64
REMARK SMILES IDX 43 65 54 66 70 67 41 68 42 69 53 71 71 72 44 73 31 74 32 75
REMARK SMILES IDX 37 76 33 77 34 78 36 79 38 80 35 81 57 82 58 83 63 84 59 85
REMARK SMILES IDX 60 86 62 87 64 88 61 89 45 90 46 91 51 92 47 93 48 94 50 95
REMARK SMILES IDX 52 96 49 97
REMARK H PARENT 69 59 43 70
REMARK Flexibility Score: inf
ROOT
ATOM      1  C   UNL     1       2.939  -0.963  -1.080  1.00  0.00     0.188 C 
ENDROOT
BRANCH   1   2
ATOM      2  C   UNL     1       2.510  -2.073  -0.098  1.00  0.00     0.188 C 
BRANCH   2   3
ATOM      3  O   UNL     1       2.921  -3.428  -0.259  1.00  0.00    -0.376 OA
BRANCH   3   4
ATOM      4  C   UNL     1       3.542  -3.821  -1.468  1.00  0.00     0.202 C 
BRANCH   4   5
ATOM      5  C   UNL     1       2.673  -3.792  -2.741  1.00  0.00     0.261 C 
BRANCH   5   6
ATOM      6  O   UNL     1       1.664  -2.753  -2.798  1.00  0.00    -0.463 OA
BRANCH   6   7
ATOM      7  C   UNL     1       0.395  -3.118  -2.502  1.00  0.00     0.310 C 
ATOM      8  O   UNL     1       0.060  -4.288  -2.313  1.00  0.00    -0.252 OA
BRANCH   7   9
ATOM      9  C   UNL     1      -0.645  -2.007  -2.430  1.00  0.00     0.160 C 
BRANCH   9  10
ATOM     10  C   UNL     1      -0.305  -0.529  -2.510  1.00  0.00    -0.015 A 
ATOM     11  C   UNL     1      -0.317   0.230   0.005  1.00  0.00     0.065 C 
ATOM     12  C   UNL     1      -0.196   0.408  -1.473  1.00  0.00     0.024 A 
ATOM     13  N   UNL     1      -0.019   1.671  -2.030  1.00  0.00    -0.313 N 
ATOM     14  C   UNL     1      -0.260   0.234  -3.719  1.00  0.00     0.033 A 
ATOM     15  C   UNL     1      -0.146   1.578  -3.407  1.00  0.00     0.053 A 
BRANCH  13  16
ATOM     16  C   UNL     1       0.261   2.881  -1.337  1.00  0.00     0.049 A 
ATOM     17  C   UNL     1      -0.728   3.863  -1.196  1.00  0.00     0.027 A 
ATOM     18  C   UNL     1       1.588   3.170  -1.016  1.00  0.00     0.065 A 
ATOM     19  C   UNL     1      -0.390   5.127  -0.696  1.00  0.00     0.005 A 
ATOM     20  C   UNL     1       1.901   4.442  -0.541  1.00  0.00     0.125 A 
ATOM     21  C   UNL     1       0.931   5.416  -0.369  1.00  0.00     0.039 A 
ATOM     22  F   UNL     1       3.166   4.782  -0.279  1.00  0.00    -0.207 F 
ENDBRANCH  13  16
BRANCH  15  23
ATOM     23  C   UNL     1      -0.164   2.748  -4.288  1.00  0.00    -0.001 A 
ATOM     24  C   UNL     1       1.012   3.464  -4.552  1.00  0.00     0.011 A 
ATOM     25  C   UNL     1      -1.381   3.206  -4.812  1.00  0.00     0.011 A 
ATOM     26  C   UNL     1       0.974   4.633  -5.317  1.00  0.00     0.021 A 
ATOM     27  C   UNL     1      -1.428   4.375  -5.577  1.00  0.00     0.021 A 
ATOM     28  C   UNL     1      -0.251   5.086  -5.818  1.00  0.00     0.067 A 
BRANCH  28  29
ATOM     29  S   UNL     1      -0.276   6.548  -6.828  1.00  0.00     0.175 S 
ATOM     30  C   UNL     1       0.171   7.859  -5.720  1.00  0.00     0.163 C 
ATOM     31  O   UNL     1       0.758   6.404  -7.814  1.00  0.00    -0.224 OA
ATOM     32  O   UNL     1      -1.668   6.780  -7.224  1.00  0.00    -0.224 OA
ENDBRANCH  28  29
ENDBRANCH  15  23
ENDBRANCH   9  10
ENDBRANCH   7   9
ENDBRANCH   6   7
ENDBRANCH   5   6
ENDBRANCH   4   5
ENDBRANCH   3   4
ENDBRANCH   2   3
ENDBRANCH   1   2
BRANCH   1  33
ATOM     33  O   UNL     1       4.162  -1.196  -1.751  1.00  0.00    -0.377 OA
BRANCH  33  34
ATOM     34  C   UNL     1       5.177  -0.224  -1.575  1.00  0.00     0.188 C 
BRANCH  34  35
ATOM     35  C   UNL     1       5.763  -0.220  -0.170  1.00  0.00     0.188 C 
BRANCH  35  36
ATOM     36  O   UNL     1       4.858   0.161   0.850  1.00  0.00    -0.376 OA
BRANCH  36  37
ATOM     37  C   UNL     1       4.341   1.489   0.909  1.00  0.00     0.202 C 
BRANCH  37  38
ATOM     38  C   UNL     1       5.086   2.720   0.304  1.00  0.00     0.261 C 
BRANCH  38  39
ATOM     39  O   UNL     1       4.886   3.134  -1.115  1.00  0.00    -0.460 OA
BRANCH  39  40
ATOM     40  C   UNL     1       5.800   4.089  -1.564  1.00  0.00     0.338 C 
ATOM     41  O   UNL     1       6.871   4.257  -0.987  1.00  0.00    -0.246 OA
BRANCH  40  42
ATOM     42  C   UNL     1       5.487   5.012  -2.783  1.00  0.00     0.060 A 
ATOM     43  C   UNL     1       5.928   4.698  -4.067  1.00  0.00     0.016 A 
ATOM     44  C   UNL     1       5.169   6.388  -2.634  1.00  0.00     0.016 A 
ATOM     45  C   UNL     1       6.017   5.702  -5.128  1.00  0.00     0.010 A 
ATOM     46  C   UNL     1       5.309   7.418  -3.704  1.00  0.00     0.010 A 
ATOM     47  C   UNL     1       5.760   7.125  -5.007  1.00  0.00    -0.014 A 
BRANCH  47  48
ATOM     48  C   UNL     1       6.497   8.148  -6.109  1.00  0.00     0.031 A 
ATOM     49  C   UNL     1       7.849   7.533  -6.215  1.00  0.00     0.074 A 
ATOM     50  C   UNL     1       6.414   9.351  -6.852  1.00  0.00     0.049 A 
ATOM     51  N   UNL     1       8.562   7.340  -5.139  1.00  0.00    -0.248 NA
ATOM     52  C   UNL     1       8.298   6.796  -7.395  1.00  0.00     0.031 C 
ATOM     53  C   UNL     1       5.332  10.355  -6.859  1.00  0.00     0.029 A 
ATOM     54  N   UNL     1       7.302   9.991  -7.816  1.00  0.00    -0.354 N 
ATOM     55  C   UNL     1       9.715   6.737  -5.568  1.00  0.00     0.074 A 
ATOM     56  C   UNL     1       9.388   6.213  -6.886  1.00  0.00     0.031 C 
ATOM     57  C   UNL     1       5.527  11.335  -7.797  1.00  0.00     0.029 A 
ATOM     58  C   UNL     1       6.792  11.163  -8.516  1.00  0.00     0.049 A 
ATOM     59  H   UNL     1       8.208   9.645  -7.987  1.00  0.00     0.167 HD
ATOM     60  C   UNL     1      10.875   7.318  -5.150  1.00  0.00     0.037 A 
ATOM     61  C   UNL     1       7.326  11.983  -9.528  1.00  0.00     0.037 A 
ATOM     62  C   UNL     1      11.534   8.030  -6.206  1.00  0.00     0.049 A 
ATOM     63  C   UNL     1       8.781  11.807  -9.521  1.00  0.00     0.074 A 
ATOM     64  C   UNL     1      11.831   7.709  -7.515  1.00  0.00     0.029 A 
ATOM     65  N   UNL     1      11.565   9.403  -6.115  1.00  0.00    -0.354 N 
ATOM     66  N   UNL     1       9.525  12.467  -8.691  1.00  0.00    -0.248 NA
ATOM     67  C   UNL     1       9.507  11.030 -10.519  1.00  0.00     0.031 C 
ATOM     68  C   UNL     1      11.569   8.884  -8.251  1.00  0.00     0.029 A 
ATOM     69  C   UNL     1      11.463   9.954  -7.373  1.00  0.00     0.049 A 
ATOM     70  H   UNL     1      11.649   9.914  -5.277  1.00  0.00     0.167 HD
ATOM     71  C   UNL     1      10.687  11.775  -8.696  1.00  0.00     0.074 A 
ATOM     72  C   UNL     1      10.732  11.126  -9.993  1.00  0.00     0.031 C 
ATOM     73  C   UNL     1      11.092  11.343  -7.479  1.00  0.00     0.037 A 
BRANCH  60  74
ATOM     74  C   UNL     1      10.838   7.735  -3.709  1.00  0.00     0.057 A 
ATOM     75  C   UNL     1      11.431   6.908  -2.752  1.00  0.00     0.134 A 
ATOM     76  C   UNL     1      10.048   8.799  -3.236  1.00  0.00     0.134 A 
ATOM     77  F   UNL     1      12.225   5.896  -3.132  1.00  0.00    -0.206 F 
ATOM     78  C   UNL     1      11.192   7.087  -1.387  1.00  0.00     0.040 A 
ATOM     79  C   UNL     1       9.762   8.957  -1.881  1.00  0.00     0.040 A 
ATOM     80  F   UNL     1       9.504   9.681  -4.091  1.00  0.00    -0.206 F 
ATOM     81  C   UNL     1      10.326   8.089  -0.951  1.00  0.00     0.006 A 
ENDBRANCH  60  74
BRANCH  61  82
ATOM     82  C   UNL     1       7.006  13.145 -10.543  1.00  0.00     0.057 A 
ATOM     83  C   UNL     1       8.024  14.063 -11.004  1.00  0.00     0.134 A 
ATOM     84  C   UNL     1       5.872  13.166 -11.358  1.00  0.00     0.134 A 
ATOM     85  F   UNL     1       9.169  14.254 -10.335  1.00  0.00    -0.206 F 
ATOM     86  C   UNL     1       7.966  14.810 -12.200  1.00  0.00     0.040 A 
ATOM     87  C   UNL     1       5.789  13.945 -12.552  1.00  0.00     0.040 A 
ATOM     88  F   UNL     1       4.826  12.380 -11.074  1.00  0.00    -0.206 F 
ATOM     89  C   UNL     1       6.847  14.736 -12.999  1.00  0.00     0.006 A 
ENDBRANCH  61  82
BRANCH  73  90
ATOM     90  C   UNL     1      10.928  12.316  -6.311  1.00  0.00     0.057 A 
ATOM     91  C   UNL     1       9.800  13.115  -6.000  1.00  0.00     0.134 A 
ATOM     92  C   UNL     1      12.041  12.517  -5.485  1.00  0.00     0.134 A 
ATOM     93  F   UNL     1       8.603  12.946  -6.580  1.00  0.00    -0.206 F 
ATOM     94  C   UNL     1       9.834  14.121  -5.025  1.00  0.00     0.040 A 
ATOM     95  C   UNL     1      12.060  13.468  -4.458  1.00  0.00     0.040 A 
ATOM     96  F   UNL     1      13.147  11.776  -5.652  1.00  0.00    -0.206 F 
ATOM     97  C   UNL     1      10.967  14.300  -4.248  1.00  0.00     0.006 A 
ENDBRANCH  73  90
ENDBRANCH  47  48
ENDBRANCH  40  42
ENDBRANCH  39  40
ENDBRANCH  38  39
ENDBRANCH  37  38
ENDBRANCH  36  37
ENDBRANCH  35  36
ENDBRANCH  34  35
ENDBRANCH  33  34
ENDBRANCH   1  33
TORSDOF 24
