REMARK SMILES Cc1ccc(C[C@@H](Cc2cc(F)cc(Br)c2)C(=O)OCCOCCOCCOCCOC(=O)c2ccc(-c3c4nc(c(-c5c(F)cccc5F)c5ccc([nH]5)c(-c5c(F)cccc5F)c5nc(c(-c6c(F)cccc6F)c6ccc3[nH]6)C=C5)C=C4)cc2)cc1
REMARK SMILES IDX 25 1 24 2 23 3 22 4 21 5 20 6 19 7 17 8 18 9 7 10 6 11 5 12
REMARK SMILES IDX 1 13 2 14 3 15 89 16 4 17 88 18 8 19 9 20 10 21 16 22 11 23
REMARK SMILES IDX 14 24 12 25 13 26 15 27 26 28 27 29 28 30 29 31 30 32 31 33
REMARK SMILES IDX 32 34 33 35 34 36 35 37 87 38 36 39 86 40 37 41 38 42 39 43
REMARK SMILES IDX 80 44 40 45 85 46 79 47 81 48 41 49 84 50 78 51 77 52 42 54
REMARK SMILES IDX 68 55 51 56 67 57 52 58 55 59 66 60 82 61 53 62 54 63 65 65
REMARK SMILES IDX 83 66 56 67 43 68 44 69 49 70 45 71 46 72 48 73 50 74 47 75
REMARK SMILES IDX 69 76 70 77 75 78 71 79 72 80 74 81 76 82 73 83 57 84 58 85
REMARK SMILES IDX 63 86 59 87 60 88 62 89 64 90 61 91
REMARK H PARENT 81 53 55 64
REMARK Flexibility Score: inf
ROOT
ATOM      1  O   UNL     1      -4.539   1.677  -0.078  1.00  0.00    -0.377 OA
ENDROOT
BRANCH   1   2
ATOM      2  C   UNL     1      -4.091   2.756  -0.877  1.00  0.00     0.188 C 
BRANCH   2   3
ATOM      3  C   UNL     1      -4.482   2.845  -2.360  1.00  0.00     0.188 C 
BRANCH   3   4
ATOM      4  O   UNL     1      -5.820   2.643  -2.761  1.00  0.00    -0.376 OA
BRANCH   4   5
ATOM      5  C   UNL     1      -6.242   1.290  -2.884  1.00  0.00     0.202 C 
BRANCH   5   6
ATOM      6  C   UNL     1      -5.261   0.234  -3.445  1.00  0.00     0.261 C 
BRANCH   6   7
ATOM      7  O   UNL     1      -4.202  -0.113  -2.503  1.00  0.00    -0.463 OA
BRANCH   7   8
ATOM      8  C   UNL     1      -3.050  -0.616  -3.027  1.00  0.00     0.309 C 
ATOM      9  O   UNL     1      -2.835  -0.686  -4.234  1.00  0.00    -0.252 OA
BRANCH   8  10
ATOM     10  C   UNL     1      -2.025  -1.122  -1.994  1.00  0.00     0.108 C 
BRANCH  10  11
ATOM     11  C   UNL     1      -2.361  -0.829  -0.507  1.00  0.00     0.051 C 
BRANCH  11  12
ATOM     12  C   UNL     1      -1.065  -0.442   0.182  1.00  0.00    -0.047 A 
ATOM     13  C   UNL     1       3.141   0.211   0.131  1.00  0.00     0.044 C 
ATOM     14  C   UNL     1       1.670   0.046   0.361  1.00  0.00    -0.051 A 
ATOM     15  C   UNL     1       1.155  -1.215   0.685  1.00  0.00     0.004 A 
ATOM     16  C   UNL     1       0.792   1.105   0.117  1.00  0.00     0.004 A 
ATOM     17  C   UNL     1      -0.214  -1.451   0.633  1.00  0.00     0.004 A 
ATOM     18  C   UNL     1      -0.575   0.864   0.040  1.00  0.00     0.004 A 
ENDBRANCH  11  12
ENDBRANCH  10  11
BRANCH  10  19
ATOM     19  C   UNL     1      -1.467  -2.587  -2.249  1.00  0.00     0.051 C 
BRANCH  19  20
ATOM     20  C   UNL     1      -2.412  -3.740  -2.058  1.00  0.00    -0.043 A 
ATOM     21  C   UNL     1      -2.173  -4.954  -1.394  1.00  0.00     0.043 A 
ATOM     22  C   UNL     1      -3.654  -3.569  -2.586  1.00  0.00     0.019 A 
ATOM     23  C   UNL     1      -3.229  -5.854  -1.140  1.00  0.00     0.124 A 
ATOM     24  C   UNL     1      -4.681  -4.317  -2.084  1.00  0.00     0.021 A 
ATOM     25  F   UNL     1      -2.991  -7.024  -0.535  1.00  0.00    -0.207 F 
ATOM     26  C   UNL     1      -4.529  -5.501  -1.412  1.00  0.00     0.055 A 
ATOM     27  Br  UNL     1      -6.152  -3.260  -2.000  1.00  0.00    -0.051 Br
ENDBRANCH  19  20
ENDBRANCH  10  19
ENDBRANCH   8  10
ENDBRANCH   7   8
ENDBRANCH   6   7
ENDBRANCH   5   6
ENDBRANCH   4   5
ENDBRANCH   3   4
ENDBRANCH   2   3
ENDBRANCH   1   2
BRANCH   1  28
ATOM     28  C   UNL     1      -5.700   1.854   0.727  1.00  0.00     0.188 C 
BRANCH  28  29
ATOM     29  C   UNL     1      -5.947   3.228   1.317  1.00  0.00     0.188 C 
BRANCH  29  30
ATOM     30  O   UNL     1      -6.483   4.017   0.256  1.00  0.00    -0.376 OA
BRANCH  30  31
ATOM     31  C   UNL     1      -6.366   5.422   0.409  1.00  0.00     0.202 C 
BRANCH  31  32
ATOM     32  C   UNL     1      -7.102   5.952   1.641  1.00  0.00     0.261 C 
BRANCH  32  33
ATOM     33  O   UNL     1      -8.515   5.725   1.467  1.00  0.00    -0.460 OA
BRANCH  33  34
ATOM     34  C   UNL     1      -9.056   4.774   2.282  1.00  0.00     0.338 C 
ATOM     35  O   UNL     1      -8.927   4.724   3.484  1.00  0.00    -0.246 OA
BRANCH  34  36
ATOM     36  C   UNL     1      -9.591   3.647   1.456  1.00  0.00     0.060 A 
ATOM     37  C   UNL     1     -10.001   2.463   2.088  1.00  0.00     0.016 A 
ATOM     38  C   UNL     1      -9.365   3.650   0.084  1.00  0.00     0.016 A 
ATOM     39  C   UNL     1     -10.026   1.255   1.373  1.00  0.00     0.010 A 
ATOM     40  C   UNL     1      -9.257   2.442  -0.577  1.00  0.00     0.010 A 
ATOM     41  C   UNL     1      -9.545   1.223   0.058  1.00  0.00    -0.014 A 
BRANCH  41  42
ATOM     42  C   UNL     1      -8.997   0.016  -0.618  1.00  0.00     0.031 A 
ATOM     43  C   UNL     1      -9.178  -0.219  -2.083  1.00  0.00     0.074 A 
ATOM     44  C   UNL     1      -7.967  -0.533   0.052  1.00  0.00     0.049 A 
ATOM     45  N   UNL     1      -8.653  -1.151  -2.815  1.00  0.00    -0.248 NA
ATOM     46  C   UNL     1     -10.080   0.640  -2.844  1.00  0.00     0.031 C 
ATOM     47  C   UNL     1      -6.656  -0.946  -0.389  1.00  0.00     0.029 A 
ATOM     48  N   UNL     1      -7.930  -0.832   1.391  1.00  0.00    -0.354 N 
ATOM     49  C   UNL     1      -9.021  -0.926  -4.141  1.00  0.00     0.074 A 
ATOM     50  C   UNL     1      -9.842   0.256  -4.097  1.00  0.00     0.031 C 
ATOM     51  C   UNL     1      -6.044  -1.690   0.537  1.00  0.00     0.029 A 
ATOM     52  C   UNL     1      -6.968  -1.812   1.593  1.00  0.00     0.049 A 
ATOM     53  H   UNL     1      -8.490  -0.422   2.089  1.00  0.00     0.167 HD
ATOM     54  C   UNL     1      -8.620  -1.754  -5.155  1.00  0.00     0.037 A 
ATOM     55  C   UNL     1      -7.251  -2.957   2.226  1.00  0.00     0.037 A 
ATOM     56  C   UNL     1      -8.246  -3.097  -4.656  1.00  0.00     0.049 A 
ATOM     57  C   UNL     1      -7.768  -4.084   1.260  1.00  0.00     0.074 A 
ATOM     58  C   UNL     1      -7.198  -3.967  -4.891  1.00  0.00     0.029 A 
ATOM     59  N   UNL     1      -8.999  -3.705  -3.606  1.00  0.00    -0.354 N 
ATOM     60  N   UNL     1      -8.253  -3.968   0.018  1.00  0.00    -0.248 NA
ATOM     61  C   UNL     1      -7.575  -5.494   1.606  1.00  0.00     0.031 C 
ATOM     62  C   UNL     1      -7.302  -5.054  -3.992  1.00  0.00     0.029 A 
ATOM     63  C   UNL     1      -8.343  -4.811  -3.084  1.00  0.00     0.049 A 
ATOM     64  H   UNL     1      -9.874  -3.381  -3.292  1.00  0.00     0.167 HD
ATOM     65  C   UNL     1      -8.416  -5.245  -0.588  1.00  0.00     0.074 A 
ATOM     66  C   UNL     1      -7.956  -6.135   0.485  1.00  0.00     0.031 C 
ATOM     67  C   UNL     1      -8.736  -5.629  -1.910  1.00  0.00     0.037 A 
BRANCH  54  68
ATOM     68  C   UNL     1      -8.466  -1.298  -6.639  1.00  0.00     0.057 A 
ATOM     69  C   UNL     1      -7.452  -1.810  -7.489  1.00  0.00     0.134 A 
ATOM     70  C   UNL     1      -9.239  -0.317  -7.294  1.00  0.00     0.134 A 
ATOM     71  F   UNL     1      -6.556  -2.705  -7.079  1.00  0.00    -0.206 F 
ATOM     72  C   UNL     1      -7.239  -1.410  -8.824  1.00  0.00     0.040 A 
ATOM     73  C   UNL     1      -9.001   0.139  -8.612  1.00  0.00     0.040 A 
ATOM     74  F   UNL     1     -10.315   0.235  -6.732  1.00  0.00    -0.206 F 
ATOM     75  C   UNL     1      -8.006  -0.417  -9.392  1.00  0.00     0.006 A 
ENDBRANCH  54  68
BRANCH  55  76
ATOM     76  C   UNL     1      -7.308  -2.450   3.677  1.00  0.00     0.057 A 
ATOM     77  C   UNL     1      -6.053  -1.885   4.106  1.00  0.00     0.134 A 
ATOM     78  C   UNL     1      -8.431  -1.694   4.083  1.00  0.00     0.134 A 
ATOM     79  F   UNL     1      -4.905  -2.503   3.779  1.00  0.00    -0.206 F 
ATOM     80  C   UNL     1      -5.926  -0.551   4.563  1.00  0.00     0.040 A 
ATOM     81  C   UNL     1      -8.306  -0.364   4.573  1.00  0.00     0.040 A 
ATOM     82  F   UNL     1      -9.663  -2.098   3.745  1.00  0.00    -0.206 F 
ATOM     83  C   UNL     1      -7.056   0.234   4.743  1.00  0.00     0.006 A 
ENDBRANCH  55  76
BRANCH  67  84
ATOM     84  C   UNL     1      -9.144  -7.068  -2.355  1.00  0.00     0.057 A 
ATOM     85  C   UNL     1      -9.609  -8.065  -1.496  1.00  0.00     0.134 A 
ATOM     86  C   UNL     1      -9.188  -7.456  -3.734  1.00  0.00     0.134 A 
ATOM     87  F   UNL     1      -9.836  -7.822  -0.199  1.00  0.00    -0.206 F 
ATOM     88  C   UNL     1      -9.936  -9.361  -1.940  1.00  0.00     0.040 A 
ATOM     89  C   UNL     1      -9.489  -8.742  -4.186  1.00  0.00     0.040 A 
ATOM     90  F   UNL     1      -9.022  -6.597  -4.749  1.00  0.00    -0.206 F 
ATOM     91  C   UNL     1      -9.855  -9.711  -3.282  1.00  0.00     0.006 A 
ENDBRANCH  67  84
ENDBRANCH  41  42
ENDBRANCH  34  36
ENDBRANCH  33  34
ENDBRANCH  32  33
ENDBRANCH  31  32
ENDBRANCH  30  31
ENDBRANCH  29  30
ENDBRANCH  28  29
ENDBRANCH   1  28
TORSDOF 24
