REMARK SMILES C[NH2+][C@@]1(C(=O)OCCOCCOCCOCCOC(=O)c2ccc(-c3c4nc(c(-c5c(F)cccc5F)c5ccc([nH]5)c(-c5c(F)cccc5F)c5nc(c(-c6c(F)cccc6F)c6ccc3[nH]6)C=C5)C=C4)cc2)CCC[C@H]([NH+]2CCCCCC2)C1
REMARK SMILES IDX 11 1 10 2 9 3 8 4 7 5 6 6 4 7 5 8 3 9 75 10 86 11 76 12
REMARK SMILES IDX 78 13 77 14 2 15 1 16 79 19 80 21 81 22 82 23 85 25 84 26
REMARK SMILES IDX 83 27 12 29 13 30 14 31 15 32 16 33 17 34 18 35 19 36 20 37
REMARK SMILES IDX 21 38 22 39 74 40 23 41 73 42 24 43 25 44 26 45 67 46 27 47
REMARK SMILES IDX 72 48 66 49 68 50 28 51 71 52 65 53 64 54 29 56 55 57 38 58
REMARK SMILES IDX 54 59 39 60 42 61 53 62 69 63 40 64 41 65 52 67 70 68 43 69
REMARK SMILES IDX 30 70 31 71 36 72 32 73 33 74 35 75 37 76 34 77 56 78 57 79
REMARK SMILES IDX 62 80 58 81 59 82 61 83 63 84 60 85 44 86 45 87 50 88 46 89
REMARK SMILES IDX 47 90 49 91 51 92 48 93
REMARK H PARENT 2 17 2 18 79 20 68 55 42 66
REMARK Flexibility Score: 90.00
ROOT
ATOM      1  C   UNL     1      -1.491   3.345  -3.256  1.00  0.00     0.188 C 
ENDROOT
BRANCH   1   2
ATOM      2  C   UNL     1      -1.139   1.917  -3.659  1.00  0.00     0.188 C 
BRANCH   2   3
ATOM      3  O   UNL     1      -0.979   1.593  -5.031  1.00  0.00    -0.376 OA
BRANCH   3   4
ATOM      4  C   UNL     1      -1.663   0.415  -5.474  1.00  0.00     0.202 C 
BRANCH   4   5
ATOM      5  C   UNL     1      -1.551  -0.926  -4.705  1.00  0.00     0.261 C 
BRANCH   5   6
ATOM      6  O   UNL     1      -1.563  -0.830  -3.266  1.00  0.00    -0.459 OA
BRANCH   6   7
ATOM      7  C   UNL     1      -0.375  -0.758  -2.631  1.00  0.00     0.368 C 
ATOM      8  O   UNL     1       0.674  -0.962  -3.241  1.00  0.00    -0.245 OA
BRANCH   7   9
ATOM      9  C   UNL     1      -0.437  -0.309  -1.063  1.00  0.00     0.199 C 
ATOM     10  C   UNL     1      -0.821  -1.505  -0.166  1.00  0.00     0.081 C 
ATOM     11  C   UNL     1      -1.259   0.949  -0.622  1.00  0.00     0.146 C 
ATOM     12  C   UNL     1      -2.297  -1.601   0.247  1.00  0.00     0.013 C 
ATOM     13  C   UNL     1      -2.772   0.880  -0.221  1.00  0.00     0.190 C 
ATOM     14  C   UNL     1      -2.895  -0.290   0.759  1.00  0.00     0.065 C 
BRANCH   9  15
ATOM     15  N   UNL     1       1.005   0.088  -0.895  1.00  0.00    -0.334 N 
ATOM     16  C   UNL     1       1.672   0.083   0.376  1.00  0.00     0.331 C 
ATOM     17  H   UNL     1       1.540  -0.538  -1.497  1.00  0.00     0.347 HD
ATOM     18  H   UNL     1       0.968   1.086  -1.104  1.00  0.00     0.347 HD
ENDBRANCH   9  15
BRANCH  13  19
ATOM     19  N   UNL     1      -3.810   0.984  -1.265  1.00  0.00    -0.332 N 
ATOM     20  H   UNL     1      -3.236   1.657  -1.773  1.00  0.00     0.348 HD
BRANCH  19  21
ATOM     21  C   UNL     1      -5.027   1.747  -1.002  1.00  0.00     0.262 C 
BRANCH  21  22
ATOM     22  C   UNL     1      -6.077   1.106  -0.085  1.00  0.00     0.061 C 
BRANCH  22  23
ATOM     23  C   UNL     1      -6.766  -0.174  -0.568  1.00  0.00     0.006 CG0
ATOM     24  G   UNL     1      -5.866  -1.278  -1.098  1.00  0.00     0.000 G0
ENDBRANCH  22  23
ENDBRANCH  21  22
ENDBRANCH  19  21
BRANCH  19  25
ATOM     25  C   UNL     1      -3.955  -0.057  -2.248  1.00  0.00     0.262 C 
BRANCH  25  26
ATOM     26  C   UNL     1      -5.223  -0.877  -2.409  1.00  0.00     0.061 C 
BRANCH  26  27
ATOM     27  C   UNL     1      -5.866  -1.278  -1.098  1.00  0.00     0.006 CG0
ATOM     28  G   UNL     1      -6.766  -0.174  -0.568  1.00  0.00     0.000 G0
ENDBRANCH  26  27
ENDBRANCH  25  26
ENDBRANCH  19  25
ENDBRANCH  13  19
ENDBRANCH   7   9
ENDBRANCH   6   7
ENDBRANCH   5   6
ENDBRANCH   4   5
ENDBRANCH   3   4
ENDBRANCH   2   3
ENDBRANCH   1   2
BRANCH   1  29
ATOM     29  O   UNL     1      -2.837   3.743  -3.501  1.00  0.00    -0.377 OA
BRANCH  29  30
ATOM     30  C   UNL     1      -3.321   3.497  -4.808  1.00  0.00     0.188 C 
BRANCH  30  31
ATOM     31  C   UNL     1      -2.575   4.198  -5.954  1.00  0.00     0.188 C 
BRANCH  31  32
ATOM     32  O   UNL     1      -1.245   4.591  -5.652  1.00  0.00    -0.376 OA
BRANCH  32  33
ATOM     33  C   UNL     1      -1.029   5.971  -5.347  1.00  0.00     0.202 C 
BRANCH  33  34
ATOM     34  C   UNL     1      -1.640   6.568  -4.056  1.00  0.00     0.261 C 
BRANCH  34  35
ATOM     35  O   UNL     1      -3.061   6.446  -3.895  1.00  0.00    -0.460 OA
BRANCH  35  36
ATOM     36  C   UNL     1      -3.841   7.005  -4.836  1.00  0.00     0.338 C 
ATOM     37  O   UNL     1      -3.481   7.668  -5.796  1.00  0.00    -0.246 OA
BRANCH  36  38
ATOM     38  C   UNL     1      -5.221   6.521  -4.636  1.00  0.00     0.060 A 
ATOM     39  C   UNL     1      -5.852   5.858  -5.697  1.00  0.00     0.016 A 
ATOM     40  C   UNL     1      -5.892   6.727  -3.429  1.00  0.00     0.016 A 
ATOM     41  C   UNL     1      -7.167   5.422  -5.564  1.00  0.00     0.010 A 
ATOM     42  C   UNL     1      -7.225   6.325  -3.309  1.00  0.00     0.010 A 
ATOM     43  C   UNL     1      -7.877   5.704  -4.390  1.00  0.00    -0.014 A 
BRANCH  43  44
ATOM     44  C   UNL     1      -9.352   5.570  -4.397  1.00  0.00     0.031 A 
ATOM     45  C   UNL     1     -10.167   6.791  -4.726  1.00  0.00     0.074 A 
ATOM     46  C   UNL     1      -9.955   4.391  -4.170  1.00  0.00     0.049 A 
ATOM     47  N   UNL     1     -11.465   6.937  -4.777  1.00  0.00    -0.248 NA
ATOM     48  C   UNL     1      -9.409   8.014  -5.040  1.00  0.00     0.031 C 
ATOM     49  C   UNL     1      -9.273   3.129  -3.893  1.00  0.00     0.029 A 
ATOM     50  N   UNL     1     -11.289   4.072  -4.132  1.00  0.00    -0.354 N 
ATOM     51  C   UNL     1     -11.678   8.265  -5.127  1.00  0.00     0.074 A 
ATOM     52  C   UNL     1     -10.380   8.891  -5.241  1.00  0.00     0.031 C 
ATOM     53  C   UNL     1     -10.197   2.171  -3.699  1.00  0.00     0.029 A 
ATOM     54  C   UNL     1     -11.531   2.760  -3.807  1.00  0.00     0.049 A 
ATOM     55  H   UNL     1     -12.004   4.721  -4.321  1.00  0.00     0.167 HD
ATOM     56  C   UNL     1     -12.851   8.904  -5.344  1.00  0.00     0.037 A 
ATOM     57  C   UNL     1     -12.699   2.121  -3.598  1.00  0.00     0.037 A 
ATOM     58  C   UNL     1     -14.142   8.283  -5.218  1.00  0.00     0.049 A 
ATOM     59  C   UNL     1     -13.995   2.877  -3.757  1.00  0.00     0.074 A 
ATOM     60  C   UNL     1     -15.391   8.842  -5.417  1.00  0.00     0.029 A 
ATOM     61  N   UNL     1     -14.348   6.962  -4.847  1.00  0.00    -0.354 N 
ATOM     62  N   UNL     1     -14.190   4.126  -4.108  1.00  0.00    -0.248 NA
ATOM     63  C   UNL     1     -15.235   2.132  -3.494  1.00  0.00     0.031 C 
ATOM     64  C   UNL     1     -16.355   7.877  -5.110  1.00  0.00     0.029 A 
ATOM     65  C   UNL     1     -15.705   6.697  -4.784  1.00  0.00     0.049 A 
ATOM     66  H   UNL     1     -13.634   6.311  -4.657  1.00  0.00     0.167 HD
ATOM     67  C   UNL     1     -15.569   4.306  -4.139  1.00  0.00     0.074 A 
ATOM     68  C   UNL     1     -16.162   3.034  -3.784  1.00  0.00     0.031 C 
ATOM     69  C   UNL     1     -16.280   5.421  -4.437  1.00  0.00     0.037 A 
BRANCH  56  70
ATOM     70  C   UNL     1     -12.786  10.360  -5.706  1.00  0.00     0.057 A 
ATOM     71  C   UNL     1     -12.301  10.796  -6.946  1.00  0.00     0.134 A 
ATOM     72  C   UNL     1     -13.233  11.337  -4.807  1.00  0.00     0.134 A 
ATOM     73  F   UNL     1     -11.840   9.914  -7.845  1.00  0.00    -0.206 F 
ATOM     74  C   UNL     1     -12.238  12.153  -7.268  1.00  0.00     0.040 A 
ATOM     75  C   UNL     1     -13.204  12.694  -5.130  1.00  0.00     0.040 A 
ATOM     76  F   UNL     1     -13.711  10.988  -3.603  1.00  0.00    -0.206 F 
ATOM     77  C   UNL     1     -12.698  13.106  -6.361  1.00  0.00     0.006 A 
ENDBRANCH  56  70
BRANCH  57  78
ATOM     78  C   UNL     1     -12.706   0.691  -3.192  1.00  0.00     0.057 A 
ATOM     79  C   UNL     1     -13.220  -0.304  -4.032  1.00  0.00     0.134 A 
ATOM     80  C   UNL     1     -12.228   0.289  -1.938  1.00  0.00     0.134 A 
ATOM     81  F   UNL     1     -13.716   0.018  -5.236  1.00  0.00    -0.206 F 
ATOM     82  C   UNL     1     -13.281  -1.641  -3.632  1.00  0.00     0.040 A 
ATOM     83  C   UNL     1     -12.255  -1.047  -1.537  1.00  0.00     0.040 A 
ATOM     84  F   UNL     1     -11.722   1.192  -1.085  1.00  0.00    -0.206 F 
ATOM     85  C   UNL     1     -12.792  -2.016  -2.382  1.00  0.00     0.006 A 
ENDBRANCH  57  78
BRANCH  69  86
ATOM     86  C   UNL     1     -17.779   5.310  -4.438  1.00  0.00     0.057 A 
ATOM     87  C   UNL     1     -18.516   5.161  -3.256  1.00  0.00     0.134 A 
ATOM     88  C   UNL     1     -18.498   5.403  -5.638  1.00  0.00     0.134 A 
ATOM     89  F   UNL     1     -17.891   5.056  -2.073  1.00  0.00    -0.206 F 
ATOM     90  C   UNL     1     -19.910   5.082  -3.269  1.00  0.00     0.040 A 
ATOM     91  C   UNL     1     -19.892   5.357  -5.661  1.00  0.00     0.040 A 
ATOM     92  F   UNL     1     -17.857   5.559  -6.806  1.00  0.00    -0.206 F 
ATOM     93  C   UNL     1     -20.602   5.189  -4.474  1.00  0.00     0.006 A 
ENDBRANCH  69  86
ENDBRANCH  43  44
ENDBRANCH  36  38
ENDBRANCH  35  36
ENDBRANCH  34  35
ENDBRANCH  33  34
ENDBRANCH  32  33
ENDBRANCH  31  32
ENDBRANCH  30  31
ENDBRANCH  29  30
ENDBRANCH   1  29
TORSDOF 22
