REMARK SMILES O=C(CS(=O)(=O)NCc1ccc(N2CCOCC2)nc1)OCCOCCOCCOCCOC(=O)c1ccc(-c2c3nc(c(-c4c(F)cccc4F)c4ccc([nH]4)c(-c4c(F)cccc4F)c4nc(c(-c5c(F)cccc5F)c5ccc2[nH]5)C=C4)C=C3)cc1
REMARK SMILES IDX 25 1 24 2 23 3 22 4 21 5 2 6 1 7 3 8 4 9 5 10 6 11 7 12 8 14
REMARK SMILES IDX 9 15 10 16 20 17 11 18 19 19 12 20 13 21 14 22 18 23 15 24
REMARK SMILES IDX 17 25 16 26 26 27 27 28 28 29 29 30 30 31 31 32 32 33 33 34
REMARK SMILES IDX 34 35 35 36 36 37 37 38 89 39 38 40 88 41 39 42 40 43 41 44
REMARK SMILES IDX 82 45 42 46 87 47 81 48 83 49 43 50 86 51 80 52 79 53 44 55
REMARK SMILES IDX 70 56 53 57 69 58 54 59 57 60 68 61 84 62 55 63 56 64 67 66
REMARK SMILES IDX 85 67 58 68 45 69 46 70 51 71 47 72 48 73 50 74 52 75 49 76
REMARK SMILES IDX 71 77 72 78 77 79 73 80 74 81 76 82 78 83 75 84 59 85 60 86
REMARK SMILES IDX 65 87 61 88 62 89 64 90 66 91 63 92
REMARK H PARENT 7 13 83 54 57 65
REMARK Flexibility Score: inf
ROOT
ATOM      1  C   UNL     1       2.865   0.503   2.125  1.00  0.00     0.188 C 
ENDROOT
BRANCH   1   2
ATOM      2  O   UNL     1       4.264   0.449   1.899  1.00  0.00    -0.376 OA
BRANCH   2   3
ATOM      3  C   UNL     1       4.884  -0.045   0.728  1.00  0.00     0.202 C 
BRANCH   3   4
ATOM      4  C   UNL     1       4.242   0.194  -0.626  1.00  0.00     0.261 C 
BRANCH   4   5
ATOM      5  O   UNL     1       2.845  -0.144  -0.750  1.00  0.00    -0.462 OA
BRANCH   5   6
ATOM      6  C   UNL     1       2.162  -1.251  -0.429  1.00  0.00     0.322 C 
ATOM      7  O   UNL     1       0.942  -1.242  -0.604  1.00  0.00    -0.251 OA
BRANCH   6   8
ATOM      8  C   UNL     1       2.800  -2.412   0.225  1.00  0.00     0.276 C 
BRANCH   8   9
ATOM      9  S   UNL     1       3.799  -3.377  -0.846  1.00  0.00     0.222 S 
ATOM     10  O   UNL     1       4.950  -2.614  -1.259  1.00  0.00    -0.212 OA
ATOM     11  O   UNL     1       4.003  -4.647  -0.180  1.00  0.00    -0.212 OA
BRANCH   9  12
ATOM     12  N   UNL     1       2.885  -3.744  -2.174  1.00  0.00    -0.210 NA
ATOM     13  H   UNL     1       2.070  -4.236  -1.808  1.00  0.00     0.141 HD
BRANCH  12  14
ATOM     14  C   UNL     1       2.350  -2.792  -3.150  1.00  0.00     0.135 C 
BRANCH  14  15
ATOM     15  C   UNL     1       3.257  -1.718  -3.670  1.00  0.00    -0.015 A 
ATOM     16  C   UNL     1       2.856  -0.382  -3.703  1.00  0.00     0.010 A 
ATOM     17  C   UNL     1       4.509  -2.001  -4.196  1.00  0.00     0.118 A 
ATOM     18  C   UNL     1       3.732   0.593  -4.173  1.00  0.00     0.047 A 
ATOM     19  N   UNL     1       5.347  -1.075  -4.721  1.00  0.00    -0.239 NA
ATOM     20  C   UNL     1       4.969   0.215  -4.682  1.00  0.00     0.128 A 
BRANCH  20  21
ATOM     21  N   UNL     1       5.769   1.157  -5.262  1.00  0.00    -0.352 N 
ATOM     22  C   UNL     1       6.492   2.171  -4.512  1.00  0.00     0.146 C 
ATOM     23  C   UNL     1       6.123   1.023  -6.665  1.00  0.00     0.146 C 
ATOM     24  C   UNL     1       6.354   3.514  -5.252  1.00  0.00     0.181 C 
ATOM     25  C   UNL     1       5.922   2.404  -7.309  1.00  0.00     0.181 C 
ATOM     26  O   UNL     1       6.709   3.414  -6.645  1.00  0.00    -0.378 OA
ENDBRANCH  20  21
ENDBRANCH  14  15
ENDBRANCH  12  14
ENDBRANCH   9  12
ENDBRANCH   8   9
ENDBRANCH   6   8
ENDBRANCH   5   6
ENDBRANCH   4   5
ENDBRANCH   3   4
ENDBRANCH   2   3
ENDBRANCH   1   2
BRANCH   1  27
ATOM     27  C   UNL     1       2.148   1.735   1.550  1.00  0.00     0.188 C 
BRANCH  27  28
ATOM     28  O   UNL     1       2.680   2.987   1.969  1.00  0.00    -0.377 OA
BRANCH  28  29
ATOM     29  C   UNL     1       4.038   3.193   1.618  1.00  0.00     0.188 C 
BRANCH  29  30
ATOM     30  C   UNL     1       5.071   2.962   2.745  1.00  0.00     0.188 C 
BRANCH  30  31
ATOM     31  O   UNL     1       4.702   2.489   4.032  1.00  0.00    -0.376 OA
BRANCH  31  32
ATOM     32  C   UNL     1       3.485   2.882   4.639  1.00  0.00     0.202 C 
BRANCH  32  33
ATOM     33  C   UNL     1       3.128   4.362   4.817  1.00  0.00     0.261 C 
BRANCH  33  34
ATOM     34  O   UNL     1       3.414   5.210   3.704  1.00  0.00    -0.460 OA
BRANCH  34  35
ATOM     35  C   UNL     1       4.588   5.886   3.774  1.00  0.00     0.338 C 
ATOM     36  O   UNL     1       5.404   5.875   4.665  1.00  0.00    -0.246 OA
BRANCH  35  37
ATOM     37  C   UNL     1       4.811   6.521   2.458  1.00  0.00     0.060 A 
ATOM     38  C   UNL     1       5.996   6.239   1.759  1.00  0.00     0.016 A 
ATOM     39  C   UNL     1       3.845   7.368   1.915  1.00  0.00     0.016 A 
ATOM     40  C   UNL     1       6.229   6.817   0.515  1.00  0.00     0.010 A 
ATOM     41  C   UNL     1       4.099   7.986   0.695  1.00  0.00     0.010 A 
ATOM     42  C   UNL     1       5.305   7.738   0.014  1.00  0.00    -0.014 A 
BRANCH  42  43
ATOM     43  C   UNL     1       5.707   8.673  -1.054  1.00  0.00     0.031 A 
ATOM     44  C   UNL     1       6.254  10.002  -0.626  1.00  0.00     0.074 A 
ATOM     45  C   UNL     1       5.528   8.382  -2.351  1.00  0.00     0.049 A 
ATOM     46  N   UNL     1       6.484  11.075  -1.332  1.00  0.00    -0.248 NA
ATOM     47  C   UNL     1       6.559  10.141   0.808  1.00  0.00     0.031 C 
ATOM     48  C   UNL     1       5.050   7.106  -2.875  1.00  0.00     0.029 A 
ATOM     49  N   UNL     1       5.694   9.170  -3.459  1.00  0.00    -0.354 N 
ATOM     50  C   UNL     1       6.930  12.026  -0.424  1.00  0.00     0.074 A 
ATOM     51  C   UNL     1       6.920  11.411   0.884  1.00  0.00     0.031 C 
ATOM     52  C   UNL     1       4.916   7.213  -4.209  1.00  0.00     0.029 A 
ATOM     53  C   UNL     1       5.254   8.577  -4.615  1.00  0.00     0.049 A 
ATOM     54  H   UNL     1       6.089  10.072  -3.429  1.00  0.00     0.167 HD
ATOM     55  C   UNL     1       7.304  13.304  -0.662  1.00  0.00     0.037 A 
ATOM     56  C   UNL     1       5.094   9.100  -5.846  1.00  0.00     0.037 A 
ATOM     57  C   UNL     1       7.288  13.905  -1.967  1.00  0.00     0.049 A 
ATOM     58  C   UNL     1       5.451  10.543  -6.085  1.00  0.00     0.074 A 
ATOM     59  C   UNL     1       7.669  15.182  -2.333  1.00  0.00     0.029 A 
ATOM     60  N   UNL     1       6.848  13.268  -3.119  1.00  0.00    -0.354 N 
ATOM     61  N   UNL     1       5.890  11.439  -5.233  1.00  0.00    -0.248 NA
ATOM     62  C   UNL     1       5.288  11.050  -7.455  1.00  0.00     0.031 C 
ATOM     63  C   UNL     1       7.397  15.340  -3.696  1.00  0.00     0.029 A 
ATOM     64  C   UNL     1       6.916  14.137  -4.193  1.00  0.00     0.049 A 
ATOM     65  H   UNL     1       6.532  12.337  -3.165  1.00  0.00     0.167 HD
ATOM     66  C   UNL     1       6.090  12.603  -5.967  1.00  0.00     0.074 A 
ATOM     67  C   UNL     1       5.718  12.299  -7.334  1.00  0.00     0.031 C 
ATOM     68  C   UNL     1       6.549  13.810  -5.550  1.00  0.00     0.037 A 
BRANCH  55  69
ATOM     69  C   UNL     1       7.693  14.134   0.527  1.00  0.00     0.057 A 
ATOM     70  C   UNL     1       8.847  13.872   1.279  1.00  0.00     0.134 A 
ATOM     71  C   UNL     1       6.880  15.194   0.945  1.00  0.00     0.134 A 
ATOM     72  F   UNL     1       9.660  12.857   0.948  1.00  0.00    -0.206 F 
ATOM     73  C   UNL     1       9.152  14.605   2.427  1.00  0.00     0.040 A 
ATOM     74  C   UNL     1       7.193  15.957   2.070  1.00  0.00     0.040 A 
ATOM     75  F   UNL     1       5.760  15.501   0.273  1.00  0.00    -0.206 F 
ATOM     76  C   UNL     1       8.326  15.655   2.823  1.00  0.00     0.006 A 
ENDBRANCH  55  69
BRANCH  56  77
ATOM     77  C   UNL     1       4.546   8.249  -6.931  1.00  0.00     0.057 A 
ATOM     78  C   UNL     1       5.354   7.807  -7.983  1.00  0.00     0.134 A 
ATOM     79  C   UNL     1       3.210   7.827  -6.922  1.00  0.00     0.134 A 
ATOM     80  F   UNL     1       6.635   8.198  -8.059  1.00  0.00    -0.206 F 
ATOM     81  C   UNL     1       4.855   6.977  -8.988  1.00  0.00     0.040 A 
ATOM     82  C   UNL     1       2.703   6.979  -7.908  1.00  0.00     0.040 A 
ATOM     83  F   UNL     1       2.385   8.211  -5.936  1.00  0.00    -0.206 F 
ATOM     84  C   UNL     1       3.528   6.553  -8.947  1.00  0.00     0.006 A 
ENDBRANCH  56  77
BRANCH  68  85
ATOM     85  C   UNL     1       6.732  14.883  -6.585  1.00  0.00     0.057 A 
ATOM     86  C   UNL     1       5.650  15.552  -7.168  1.00  0.00     0.134 A 
ATOM     87  C   UNL     1       8.021  15.309  -6.936  1.00  0.00     0.134 A 
ATOM     88  F   UNL     1       4.391  15.188  -6.882  1.00  0.00    -0.206 F 
ATOM     89  C   UNL     1       5.843  16.597  -8.074  1.00  0.00     0.040 A 
ATOM     90  C   UNL     1       8.226  16.371  -7.817  1.00  0.00     0.040 A 
ATOM     91  F   UNL     1       9.102  14.719  -6.404  1.00  0.00    -0.206 F 
ATOM     92  C   UNL     1       7.134  17.016  -8.392  1.00  0.00     0.006 A 
ENDBRANCH  68  85
ENDBRANCH  42  43
ENDBRANCH  35  37
ENDBRANCH  34  35
ENDBRANCH  33  34
ENDBRANCH  32  33
ENDBRANCH  31  32
ENDBRANCH  30  31
ENDBRANCH  29  30
ENDBRANCH  28  29
ENDBRANCH  27  28
ENDBRANCH   1  27
TORSDOF 25
