REMARK SMILES Cc1cc2c(c(C)c1Cl)C=C(C(=O)OCCOCCOCCOCCOC(=O)c1ccc(-c3c4nc(c(-c5c(F)cccc5F)c5ccc([nH]5)c(-c5c(F)cccc5F)c5nc(c(-c6c(F)cccc6F)c6ccc3[nH]6)C=C5)C=C4)cc1)[C@@H](C(F)(F)F)O2
REMARK SMILES IDX 21 1 20 2 19 3 18 4 17 5 16 6 15 7 14 8 12 9 13 10 11 11
REMARK SMILES IDX 1 12 2 13 3 14 8 15 4 16 6 17 9 18 5 19 88 20 7 21 10 22
REMARK SMILES IDX 83 23 84 24 85 25 86 26 87 27 22 28 23 29 24 30 25 31 26 32
REMARK SMILES IDX 27 33 28 34 29 35 30 36 82 37 31 38 81 39 32 40 33 41 34 42
REMARK SMILES IDX 75 43 35 44 80 45 74 46 76 47 36 48 79 49 73 50 72 51 37 53
REMARK SMILES IDX 63 54 46 55 62 56 47 57 50 58 61 59 77 60 48 61 49 62 60 64
REMARK SMILES IDX 78 65 51 66 38 67 39 68 44 69 40 70 41 71 43 72 45 73 42 74
REMARK SMILES IDX 64 75 65 76 70 77 66 78 67 79 69 80 71 81 68 82 52 83 53 84
REMARK SMILES IDX 58 85 54 86 55 87 57 88 59 89 56 90
REMARK H PARENT 76 52 50 63
REMARK Flexibility Score: inf
ROOT
ATOM      1  C   UNL     1      -1.848  -9.982   0.913  1.00  0.00     0.188 C 
ENDROOT
BRANCH   1   2
ATOM      2  O   UNL     1      -1.135  -8.852   0.403  1.00  0.00    -0.377 OA
BRANCH   2   3
ATOM      3  C   UNL     1      -1.889  -7.767  -0.115  1.00  0.00     0.188 C 
BRANCH   3   4
ATOM      4  C   UNL     1      -2.398  -8.012  -1.549  1.00  0.00     0.188 C 
BRANCH   4   5
ATOM      5  O   UNL     1      -2.367  -9.383  -1.915  1.00  0.00    -0.376 OA
BRANCH   5   6
ATOM      6  C   UNL     1      -1.281  -9.889  -2.674  1.00  0.00     0.202 C 
BRANCH   6   7
ATOM      7  C   UNL     1       0.182  -9.636  -2.267  1.00  0.00     0.261 C 
BRANCH   7   8
ATOM      8  O   UNL     1       0.497  -8.335  -1.763  1.00  0.00    -0.460 OA
BRANCH   8   9
ATOM      9  C   UNL     1       0.567  -7.321  -2.644  1.00  0.00     0.338 C 
ATOM     10  O   UNL     1       0.431  -7.392  -3.852  1.00  0.00    -0.246 OA
BRANCH   9  11
ATOM     11  C   UNL     1       0.664  -6.062  -1.870  1.00  0.00     0.087 C 
ATOM     12  C   UNL     1       0.891   0.043   0.211  1.00  0.00     0.046 C 
ATOM     13  C   UNL     1       0.467  -1.283  -0.361  1.00  0.00    -0.028 A 
ATOM     14  C   UNL     1       1.163  -2.426   0.051  1.00  0.00     0.052 A 
ATOM     15  C   UNL     1      -0.607  -1.430  -1.260  1.00  0.00     0.047 A 
ATOM     16  C   UNL     1       0.898  -3.667  -0.522  1.00  0.00     0.128 A 
ATOM     17  C   UNL     1      -0.903  -2.688  -1.838  1.00  0.00    -0.021 A 
ATOM     18  Cl  UNL     1      -1.553  -0.029  -1.663  1.00  0.00    -0.084 Cl
ATOM     19  C   UNL     1      -0.081  -3.796  -1.511  1.00  0.00     0.022 A 
ATOM     20  O   UNL     1       1.671  -4.690  -0.056  1.00  0.00    -0.475 OA
ATOM     21  C   UNL     1      -2.072  -2.878  -2.778  1.00  0.00     0.047 C 
ATOM     22  C   UNL     1      -0.158  -5.068  -2.228  1.00  0.00     0.027 C 
ATOM     23  C   UNL     1       1.601  -5.990  -0.696  1.00  0.00     0.316 C 
BRANCH  23  24
ATOM     24  C   UNL     1       3.033  -6.408  -1.057  1.00  0.00     0.430 C 
ATOM     25  F   UNL     1       3.868  -6.270   0.003  1.00  0.00    -0.167 F 
ATOM     26  F   UNL     1       3.108  -7.704  -1.440  1.00  0.00    -0.167 F 
ATOM     27  F   UNL     1       3.534  -5.660  -2.066  1.00  0.00    -0.167 F 
ENDBRANCH  23  24
ENDBRANCH   9  11
ENDBRANCH   8   9
ENDBRANCH   7   8
ENDBRANCH   6   7
ENDBRANCH   5   6
ENDBRANCH   4   5
ENDBRANCH   3   4
ENDBRANCH   2   3
ENDBRANCH   1   2
BRANCH   1  28
ATOM     28  C   UNL     1      -3.328 -10.262   0.548  1.00  0.00     0.188 C 
BRANCH  28  29
ATOM     29  O   UNL     1      -4.144  -9.100   0.480  1.00  0.00    -0.376 OA
BRANCH  29  30
ATOM     30  C   UNL     1      -5.087  -8.889   1.517  1.00  0.00     0.202 C 
BRANCH  30  31
ATOM     31  C   UNL     1      -4.491  -8.488   2.872  1.00  0.00     0.261 C 
BRANCH  31  32
ATOM     32  O   UNL     1      -3.557  -9.419   3.438  1.00  0.00    -0.460 OA
BRANCH  32  33
ATOM     33  C   UNL     1      -4.010 -10.654   3.742  1.00  0.00     0.338 C 
ATOM     34  O   UNL     1      -5.146 -11.078   3.618  1.00  0.00    -0.246 OA
BRANCH  33  35
ATOM     35  C   UNL     1      -2.833 -11.478   4.081  1.00  0.00     0.060 A 
ATOM     36  C   UNL     1      -2.548 -12.615   3.313  1.00  0.00     0.016 A 
ATOM     37  C   UNL     1      -1.996 -11.105   5.135  1.00  0.00     0.016 A 
ATOM     38  C   UNL     1      -1.431 -13.394   3.615  1.00  0.00     0.010 A 
ATOM     39  C   UNL     1      -0.890 -11.897   5.448  1.00  0.00     0.010 A 
ATOM     40  C   UNL     1      -0.617 -13.059   4.706  1.00  0.00    -0.014 A 
BRANCH  40  41
ATOM     41  C   UNL     1       0.409 -14.015   5.183  1.00  0.00     0.031 A 
ATOM     42  C   UNL     1       0.049 -14.944   6.310  1.00  0.00     0.074 A 
ATOM     43  C   UNL     1       1.626 -14.079   4.614  1.00  0.00     0.049 A 
ATOM     44  N   UNL     1       0.780 -15.849   6.905  1.00  0.00    -0.248 NA
ATOM     45  C   UNL     1      -1.324 -14.837   6.833  1.00  0.00     0.031 C 
ATOM     46  C   UNL     1       2.078 -13.263   3.490  1.00  0.00     0.029 A 
ATOM     47  N   UNL     1       2.705 -14.875   4.909  1.00  0.00    -0.354 N 
ATOM     48  C   UNL     1      -0.045 -16.428   7.861  1.00  0.00     0.074 A 
ATOM     49  C   UNL     1      -1.317 -15.743   7.800  1.00  0.00     0.031 C 
ATOM     50  C   UNL     1       3.344 -13.603   3.188  1.00  0.00     0.029 A 
ATOM     51  C   UNL     1       3.800 -14.638   4.114  1.00  0.00     0.049 A 
ATOM     52  H   UNL     1       2.696 -15.553   5.624  1.00  0.00     0.167 HD
ATOM     53  C   UNL     1       0.228 -17.451   8.702  1.00  0.00     0.037 A 
ATOM     54  C   UNL     1       5.031 -15.188   4.142  1.00  0.00     0.037 A 
ATOM     55  C   UNL     1       1.496 -18.125   8.769  1.00  0.00     0.049 A 
ATOM     56  C   UNL     1       5.342 -16.257   5.159  1.00  0.00     0.074 A 
ATOM     57  C   UNL     1       1.870 -19.170   9.595  1.00  0.00     0.029 A 
ATOM     58  N   UNL     1       2.596 -17.819   7.983  1.00  0.00    -0.354 N 
ATOM     59  N   UNL     1       4.550 -16.809   6.047  1.00  0.00    -0.248 NA
ATOM     60  C   UNL     1       6.717 -16.781   5.179  1.00  0.00     0.031 C 
ATOM     61  C   UNL     1       3.213 -19.463   9.344  1.00  0.00     0.029 A 
ATOM     62  C   UNL     1       3.657 -18.640   8.321  1.00  0.00     0.049 A 
ATOM     63  H   UNL     1       2.619 -17.121   7.289  1.00  0.00     0.167 HD
ATOM     64  C   UNL     1       5.317 -17.766   6.702  1.00  0.00     0.074 A 
ATOM     65  C   UNL     1       6.636 -17.724   6.108  1.00  0.00     0.031 C 
ATOM     66  C   UNL     1       4.959 -18.604   7.705  1.00  0.00     0.037 A 
BRANCH  53  67
ATOM     67  C   UNL     1      -0.864 -17.910   9.621  1.00  0.00     0.057 A 
ATOM     68  C   UNL     1      -1.970 -18.627   9.145  1.00  0.00     0.134 A 
ATOM     69  C   UNL     1      -0.774 -17.699  11.002  1.00  0.00     0.134 A 
ATOM     70  F   UNL     1      -2.122 -18.848   7.831  1.00  0.00    -0.206 F 
ATOM     71  C   UNL     1      -2.950 -19.113  10.011  1.00  0.00     0.040 A 
ATOM     72  C   UNL     1      -1.735 -18.203  11.880  1.00  0.00     0.040 A 
ATOM     73  F   UNL     1       0.261 -17.023  11.523  1.00  0.00    -0.206 F 
ATOM     74  C   UNL     1      -2.828 -18.911  11.384  1.00  0.00     0.006 A 
ENDBRANCH  53  67
BRANCH  54  75
ATOM     75  C   UNL     1       6.066 -14.749   3.169  1.00  0.00     0.057 A 
ATOM     76  C   UNL     1       6.531 -15.614   2.171  1.00  0.00     0.134 A 
ATOM     77  C   UNL     1       6.625 -13.467   3.221  1.00  0.00     0.134 A 
ATOM     78  F   UNL     1       6.054 -16.864   2.085  1.00  0.00    -0.206 F 
ATOM     79  C   UNL     1       7.522 -15.224   1.267  1.00  0.00     0.040 A 
ATOM     80  C   UNL     1       7.597 -13.054   2.307  1.00  0.00     0.040 A 
ATOM     81  F   UNL     1       6.226 -12.591   4.155  1.00  0.00    -0.206 F 
ATOM     82  C   UNL     1       8.052 -13.937   1.330  1.00  0.00     0.006 A 
ENDBRANCH  54  75
BRANCH  66  83
ATOM     83  C   UNL     1       5.982 -19.580   8.210  1.00  0.00     0.057 A 
ATOM     84  C   UNL     1       7.057 -19.176   9.010  1.00  0.00     0.134 A 
ATOM     85  C   UNL     1       5.825 -20.954   7.983  1.00  0.00     0.134 A 
ATOM     86  F   UNL     1       7.267 -17.875   9.261  1.00  0.00    -0.206 F 
ATOM     87  C   UNL     1       7.943 -20.103   9.562  1.00  0.00     0.040 A 
ATOM     88  C   UNL     1       6.687 -21.892   8.551  1.00  0.00     0.040 A 
ATOM     89  F   UNL     1       4.806 -21.410   7.237  1.00  0.00    -0.206 F 
ATOM     90  C   UNL     1       7.751 -21.467   9.343  1.00  0.00     0.006 A 
ENDBRANCH  66  83
ENDBRANCH  40  41
ENDBRANCH  33  35
ENDBRANCH  32  33
ENDBRANCH  31  32
ENDBRANCH  30  31
ENDBRANCH  29  30
ENDBRANCH  28  29
ENDBRANCH   1  28
TORSDOF 21
