REMARK SMILES O=C(OCCOCCOCCOCCOC(=O)[C@H]1CCCN(c2nc(-c3ccco3)cc(C(F)(F)F)n2)C1)c1ccc(-c2c3nc(c(-c4c(F)cccc4F)c4ccc([nH]4)c(-c4c(F)cccc4F)c4nc(c(-c5c(F)cccc5F)c5ccc2[nH]5)C=C4)C=C3)cc1
REMARK SMILES IDX 9 1 8 2 7 3 6 4 5 5 4 6 3 7 2 8 1 9 39 10 40 11 92 12 41 13
REMARK SMILES IDX 91 14 42 15 43 16 44 17 85 18 45 19 90 20 84 21 86 22 46 23
REMARK SMILES IDX 89 24 83 25 82 26 47 28 73 29 56 30 72 31 57 32 60 33 71 34
REMARK SMILES IDX 87 35 58 36 59 37 70 39 88 40 61 41 48 42 49 43 54 44 50 45
REMARK SMILES IDX 51 46 53 47 55 48 52 49 74 50 75 51 80 52 76 53 77 54 79 55
REMARK SMILES IDX 81 56 78 57 62 58 63 59 68 60 64 61 65 62 67 63 69 64 66 65
REMARK SMILES IDX 10 66 11 67 12 68 13 69 14 70 15 71 16 72 17 73 18 74 19 75
REMARK SMILES IDX 38 76 20 77 22 78 21 79 23 80 24 81 37 82 25 83 32 84 31 85
REMARK SMILES IDX 26 86 27 87 30 88 28 89 29 90 33 91 34 92 35 93 36 94
REMARK H PARENT 86 27 60 38
REMARK Flexibility Score: inf
ROOT
ATOM      1  O   UNL     1       3.329   1.162  -5.524  1.00  0.00    -0.377 OA
ENDROOT
BRANCH   1   2
ATOM      2  C   UNL     1       2.530   0.300  -6.316  1.00  0.00     0.188 C 
BRANCH   2   3
ATOM      3  C   UNL     1       1.374  -0.326  -5.568  1.00  0.00     0.188 C 
BRANCH   3   4
ATOM      4  O   UNL     1       0.607   0.705  -4.978  1.00  0.00    -0.376 OA
BRANCH   4   5
ATOM      5  C   UNL     1      -0.120   0.487  -3.789  1.00  0.00     0.202 C 
BRANCH   5   6
ATOM      6  C   UNL     1      -0.627  -0.915  -3.522  1.00  0.00     0.261 C 
BRANCH   6   7
ATOM      7  O   UNL     1      -0.845  -1.806  -4.646  1.00  0.00    -0.460 OA
BRANCH   7   8
ATOM      8  C   UNL     1      -1.482  -1.746  -5.838  1.00  0.00     0.338 C 
ATOM      9  O   UNL     1      -1.389  -2.674  -6.622  1.00  0.00    -0.246 OA
BRANCH   8  10
ATOM     10  C   UNL     1      -2.372  -0.624  -6.201  1.00  0.00     0.060 A 
ATOM     11  C   UNL     1      -1.979   0.703  -6.189  1.00  0.00     0.016 A 
ATOM     12  C   UNL     1      -3.631  -0.924  -6.722  1.00  0.00     0.016 A 
ATOM     13  C   UNL     1      -2.892   1.722  -6.304  1.00  0.00     0.010 A 
ATOM     14  C   UNL     1      -4.513   0.108  -7.050  1.00  0.00     0.010 A 
ATOM     15  C   UNL     1      -4.174   1.434  -6.740  1.00  0.00    -0.014 A 
BRANCH  15  16
ATOM     16  C   UNL     1      -5.170   2.516  -6.690  1.00  0.00     0.031 A 
ATOM     17  C   UNL     1      -6.315   2.350  -5.738  1.00  0.00     0.074 A 
ATOM     18  C   UNL     1      -4.951   3.673  -7.343  1.00  0.00     0.049 A 
ATOM     19  N   UNL     1      -7.387   3.076  -5.594  1.00  0.00    -0.248 NA
ATOM     20  C   UNL     1      -6.246   1.196  -4.820  1.00  0.00     0.031 C 
ATOM     21  C   UNL     1      -3.764   3.985  -8.149  1.00  0.00     0.029 A 
ATOM     22  N   UNL     1      -5.687   4.823  -7.388  1.00  0.00    -0.354 N 
ATOM     23  C   UNL     1      -8.152   2.422  -4.637  1.00  0.00     0.074 A 
ATOM     24  C   UNL     1      -7.426   1.245  -4.227  1.00  0.00     0.031 C 
ATOM     25  C   UNL     1      -3.826   5.262  -8.552  1.00  0.00     0.029 A 
ATOM     26  C   UNL     1      -5.109   5.813  -8.146  1.00  0.00     0.049 A 
ATOM     27  H   UNL     1      -6.548   4.932  -6.923  1.00  0.00     0.167 HD
ATOM     28  C   UNL     1      -9.365   2.780  -4.163  1.00  0.00     0.037 A 
ATOM     29  C   UNL     1      -5.602   7.009  -8.511  1.00  0.00     0.037 A 
ATOM     30  C   UNL     1     -10.024   3.990  -4.572  1.00  0.00     0.049 A 
ATOM     31  C   UNL     1      -6.991   7.344  -8.048  1.00  0.00     0.074 A 
ATOM     32  C   UNL     1     -11.274   4.459  -4.227  1.00  0.00     0.029 A 
ATOM     33  N   UNL     1      -9.454   4.933  -5.421  1.00  0.00    -0.354 N 
ATOM     34  N   UNL     1      -7.778   6.668  -7.241  1.00  0.00    -0.248 NA
ATOM     35  C   UNL     1      -7.575   8.584  -8.565  1.00  0.00     0.031 C 
ATOM     36  C   UNL     1     -11.481   5.663  -4.910  1.00  0.00     0.029 A 
ATOM     37  C   UNL     1     -10.335   5.975  -5.630  1.00  0.00     0.049 A 
ATOM     38  H   UNL     1      -8.555   4.867  -5.816  1.00  0.00     0.167 HD
ATOM     39  C   UNL     1      -8.944   7.410  -7.136  1.00  0.00     0.074 A 
ATOM     40  C   UNL     1      -8.748   8.597  -7.949  1.00  0.00     0.031 C 
ATOM     41  C   UNL     1     -10.077   7.141  -6.440  1.00  0.00     0.037 A 
BRANCH  28  42
ATOM     42  C   UNL     1     -10.059   1.803  -3.260  1.00  0.00     0.057 A 
ATOM     43  C   UNL     1      -9.619   1.521  -1.959  1.00  0.00     0.134 A 
ATOM     44  C   UNL     1     -11.149   1.065  -3.742  1.00  0.00     0.134 A 
ATOM     45  F   UNL     1      -8.556   2.160  -1.448  1.00  0.00    -0.206 F 
ATOM     46  C   UNL     1     -10.212   0.517  -1.188  1.00  0.00     0.040 A 
ATOM     47  C   UNL     1     -11.768   0.081  -2.970  1.00  0.00     0.040 A 
ATOM     48  F   UNL     1     -11.615   1.272  -4.983  1.00  0.00    -0.206 F 
ATOM     49  C   UNL     1     -11.291  -0.204  -1.693  1.00  0.00     0.006 A 
ENDBRANCH  28  42
BRANCH  29  50
ATOM     50  C   UNL     1      -4.826   7.916  -9.398  1.00  0.00     0.057 A 
ATOM     51  C   UNL     1      -4.413   9.181  -8.965  1.00  0.00     0.134 A 
ATOM     52  C   UNL     1      -4.484   7.548 -10.708  1.00  0.00     0.134 A 
ATOM     53  F   UNL     1      -4.719   9.604  -7.729  1.00  0.00    -0.206 F 
ATOM     54  C   UNL     1      -3.708  10.050  -9.801  1.00  0.00     0.040 A 
ATOM     55  C   UNL     1      -3.752   8.393 -11.544  1.00  0.00     0.040 A 
ATOM     56  F   UNL     1      -4.844   6.350 -11.193  1.00  0.00    -0.206 F 
ATOM     57  C   UNL     1      -3.370   9.654 -11.094  1.00  0.00     0.006 A 
ENDBRANCH  29  50
BRANCH  41  58
ATOM     58  C   UNL     1     -11.151   8.182  -6.492  1.00  0.00     0.057 A 
ATOM     59  C   UNL     1     -11.924   8.394  -7.639  1.00  0.00     0.134 A 
ATOM     60  C   UNL     1     -11.435   8.955  -5.359  1.00  0.00     0.134 A 
ATOM     61  F   UNL     1     -11.686   7.694  -8.759  1.00  0.00    -0.206 F 
ATOM     62  C   UNL     1     -12.927   9.361  -7.667  1.00  0.00     0.040 A 
ATOM     63  C   UNL     1     -12.457   9.900  -5.364  1.00  0.00     0.040 A 
ATOM     64  F   UNL     1     -10.734   8.788  -4.227  1.00  0.00    -0.206 F 
ATOM     65  C   UNL     1     -13.201  10.111  -6.523  1.00  0.00     0.006 A 
ENDBRANCH  41  58
ENDBRANCH  15  16
ENDBRANCH   8  10
ENDBRANCH   7   8
ENDBRANCH   6   7
ENDBRANCH   5   6
ENDBRANCH   4   5
ENDBRANCH   3   4
ENDBRANCH   2   3
ENDBRANCH   1   2
BRANCH   1  66
ATOM     66  C   UNL     1       2.748   2.245  -4.811  1.00  0.00     0.188 C 
BRANCH  66  67
ATOM     67  C   UNL     1       2.115   3.424  -5.578  1.00  0.00     0.188 C 
BRANCH  67  68
ATOM     68  O   UNL     1       1.328   3.073  -6.700  1.00  0.00    -0.376 OA
BRANCH  68  69
ATOM     69  C   UNL     1       1.882   3.160  -8.010  1.00  0.00     0.202 C 
BRANCH  69  70
ATOM     70  C   UNL     1       3.384   3.369  -8.303  1.00  0.00     0.261 C 
BRANCH  70  71
ATOM     71  O   UNL     1       4.299   2.855  -7.321  1.00  0.00    -0.463 OA
BRANCH  71  72
ATOM     72  C   UNL     1       5.185   3.753  -6.811  1.00  0.00     0.310 C 
ATOM     73  O   UNL     1       5.303   4.899  -7.237  1.00  0.00    -0.252 OA
BRANCH  72  74
ATOM     74  C   UNL     1       5.882   3.282  -5.544  1.00  0.00     0.119 C 
ATOM     75  C   UNL     1       6.259   1.792  -5.420  1.00  0.00     0.019 C 
ATOM     76  C   UNL     1       7.141   4.124  -5.365  1.00  0.00     0.135 C 
ATOM     77  C   UNL     1       6.945   1.503  -4.075  1.00  0.00     0.022 C 
ATOM     78  N   UNL     1       7.780   3.730  -4.129  1.00  0.00    -0.340 N 
ATOM     79  C   UNL     1       8.196   2.364  -3.938  1.00  0.00     0.120 C 
BRANCH  78  80
ATOM     80  C   UNL     1       8.163   4.700  -3.261  1.00  0.00     0.226 A 
ATOM     81  N   UNL     1       7.216   5.404  -2.632  1.00  0.00    -0.210 NA
ATOM     82  N   UNL     1       9.470   4.934  -3.145  1.00  0.00    -0.208 NA
ATOM     83  C   UNL     1       7.627   6.399  -1.829  1.00  0.00     0.112 A 
ATOM     84  C   UNL     1       9.861   5.983  -2.389  1.00  0.00     0.150 A 
ATOM     85  C   UNL     1       8.950   6.753  -1.695  1.00  0.00     0.066 A 
BRANCH  83  86
ATOM     86  C   UNL     1       6.587   7.115  -1.109  1.00  0.00     0.152 A 
ATOM     87  C   UNL     1       6.295   8.453  -0.931  1.00  0.00     0.052 A 
ATOM     88  O   UNL     1       5.728   6.356  -0.364  1.00  0.00    -0.463 OA
ATOM     89  C   UNL     1       5.211   8.515  -0.022  1.00  0.00     0.043 A 
ATOM     90  C   UNL     1       4.904   7.213   0.295  1.00  0.00     0.196 A 
ENDBRANCH  83  86
BRANCH  84  91
ATOM     91  C   UNL     1      11.333   6.326  -2.382  1.00  0.00     0.433 C 
ATOM     92  F   UNL     1      12.134   5.267  -2.076  1.00  0.00    -0.165 F 
ATOM     93  F   UNL     1      11.766   6.795  -3.587  1.00  0.00    -0.165 F 
ATOM     94  F   UNL     1      11.651   7.300  -1.478  1.00  0.00    -0.165 F 
ENDBRANCH  84  91
ENDBRANCH  78  80
ENDBRANCH  72  74
ENDBRANCH  71  72
ENDBRANCH  70  71
ENDBRANCH  69  70
ENDBRANCH  68  69
ENDBRANCH  67  68
ENDBRANCH  66  67
ENDBRANCH   1  66
TORSDOF 23
