REMARK SMILES Cc1cc(NC(=O)c2ccc(Br)cc2N)ccc1C(=O)OCCOCCOCCOCCOC(=O)c1ccc(-c2c3nc(c(-c4c(F)cccc4F)c4ccc([nH]4)c(-c4c(F)cccc4F)c4nc(c(-c5c(F)cccc5F)c5ccc2[nH]5)C=C4)C=C3)cc1
REMARK SMILES IDX 26 1 25 2 24 3 23 4 22 5 21 6 19 7 20 8 18 9 1 10 2 11 3 12
REMARK SMILES IDX 4 13 17 14 16 15 5 16 6 17 7 19 8 20 9 21 14 22 10 23 13 24
REMARK SMILES IDX 11 25 12 26 15 27 27 30 28 31 29 32 30 33 31 34 32 35 33 36
REMARK SMILES IDX 34 37 35 38 36 39 37 40 89 41 38 42 88 43 39 44 40 45 41 46
REMARK SMILES IDX 82 47 42 48 87 49 81 50 83 51 43 52 86 53 80 54 79 55 44 57
REMARK SMILES IDX 70 58 53 59 69 60 54 61 57 62 68 63 84 64 55 65 56 66 67 68
REMARK SMILES IDX 85 69 58 70 45 71 46 72 51 73 47 74 48 75 50 76 52 77 49 78
REMARK SMILES IDX 71 79 72 80 77 81 73 82 74 83 76 84 78 85 75 86 59 87 60 88
REMARK SMILES IDX 65 89 61 90 62 91 64 92 66 93 63 94
REMARK H PARENT 5 18 15 28 15 29 83 56 57 67
REMARK Flexibility Score: inf
ROOT
ATOM      1  C   UNL     1      -0.266   1.428  -3.016  1.00  0.00     0.188 C 
ENDROOT
BRANCH   1   2
ATOM      2  C   UNL     1      -1.099   2.438  -2.204  1.00  0.00     0.188 C 
BRANCH   2   3
ATOM      3  O   UNL     1      -0.699   3.792  -2.080  1.00  0.00    -0.376 OA
BRANCH   3   4
ATOM      4  C   UNL     1       0.126   4.125  -0.966  1.00  0.00     0.202 C 
BRANCH   4   5
ATOM      5  C   UNL     1      -0.318   3.716   0.427  1.00  0.00     0.261 C 
BRANCH   5   6
ATOM      6  O   UNL     1      -0.029   2.333   0.586  1.00  0.00    -0.460 OA
BRANCH   6   7
ATOM      7  C   UNL     1      -0.944   1.663   1.300  1.00  0.00     0.338 C 
ATOM      8  O   UNL     1      -1.693   2.101   2.147  1.00  0.00    -0.246 OA
BRANCH   7   9
ATOM      9  C   UNL     1      -1.169   0.383   0.599  1.00  0.00     0.063 A 
ATOM     10  C   UNL     1       1.298  -0.219   0.110  1.00  0.00     0.045 C 
ATOM     11  C   UNL     1      -0.178  -0.464   0.072  1.00  0.00    -0.035 A 
ATOM     12  C   UNL     1      -0.587  -1.704  -0.412  1.00  0.00     0.030 A 
ATOM     13  C   UNL     1      -1.918  -2.087  -0.305  1.00  0.00     0.041 A 
ATOM     14  C   UNL     1      -2.532   0.086   0.419  1.00  0.00     0.018 A 
ATOM     15  C   UNL     1      -2.915  -1.149  -0.069  1.00  0.00     0.027 A 
BRANCH  13  16
ATOM     16  N   UNL     1      -2.271  -3.425  -0.176  1.00  0.00    -0.322 N 
ATOM     17  C   UNL     1      -1.568  -4.454   0.424  1.00  0.00     0.257 C 
ATOM     18  H   UNL     1      -3.140  -3.675  -0.565  1.00  0.00     0.170 HD
ATOM     19  O   UNL     1      -2.036  -5.591   0.321  1.00  0.00    -0.269 OA
BRANCH  17  20
ATOM     20  C   UNL     1      -0.294  -4.283   1.207  1.00  0.00     0.063 A 
ATOM     21  C   UNL     1       0.655  -5.297   0.965  1.00  0.00     0.017 A 
ATOM     22  C   UNL     1       0.002  -3.289   2.174  1.00  0.00     0.045 A 
ATOM     23  C   UNL     1       1.866  -5.347   1.658  1.00  0.00     0.016 A 
ATOM     24  C   UNL     1       1.241  -3.346   2.846  1.00  0.00     0.042 A 
ATOM     25  C   UNL     1       2.155  -4.366   2.595  1.00  0.00     0.020 A 
ATOM     26  Br  UNL     1       3.769  -4.447   3.577  1.00  0.00    -0.051 Br
BRANCH  22  27
ATOM     27  N   UNL     1      -0.906  -2.342   2.652  1.00  0.00    -0.398 N 
ATOM     28  H   UNL     1      -1.790  -2.250   2.228  1.00  0.00     0.156 HD
ATOM     29  H   UNL     1      -0.662  -1.767   3.413  1.00  0.00     0.156 HD
ENDBRANCH  22  27
ENDBRANCH  17  20
ENDBRANCH  13  16
ENDBRANCH   7   9
ENDBRANCH   6   7
ENDBRANCH   5   6
ENDBRANCH   4   5
ENDBRANCH   3   4
ENDBRANCH   2   3
ENDBRANCH   1   2
BRANCH   1  30
ATOM     30  O   UNL     1       1.049   1.076  -2.617  1.00  0.00    -0.377 OA
BRANCH  30  31
ATOM     31  C   UNL     1       2.134   1.903  -3.021  1.00  0.00     0.188 C 
BRANCH  31  32
ATOM     32  C   UNL     1       2.077   2.503  -4.420  1.00  0.00     0.188 C 
BRANCH  32  33
ATOM     33  O   UNL     1       1.135   3.571  -4.422  1.00  0.00    -0.376 OA
BRANCH  33  34
ATOM     34  C   UNL     1       0.422   3.778  -5.637  1.00  0.00     0.202 C 
BRANCH  34  35
ATOM     35  C   UNL     1       1.321   4.095  -6.837  1.00  0.00     0.261 C 
BRANCH  35  36
ATOM     36  O   UNL     1       2.005   5.343  -6.609  1.00  0.00    -0.460 OA
BRANCH  36  37
ATOM     37  C   UNL     1       3.306   5.230  -6.231  1.00  0.00     0.338 C 
ATOM     38  O   UNL     1       4.147   4.539  -6.782  1.00  0.00    -0.246 OA
BRANCH  37  39
ATOM     39  C   UNL     1       3.491   5.817  -4.872  1.00  0.00     0.060 A 
ATOM     40  C   UNL     1       4.706   5.635  -4.190  1.00  0.00     0.016 A 
ATOM     41  C   UNL     1       2.362   6.199  -4.162  1.00  0.00     0.016 A 
ATOM     42  C   UNL     1       4.733   5.630  -2.786  1.00  0.00     0.010 A 
ATOM     43  C   UNL     1       2.377   6.080  -2.789  1.00  0.00     0.010 A 
ATOM     44  C   UNL     1       3.538   5.736  -2.082  1.00  0.00    -0.014 A 
BRANCH  44  45
ATOM     45  C   UNL     1       3.336   5.360  -0.667  1.00  0.00     0.031 A 
ATOM     46  C   UNL     1       2.545   6.278   0.222  1.00  0.00     0.074 A 
ATOM     47  C   UNL     1       3.528   4.063  -0.301  1.00  0.00     0.049 A 
ATOM     48  N   UNL     1       2.140   5.982   1.407  1.00  0.00    -0.248 NA
ATOM     49  C   UNL     1       2.071   7.604  -0.178  1.00  0.00     0.031 C 
ATOM     50  C   UNL     1       2.914   3.360   0.827  1.00  0.00     0.029 A 
ATOM     51  N   UNL     1       4.252   3.038  -0.884  1.00  0.00    -0.354 N 
ATOM     52  C   UNL     1       1.130   6.845   1.777  1.00  0.00     0.074 A 
ATOM     53  C   UNL     1       1.187   7.890   0.788  1.00  0.00     0.031 C 
ATOM     54  C   UNL     1       3.389   2.112   0.942  1.00  0.00     0.029 A 
ATOM     55  C   UNL     1       4.516   2.038   0.055  1.00  0.00     0.049 A 
ATOM     56  H   UNL     1       4.539   3.016  -1.826  1.00  0.00     0.167 HD
ATOM     57  C   UNL     1       0.308   6.482   2.810  1.00  0.00     0.037 A 
ATOM     58  C   UNL     1       5.774   1.816   0.541  1.00  0.00     0.037 A 
ATOM     59  C   UNL     1       0.839   5.290   3.511  1.00  0.00     0.049 A 
ATOM     60  C   UNL     1       5.817   2.279   2.004  1.00  0.00     0.074 A 
ATOM     61  C   UNL     1       0.339   4.045   3.851  1.00  0.00     0.029 A 
ATOM     62  N   UNL     1       2.204   5.236   3.816  1.00  0.00    -0.354 N 
ATOM     63  N   UNL     1       5.122   3.303   2.466  1.00  0.00    -0.248 NA
ATOM     64  C   UNL     1       6.333   1.435   3.085  1.00  0.00     0.031 C 
ATOM     65  C   UNL     1       1.448   3.199   4.173  1.00  0.00     0.029 A 
ATOM     66  C   UNL     1       2.615   3.955   4.127  1.00  0.00     0.049 A 
ATOM     67  H   UNL     1       2.802   6.018   3.808  1.00  0.00     0.167 HD
ATOM     68  C   UNL     1       4.931   3.143   3.820  1.00  0.00     0.074 A 
ATOM     69  C   UNL     1       5.764   1.998   4.168  1.00  0.00     0.031 C 
ATOM     70  C   UNL     1       3.970   3.719   4.612  1.00  0.00     0.037 A 
BRANCH  57  71
ATOM     71  C   UNL     1      -1.067   7.081   3.121  1.00  0.00     0.057 A 
ATOM     72  C   UNL     1      -1.760   6.724   4.300  1.00  0.00     0.134 A 
ATOM     73  C   UNL     1      -1.811   7.929   2.271  1.00  0.00     0.134 A 
ATOM     74  F   UNL     1      -1.201   5.931   5.224  1.00  0.00    -0.206 F 
ATOM     75  C   UNL     1      -3.065   7.159   4.598  1.00  0.00     0.040 A 
ATOM     76  C   UNL     1      -3.095   8.415   2.584  1.00  0.00     0.040 A 
ATOM     77  F   UNL     1      -1.366   8.296   1.065  1.00  0.00    -0.206 F 
ATOM     78  C   UNL     1      -3.736   8.021   3.747  1.00  0.00     0.006 A 
ENDBRANCH  57  71
BRANCH  58  79
ATOM     79  C   UNL     1       6.759   1.798  -0.586  1.00  0.00     0.057 A 
ATOM     80  C   UNL     1       6.572   0.712  -1.477  1.00  0.00     0.134 A 
ATOM     81  C   UNL     1       7.226   2.989  -1.157  1.00  0.00     0.134 A 
ATOM     82  F   UNL     1       6.174  -0.479  -1.002  1.00  0.00    -0.206 F 
ATOM     83  C   UNL     1       6.553   0.886  -2.867  1.00  0.00     0.040 A 
ATOM     84  C   UNL     1       7.253   3.156  -2.556  1.00  0.00     0.040 A 
ATOM     85  F   UNL     1       7.440   4.071  -0.397  1.00  0.00    -0.206 F 
ATOM     86  C   UNL     1       6.835   2.134  -3.408  1.00  0.00     0.006 A 
ENDBRANCH  58  79
BRANCH  70  87
ATOM     87  C   UNL     1       4.293   4.200   6.013  1.00  0.00     0.057 A 
ATOM     88  C   UNL     1       5.606   4.340   6.481  1.00  0.00     0.134 A 
ATOM     89  C   UNL     1       3.296   4.768   6.844  1.00  0.00     0.134 A 
ATOM     90  F   UNL     1       6.660   3.924   5.766  1.00  0.00    -0.206 F 
ATOM     91  C   UNL     1       5.905   4.972   7.691  1.00  0.00     0.040 A 
ATOM     92  C   UNL     1       3.589   5.449   8.025  1.00  0.00     0.040 A 
ATOM     93  F   UNL     1       1.992   4.736   6.532  1.00  0.00    -0.206 F 
ATOM     94  C   UNL     1       4.899   5.544   8.458  1.00  0.00     0.006 A 
ENDBRANCH  70  87
ENDBRANCH  44  45
ENDBRANCH  37  39
ENDBRANCH  36  37
ENDBRANCH  35  36
ENDBRANCH  34  35
ENDBRANCH  33  34
ENDBRANCH  32  33
ENDBRANCH  31  32
ENDBRANCH  30  31
ENDBRANCH   1  30
TORSDOF 23
