REMARK SMILES COc1ccc(C)cc1[C@@H](C)[C@@](O)(C(=O)OCCOCCOCCOCCOC(=O)c1ccc(-c2c3nc(c(-c4c(F)cccc4F)c4ccc([nH]4)c(-c4c(F)cccc4F)c4nc(c(-c5c(F)cccc5F)c5ccc2[nH]5)C=C4)C=C3)cc1)C(C)C
REMARK SMILES IDX 21 1 20 2 19 3 18 4 17 5 16 6 14 7 15 8 12 9 10 10 11 11
REMARK SMILES IDX 9 12 3 13 4 14 5 15 8 16 6 17 7 18 2 19 1 20 13 21 85 23
REMARK SMILES IDX 86 24 87 25 22 26 23 27 24 28 25 29 26 30 27 31 28 32 29 33
REMARK SMILES IDX 30 34 31 35 32 36 84 37 33 38 83 39 34 40 35 41 36 42 77 43
REMARK SMILES IDX 37 44 82 45 76 46 78 47 38 48 81 49 75 50 74 51 39 53 65 54
REMARK SMILES IDX 48 55 64 56 49 57 52 58 63 59 79 60 50 61 51 62 62 64 80 65
REMARK SMILES IDX 53 66 40 67 41 68 46 69 42 70 43 71 45 72 47 73 44 74 66 75
REMARK SMILES IDX 67 76 72 77 68 78 69 79 71 80 73 81 70 82 54 83 55 84 60 85
REMARK SMILES IDX 56 86 57 87 59 88 61 89 58 90
REMARK H PARENT 13 22 78 52 52 63
REMARK Flexibility Score: inf
ROOT
ATOM      1  C   UNL     1      -4.675  -3.124   3.732  1.00  0.00     0.188 C 
ENDROOT
BRANCH   1   2
ATOM      2  C   UNL     1      -4.154  -3.145   5.163  1.00  0.00     0.188 C 
BRANCH   2   3
ATOM      3  O   UNL     1      -4.902  -2.376   6.088  1.00  0.00    -0.376 OA
BRANCH   3   4
ATOM      4  C   UNL     1      -5.048  -1.012   5.732  1.00  0.00     0.202 C 
BRANCH   4   5
ATOM      5  C   UNL     1      -3.821  -0.150   6.019  1.00  0.00     0.261 C 
BRANCH   5   6
ATOM      6  O   UNL     1      -2.703  -0.558   5.219  1.00  0.00    -0.461 OA
BRANCH   6   7
ATOM      7  C   UNL     1      -1.608  -0.788   5.938  1.00  0.00     0.339 C 
ATOM      8  O   UNL     1      -1.511  -0.525   7.151  1.00  0.00    -0.249 OA
BRANCH   7   9
ATOM      9  C   UNL     1      -0.519  -1.540   5.172  1.00  0.00     0.170 C 
BRANCH   9  10
ATOM     10  C   UNL     1      -0.489  -1.575   3.574  1.00  0.00     0.063 C 
ATOM     11  C   UNL     1      -1.426  -2.370   2.683  1.00  0.00     0.016 C 
BRANCH  10  12
ATOM     12  C   UNL     1       0.864  -2.045   3.067  1.00  0.00     0.001 A 
ATOM     13  C   UNL     1       1.717  -1.288   2.275  1.00  0.00     0.122 A 
ATOM     14  C   UNL     1       3.019  -1.748   2.070  1.00  0.00     0.047 A 
ATOM     15  C   UNL     1       3.443  -2.971   2.620  1.00  0.00     0.007 A 
ATOM     16  C   UNL     1       1.238  -3.351   3.395  1.00  0.00     0.011 A 
ATOM     17  C   UNL     1       2.537  -3.797   3.272  1.00  0.00    -0.051 A 
ATOM     18  C   UNL     1       2.877  -5.054   4.011  1.00  0.00     0.044 C 
BRANCH  13  19
ATOM     19  O   UNL     1       1.269  -0.100   1.763  1.00  0.00    -0.496 OA
ATOM     20  C   UNL     1       1.356  -0.063   0.335  1.00  0.00     0.278 C 
ENDBRANCH  13  19
ENDBRANCH  10  12
ENDBRANCH   9  10
BRANCH   9  21
ATOM     21  O   UNL     1       0.583  -0.602   5.484  1.00  0.00    -0.377 OA
ATOM     22  H   UNL     1       0.489   0.198   4.943  1.00  0.00     0.212 HD
ENDBRANCH   9  21
BRANCH   9  23
ATOM     23  C   UNL     1      -0.331  -2.833   6.074  1.00  0.00     0.027 C 
ATOM     24  C   UNL     1      -1.030  -4.146   5.692  1.00  0.00     0.011 C 
ATOM     25  C   UNL     1       1.099  -2.981   6.594  1.00  0.00     0.011 C 
ENDBRANCH   9  23
ENDBRANCH   7   9
ENDBRANCH   6   7
ENDBRANCH   5   6
ENDBRANCH   4   5
ENDBRANCH   3   4
ENDBRANCH   2   3
ENDBRANCH   1   2
BRANCH   1  26
ATOM     26  O   UNL     1      -4.131  -1.977   3.071  1.00  0.00    -0.377 OA
BRANCH  26  27
ATOM     27  C   UNL     1      -4.247  -1.927   1.655  1.00  0.00     0.188 C 
BRANCH  27  28
ATOM     28  C   UNL     1      -5.620  -2.277   1.219  1.00  0.00     0.188 C 
BRANCH  28  29
ATOM     29  O   UNL     1      -5.953  -3.652   1.258  1.00  0.00    -0.376 OA
BRANCH  29  30
ATOM     30  C   UNL     1      -5.418  -4.340   0.160  1.00  0.00     0.202 C 
BRANCH  30  31
ATOM     31  C   UNL     1      -6.122  -4.046  -1.163  1.00  0.00     0.261 C 
BRANCH  31  32
ATOM     32  O   UNL     1      -7.223  -3.057  -1.367  1.00  0.00    -0.460 OA
BRANCH  32  33
ATOM     33  C   UNL     1      -8.074  -2.032  -1.223  1.00  0.00     0.338 C 
ATOM     34  O   UNL     1      -8.789  -1.728  -2.178  1.00  0.00    -0.246 OA
BRANCH  33  35
ATOM     35  C   UNL     1      -8.133  -1.095  -0.065  1.00  0.00     0.060 A 
ATOM     36  C   UNL     1      -7.895   0.273  -0.288  1.00  0.00     0.016 A 
ATOM     37  C   UNL     1      -8.412  -1.499   1.236  1.00  0.00     0.016 A 
ATOM     38  C   UNL     1      -7.664   1.157   0.784  1.00  0.00     0.010 A 
ATOM     39  C   UNL     1      -8.116  -0.622   2.310  1.00  0.00     0.010 A 
ATOM     40  C   UNL     1      -7.610   0.679   2.097  1.00  0.00    -0.014 A 
BRANCH  40  41
ATOM     41  C   UNL     1      -6.715   1.312   3.136  1.00  0.00     0.031 A 
ATOM     42  C   UNL     1      -7.027   1.302   4.651  1.00  0.00     0.074 A 
ATOM     43  C   UNL     1      -5.442   1.569   2.717  1.00  0.00     0.049 A 
ATOM     44  N   UNL     1      -6.306   1.798   5.625  1.00  0.00    -0.248 NA
ATOM     45  C   UNL     1      -8.289   0.762   5.175  1.00  0.00     0.031 C 
ATOM     46  C   UNL     1      -4.238   1.145   3.379  1.00  0.00     0.029 A 
ATOM     47  N   UNL     1      -4.892   2.108   1.556  1.00  0.00    -0.354 N 
ATOM     48  C   UNL     1      -6.846   1.380   6.865  1.00  0.00     0.074 A 
ATOM     49  C   UNL     1      -8.136   0.844   6.503  1.00  0.00     0.031 C 
ATOM     50  C   UNL     1      -3.134   1.731   2.925  1.00  0.00     0.029 A 
ATOM     51  C   UNL     1      -3.581   2.575   1.877  1.00  0.00     0.049 A 
ATOM     52  H   UNL     1      -5.328   2.157   0.674  1.00  0.00     0.167 HD
ATOM     53  C   UNL     1      -6.100   1.333   8.034  1.00  0.00     0.037 A 
ATOM     54  C   UNL     1      -3.177   3.854   1.703  1.00  0.00     0.037 A 
ATOM     55  C   UNL     1      -4.813   2.056   7.934  1.00  0.00     0.049 A 
ATOM     56  C   UNL     1      -3.046   4.617   3.015  1.00  0.00     0.074 A 
ATOM     57  C   UNL     1      -3.515   1.867   8.397  1.00  0.00     0.029 A 
ATOM     58  N   UNL     1      -4.733   3.179   7.125  1.00  0.00    -0.354 N 
ATOM     59  N   UNL     1      -3.089   4.109   4.230  1.00  0.00    -0.248 NA
ATOM     60  C   UNL     1      -2.932   6.071   3.029  1.00  0.00     0.031 C 
ATOM     61  C   UNL     1      -2.664   2.850   7.815  1.00  0.00     0.029 A 
ATOM     62  C   UNL     1      -3.460   3.692   7.068  1.00  0.00     0.049 A 
ATOM     63  H   UNL     1      -5.502   3.566   6.647  1.00  0.00     0.167 HD
ATOM     64  C   UNL     1      -3.125   5.143   5.152  1.00  0.00     0.074 A 
ATOM     65  C   UNL     1      -3.023   6.342   4.339  1.00  0.00     0.031 C 
ATOM     66  C   UNL     1      -3.297   5.010   6.507  1.00  0.00     0.037 A 
BRANCH  53  67
ATOM     67  C   UNL     1      -6.380   0.429   9.291  1.00  0.00     0.057 A 
ATOM     68  C   UNL     1      -5.593   0.545  10.470  1.00  0.00     0.134 A 
ATOM     69  C   UNL     1      -7.267  -0.668   9.353  1.00  0.00     0.134 A 
ATOM     70  F   UNL     1      -4.780   1.591  10.670  1.00  0.00    -0.206 F 
ATOM     71  C   UNL     1      -5.601  -0.389  11.530  1.00  0.00     0.040 A 
ATOM     72  C   UNL     1      -7.348  -1.560  10.450  1.00  0.00     0.040 A 
ATOM     73  F   UNL     1      -8.091  -0.976   8.347  1.00  0.00    -0.206 F 
ATOM     74  C   UNL     1      -6.486  -1.449  11.528  1.00  0.00     0.006 A 
ENDBRANCH  53  67
BRANCH  54  75
ATOM     75  C   UNL     1      -3.569   4.272   0.319  1.00  0.00     0.057 A 
ATOM     76  C   UNL     1      -2.887   3.539  -0.688  1.00  0.00     0.134 A 
ATOM     77  C   UNL     1      -4.917   4.564   0.079  1.00  0.00     0.134 A 
ATOM     78  F   UNL     1      -1.581   3.256  -0.542  1.00  0.00    -0.206 F 
ATOM     79  C   UNL     1      -3.585   2.844  -1.681  1.00  0.00     0.040 A 
ATOM     80  C   UNL     1      -5.619   3.889  -0.933  1.00  0.00     0.040 A 
ATOM     81  F   UNL     1      -5.624   5.257   0.984  1.00  0.00    -0.206 F 
ATOM     82  C   UNL     1      -4.968   2.969  -1.761  1.00  0.00     0.006 A 
ENDBRANCH  54  75
BRANCH  66  83
ATOM     83  C   UNL     1      -3.459   6.159   7.488  1.00  0.00     0.057 A 
ATOM     84  C   UNL     1      -2.721   7.342   7.423  1.00  0.00     0.134 A 
ATOM     85  C   UNL     1      -4.340   6.068   8.598  1.00  0.00     0.134 A 
ATOM     86  F   UNL     1      -1.728   7.488   6.535  1.00  0.00    -0.206 F 
ATOM     87  C   UNL     1      -2.954   8.416   8.294  1.00  0.00     0.040 A 
ATOM     88  C   UNL     1      -4.538   7.109   9.507  1.00  0.00     0.040 A 
ATOM     89  F   UNL     1      -5.065   4.972   8.857  1.00  0.00    -0.206 F 
ATOM     90  C   UNL     1      -3.875   8.308   9.331  1.00  0.00     0.006 A 
ENDBRANCH  66  83
ENDBRANCH  40  41
ENDBRANCH  33  35
ENDBRANCH  32  33
ENDBRANCH  31  32
ENDBRANCH  30  31
ENDBRANCH  29  30
ENDBRANCH  28  29
ENDBRANCH  27  28
ENDBRANCH  26  27
ENDBRANCH   1  26
TORSDOF 25
