REMARK SMILES COc1ccc(C(=O)OCCOCCOCCOCCOC(=O)c2ccc(-c3c4nc(c(-c5c(F)cccc5F)c5ccc([nH]5)c(-c5c(F)cccc5F)c5nc(c(-c6c(F)cccc6F)c6ccc3[nH]6)C=C5)C=C4)cc2)cc1NC(=O)c1ccccc1[N+](=O)[O-]
REMARK SMILES IDX 14 1 13 2 12 3 11 4 10 5 9 6 7 7 8 8 6 9 3 10 4 11 79 12
REMARK SMILES IDX 5 13 78 14 2 15 1 16 80 17 81 18 82 20 83 21 84 22 88 23
REMARK SMILES IDX 85 24 87 25 86 26 89 27 90 28 91 29 15 30 16 31 17 32 18 33
REMARK SMILES IDX 19 34 20 35 21 36 22 37 23 38 24 39 25 40 77 41 26 42 76 43
REMARK SMILES IDX 27 44 28 45 29 46 70 47 30 48 75 49 69 50 71 51 31 52 74 53
REMARK SMILES IDX 68 54 67 55 32 57 58 58 41 59 57 60 42 61 45 62 56 63 72 64
REMARK SMILES IDX 43 65 44 66 55 68 73 69 46 70 33 71 34 72 39 73 35 74 36 75
REMARK SMILES IDX 38 76 40 77 37 78 59 79 60 80 65 81 61 82 62 83 64 84 66 85
REMARK SMILES IDX 63 86 47 87 48 88 53 89 49 90 50 91 52 92 54 93 51 94
REMARK H PARENT 80 19 71 56 45 67
REMARK Flexibility Score: inf
ROOT
ATOM      1  C   UNL     1       2.728   6.659   2.874  1.00  0.00     0.188 C 
ENDROOT
BRANCH   1   2
ATOM      2  C   UNL     1       1.556   7.089   3.779  1.00  0.00     0.188 C 
BRANCH   2   3
ATOM      3  O   UNL     1       1.776   7.562   5.099  1.00  0.00    -0.376 OA
BRANCH   3   4
ATOM      4  C   UNL     1       2.642   6.926   6.025  1.00  0.00     0.202 C 
BRANCH   4   5
ATOM      5  C   UNL     1       2.822   5.405   6.151  1.00  0.00     0.261 C 
BRANCH   5   6
ATOM      6  O   UNL     1       2.582   4.629   4.984  1.00  0.00    -0.460 OA
BRANCH   6   7
ATOM      7  C   UNL     1       1.324   4.164   4.819  1.00  0.00     0.338 C 
ATOM      8  O   UNL     1       0.388   4.309   5.585  1.00  0.00    -0.246 OA
BRANCH   7   9
ATOM      9  C   UNL     1       1.221   3.533   3.475  1.00  0.00     0.062 A 
ATOM     10  C   UNL     1       1.009   2.186   1.060  1.00  0.00     0.142 A 
ATOM     11  C   UNL     1      -0.128   2.761   1.637  1.00  0.00     0.049 A 
ATOM     12  C   UNL     1       2.272   2.307   1.662  1.00  0.00     0.084 A 
ATOM     13  C   UNL     1      -0.031   3.386   2.880  1.00  0.00     0.019 A 
ATOM     14  C   UNL     1       2.367   3.096   2.797  1.00  0.00     0.045 A 
BRANCH  10  15
ATOM     15  O   UNL     1       0.857   1.528  -0.134  1.00  0.00    -0.495 OA
ATOM     16  C   UNL     1       0.722   0.118   0.064  1.00  0.00     0.278 C 
ENDBRANCH  10  15
BRANCH  12  17
ATOM     17  N   UNL     1       3.345   1.559   1.137  1.00  0.00    -0.319 N 
ATOM     18  C   UNL     1       4.578   1.183   1.623  1.00  0.00     0.262 C 
ATOM     19  H   UNL     1       3.176   1.234   0.223  1.00  0.00     0.170 HD
ATOM     20  O   UNL     1       5.283   0.420   0.962  1.00  0.00    -0.269 OA
BRANCH  18  21
ATOM     21  C   UNL     1       5.163   1.730   2.861  1.00  0.00     0.117 A 
ATOM     22  C   UNL     1       6.293   2.542   2.664  1.00  0.00     0.021 A 
ATOM     23  C   UNL     1       4.666   1.563   4.160  1.00  0.00     0.282 A 
ATOM     24  C   UNL     1       6.850   3.257   3.725  1.00  0.00     0.001 A 
ATOM     25  C   UNL     1       5.205   2.313   5.223  1.00  0.00     0.086 A 
ATOM     26  C   UNL     1       6.286   3.169   4.996  1.00  0.00     0.007 A 
BRANCH  23  27
ATOM     27  N   UNL     1       3.524   0.698   4.439  1.00  0.00     0.063 N 
ATOM     28  O   UNL     1       2.774   1.033   5.367  1.00  0.00    -0.258 OA
ATOM     29  O   UNL     1       3.371  -0.311   3.741  1.00  0.00    -0.258 OA
ENDBRANCH  23  27
ENDBRANCH  18  21
ENDBRANCH  12  17
ENDBRANCH   7   9
ENDBRANCH   6   7
ENDBRANCH   5   6
ENDBRANCH   4   5
ENDBRANCH   3   4
ENDBRANCH   2   3
ENDBRANCH   1   2
BRANCH   1  30
ATOM     30  O   UNL     1       3.965   6.533   3.555  1.00  0.00    -0.377 OA
BRANCH  30  31
ATOM     31  C   UNL     1       4.820   7.672   3.500  1.00  0.00     0.188 C 
BRANCH  31  32
ATOM     32  C   UNL     1       4.182   9.074   3.625  1.00  0.00     0.188 C 
BRANCH  32  33
ATOM     33  O   UNL     1       3.079   9.286   2.753  1.00  0.00    -0.376 OA
BRANCH  33  34
ATOM     34  C   UNL     1       3.266  10.047   1.571  1.00  0.00     0.202 C 
BRANCH  34  35
ATOM     35  C   UNL     1       4.149   9.425   0.479  1.00  0.00     0.261 C 
BRANCH  35  36
ATOM     36  O   UNL     1       5.486   9.085   0.874  1.00  0.00    -0.460 OA
BRANCH  36  37
ATOM     37  C   UNL     1       6.280  10.088   1.299  1.00  0.00     0.338 C 
ATOM     38  O   UNL     1       6.008  11.277   1.345  1.00  0.00    -0.246 OA
BRANCH  37  39
ATOM     39  C   UNL     1       7.489   9.485   1.892  1.00  0.00     0.060 A 
ATOM     40  C   UNL     1       7.792   9.753   3.233  1.00  0.00     0.016 A 
ATOM     41  C   UNL     1       8.321   8.665   1.126  1.00  0.00     0.016 A 
ATOM     42  C   UNL     1       8.955   9.235   3.801  1.00  0.00     0.010 A 
ATOM     43  C   UNL     1       9.497   8.165   1.691  1.00  0.00     0.010 A 
ATOM     44  C   UNL     1       9.837   8.479   3.019  1.00  0.00    -0.014 A 
BRANCH  44  45
ATOM     45  C   UNL     1      11.201   8.190   3.521  1.00  0.00     0.031 A 
ATOM     46  C   UNL     1      12.330   9.075   3.064  1.00  0.00     0.074 A 
ATOM     47  C   UNL     1      11.435   7.174   4.371  1.00  0.00     0.049 A 
ATOM     48  N   UNL     1      13.611   8.982   3.312  1.00  0.00    -0.248 NA
ATOM     49  C   UNL     1      11.964  10.216   2.207  1.00  0.00     0.031 C 
ATOM     50  C   UNL     1      10.421   6.273   4.915  1.00  0.00     0.029 A 
ATOM     51  N   UNL     1      12.613   6.722   4.913  1.00  0.00    -0.354 N 
ATOM     52  C   UNL     1      14.203  10.037   2.627  1.00  0.00     0.074 A 
ATOM     53  C   UNL     1      13.148  10.748   1.941  1.00  0.00     0.031 C 
ATOM     54  C   UNL     1      11.025   5.360   5.697  1.00  0.00     0.029 A 
ATOM     55  C   UNL     1      12.469   5.592   5.680  1.00  0.00     0.049 A 
ATOM     56  H   UNL     1      13.479   7.167   4.765  1.00  0.00     0.167 HD
ATOM     57  C   UNL     1      15.511  10.381   2.577  1.00  0.00     0.037 A 
ATOM     58  C   UNL     1      13.402   4.818   6.271  1.00  0.00     0.037 A 
ATOM     59  C   UNL     1      16.556   9.683   3.275  1.00  0.00     0.049 A 
ATOM     60  C   UNL     1      14.858   5.195   6.149  1.00  0.00     0.074 A 
ATOM     61  C   UNL     1      17.905   9.986   3.327  1.00  0.00     0.029 A 
ATOM     62  N   UNL     1      16.372   8.537   4.032  1.00  0.00    -0.354 N 
ATOM     63  N   UNL     1      15.402   6.224   5.544  1.00  0.00    -0.248 NA
ATOM     64  C   UNL     1      15.832   4.304   6.798  1.00  0.00     0.031 C 
ATOM     65  C   UNL     1      18.549   8.985   4.059  1.00  0.00     0.029 A 
ATOM     66  C   UNL     1      17.590   8.098   4.523  1.00  0.00     0.049 A 
ATOM     67  H   UNL     1      15.505   8.100   4.195  1.00  0.00     0.167 HD
ATOM     68  C   UNL     1      16.771   6.122   5.771  1.00  0.00     0.074 A 
ATOM     69  C   UNL     1      16.973   4.942   6.583  1.00  0.00     0.031 C 
ATOM     70  C   UNL     1      17.773   6.932   5.347  1.00  0.00     0.037 A 
BRANCH  57  71
ATOM     71  C   UNL     1      15.901  11.544   1.714  1.00  0.00     0.057 A 
ATOM     72  C   UNL     1      15.613  12.867   2.068  1.00  0.00     0.134 A 
ATOM     73  C   UNL     1      16.646  11.334   0.545  1.00  0.00     0.134 A 
ATOM     74  F   UNL     1      14.890  13.135   3.166  1.00  0.00    -0.206 F 
ATOM     75  C   UNL     1      16.047  13.941   1.288  1.00  0.00     0.040 A 
ATOM     76  C   UNL     1      17.108  12.399  -0.228  1.00  0.00     0.040 A 
ATOM     77  F   UNL     1      16.957  10.090   0.150  1.00  0.00    -0.206 F 
ATOM     78  C   UNL     1      16.807  13.708   0.142  1.00  0.00     0.006 A 
ENDBRANCH  57  71
BRANCH  58  79
ATOM     79  C   UNL     1      13.010   3.582   6.999  1.00  0.00     0.057 A 
ATOM     80  C   UNL     1      13.226   3.446   8.376  1.00  0.00     0.134 A 
ATOM     81  C   UNL     1      12.477   2.478   6.322  1.00  0.00     0.134 A 
ATOM     82  F   UNL     1      13.754   4.457   9.080  1.00  0.00    -0.206 F 
ATOM     83  C   UNL     1      12.965   2.247   9.044  1.00  0.00     0.040 A 
ATOM     84  C   UNL     1      12.181   1.285   6.982  1.00  0.00     0.040 A 
ATOM     85  F   UNL     1      12.240   2.542   5.003  1.00  0.00    -0.206 F 
ATOM     86  C   UNL     1      12.439   1.162   8.345  1.00  0.00     0.006 A 
ENDBRANCH  58  79
BRANCH  70  87
ATOM     87  C   UNL     1      19.169   6.605   5.795  1.00  0.00     0.057 A 
ATOM     88  C   UNL     1      19.866   5.491   5.311  1.00  0.00     0.134 A 
ATOM     89  C   UNL     1      19.841   7.448   6.691  1.00  0.00     0.134 A 
ATOM     90  F   UNL     1      19.278   4.638   4.458  1.00  0.00    -0.206 F 
ATOM     91  C   UNL     1      21.171   5.211   5.723  1.00  0.00     0.040 A 
ATOM     92  C   UNL     1      21.156   7.197   7.085  1.00  0.00     0.040 A 
ATOM     93  F   UNL     1      19.238   8.540   7.183  1.00  0.00    -0.206 F 
ATOM     94  C   UNL     1      21.822   6.071   6.606  1.00  0.00     0.006 A 
ENDBRANCH  70  87
ENDBRANCH  44  45
ENDBRANCH  37  39
ENDBRANCH  36  37
ENDBRANCH  35  36
ENDBRANCH  34  35
ENDBRANCH  33  34
ENDBRANCH  32  33
ENDBRANCH  31  32
ENDBRANCH  30  31
ENDBRANCH   1  30
TORSDOF 24
