REMARK SMILES CC(C)[C@H]([NH2+][C@@H](C)C[C@@H]1CCCC[NH2+]1)C(=O)OCCOCCOCCOCCOC(=O)c1ccc(-c2c3nc(c(-c4c(F)cccc4F)c4ccc([nH]4)c(-c4c(F)cccc4F)c4nc(c(-c5c(F)cccc5F)c5ccc2[nH]5)C=C4)C=C3)cc1
REMARK SMILES IDX 22 1 21 2 20 3 19 4 18 5 17 6 15 7 16 8 4 9 2 10 1 11 3 12
REMARK SMILES IDX 5 13 6 16 7 17 8 18 9 19 10 20 14 21 11 22 13 23 12 26 23 27
REMARK SMILES IDX 24 28 25 29 26 30 27 31 28 32 29 33 30 34 31 35 32 36 33 37
REMARK SMILES IDX 85 38 34 39 84 40 35 41 36 42 37 43 78 44 38 45 83 46 77 47
REMARK SMILES IDX 79 48 39 49 82 50 76 51 75 52 40 54 66 55 49 56 65 57 50 58
REMARK SMILES IDX 53 59 64 60 80 61 51 62 52 63 63 65 81 66 54 67 41 68 42 69
REMARK SMILES IDX 47 70 43 71 44 72 46 73 48 74 45 75 67 76 68 77 73 78 69 79
REMARK SMILES IDX 70 80 72 81 74 82 71 83 55 84 56 85 61 86 57 87 58 88 60 89
REMARK SMILES IDX 62 90 59 91
REMARK H PARENT 5 14 5 15 14 24 14 25 79 53 53 64
REMARK Flexibility Score: inf
ROOT
ATOM      1  C   UNL     1      -0.425   5.562   1.504  1.00  0.00     0.188 C 
ENDROOT
BRANCH   1   2
ATOM      2  C   UNL     1      -1.423   5.806   2.708  1.00  0.00     0.188 C 
BRANCH   2   3
ATOM      3  O   UNL     1      -1.824   4.648   3.501  1.00  0.00    -0.376 OA
BRANCH   3   4
ATOM      4  C   UNL     1      -1.316   4.258   4.772  1.00  0.00     0.202 C 
BRANCH   4   5
ATOM      5  C   UNL     1      -1.310   2.662   5.140  1.00  0.00     0.261 C 
BRANCH   5   6
ATOM      6  O   UNL     1      -1.114   1.668   4.062  1.00  0.00    -0.459 OA
BRANCH   6   7
ATOM      7  C   UNL     1      -1.220   0.243   4.077  1.00  0.00     0.365 C 
ATOM      8  O   UNL     1      -1.516  -0.385   5.084  1.00  0.00    -0.245 OA
BRANCH   7   9
ATOM      9  C   UNL     1      -0.933  -0.423   2.541  1.00  0.00     0.296 C 
BRANCH   9  10
ATOM     10  C   UNL     1      -1.415  -1.837   2.066  1.00  0.00     0.053 C 
ATOM     11  C   UNL     1      -2.937  -1.808   1.791  1.00  0.00     0.014 C 
ATOM     12  C   UNL     1      -0.796  -2.268   0.698  1.00  0.00     0.014 C 
ENDBRANCH   9  10
BRANCH   9  13
ATOM     13  N   UNL     1       0.439  -0.100   2.101  1.00  0.00    -0.332 N 
ATOM     14  H   UNL     1       0.583  -0.421   1.144  1.00  0.00     0.347 HD
ATOM     15  H   UNL     1       1.125  -0.561   2.699  1.00  0.00     0.347 HD
BRANCH  13  16
ATOM     16  C   UNL     1       0.594   1.346   2.168  1.00  0.00     0.185 C 
ATOM     17  C   UNL     1       2.036   1.696   1.745  1.00  0.00     0.075 C 
BRANCH  16  18
ATOM     18  C   UNL     1      -0.594   2.253   1.526  1.00  0.00     0.129 C 
BRANCH  18  19
ATOM     19  C   UNL     1      -2.336   2.080   1.423  1.00  0.00     0.188 C 
ATOM     20  C   UNL     1      -2.942   3.460   1.159  1.00  0.00     0.065 C 
ATOM     21  N   UNL     1      -3.073   1.472   2.551  1.00  0.00    -0.344 N 
ATOM     22  C   UNL     1      -4.285   3.924   1.744  1.00  0.00     0.012 C 
ATOM     23  C   UNL     1      -4.499   1.710   2.714  1.00  0.00     0.260 C 
ATOM     24  H   UNL     1      -2.622   1.800   3.405  1.00  0.00     0.346 HD
ATOM     25  H   UNL     1      -3.029   0.474   2.343  1.00  0.00     0.346 HD
ATOM     26  C   UNL     1      -4.702   3.179   2.997  1.00  0.00     0.062 C 
ENDBRANCH  18  19
ENDBRANCH  16  18
ENDBRANCH  13  16
ENDBRANCH   9  13
ENDBRANCH   7   9
ENDBRANCH   6   7
ENDBRANCH   5   6
ENDBRANCH   4   5
ENDBRANCH   3   4
ENDBRANCH   2   3
ENDBRANCH   1   2
BRANCH   1  27
ATOM     27  O   UNL     1       0.843   5.004   1.797  1.00  0.00    -0.377 OA
BRANCH  27  28
ATOM     28  C   UNL     1       1.421   5.480   2.984  1.00  0.00     0.188 C 
BRANCH  28  29
ATOM     29  C   UNL     1       1.452   7.002   3.116  1.00  0.00     0.188 C 
BRANCH  29  30
ATOM     30  O   UNL     1       1.811   7.801   2.011  1.00  0.00    -0.376 OA
BRANCH  30  31
ATOM     31  C   UNL     1       2.636   7.274   0.994  1.00  0.00     0.202 C 
BRANCH  31  32
ATOM     32  C   UNL     1       3.946   6.514   1.298  1.00  0.00     0.261 C 
BRANCH  32  33
ATOM     33  O   UNL     1       4.200   5.998   2.616  1.00  0.00    -0.460 OA
BRANCH  33  34
ATOM     34  C   UNL     1       4.419   6.856   3.627  1.00  0.00     0.338 C 
ATOM     35  O   UNL     1       4.502   8.083   3.548  1.00  0.00    -0.246 OA
BRANCH  34  36
ATOM     36  C   UNL     1       4.346   6.113   4.911  1.00  0.00     0.060 A 
ATOM     37  C   UNL     1       3.421   6.493   5.902  1.00  0.00     0.016 A 
ATOM     38  C   UNL     1       5.243   5.076   5.167  1.00  0.00     0.016 A 
ATOM     39  C   UNL     1       3.430   5.894   7.156  1.00  0.00     0.010 A 
ATOM     40  C   UNL     1       5.296   4.516   6.449  1.00  0.00     0.010 A 
ATOM     41  C   UNL     1       4.431   4.971   7.460  1.00  0.00    -0.014 A 
BRANCH  41  42
ATOM     42  C   UNL     1       4.756   4.745   8.887  1.00  0.00     0.031 A 
ATOM     43  C   UNL     1       5.877   5.556   9.485  1.00  0.00     0.074 A 
ATOM     44  C   UNL     1       4.032   3.916   9.654  1.00  0.00     0.049 A 
ATOM     45  N   UNL     1       6.392   5.508  10.685  1.00  0.00    -0.248 NA
ATOM     46  C   UNL     1       6.500   6.559   8.604  1.00  0.00     0.031 C 
ATOM     47  C   UNL     1       2.870   3.150   9.211  1.00  0.00     0.029 A 
ATOM     48  N   UNL     1       4.178   3.580  10.976  1.00  0.00    -0.354 N 
ATOM     49  C   UNL     1       7.410   6.454  10.695  1.00  0.00     0.074 A 
ATOM     50  C   UNL     1       7.458   7.045   9.377  1.00  0.00     0.031 C 
ATOM     51  C   UNL     1       2.420   2.412  10.242  1.00  0.00     0.029 A 
ATOM     52  C   UNL     1       3.286   2.628  11.399  1.00  0.00     0.049 A 
ATOM     53  H   UNL     1       4.857   3.984  11.563  1.00  0.00     0.167 HD
ATOM     54  C   UNL     1       8.230   6.803  11.714  1.00  0.00     0.037 A 
ATOM     55  C   UNL     1       3.207   1.982  12.579  1.00  0.00     0.037 A 
ATOM     56  C   UNL     1       8.171   6.215  13.025  1.00  0.00     0.049 A 
ATOM     57  C   UNL     1       4.190   2.319  13.670  1.00  0.00     0.074 A 
ATOM     58  C   UNL     1       8.952   6.497  14.132  1.00  0.00     0.029 A 
ATOM     59  N   UNL     1       7.284   5.218  13.403  1.00  0.00    -0.354 N 
ATOM     60  N   UNL     1       5.153   3.209  13.673  1.00  0.00    -0.248 NA
ATOM     61  C   UNL     1       4.071   1.562  14.924  1.00  0.00     0.031 C 
ATOM     62  C   UNL     1       8.577   5.628  15.161  1.00  0.00     0.029 A 
ATOM     63  C   UNL     1       7.517   4.853  14.718  1.00  0.00     0.049 A 
ATOM     64  H   UNL     1       6.591   4.828  12.822  1.00  0.00     0.167 HD
ATOM     65  C   UNL     1       5.732   3.143  14.936  1.00  0.00     0.074 A 
ATOM     66  C   UNL     1       5.000   2.135  15.675  1.00  0.00     0.031 C 
ATOM     67  C   UNL     1       6.772   3.852  15.441  1.00  0.00     0.037 A 
BRANCH  54  68
ATOM     68  C   UNL     1       9.284   7.835  11.435  1.00  0.00     0.057 A 
ATOM     69  C   UNL     1       8.973   9.183  11.212  1.00  0.00     0.134 A 
ATOM     70  C   UNL     1      10.638   7.474  11.411  1.00  0.00     0.134 A 
ATOM     71  F   UNL     1       7.696   9.593  11.201  1.00  0.00    -0.206 F 
ATOM     72  C   UNL     1       9.967  10.128  10.950  1.00  0.00     0.040 A 
ATOM     73  C   UNL     1      11.643   8.416  11.182  1.00  0.00     0.040 A 
ATOM     74  F   UNL     1      11.008   6.201  11.617  1.00  0.00    -0.206 F 
ATOM     75  C   UNL     1      11.307   9.747  10.944  1.00  0.00     0.006 A 
ENDBRANCH  54  68
BRANCH  55  76
ATOM     76  C   UNL     1       2.178   0.930  12.783  1.00  0.00     0.057 A 
ATOM     77  C   UNL     1       1.138   1.098  13.705  1.00  0.00     0.134 A 
ATOM     78  C   UNL     1       2.226  -0.281  12.081  1.00  0.00     0.134 A 
ATOM     79  F   UNL     1       1.051   2.225  14.426  1.00  0.00    -0.206 F 
ATOM     80  C   UNL     1       0.196   0.094  13.935  1.00  0.00     0.040 A 
ATOM     81  C   UNL     1       1.273  -1.281  12.278  1.00  0.00     0.040 A 
ATOM     82  F   UNL     1       3.197  -0.506  11.184  1.00  0.00    -0.206 F 
ATOM     83  C   UNL     1       0.259  -1.098  13.216  1.00  0.00     0.006 A 
ENDBRANCH  55  76
BRANCH  67  84
ATOM     84  C   UNL     1       7.149   3.600  16.874  1.00  0.00     0.057 A 
ATOM     85  C   UNL     1       7.750   2.404  17.288  1.00  0.00     0.134 A 
ATOM     86  C   UNL     1       6.938   4.586  17.847  1.00  0.00     0.134 A 
ATOM     87  F   UNL     1       7.973   1.415  16.409  1.00  0.00    -0.206 F 
ATOM     88  C   UNL     1       8.098   2.186  18.622  1.00  0.00     0.040 A 
ATOM     89  C   UNL     1       7.312   4.393  19.177  1.00  0.00     0.040 A 
ATOM     90  F   UNL     1       6.379   5.761  17.518  1.00  0.00    -0.206 F 
ATOM     91  C   UNL     1       7.885   3.185  19.570  1.00  0.00     0.006 A 
ENDBRANCH  67  84
ENDBRANCH  41  42
ENDBRANCH  34  36
ENDBRANCH  33  34
ENDBRANCH  32  33
ENDBRANCH  31  32
ENDBRANCH  30  31
ENDBRANCH  29  30
ENDBRANCH  28  29
ENDBRANCH  27  28
ENDBRANCH   1  27
TORSDOF 25
