REMARK SMILES O=C(OCCOCCOCCOCCOC(=O)[C@@H]1Nc2c(cccc2C(F)(F)F)[C@@H]2C=CC[C@@H]12)c1ccc(-c2c3nc(c(-c4c(F)cccc4F)c4ccc([nH]4)c(-c4c(F)cccc4F)c4nc(c(-c5c(F)cccc5F)c5ccc2[nH]5)C=C4)C=C3)cc1
REMARK SMILES IDX 8 1 7 2 6 3 5 4 4 5 3 6 2 7 1 8 35 9 36 10 88 11 37 12 87 13
REMARK SMILES IDX 38 14 39 15 40 16 81 17 41 18 86 19 80 20 82 21 42 22 85 23
REMARK SMILES IDX 79 24 78 25 43 27 69 28 52 29 68 30 53 31 56 32 67 33 83 34
REMARK SMILES IDX 54 35 55 36 66 38 84 39 57 40 44 41 45 42 50 43 46 44 47 45
REMARK SMILES IDX 49 46 51 47 48 48 70 49 71 50 76 51 72 52 73 53 75 54 77 55
REMARK SMILES IDX 74 56 58 57 59 58 64 59 60 60 61 61 63 62 65 63 62 64 9 65
REMARK SMILES IDX 10 66 11 67 12 68 13 69 14 70 15 71 16 72 17 73 18 74 19 75
REMARK SMILES IDX 34 76 20 77 30 79 33 80 21 81 25 82 31 83 32 84 22 85 24 86
REMARK SMILES IDX 23 87 26 88 27 89 28 90 29 91
REMARK H PARENT 82 26 56 37 19 78
REMARK Flexibility Score: inf
ROOT
ATOM      1  C   UNL     1       8.582   5.680  -4.350  1.00  0.00     0.188 C 
ENDROOT
BRANCH   1   2
ATOM      2  C   UNL     1       8.686   7.189  -4.175  1.00  0.00     0.188 C 
BRANCH   2   3
ATOM      3  O   UNL     1       8.596   7.477  -2.784  1.00  0.00    -0.376 OA
BRANCH   3   4
ATOM      4  C   UNL     1       7.691   8.505  -2.417  1.00  0.00     0.202 C 
BRANCH   4   5
ATOM      5  C   UNL     1       8.314   9.899  -2.442  1.00  0.00     0.261 C 
BRANCH   5   6
ATOM      6  O   UNL     1       9.145  10.120  -3.593  1.00  0.00    -0.460 OA
BRANCH   6   7
ATOM      7  C   UNL     1      10.462   9.851  -3.755  1.00  0.00     0.338 C 
ATOM      8  O   UNL     1      11.006  10.287  -4.779  1.00  0.00    -0.246 OA
BRANCH   7   9
ATOM      9  C   UNL     1      11.290   8.964  -2.863  1.00  0.00     0.060 A 
ATOM     10  C   UNL     1      12.589   8.651  -3.312  1.00  0.00     0.016 A 
ATOM     11  C   UNL     1      10.869   8.364  -1.673  1.00  0.00     0.016 A 
ATOM     12  C   UNL     1      13.412   7.767  -2.605  1.00  0.00     0.010 A 
ATOM     13  C   UNL     1      11.640   7.421  -1.008  1.00  0.00     0.010 A 
ATOM     14  C   UNL     1      12.930   7.150  -1.448  1.00  0.00    -0.014 A 
BRANCH  14  15
ATOM     15  C   UNL     1      13.817   6.472  -0.495  1.00  0.00     0.031 A 
ATOM     16  C   UNL     1      13.843   4.987  -0.358  1.00  0.00     0.074 A 
ATOM     17  C   UNL     1      14.442   7.283   0.378  1.00  0.00     0.049 A 
ATOM     18  N   UNL     1      14.613   4.254   0.400  1.00  0.00    -0.248 NA
ATOM     19  C   UNL     1      12.856   4.226  -1.139  1.00  0.00     0.031 C 
ATOM     20  C   UNL     1      14.300   8.746   0.408  1.00  0.00     0.029 A 
ATOM     21  N   UNL     1      15.277   7.011   1.420  1.00  0.00    -0.354 N 
ATOM     22  C   UNL     1      14.240   2.939   0.157  1.00  0.00     0.074 A 
ATOM     23  C   UNL     1      13.118   2.981  -0.758  1.00  0.00     0.031 C 
ATOM     24  C   UNL     1      15.035   9.241   1.412  1.00  0.00     0.029 A 
ATOM     25  C   UNL     1      15.710   8.137   2.074  1.00  0.00     0.049 A 
ATOM     26  H   UNL     1      15.543   6.099   1.678  1.00  0.00     0.167 HD
ATOM     27  C   UNL     1      14.815   1.813   0.645  1.00  0.00     0.037 A 
ATOM     28  C   UNL     1      16.596   8.258   3.075  1.00  0.00     0.037 A 
ATOM     29  C   UNL     1      15.892   1.840   1.607  1.00  0.00     0.049 A 
ATOM     30  C   UNL     1      17.273   7.008   3.542  1.00  0.00     0.074 A 
ATOM     31  C   UNL     1      16.615   0.789   2.142  1.00  0.00     0.029 A 
ATOM     32  N   UNL     1      16.382   3.000   2.199  1.00  0.00    -0.354 N 
ATOM     33  N   UNL     1      17.045   5.766   3.184  1.00  0.00    -0.248 NA
ATOM     34  C   UNL     1      18.357   7.175   4.512  1.00  0.00     0.031 C 
ATOM     35  C   UNL     1      17.513   1.311   3.083  1.00  0.00     0.029 A 
ATOM     36  C   UNL     1      17.386   2.692   3.101  1.00  0.00     0.049 A 
ATOM     37  H   UNL     1      16.061   3.910   2.003  1.00  0.00     0.167 HD
ATOM     38  C   UNL     1      17.970   4.998   3.869  1.00  0.00     0.074 A 
ATOM     39  C   UNL     1      18.782   5.926   4.637  1.00  0.00     0.031 C 
ATOM     40  C   UNL     1      18.140   3.651   3.872  1.00  0.00     0.037 A 
BRANCH  27  41
ATOM     41  C   UNL     1      14.315   0.491   0.128  1.00  0.00     0.057 A 
ATOM     42  C   UNL     1      13.695  -0.441   0.969  1.00  0.00     0.134 A 
ATOM     43  C   UNL     1      14.486   0.120  -1.215  1.00  0.00     0.134 A 
ATOM     44  F   UNL     1      13.502  -0.165   2.268  1.00  0.00    -0.206 F 
ATOM     45  C   UNL     1      13.262  -1.684   0.497  1.00  0.00     0.040 A 
ATOM     46  C   UNL     1      14.035  -1.109  -1.706  1.00  0.00     0.040 A 
ATOM     47  F   UNL     1      15.073   0.958  -2.083  1.00  0.00    -0.206 F 
ATOM     48  C   UNL     1      13.425  -2.018  -0.846  1.00  0.00     0.006 A 
ENDBRANCH  27  41
BRANCH  28  49
ATOM     49  C   UNL     1      16.967   9.606   3.567  1.00  0.00     0.057 A 
ATOM     50  C   UNL     1      16.076  10.390   4.308  1.00  0.00     0.134 A 
ATOM     51  C   UNL     1      18.204  10.172   3.238  1.00  0.00     0.134 A 
ATOM     52  F   UNL     1      14.859   9.919   4.623  1.00  0.00    -0.206 F 
ATOM     53  C   UNL     1      16.402  11.687   4.707  1.00  0.00     0.040 A 
ATOM     54  C   UNL     1      18.553  11.458   3.651  1.00  0.00     0.040 A 
ATOM     55  F   UNL     1      19.095   9.475   2.518  1.00  0.00    -0.206 F 
ATOM     56  C   UNL     1      17.648  12.222   4.384  1.00  0.00     0.006 A 
ENDBRANCH  28  49
BRANCH  40  57
ATOM     57  C   UNL     1      19.246   3.143   4.746  1.00  0.00     0.057 A 
ATOM     58  C   UNL     1      20.428   2.648   4.185  1.00  0.00     0.134 A 
ATOM     59  C   UNL     1      19.155   3.188   6.144  1.00  0.00     0.134 A 
ATOM     60  F   UNL     1      20.573   2.575   2.853  1.00  0.00    -0.206 F 
ATOM     61  C   UNL     1      21.492   2.234   4.985  1.00  0.00     0.040 A 
ATOM     62  C   UNL     1      20.224   2.806   6.953  1.00  0.00     0.040 A 
ATOM     63  F   UNL     1      18.053   3.672   6.739  1.00  0.00    -0.206 F 
ATOM     64  C   UNL     1      21.396   2.327   6.372  1.00  0.00     0.006 A 
ENDBRANCH  40  57
ENDBRANCH  14  15
ENDBRANCH   7   9
ENDBRANCH   6   7
ENDBRANCH   5   6
ENDBRANCH   4   5
ENDBRANCH   3   4
ENDBRANCH   2   3
ENDBRANCH   1   2
BRANCH   1  65
ATOM     65  O   UNL     1       7.448   5.132  -3.678  1.00  0.00    -0.377 OA
BRANCH  65  66
ATOM     66  C   UNL     1       7.627   4.797  -2.310  1.00  0.00     0.188 C 
BRANCH  66  67
ATOM     67  C   UNL     1       7.964   3.326  -2.081  1.00  0.00     0.188 C 
BRANCH  67  68
ATOM     68  O   UNL     1       9.055   2.838  -2.844  1.00  0.00    -0.376 OA
BRANCH  68  69
ATOM     69  C   UNL     1       8.834   2.481  -4.213  1.00  0.00     0.202 C 
BRANCH  69  70
ATOM     70  C   UNL     1       7.432   2.083  -4.728  1.00  0.00     0.261 C 
BRANCH  70  71
ATOM     71  O   UNL     1       6.495   3.188  -4.921  1.00  0.00    -0.462 OA
BRANCH  71  72
ATOM     72  C   UNL     1       5.353   3.119  -4.193  1.00  0.00     0.328 C 
ATOM     73  O   UNL     1       5.090   2.148  -3.473  1.00  0.00    -0.250 OA
BRANCH  72  74
ATOM     74  C   UNL     1       4.275   4.238  -4.331  1.00  0.00     0.194 C 
ATOM     75  N   UNL     1       3.114   3.573  -4.983  1.00  0.00    -0.371 N 
ATOM     76  C   UNL     1       4.406   5.630  -4.962  1.00  0.00     0.038 C 
ATOM     77  C   UNL     1       2.104   4.229  -5.667  1.00  0.00     0.051 A 
ATOM     78  H   UNL     1       3.059   2.592  -4.923  1.00  0.00     0.161 HD
ATOM     79  C   UNL     1       3.032   6.324  -4.755  1.00  0.00     0.050 C 
ATOM     80  C   UNL     1       5.338   6.689  -4.407  1.00  0.00     0.034 C 
ATOM     81  C   UNL     1       2.038   5.642  -5.637  1.00  0.00    -0.017 A 
ATOM     82  C   UNL     1       1.179   3.536  -6.457  1.00  0.00     0.079 A 
ATOM     83  C   UNL     1       3.344   7.774  -4.940  1.00  0.00    -0.023 C 
ATOM     84  C   UNL     1       4.639   7.985  -4.700  1.00  0.00    -0.030 C 
ATOM     85  C   UNL     1       1.046   6.341  -6.333  1.00  0.00     0.006 A 
ATOM     86  C   UNL     1       0.198   4.258  -7.169  1.00  0.00     0.015 A 
ATOM     87  C   UNL     1       0.129   5.647  -7.105  1.00  0.00     0.001 A 
BRANCH  82  88
ATOM     88  C   UNL     1       1.190   2.037  -6.599  1.00  0.00     0.418 C 
ATOM     89  F   UNL     1       0.008   1.476  -6.213  1.00  0.00    -0.166 F 
ATOM     90  F   UNL     1       1.381   1.640  -7.890  1.00  0.00    -0.166 F 
ATOM     91  F   UNL     1       2.149   1.390  -5.873  1.00  0.00    -0.166 F 
ENDBRANCH  82  88
ENDBRANCH  72  74
ENDBRANCH  71  72
ENDBRANCH  70  71
ENDBRANCH  69  70
ENDBRANCH  68  69
ENDBRANCH  67  68
ENDBRANCH  66  67
ENDBRANCH  65  66
ENDBRANCH   1  65
TORSDOF 21
