REMARK SMILES Cc1nc(-c2ccccc2Cl)nc2sc(C(=O)OCCOCCOCCOCCOC(=O)c3ccc(-c4c5nc(c(-c6c(F)cccc6F)c6ccc([nH]6)c(-c6c(F)cccc6F)c6nc(c(-c7c(F)cccc7F)c7ccc4[nH]7)C=C6)C=C5)cc3)c(N)c12
REMARK SMILES IDX 25 1 24 2 23 3 22 4 21 5 20 6 19 7 18 8 16 9 17 10 15 11
REMARK SMILES IDX 1 12 2 13 3 14 89 15 4 16 13 17 87 18 12 19 14 20 5 21 6 22
REMARK SMILES IDX 10 23 7 24 9 25 11 26 8 27 88 28 26 31 27 32 28 33 29 34
REMARK SMILES IDX 30 35 31 36 32 37 33 38 34 39 86 40 35 41 85 42 36 43 37 44
REMARK SMILES IDX 38 45 79 46 39 47 84 48 78 49 80 50 40 51 83 52 77 53 76 54
REMARK SMILES IDX 41 56 67 57 50 58 66 59 51 60 54 61 65 62 81 63 52 64 53 65
REMARK SMILES IDX 64 67 82 68 55 69 42 70 43 71 48 72 44 73 45 74 47 75 49 76
REMARK SMILES IDX 46 77 68 78 69 79 74 80 70 81 71 82 73 83 75 84 72 85 56 86
REMARK SMILES IDX 57 87 62 88 58 89 59 90 61 91 63 92 60 93
REMARK H PARENT 88 29 88 30 80 55 54 66
REMARK Flexibility Score: inf
ROOT
ATOM      1  C   UNL     1      -1.234  -0.601   8.812  1.00  0.00     0.188 C 
ENDROOT
BRANCH   1   2
ATOM      2  O   UNL     1      -0.719  -0.949   7.534  1.00  0.00    -0.377 OA
BRANCH   2   3
ATOM      3  C   UNL     1      -0.716  -0.027   6.452  1.00  0.00     0.188 C 
BRANCH   3   4
ATOM      4  C   UNL     1      -1.775   1.089   6.302  1.00  0.00     0.188 C 
BRANCH   4   5
ATOM      5  O   UNL     1      -2.732   1.121   7.336  1.00  0.00    -0.376 OA
BRANCH   5   6
ATOM      6  C   UNL     1      -4.060   0.705   7.157  1.00  0.00     0.202 C 
BRANCH   6   7
ATOM      7  C   UNL     1      -4.398  -0.607   6.447  1.00  0.00     0.261 C 
BRANCH   7   8
ATOM      8  O   UNL     1      -3.488  -1.060   5.449  1.00  0.00    -0.459 OA
BRANCH   8   9
ATOM      9  C   UNL     1      -3.530  -0.482   4.223  1.00  0.00     0.350 C 
ATOM     10  O   UNL     1      -4.258   0.475   3.929  1.00  0.00    -0.245 OA
BRANCH   9  11
ATOM     11  C   UNL     1      -2.489  -1.040   3.394  1.00  0.00     0.138 A 
ATOM     12  C   UNL     1       0.793  -0.052   0.177  1.00  0.00     0.067 C 
ATOM     13  C   UNL     1       0.346  -1.269   0.928  1.00  0.00     0.052 A 
ATOM     14  N   UNL     1       0.966  -2.427   0.541  1.00  0.00    -0.233 NA
ATOM     15  C   UNL     1      -0.687  -1.344   1.895  1.00  0.00     0.057 A 
ATOM     16  C   UNL     1       0.626  -3.596   1.107  1.00  0.00     0.162 A 
ATOM     17  C   UNL     1      -0.942  -2.624   2.366  1.00  0.00     0.130 A 
ATOM     18  C   UNL     1      -1.588  -0.412   2.545  1.00  0.00     0.069 A 
ATOM     19  N   UNL     1      -0.321  -3.755   2.027  1.00  0.00    -0.217 NA
ATOM     20  S   UNL     1      -2.222  -2.723   3.462  1.00  0.00    -0.106 S 
BRANCH  16  21
ATOM     21  C   UNL     1       1.215  -4.845   0.614  1.00  0.00     0.038 A 
ATOM     22  C   UNL     1       0.348  -5.937   0.365  1.00  0.00     0.013 A 
ATOM     23  C   UNL     1       2.590  -5.059   0.433  1.00  0.00     0.052 A 
ATOM     24  C   UNL     1       0.824  -7.186  -0.029  1.00  0.00     0.001 A 
ATOM     25  C   UNL     1       3.068  -6.317   0.033  1.00  0.00     0.021 A 
ATOM     26  Cl  UNL     1       3.778  -3.842   0.756  1.00  0.00    -0.084 Cl
ATOM     27  C   UNL     1       2.189  -7.377  -0.192  1.00  0.00     0.002 A 
ENDBRANCH  16  21
BRANCH  18  28
ATOM     28  N   UNL     1      -1.566   0.932   2.398  1.00  0.00    -0.397 N 
ATOM     29  H   UNL     1      -2.218   1.491   2.880  1.00  0.00     0.156 HD
ATOM     30  H   UNL     1      -0.897   1.353   1.811  1.00  0.00     0.156 HD
ENDBRANCH  18  28
ENDBRANCH   9  11
ENDBRANCH   8   9
ENDBRANCH   7   8
ENDBRANCH   6   7
ENDBRANCH   5   6
ENDBRANCH   4   5
ENDBRANCH   3   4
ENDBRANCH   2   3
ENDBRANCH   1   2
BRANCH   1  31
ATOM     31  C   UNL     1      -1.006   0.802   9.423  1.00  0.00     0.188 C 
BRANCH  31  32
ATOM     32  O   UNL     1      -0.481   1.771   8.534  1.00  0.00    -0.376 OA
BRANCH  32  33
ATOM     33  C   UNL     1       0.855   2.217   8.610  1.00  0.00     0.202 C 
BRANCH  33  34
ATOM     34  C   UNL     1       1.970   1.186   8.522  1.00  0.00     0.261 C 
BRANCH  34  35
ATOM     35  O   UNL     1       1.752   0.020   9.293  1.00  0.00    -0.460 OA
BRANCH  35  36
ATOM     36  C   UNL     1       1.785   0.214  10.616  1.00  0.00     0.338 C 
ATOM     37  O   UNL     1       1.721   1.278  11.232  1.00  0.00    -0.246 OA
BRANCH  36  38
ATOM     38  C   UNL     1       2.060  -1.062  11.245  1.00  0.00     0.060 A 
ATOM     39  C   UNL     1       1.716  -1.214  12.588  1.00  0.00     0.016 A 
ATOM     40  C   UNL     1       2.951  -1.916  10.579  1.00  0.00     0.016 A 
ATOM     41  C   UNL     1       2.436  -2.119  13.329  1.00  0.00     0.010 A 
ATOM     42  C   UNL     1       3.690  -2.788  11.326  1.00  0.00     0.010 A 
ATOM     43  C   UNL     1       3.474  -2.816  12.700  1.00  0.00    -0.014 A 
BRANCH  43  44
ATOM     44  C   UNL     1       4.310  -3.669  13.508  1.00  0.00     0.031 A 
ATOM     45  C   UNL     1       3.659  -4.957  13.817  1.00  0.00     0.074 A 
ATOM     46  C   UNL     1       5.576  -3.329  13.809  1.00  0.00     0.049 A 
ATOM     47  N   UNL     1       3.257  -5.374  14.969  1.00  0.00    -0.248 NA
ATOM     48  C   UNL     1       3.225  -5.795  12.686  1.00  0.00     0.031 C 
ATOM     49  C   UNL     1       6.358  -2.205  13.287  1.00  0.00     0.029 A 
ATOM     50  N   UNL     1       6.473  -3.991  14.584  1.00  0.00    -0.354 N 
ATOM     51  C   UNL     1       2.724  -6.636  14.732  1.00  0.00     0.074 A 
ATOM     52  C   UNL     1       2.526  -6.738  13.314  1.00  0.00     0.031 C 
ATOM     53  C   UNL     1       7.664  -2.395  13.584  1.00  0.00     0.029 A 
ATOM     54  C   UNL     1       7.790  -3.579  14.417  1.00  0.00     0.049 A 
ATOM     55  H   UNL     1       6.213  -4.703  15.211  1.00  0.00     0.167 HD
ATOM     56  C   UNL     1       2.779  -7.596  15.692  1.00  0.00     0.037 A 
ATOM     57  C   UNL     1       8.889  -4.228  14.877  1.00  0.00     0.037 A 
ATOM     58  C   UNL     1       2.992  -7.009  16.992  1.00  0.00     0.049 A 
ATOM     59  C   UNL     1       8.434  -5.166  15.936  1.00  0.00     0.074 A 
ATOM     60  C   UNL     1       2.296  -6.110  17.776  1.00  0.00     0.029 A 
ATOM     61  N   UNL     1       4.268  -7.051  17.497  1.00  0.00    -0.354 N 
ATOM     62  N   UNL     1       7.980  -4.789  17.099  1.00  0.00    -0.248 NA
ATOM     63  C   UNL     1       8.065  -6.515  15.532  1.00  0.00     0.031 C 
ATOM     64  C   UNL     1       3.296  -5.336  18.432  1.00  0.00     0.029 A 
ATOM     65  C   UNL     1       4.546  -5.837  18.067  1.00  0.00     0.049 A 
ATOM     66  H   UNL     1       4.878  -7.822  17.456  1.00  0.00     0.167 HD
ATOM     67  C   UNL     1       6.932  -5.658  17.367  1.00  0.00     0.074 A 
ATOM     68  C   UNL     1       7.099  -6.758  16.421  1.00  0.00     0.031 C 
ATOM     69  C   UNL     1       5.869  -5.256  18.124  1.00  0.00     0.037 A 
BRANCH  56  70
ATOM     70  C   UNL     1       3.064  -9.050  15.400  1.00  0.00     0.057 A 
ATOM     71  C   UNL     1       3.034  -9.969  16.464  1.00  0.00     0.134 A 
ATOM     72  C   UNL     1       3.641  -9.540  14.209  1.00  0.00     0.134 A 
ATOM     73  F   UNL     1       2.528  -9.624  17.658  1.00  0.00    -0.206 F 
ATOM     74  C   UNL     1       3.603 -11.244  16.372  1.00  0.00     0.040 A 
ATOM     75  C   UNL     1       4.161 -10.831  14.090  1.00  0.00     0.040 A 
ATOM     76  F   UNL     1       3.830  -8.782  13.124  1.00  0.00    -0.206 F 
ATOM     77  C   UNL     1       4.174 -11.677  15.183  1.00  0.00     0.006 A 
ENDBRANCH  56  70
BRANCH  57  78
ATOM     78  C   UNL     1      10.235  -4.338  14.265  1.00  0.00     0.057 A 
ATOM     79  C   UNL     1      11.316  -4.856  14.995  1.00  0.00     0.134 A 
ATOM     80  C   UNL     1      10.436  -4.212  12.879  1.00  0.00     0.134 A 
ATOM     81  F   UNL     1      11.213  -5.050  16.318  1.00  0.00    -0.206 F 
ATOM     82  C   UNL     1      12.509  -5.260  14.381  1.00  0.00     0.040 A 
ATOM     83  C   UNL     1      11.626  -4.602  12.255  1.00  0.00     0.040 A 
ATOM     84  F   UNL     1       9.454  -3.793  12.069  1.00  0.00    -0.206 F 
ATOM     85  C   UNL     1      12.662  -5.145  13.003  1.00  0.00     0.006 A 
ENDBRANCH  57  78
BRANCH  69  86
ATOM     86  C   UNL     1       5.999  -3.973  18.900  1.00  0.00     0.057 A 
ATOM     87  C   UNL     1       6.142  -2.705  18.314  1.00  0.00     0.134 A 
ATOM     88  C   UNL     1       5.789  -4.011  20.283  1.00  0.00     0.134 A 
ATOM     89  F   UNL     1       6.258  -2.561  16.988  1.00  0.00    -0.206 F 
ATOM     90  C   UNL     1       6.104  -1.534  19.078  1.00  0.00     0.040 A 
ATOM     91  C   UNL     1       5.711  -2.847  21.050  1.00  0.00     0.040 A 
ATOM     92  F   UNL     1       5.594  -5.185  20.904  1.00  0.00    -0.206 F 
ATOM     93  C   UNL     1       5.875  -1.603  20.449  1.00  0.00     0.006 A 
ENDBRANCH  69  86
ENDBRANCH  43  44
ENDBRANCH  36  38
ENDBRANCH  35  36
ENDBRANCH  34  35
ENDBRANCH  33  34
ENDBRANCH  32  33
ENDBRANCH  31  32
ENDBRANCH   1  31
TORSDOF 22
