REMARK SMILES Cc1cc(C)c2c(=O)n(CCCC(=O)OCCOCCOCCOCCOC(=O)c3ccc(-c4c5nc(c(-c6c(F)cccc6F)c6ccc([nH]6)c(-c6c(F)cccc6F)c6nc(c(-c7c(F)cccc7F)c7ccc4[nH]7)C=C6)C=C5)cc3)sc2n1
REMARK SMILES IDX 20 1 19 2 18 3 17 4 16 5 15 6 13 7 14 8 12 9 11 10 10 11
REMARK SMILES IDX 9 12 1 13 2 14 3 15 86 16 4 17 85 18 5 19 6 20 84 21 7 22
REMARK SMILES IDX 8 23 21 24 22 25 23 26 24 27 25 28 26 29 27 30 28 31 29 32
REMARK SMILES IDX 30 33 31 34 83 35 32 36 82 37 33 38 34 39 35 40 76 41 36 42
REMARK SMILES IDX 81 43 75 44 77 45 37 46 80 47 74 48 73 49 38 51 64 52 47 53
REMARK SMILES IDX 63 54 48 55 51 56 62 57 78 58 49 59 50 60 61 62 79 63 52 64
REMARK SMILES IDX 39 65 40 66 45 67 41 68 42 69 44 70 46 71 43 72 65 73 66 74
REMARK SMILES IDX 71 75 67 76 68 77 70 78 72 79 69 80 53 81 54 82 59 83 55 84
REMARK SMILES IDX 56 85 58 86 60 87 57 88
REMARK H PARENT 77 50 51 61
REMARK Flexibility Score: inf
ROOT
ATOM      1  C   UNL     1      -3.054  -2.723  -8.650  1.00  0.00     0.188 C 
ENDROOT
BRANCH   1   2
ATOM      2  C   UNL     1      -3.518  -1.296  -9.005  1.00  0.00     0.188 C 
BRANCH   2   3
ATOM      3  O   UNL     1      -2.746  -0.451  -9.822  1.00  0.00    -0.376 OA
BRANCH   3   4
ATOM      4  C   UNL     1      -1.521   0.107  -9.390  1.00  0.00     0.202 C 
BRANCH   4   5
ATOM      5  C   UNL     1      -1.038   0.079  -7.929  1.00  0.00     0.261 C 
BRANCH   5   6
ATOM      6  O   UNL     1      -1.671  -0.885  -7.069  1.00  0.00    -0.463 OA
BRANCH   6   7
ATOM      7  C   UNL     1      -2.612  -0.426  -6.207  1.00  0.00     0.305 C 
ATOM      8  O   UNL     1      -2.928   0.757  -6.120  1.00  0.00    -0.252 OA
BRANCH   7   9
ATOM      9  C   UNL     1      -3.389  -1.511  -5.438  1.00  0.00     0.124 C 
BRANCH   9  10
ATOM     10  C   UNL     1      -3.040  -3.018  -5.328  1.00  0.00     0.035 C 
BRANCH  10  11
ATOM     11  C   UNL     1      -1.613  -3.496  -5.616  1.00  0.00     0.139 C 
BRANCH  11  12
ATOM     12  N   UNL     1      -0.705  -3.094  -4.581  1.00  0.00    -0.262 N 
ATOM     13  C   UNL     1       1.020   0.067   0.252  1.00  0.00     0.067 C 
ATOM     14  C   UNL     1       0.691  -1.080  -0.646  1.00  0.00     0.039 A 
ATOM     15  C   UNL     1       0.962  -2.415  -0.297  1.00  0.00     0.027 A 
ATOM     16  N   UNL     1       0.224  -0.724  -1.853  1.00  0.00    -0.241 NA
ATOM     17  C   UNL     1       0.677  -3.454  -1.200  1.00  0.00    -0.033 A 
ATOM     18  C   UNL     1       0.000  -1.734  -2.692  1.00  0.00     0.146 A 
ATOM     19  C   UNL     1       1.025  -4.882  -0.930  1.00  0.00     0.045 C 
ATOM     20  C   UNL     1       0.136  -3.079  -2.412  1.00  0.00     0.081 A 
ATOM     21  S   UNL     1      -0.318  -1.448  -4.383  1.00  0.00    -0.035 S 
ATOM     22  C   UNL     1      -0.336  -3.914  -3.533  1.00  0.00     0.270 A 
ATOM     23  O   UNL     1      -0.457  -5.127  -3.474  1.00  0.00    -0.268 OA
ENDBRANCH  11  12
ENDBRANCH  10  11
ENDBRANCH   9  10
ENDBRANCH   7   9
ENDBRANCH   6   7
ENDBRANCH   5   6
ENDBRANCH   4   5
ENDBRANCH   3   4
ENDBRANCH   2   3
ENDBRANCH   1   2
BRANCH   1  24
ATOM     24  O   UNL     1      -1.738  -3.203  -8.725  1.00  0.00    -0.377 OA
BRANCH  24  25
ATOM     25  C   UNL     1      -0.962  -2.965  -9.868  1.00  0.00     0.188 C 
BRANCH  25  26
ATOM     26  C   UNL     1      -1.611  -2.785 -11.258  1.00  0.00     0.188 C 
BRANCH  26  27
ATOM     27  O   UNL     1      -3.011  -2.648 -11.426  1.00  0.00    -0.376 OA
BRANCH  27  28
ATOM     28  C   UNL     1      -4.024  -3.641 -11.340  1.00  0.00     0.202 C 
BRANCH  28  29
ATOM     29  C   UNL     1      -3.799  -5.100 -10.957  1.00  0.00     0.261 C 
BRANCH  29  30
ATOM     30  O   UNL     1      -2.462  -5.397 -10.665  1.00  0.00    -0.460 OA
BRANCH  30  31
ATOM     31  C   UNL     1      -1.728  -5.627 -11.763  1.00  0.00     0.338 C 
ATOM     32  O   UNL     1      -2.060  -5.509 -12.943  1.00  0.00    -0.246 OA
BRANCH  31  33
ATOM     33  C   UNL     1      -0.441  -6.119 -11.305  1.00  0.00     0.060 A 
ATOM     34  C   UNL     1       0.605  -6.157 -12.227  1.00  0.00     0.016 A 
ATOM     35  C   UNL     1      -0.593  -7.109 -10.353  1.00  0.00     0.016 A 
ATOM     36  C   UNL     1       1.037  -7.424 -12.587  1.00  0.00     0.010 A 
ATOM     37  C   UNL     1       0.141  -8.226 -10.571  1.00  0.00     0.010 A 
ATOM     38  C   UNL     1       0.493  -8.517 -11.889  1.00  0.00    -0.014 A 
BRANCH  38  39
ATOM     39  C   UNL     1       0.894  -9.930 -12.073  1.00  0.00     0.031 A 
ATOM     40  C   UNL     1       2.373  -9.940 -11.635  1.00  0.00     0.074 A 
ATOM     41  C   UNL     1       0.045 -10.967 -12.452  1.00  0.00     0.049 A 
ATOM     42  N   UNL     1       3.375  -9.807 -12.451  1.00  0.00    -0.248 NA
ATOM     43  C   UNL     1       2.822  -9.608 -10.239  1.00  0.00     0.031 C 
ATOM     44  C   UNL     1      -1.403 -11.018 -12.837  1.00  0.00     0.029 A 
ATOM     45  N   UNL     1       0.341 -12.323 -12.636  1.00  0.00    -0.354 N 
ATOM     46  C   UNL     1       4.523  -9.846 -11.655  1.00  0.00     0.074 A 
ATOM     47  C   UNL     1       4.130  -9.369 -10.377  1.00  0.00     0.031 C 
ATOM     48  C   UNL     1      -1.875 -12.307 -12.884  1.00  0.00     0.029 A 
ATOM     49  C   UNL     1      -0.779 -13.237 -12.671  1.00  0.00     0.049 A 
ATOM     50  H   UNL     1       1.268 -12.639 -12.738  1.00  0.00     0.167 HD
ATOM     51  C   UNL     1       5.526 -10.708 -11.980  1.00  0.00     0.037 A 
ATOM     52  C   UNL     1      -0.739 -14.624 -12.798  1.00  0.00     0.037 A 
ATOM     53  C   UNL     1       5.356 -11.097 -13.359  1.00  0.00     0.049 A 
ATOM     54  C   UNL     1       0.640 -14.926 -13.250  1.00  0.00     0.074 A 
ATOM     55  C   UNL     1       5.402 -10.420 -14.560  1.00  0.00     0.029 A 
ATOM     56  N   UNL     1       4.452 -12.115 -13.506  1.00  0.00    -0.354 N 
ATOM     57  N   UNL     1       1.061 -14.578 -14.431  1.00  0.00    -0.248 NA
ATOM     58  C   UNL     1       1.622 -15.005 -12.178  1.00  0.00     0.031 C 
ATOM     59  C   UNL     1       4.295 -10.903 -15.321  1.00  0.00     0.029 A 
ATOM     60  C   UNL     1       3.744 -11.999 -14.667  1.00  0.00     0.049 A 
ATOM     61  H   UNL     1       4.328 -12.841 -12.854  1.00  0.00     0.167 HD
ATOM     62  C   UNL     1       2.232 -13.899 -14.158  1.00  0.00     0.074 A 
ATOM     63  C   UNL     1       2.533 -14.207 -12.743  1.00  0.00     0.031 C 
ATOM     64  C   UNL     1       2.635 -12.866 -14.960  1.00  0.00     0.037 A 
BRANCH  51  65
ATOM     65  C   UNL     1       6.272 -11.575 -10.982  1.00  0.00     0.057 A 
ATOM     66  C   UNL     1       7.398 -12.293 -11.417  1.00  0.00     0.134 A 
ATOM     67  C   UNL     1       5.815 -11.928  -9.690  1.00  0.00     0.134 A 
ATOM     68  F   UNL     1       7.891 -12.105 -12.650  1.00  0.00    -0.206 F 
ATOM     69  C   UNL     1       8.028 -13.267 -10.628  1.00  0.00     0.040 A 
ATOM     70  C   UNL     1       6.462 -12.867  -8.875  1.00  0.00     0.040 A 
ATOM     71  F   UNL     1       4.673 -11.457  -9.177  1.00  0.00    -0.206 F 
ATOM     72  C   UNL     1       7.570 -13.548  -9.347  1.00  0.00     0.006 A 
ENDBRANCH  51  65
BRANCH  52  73
ATOM     73  C   UNL     1      -1.468 -15.774 -12.112  1.00  0.00     0.057 A 
ATOM     74  C   UNL     1      -1.270 -17.150 -12.436  1.00  0.00     0.134 A 
ATOM     75  C   UNL     1      -2.039 -15.556 -10.857  1.00  0.00     0.134 A 
ATOM     76  F   UNL     1      -0.722 -17.512 -13.607  1.00  0.00    -0.206 F 
ATOM     77  C   UNL     1      -1.556 -18.207 -11.535  1.00  0.00     0.040 A 
ATOM     78  C   UNL     1      -2.305 -16.596  -9.945  1.00  0.00     0.040 A 
ATOM     79  F   UNL     1      -2.259 -14.306 -10.433  1.00  0.00    -0.206 F 
ATOM     80  C   UNL     1      -2.043 -17.924 -10.266  1.00  0.00     0.006 A 
ENDBRANCH  52  73
BRANCH  64  81
ATOM     81  C   UNL     1       1.904 -12.618 -16.258  1.00  0.00     0.057 A 
ATOM     82  C   UNL     1       0.656 -11.990 -16.424  1.00  0.00     0.134 A 
ATOM     83  C   UNL     1       2.617 -12.896 -17.424  1.00  0.00     0.134 A 
ATOM     84  F   UNL     1      -0.054 -11.563 -15.373  1.00  0.00    -0.206 F 
ATOM     85  C   UNL     1       0.127 -11.709 -17.695  1.00  0.00     0.040 A 
ATOM     86  C   UNL     1       2.122 -12.589 -18.691  1.00  0.00     0.040 A 
ATOM     87  F   UNL     1       3.853 -13.410 -17.341  1.00  0.00    -0.206 F 
ATOM     88  C   UNL     1       0.865 -12.014 -18.835  1.00  0.00     0.006 A 
ENDBRANCH  64  81
ENDBRANCH  38  39
ENDBRANCH  31  33
ENDBRANCH  30  31
ENDBRANCH  29  30
ENDBRANCH  28  29
ENDBRANCH  27  28
ENDBRANCH  26  27
ENDBRANCH  25  26
ENDBRANCH  24  25
ENDBRANCH   1  24
TORSDOF 23
