REMARK SMILES Cc1ccc(-c2cc(Cl)cc3c2O[C@H](C(F)(F)F)C(C(=O)OCCOCCOCCOCCOC(=O)c2ccc(-c4c5nc(c(-c6c(F)cccc6F)c6ccc([nH]6)c(-c6c(F)cccc6F)c6nc(c(-c7c(F)cccc7F)c7ccc4[nH]7)C=C6)C=C5)cc2)=C3)cc1F
REMARK SMILES IDX 29 1 28 2 27 3 26 4 25 5 24 6 23 7 22 8 20 9 21 10 19 11
REMARK SMILES IDX 6 12 7 13 12 14 8 15 11 16 13 17 9 18 10 19 91 20 14 21 5 22
REMARK SMILES IDX 1 23 2 24 3 25 93 26 4 27 92 28 94 29 15 30 16 31 17 32
REMARK SMILES IDX 18 33 30 34 31 35 32 36 33 37 34 38 35 39 36 40 37 41 38 42
REMARK SMILES IDX 90 43 39 44 89 45 40 46 41 47 42 48 83 49 43 50 88 51 82 52
REMARK SMILES IDX 84 53 44 54 87 55 81 56 80 57 45 59 71 60 54 61 70 62 55 63
REMARK SMILES IDX 58 64 69 65 85 66 56 67 57 68 68 70 86 71 59 72 46 73 47 74
REMARK SMILES IDX 52 75 48 76 49 77 51 78 53 79 50 80 72 81 73 82 78 83 74 84
REMARK SMILES IDX 75 85 77 86 79 87 76 88 60 89 61 90 66 91 62 92 63 93 65 94
REMARK SMILES IDX 67 95 64 96
REMARK H PARENT 84 58 58 69
REMARK Flexibility Score: inf
ROOT
ATOM      1  C   UNL     1      -3.912  -3.074   7.525  1.00  0.00     0.188 C 
ENDROOT
BRANCH   1   2
ATOM      2  O   UNL     1      -3.810  -2.828   5.533  1.00  0.00    -0.377 OA
BRANCH   2   3
ATOM      3  C   UNL     1      -4.832  -3.342   4.210  1.00  0.00     0.188 C 
BRANCH   3   4
ATOM      4  C   UNL     1      -5.725  -4.865   4.037  1.00  0.00     0.188 C 
BRANCH   4   5
ATOM      5  O   UNL     1      -6.120  -5.912   4.973  1.00  0.00    -0.376 OA
BRANCH   5   6
ATOM      6  C   UNL     1      -5.317  -6.987   5.529  1.00  0.00     0.202 C 
BRANCH   6   7
ATOM      7  C   UNL     1      -4.188  -7.801   4.764  1.00  0.00     0.261 C 
BRANCH   7   8
ATOM      8  O   UNL     1      -3.260  -7.058   3.911  1.00  0.00    -0.460 OA
BRANCH   8   9
ATOM      9  C   UNL     1      -3.582  -6.992   2.607  1.00  0.00     0.338 C 
ATOM     10  O   UNL     1      -4.252  -7.846   2.041  1.00  0.00    -0.246 OA
BRANCH   9  11
ATOM     11  C   UNL     1      -3.296  -5.657   1.982  1.00  0.00     0.087 C 
ATOM     12  C   UNL     1      -3.075  -1.921  -0.021  1.00  0.00     0.026 A 
ATOM     13  C   UNL     1      -4.056  -1.675  -1.008  1.00  0.00     0.033 A 
ATOM     14  C   UNL     1      -3.206  -3.101   0.749  1.00  0.00     0.135 A 
ATOM     15  C   UNL     1      -5.137  -2.536  -1.189  1.00  0.00     0.042 A 
ATOM     16  C   UNL     1      -4.238  -4.005   0.481  1.00  0.00     0.019 A 
ATOM     17  O   UNL     1      -2.358  -3.316   1.805  1.00  0.00    -0.475 OA
ATOM     18  Cl  UNL     1      -6.320  -2.198  -2.389  1.00  0.00    -0.084 Cl
ATOM     19  C   UNL     1      -5.238  -3.695  -0.440  1.00  0.00     0.032 A 
ATOM     20  C   UNL     1      -4.265  -5.301   1.122  1.00  0.00     0.027 C 
ATOM     21  C   UNL     1      -2.199  -4.679   2.345  1.00  0.00     0.316 C 
BRANCH  12  22
ATOM     22  C   UNL     1      -1.924  -0.990   0.073  1.00  0.00    -0.012 A 
ATOM     23  C   UNL     1       1.483   1.709   0.014  1.00  0.00     0.047 C 
ATOM     24  C   UNL     1       0.295   0.796   0.034  1.00  0.00    -0.015 A 
ATOM     25  C   UNL     1      -1.011   1.291   0.056  1.00  0.00     0.007 A 
ATOM     26  C   UNL     1       0.476  -0.587   0.032  1.00  0.00     0.126 A 
ATOM     27  C   UNL     1      -2.103   0.409   0.078  1.00  0.00     0.009 A 
ATOM     28  C   UNL     1      -0.606  -1.467   0.048  1.00  0.00     0.048 A 
ATOM     29  F   UNL     1       1.718  -1.092  -0.007  1.00  0.00    -0.207 F 
ENDBRANCH  12  22
BRANCH  21  30
ATOM     30  C   UNL     1      -0.807  -5.117   1.913  1.00  0.00     0.430 C 
ATOM     31  F   UNL     1       0.102  -4.143   2.173  1.00  0.00    -0.167 F 
ATOM     32  F   UNL     1      -0.399  -6.223   2.567  1.00  0.00    -0.167 F 
ATOM     33  F   UNL     1      -0.748  -5.361   0.586  1.00  0.00    -0.167 F 
ENDBRANCH  21  30
ENDBRANCH   9  11
ENDBRANCH   8   9
ENDBRANCH   7   8
ENDBRANCH   6   7
ENDBRANCH   5   6
ENDBRANCH   4   5
ENDBRANCH   3   4
ENDBRANCH   2   3
ENDBRANCH   1   2
BRANCH   1  34
ATOM     34  C   UNL     1      -5.169  -3.871   8.501  1.00  0.00     0.188 C 
BRANCH  34  35
ATOM     35  O   UNL     1      -6.601  -3.880   8.453  1.00  0.00    -0.376 OA
BRANCH  35  36
ATOM     36  C   UNL     1      -7.429  -2.733   8.331  1.00  0.00     0.202 C 
BRANCH  36  37
ATOM     37  C   UNL     1      -7.239  -1.485   9.211  1.00  0.00     0.261 C 
BRANCH  37  38
ATOM     38  O   UNL     1      -5.947  -1.366   9.815  1.00  0.00    -0.460 OA
BRANCH  38  39
ATOM     39  C   UNL     1      -5.874  -1.766  11.119  1.00  0.00     0.338 C 
ATOM     40  O   UNL     1      -6.812  -1.949  11.875  1.00  0.00    -0.246 OA
BRANCH  39  41
ATOM     41  C   UNL     1      -4.519  -2.353  11.332  1.00  0.00     0.060 A 
ATOM     42  C   UNL     1      -3.375  -1.814  10.714  1.00  0.00     0.016 A 
ATOM     43  C   UNL     1      -4.557  -3.708  11.710  1.00  0.00     0.016 A 
ATOM     44  C   UNL     1      -2.332  -2.671  10.338  1.00  0.00     0.010 A 
ATOM     45  C   UNL     1      -3.562  -4.561  11.261  1.00  0.00     0.010 A 
ATOM     46  C   UNL     1      -2.486  -4.054  10.524  1.00  0.00    -0.014 A 
BRANCH  46  47
ATOM     47  C   UNL     1      -1.460  -5.037  10.185  1.00  0.00     0.031 A 
ATOM     48  C   UNL     1      -0.360  -5.072  11.154  1.00  0.00     0.074 A 
ATOM     49  C   UNL     1      -1.590  -5.931   9.173  1.00  0.00     0.049 A 
ATOM     50  N   UNL     1       0.847  -5.421  10.911  1.00  0.00    -0.248 NA
ATOM     51  C   UNL     1      -0.562  -4.640  12.541  1.00  0.00     0.031 C 
ATOM     52  C   UNL     1      -0.763  -7.069   8.779  1.00  0.00     0.029 A 
ATOM     53  N   UNL     1      -2.409  -5.799   8.053  1.00  0.00    -0.354 N 
ATOM     54  C   UNL     1       1.369  -5.753  12.143  1.00  0.00     0.074 A 
ATOM     55  C   UNL     1       0.583  -5.026  13.102  1.00  0.00     0.031 C 
ATOM     56  C   UNL     1      -0.765  -7.158   7.429  1.00  0.00     0.029 A 
ATOM     57  C   UNL     1      -1.533  -6.013   6.960  1.00  0.00     0.049 A 
ATOM     58  H   UNL     1      -3.373  -5.602   8.027  1.00  0.00     0.167 HD
ATOM     59  C   UNL     1       2.181  -6.846  12.220  1.00  0.00     0.037 A 
ATOM     60  C   UNL     1      -1.096  -4.942   6.223  1.00  0.00     0.037 A 
ATOM     61  C   UNL     1       2.403  -7.404  10.887  1.00  0.00     0.049 A 
ATOM     62  C   UNL     1       0.431  -4.910   6.219  1.00  0.00     0.074 A 
ATOM     63  C   UNL     1       1.951  -8.527  10.213  1.00  0.00     0.029 A 
ATOM     64  N   UNL     1       2.923  -6.572   9.918  1.00  0.00    -0.354 N 
ATOM     65  N   UNL     1       1.129  -5.378   7.230  1.00  0.00    -0.248 NA
ATOM     66  C   UNL     1       1.310  -4.540   5.107  1.00  0.00     0.031 C 
ATOM     67  C   UNL     1       2.250  -8.368   8.828  1.00  0.00     0.029 A 
ATOM     68  C   UNL     1       2.813  -7.117   8.665  1.00  0.00     0.049 A 
ATOM     69  H   UNL     1       3.326  -5.693  10.104  1.00  0.00     0.167 HD
ATOM     70  C   UNL     1       2.431  -5.578   6.845  1.00  0.00     0.074 A 
ATOM     71  C   UNL     1       2.525  -4.907   5.564  1.00  0.00     0.031 C 
ATOM     72  C   UNL     1       3.317  -6.345   7.552  1.00  0.00     0.037 A 
BRANCH  59  73
ATOM     73  C   UNL     1       2.534  -7.579  13.488  1.00  0.00     0.057 A 
ATOM     74  C   UNL     1       2.908  -8.938  13.443  1.00  0.00     0.134 A 
ATOM     75  C   UNL     1       2.553  -7.020  14.777  1.00  0.00     0.134 A 
ATOM     76  F   UNL     1       3.011  -9.614  12.293  1.00  0.00    -0.206 F 
ATOM     77  C   UNL     1       3.216  -9.690  14.579  1.00  0.00     0.040 A 
ATOM     78  C   UNL     1       2.829  -7.770  15.929  1.00  0.00     0.040 A 
ATOM     79  F   UNL     1       2.371  -5.712  14.986  1.00  0.00    -0.206 F 
ATOM     80  C   UNL     1       3.165  -9.111  15.833  1.00  0.00     0.006 A 
ENDBRANCH  59  73
BRANCH  60  81
ATOM     81  C   UNL     1      -2.181  -3.869   6.128  1.00  0.00     0.057 A 
ATOM     82  C   UNL     1      -3.826  -4.576   6.097  1.00  0.00     0.134 A 
ATOM     83  C   UNL     1      -2.089  -2.159   6.341  1.00  0.00     0.134 A 
ATOM     84  F   UNL     1      -3.765  -5.497   5.164  1.00  0.00    -0.206 F 
ATOM     85  C   UNL     1      -5.379  -3.574   6.265  1.00  0.00     0.040 A 
ATOM     86  C   UNL     1      -3.515  -1.104   6.457  1.00  0.00     0.040 A 
ATOM     87  F   UNL     1      -0.886  -1.616   6.591  1.00  0.00    -0.206 F 
ATOM     88  C   UNL     1      -5.172  -1.775   6.435  1.00  0.00     0.006 A 
ENDBRANCH  60  81
BRANCH  72  89
ATOM     89  C   UNL     1       4.793  -6.381   7.303  1.00  0.00     0.057 A 
ATOM     90  C   UNL     1       5.366  -6.492   6.039  1.00  0.00     0.134 A 
ATOM     91  C   UNL     1       5.700  -6.292   8.385  1.00  0.00     0.134 A 
ATOM     92  F   UNL     1       4.616  -6.763   4.962  1.00  0.00    -0.206 F 
ATOM     93  C   UNL     1       6.742  -6.330   5.846  1.00  0.00     0.040 A 
ATOM     94  C   UNL     1       7.075  -6.184   8.210  1.00  0.00     0.040 A 
ATOM     95  F   UNL     1       5.299  -6.265   9.663  1.00  0.00    -0.206 F 
ATOM     96  C   UNL     1       7.596  -6.147   6.931  1.00  0.00     0.006 A 
ENDBRANCH  72  89
ENDBRANCH  46  47
ENDBRANCH  39  41
ENDBRANCH  38  39
ENDBRANCH  37  38
ENDBRANCH  36  37
ENDBRANCH  35  36
ENDBRANCH  34  35
ENDBRANCH   1  34
TORSDOF 22
