REMARK SMILES Cc1cc(C(=O)Nc2nc(CC(=O)OCCOCCOCCOCCOC(=O)c3ccc(-c4c5nc(c(-c6c(F)cccc6F)c6ccc([nH]6)c(-c6c(F)cccc6F)c6nc(c(-c7c(F)cccc7F)c7ccc4[nH]7)C=C6)C=C5)cc3)cs2)sc1C
REMARK SMILES IDX 19 1 18 2 17 3 16 4 15 5 14 6 12 7 13 8 11 9 10 10 8 11 9 12
REMARK SMILES IDX 84 13 83 14 7 15 5 16 6 17 4 19 1 20 2 21 3 22 86 23 85 24
REMARK SMILES IDX 87 25 20 26 21 27 22 28 23 29 24 30 25 31 26 32 27 33 28 34
REMARK SMILES IDX 29 35 30 36 82 37 31 38 81 39 32 40 33 41 34 42 75 43 35 44
REMARK SMILES IDX 80 45 74 46 76 47 36 48 79 49 73 50 72 51 37 53 63 54 46 55
REMARK SMILES IDX 62 56 47 57 50 58 61 59 77 60 48 61 49 62 60 64 78 65 51 66
REMARK SMILES IDX 38 67 39 68 44 69 40 70 41 71 43 72 45 73 42 74 64 75 65 76
REMARK SMILES IDX 70 77 66 78 67 79 69 80 71 81 68 82 52 83 53 84 58 85 54 86
REMARK SMILES IDX 55 87 57 88 59 89 56 90
REMARK H PARENT 7 18 76 52 50 63
REMARK Flexibility Score: inf
ROOT
ATOM      1  C   UNL     1       6.525   3.024   1.126  1.00  0.00     0.188 C 
ENDROOT
BRANCH   1   2
ATOM      2  C   UNL     1       6.354   4.506   1.477  1.00  0.00     0.188 C 
BRANCH   2   3
ATOM      3  O   UNL     1       6.743   4.992   2.753  1.00  0.00    -0.376 OA
BRANCH   3   4
ATOM      4  C   UNL     1       6.767   4.115   3.869  1.00  0.00     0.202 C 
BRANCH   4   5
ATOM      5  C   UNL     1       5.471   3.392   4.295  1.00  0.00     0.261 C 
BRANCH   5   6
ATOM      6  O   UNL     1       4.758   2.640   3.281  1.00  0.00    -0.463 OA
BRANCH   6   7
ATOM      7  C   UNL     1       3.555   3.127   2.889  1.00  0.00     0.311 C 
ATOM      8  O   UNL     1       3.051   4.140   3.373  1.00  0.00    -0.252 OA
BRANCH   7   9
ATOM      9  C   UNL     1       2.822   2.375   1.792  1.00  0.00     0.179 C 
BRANCH   9  10
ATOM     10  C   UNL     1       3.476   1.274   1.003  1.00  0.00     0.065 A 
ATOM     11  C   UNL     1       3.624  -0.832   0.358  1.00  0.00     0.189 A 
ATOM     12  N   UNL     1       3.126  -0.045   1.280  1.00  0.00    -0.224 NA
ATOM     13  S   UNL     1       4.756  -0.138  -0.708  1.00  0.00    -0.105 S 
ATOM     14  C   UNL     1       4.173   1.399  -0.197  1.00  0.00     0.093 A 
BRANCH  11  15
ATOM     15  N   UNL     1       3.208  -2.073  -0.011  1.00  0.00    -0.297 N 
ATOM     16  C   UNL     1       1.887  -2.469  -0.070  1.00  0.00     0.267 C 
ATOM     17  O   UNL     1       1.679  -3.684  -0.153  1.00  0.00    -0.268 OA
ATOM     18  H   UNL     1       3.897  -2.735  -0.251  1.00  0.00     0.172 HD
BRANCH  16  19
ATOM     19  C   UNL     1       0.786  -1.502  -0.149  1.00  0.00     0.093 A 
ATOM     20  C   UNL     1      -2.838  -0.528   0.248  1.00  0.00     0.045 C 
ATOM     21  C   UNL     1      -1.367  -0.549   0.015  1.00  0.00    -0.037 A 
ATOM     22  C   UNL     1      -0.550  -1.728   0.140  1.00  0.00     0.029 A 
ATOM     23  C   UNL     1      -0.585   0.546  -0.308  1.00  0.00     0.005 A 
ATOM     24  S   UNL     1       0.919   0.029  -0.918  1.00  0.00    -0.135 S 
ATOM     25  C   UNL     1      -0.913   2.001  -0.288  1.00  0.00     0.056 C 
ENDBRANCH  16  19
ENDBRANCH  11  15
ENDBRANCH   9  10
ENDBRANCH   7   9
ENDBRANCH   6   7
ENDBRANCH   5   6
ENDBRANCH   4   5
ENDBRANCH   3   4
ENDBRANCH   2   3
ENDBRANCH   1   2
BRANCH   1  26
ATOM     26  O   UNL     1       7.249   2.228   2.035  1.00  0.00    -0.377 OA
BRANCH  26  27
ATOM     27  C   UNL     1       8.598   1.950   1.724  1.00  0.00     0.188 C 
BRANCH  27  28
ATOM     28  C   UNL     1       9.399   3.085   1.074  1.00  0.00     0.188 C 
BRANCH  28  29
ATOM     29  O   UNL     1       8.789   3.609  -0.101  1.00  0.00    -0.376 OA
BRANCH  29  30
ATOM     30  C   UNL     1       9.208   3.118  -1.366  1.00  0.00     0.202 C 
BRANCH  30  31
ATOM     31  C   UNL     1       8.846   1.667  -1.734  1.00  0.00     0.261 C 
BRANCH  31  32
ATOM     32  O   UNL     1       9.348   0.634  -0.871  1.00  0.00    -0.460 OA
BRANCH  32  33
ATOM     33  C   UNL     1      10.685   0.564  -0.690  1.00  0.00     0.338 C 
ATOM     34  O   UNL     1      11.533   1.233  -1.240  1.00  0.00    -0.246 OA
BRANCH  33  35
ATOM     35  C   UNL     1      10.947  -0.332   0.461  1.00  0.00     0.060 A 
ATOM     36  C   UNL     1      11.637   0.192   1.560  1.00  0.00     0.016 A 
ATOM     37  C   UNL     1      10.532  -1.667   0.458  1.00  0.00     0.016 A 
ATOM     38  C   UNL     1      11.955  -0.629   2.640  1.00  0.00     0.010 A 
ATOM     39  C   UNL     1      10.873  -2.496   1.534  1.00  0.00     0.010 A 
ATOM     40  C   UNL     1      11.620  -1.990   2.612  1.00  0.00    -0.014 A 
BRANCH  40  41
ATOM     41  C   UNL     1      12.221  -2.889   3.628  1.00  0.00     0.031 A 
ATOM     42  C   UNL     1      13.457  -3.667   3.264  1.00  0.00     0.074 A 
ATOM     43  C   UNL     1      11.735  -2.942   4.881  1.00  0.00     0.049 A 
ATOM     44  N   UNL     1      14.196  -4.452   4.007  1.00  0.00    -0.248 NA
ATOM     45  C   UNL     1      13.927  -3.538   1.875  1.00  0.00     0.031 C 
ATOM     46  C   UNL     1      10.569  -2.207   5.367  1.00  0.00     0.029 A 
ATOM     47  N   UNL     1      12.176  -3.639   5.978  1.00  0.00    -0.354 N 
ATOM     48  C   UNL     1      15.219  -4.902   3.180  1.00  0.00     0.074 A 
ATOM     49  C   UNL     1      14.982  -4.338   1.869  1.00  0.00     0.031 C 
ATOM     50  C   UNL     1      10.388  -2.489   6.669  1.00  0.00     0.029 A 
ATOM     51  C   UNL     1      11.410  -3.441   7.101  1.00  0.00     0.049 A 
ATOM     52  H   UNL     1      12.966  -4.226   5.962  1.00  0.00     0.167 HD
ATOM     53  C   UNL     1      16.269  -5.700   3.488  1.00  0.00     0.037 A 
ATOM     54  C   UNL     1      11.518  -3.976   8.333  1.00  0.00     0.037 A 
ATOM     55  C   UNL     1      16.498  -6.269   4.791  1.00  0.00     0.049 A 
ATOM     56  C   UNL     1      12.654  -4.922   8.628  1.00  0.00     0.074 A 
ATOM     57  C   UNL     1      17.535  -7.086   5.206  1.00  0.00     0.029 A 
ATOM     58  N   UNL     1      15.669  -6.090   5.889  1.00  0.00    -0.354 N 
ATOM     59  N   UNL     1      13.633  -5.315   7.848  1.00  0.00    -0.248 NA
ATOM     60  C   UNL     1      12.704  -5.490   9.983  1.00  0.00     0.031 C 
ATOM     61  C   UNL     1      17.303  -7.448   6.537  1.00  0.00     0.029 A 
ATOM     62  C   UNL     1      16.157  -6.803   6.972  1.00  0.00     0.049 A 
ATOM     63  H   UNL     1      14.855  -5.537   5.897  1.00  0.00     0.167 HD
ATOM     64  C   UNL     1      14.429  -6.151   8.625  1.00  0.00     0.074 A 
ATOM     65  C   UNL     1      13.832  -6.183   9.944  1.00  0.00     0.031 C 
ATOM     66  C   UNL     1      15.550  -6.832   8.280  1.00  0.00     0.037 A 
BRANCH  53  67
ATOM     67  C   UNL     1      17.236  -6.028   2.386  1.00  0.00     0.057 A 
ATOM     68  C   UNL     1      18.108  -5.070   1.853  1.00  0.00     0.134 A 
ATOM     69  C   UNL     1      17.320  -7.330   1.875  1.00  0.00     0.134 A 
ATOM     70  F   UNL     1      18.070  -3.800   2.285  1.00  0.00    -0.206 F 
ATOM     71  C   UNL     1      19.012  -5.389   0.838  1.00  0.00     0.040 A 
ATOM     72  C   UNL     1      18.239  -7.668   0.881  1.00  0.00     0.040 A 
ATOM     73  F   UNL     1      16.516  -8.298   2.342  1.00  0.00    -0.206 F 
ATOM     74  C   UNL     1      19.085  -6.694   0.355  1.00  0.00     0.006 A 
ENDBRANCH  53  67
BRANCH  54  75
ATOM     75  C   UNL     1      10.523  -3.644   9.386  1.00  0.00     0.057 A 
ATOM     76  C   UNL     1      10.885  -2.936  10.538  1.00  0.00     0.134 A 
ATOM     77  C   UNL     1       9.192  -4.070   9.286  1.00  0.00     0.134 A 
ATOM     78  F   UNL     1      12.149  -2.522  10.707  1.00  0.00    -0.206 F 
ATOM     79  C   UNL     1       9.969  -2.687  11.563  1.00  0.00     0.040 A 
ATOM     80  C   UNL     1       8.259  -3.801  10.288  1.00  0.00     0.040 A 
ATOM     81  F   UNL     1       8.779  -4.755   8.209  1.00  0.00    -0.206 F 
ATOM     82  C   UNL     1       8.650  -3.116  11.437  1.00  0.00     0.006 A 
ENDBRANCH  54  75
BRANCH  66  83
ATOM     83  C   UNL     1      16.219  -7.639   9.358  1.00  0.00     0.057 A 
ATOM     84  C   UNL     1      15.628  -8.787   9.903  1.00  0.00     0.134 A 
ATOM     85  C   UNL     1      17.472  -7.261   9.859  1.00  0.00     0.134 A 
ATOM     86  F   UNL     1      14.426  -9.202   9.476  1.00  0.00    -0.206 F 
ATOM     87  C   UNL     1      16.235  -9.500  10.940  1.00  0.00     0.040 A 
ATOM     88  C   UNL     1      18.105  -7.987  10.870  1.00  0.00     0.040 A 
ATOM     89  F   UNL     1      18.104  -6.183   9.374  1.00  0.00    -0.206 F 
ATOM     90  C   UNL     1      17.479  -9.101  11.424  1.00  0.00     0.006 A 
ENDBRANCH  66  83
ENDBRANCH  40  41
ENDBRANCH  33  35
ENDBRANCH  32  33
ENDBRANCH  31  32
ENDBRANCH  30  31
ENDBRANCH  29  30
ENDBRANCH  28  29
ENDBRANCH  27  28
ENDBRANCH  26  27
ENDBRANCH   1  26
TORSDOF 23
