REMARK SMILES CN(CCOCC1CC1)C(=O)N1CC[C@](C)(C(=O)OCCOCCOCCOCCOC(=O)c2ccc(-c3c4nc(c(-c5c(F)cccc5F)c5ccc([nH]5)c(-c5c(F)cccc5F)c5nc(c(-c6c(F)cccc6F)c6ccc3[nH]6)C=C5)C=C4)cc2)C1
REMARK SMILES IDX 23 1 22 2 21 3 20 4 19 5 17 6 18 7 15 8 12 9 13 10 88 11
REMARK SMILES IDX 14 12 16 13 10 14 11 15 2 16 1 17 3 18 4 19 5 20 6 21 7 22
REMARK SMILES IDX 8 23 9 24 24 25 25 26 26 27 27 28 28 29 29 30 30 31 31 32
REMARK SMILES IDX 32 33 33 34 34 35 35 36 87 37 36 38 86 39 37 40 38 41 39 42
REMARK SMILES IDX 80 43 40 44 85 45 79 46 81 47 41 48 84 49 78 50 77 51 42 53
REMARK SMILES IDX 68 54 51 55 67 56 52 57 55 58 66 59 82 60 53 61 54 62 65 64
REMARK SMILES IDX 83 65 56 66 43 67 44 68 49 69 45 70 46 71 48 72 50 73 47 74
REMARK SMILES IDX 69 75 70 76 75 77 71 78 72 79 74 80 76 81 73 82 57 83 58 84
REMARK SMILES IDX 63 85 59 86 60 87 62 88 64 89 61 90
REMARK H PARENT 81 52 55 63
REMARK Flexibility Score: inf
ROOT
ATOM      1  C   UNL     1      -2.259  -5.591  -4.781  1.00  0.00     0.188 C 
ENDROOT
BRANCH   1   2
ATOM      2  O   UNL     1      -3.610  -5.870  -5.096  1.00  0.00    -0.376 OA
BRANCH   2   3
ATOM      3  C   UNL     1      -4.588  -5.841  -4.064  1.00  0.00     0.202 C 
BRANCH   3   4
ATOM      4  C   UNL     1      -4.318  -6.451  -2.674  1.00  0.00     0.261 C 
BRANCH   4   5
ATOM      5  O   UNL     1      -3.202  -5.923  -1.916  1.00  0.00    -0.463 OA
BRANCH   5   6
ATOM      6  C   UNL     1      -2.195  -6.796  -1.678  1.00  0.00     0.313 C 
ATOM      7  O   UNL     1      -2.180  -7.945  -2.118  1.00  0.00    -0.252 OA
BRANCH   6   8
ATOM      8  C   UNL     1      -1.052  -6.287  -0.801  1.00  0.00     0.084 C 
ATOM      9  N   UNL     1       0.546  -4.503  -0.459  1.00  0.00    -0.323 N 
ATOM     10  C   UNL     1       1.277  -5.638  -0.992  1.00  0.00     0.122 C 
ATOM     11  C   UNL     1      -0.913  -4.783  -0.486  1.00  0.00     0.139 C 
ATOM     12  C   UNL     1       0.244  -6.572  -1.577  1.00  0.00     0.042 C 
ATOM     13  C   UNL     1      -1.124  -7.089   0.507  1.00  0.00     0.026 C 
BRANCH   9  14
ATOM     14  C   UNL     1       1.284  -3.358  -0.242  1.00  0.00     0.319 C 
ATOM     15  O   UNL     1       2.401  -3.248  -0.766  1.00  0.00    -0.248 OA
BRANCH  14  16
ATOM     16  N   UNL     1       0.831  -2.334   0.559  1.00  0.00    -0.325 N 
ATOM     17  C   UNL     1       1.637  -1.111   0.569  1.00  0.00     0.148 C 
BRANCH  16  18
ATOM     18  C   UNL     1      -0.283  -2.376   1.494  1.00  0.00     0.149 C 
BRANCH  18  19
ATOM     19  C   UNL     1      -1.547  -1.621   1.044  1.00  0.00     0.181 C 
BRANCH  19  20
ATOM     20  O   UNL     1      -2.037  -1.934  -0.255  1.00  0.00    -0.379 OA
BRANCH  20  21
ATOM     21  C   UNL     1      -1.319  -1.351  -1.339  1.00  0.00     0.163 C 
BRANCH  21  22
ATOM     22  C   UNL     1      -1.790   0.029  -1.643  1.00  0.00     0.015 C 
ATOM     23  C   UNL     1      -1.360   1.240  -0.858  1.00  0.00     0.006 C 
ATOM     24  C   UNL     1      -0.808   1.015  -2.234  1.00  0.00     0.006 C 
ENDBRANCH  21  22
ENDBRANCH  20  21
ENDBRANCH  19  20
ENDBRANCH  18  19
ENDBRANCH  16  18
ENDBRANCH  14  16
ENDBRANCH   9  14
ENDBRANCH   6   8
ENDBRANCH   5   6
ENDBRANCH   4   5
ENDBRANCH   3   4
ENDBRANCH   2   3
ENDBRANCH   1   2
BRANCH   1  25
ATOM     25  C   UNL     1      -1.915  -4.271  -4.084  1.00  0.00     0.188 C 
BRANCH  25  26
ATOM     26  O   UNL     1      -2.971  -3.669  -3.361  1.00  0.00    -0.377 OA
BRANCH  26  27
ATOM     27  C   UNL     1      -3.694  -2.581  -3.927  1.00  0.00     0.188 C 
BRANCH  27  28
ATOM     28  C   UNL     1      -3.703  -2.398  -5.447  1.00  0.00     0.188 C 
BRANCH  28  29
ATOM     29  O   UNL     1      -2.456  -2.113  -6.082  1.00  0.00    -0.376 OA
BRANCH  29  30
ATOM     30  C   UNL     1      -1.554  -1.210  -5.441  1.00  0.00     0.202 C 
BRANCH  30  31
ATOM     31  C   UNL     1      -1.918   0.259  -5.584  1.00  0.00     0.261 C 
BRANCH  31  32
ATOM     32  O   UNL     1      -2.965   0.583  -4.651  1.00  0.00    -0.460 OA
BRANCH  32  33
ATOM     33  C   UNL     1      -4.121   0.999  -5.196  1.00  0.00     0.338 C 
ATOM     34  O   UNL     1      -4.342   1.232  -6.378  1.00  0.00    -0.246 OA
BRANCH  33  35
ATOM     35  C   UNL     1      -5.189   0.967  -4.184  1.00  0.00     0.060 A 
ATOM     36  C   UNL     1      -6.375   0.318  -4.541  1.00  0.00     0.016 A 
ATOM     37  C   UNL     1      -5.083   1.632  -2.958  1.00  0.00     0.016 A 
ATOM     38  C   UNL     1      -7.492   0.410  -3.720  1.00  0.00     0.010 A 
ATOM     39  C   UNL     1      -6.209   1.721  -2.130  1.00  0.00     0.010 A 
ATOM     40  C   UNL     1      -7.434   1.164  -2.540  1.00  0.00    -0.014 A 
BRANCH  40  41
ATOM     41  C   UNL     1      -8.712   1.538  -1.885  1.00  0.00     0.031 A 
ATOM     42  C   UNL     1      -9.281   2.909  -2.143  1.00  0.00     0.074 A 
ATOM     43  C   UNL     1      -9.411   0.642  -1.165  1.00  0.00     0.049 A 
ATOM     44  N   UNL     1     -10.406   3.434  -1.729  1.00  0.00    -0.248 NA
ATOM     45  C   UNL     1      -8.477   3.808  -2.989  1.00  0.00     0.031 C 
ATOM     46  C   UNL     1      -9.000  -0.734  -0.897  1.00  0.00     0.029 A 
ATOM     47  N   UNL     1     -10.629   0.759  -0.542  1.00  0.00    -0.354 N 
ATOM     48  C   UNL     1     -10.439   4.721  -2.253  1.00  0.00     0.074 A 
ATOM     49  C   UNL     1      -9.211   4.911  -2.992  1.00  0.00     0.031 C 
ATOM     50  C   UNL     1      -9.954  -1.339  -0.168  1.00  0.00     0.029 A 
ATOM     51  C   UNL     1     -11.025  -0.383   0.110  1.00  0.00     0.049 A 
ATOM     52  H   UNL     1     -11.167   1.583  -0.561  1.00  0.00     0.167 HD
ATOM     53  C   UNL     1     -11.409   5.658  -2.139  1.00  0.00     0.037 A 
ATOM     54  C   UNL     1     -12.120  -0.621   0.858  1.00  0.00     0.037 A 
ATOM     55  C   UNL     1     -12.641   5.464  -1.420  1.00  0.00     0.049 A 
ATOM     56  C   UNL     1     -13.145   0.471   1.037  1.00  0.00     0.074 A 
ATOM     57  C   UNL     1     -13.700   6.343  -1.276  1.00  0.00     0.029 A 
ATOM     58  N   UNL     1     -12.975   4.316  -0.719  1.00  0.00    -0.354 N 
ATOM     59  N   UNL     1     -13.181   1.671   0.510  1.00  0.00    -0.248 NA
ATOM     60  C   UNL     1     -14.284   0.171   1.917  1.00  0.00     0.031 C 
ATOM     61  C   UNL     1     -14.644   5.755  -0.430  1.00  0.00     0.029 A 
ATOM     62  C   UNL     1     -14.205   4.481  -0.105  1.00  0.00     0.049 A 
ATOM     63  H   UNL     1     -12.419   3.505  -0.665  1.00  0.00     0.167 HD
ATOM     64  C   UNL     1     -14.361   2.252   0.962  1.00  0.00     0.074 A 
ATOM     65  C   UNL     1     -15.018   1.267   1.795  1.00  0.00     0.031 C 
ATOM     66  C   UNL     1     -14.857   3.489   0.711  1.00  0.00     0.037 A 
BRANCH  53  67
ATOM     67  C   UNL     1     -11.167   6.997  -2.773  1.00  0.00     0.057 A 
ATOM     68  C   UNL     1     -11.186   7.184  -4.160  1.00  0.00     0.134 A 
ATOM     69  C   UNL     1     -10.965   8.130  -1.972  1.00  0.00     0.134 A 
ATOM     70  F   UNL     1     -11.360   6.140  -4.985  1.00  0.00    -0.206 F 
ATOM     71  C   UNL     1     -10.996   8.445  -4.729  1.00  0.00     0.040 A 
ATOM     72  C   UNL     1     -10.803   9.399  -2.527  1.00  0.00     0.040 A 
ATOM     73  F   UNL     1     -10.940   8.022  -0.635  1.00  0.00    -0.206 F 
ATOM     74  C   UNL     1     -10.814   9.559  -3.911  1.00  0.00     0.006 A 
ENDBRANCH  53  67
BRANCH  54  75
ATOM     75  C   UNL     1     -12.309  -1.939   1.520  1.00  0.00     0.057 A 
ATOM     76  C   UNL     1     -13.371  -2.783   1.174  1.00  0.00     0.134 A 
ATOM     77  C   UNL     1     -11.467  -2.357   2.558  1.00  0.00     0.134 A 
ATOM     78  F   UNL     1     -14.228  -2.429   0.206  1.00  0.00    -0.206 F 
ATOM     79  C   UNL     1     -13.608  -3.978   1.856  1.00  0.00     0.040 A 
ATOM     80  C   UNL     1     -11.673  -3.564   3.227  1.00  0.00     0.040 A 
ATOM     81  F   UNL     1     -10.432  -1.595   2.941  1.00  0.00    -0.206 F 
ATOM     82  C   UNL     1     -12.755  -4.373   2.885  1.00  0.00     0.006 A 
ENDBRANCH  54  75
BRANCH  66  83
ATOM     83  C   UNL     1     -16.195   3.832   1.301  1.00  0.00     0.057 A 
ATOM     84  C   UNL     1     -16.376   4.029   2.676  1.00  0.00     0.134 A 
ATOM     85  C   UNL     1     -17.314   4.006   0.473  1.00  0.00     0.134 A 
ATOM     86  F   UNL     1     -15.350   3.870   3.526  1.00  0.00    -0.206 F 
ATOM     87  C   UNL     1     -17.624   4.356   3.209  1.00  0.00     0.040 A 
ATOM     88  C   UNL     1     -18.559   4.364   0.991  1.00  0.00     0.040 A 
ATOM     89  F   UNL     1     -17.210   3.846  -0.855  1.00  0.00    -0.206 F 
ATOM     90  C   UNL     1     -18.719   4.531   2.365  1.00  0.00     0.006 A 
ENDBRANCH  66  83
ENDBRANCH  40  41
ENDBRANCH  33  35
ENDBRANCH  32  33
ENDBRANCH  31  32
ENDBRANCH  30  31
ENDBRANCH  29  30
ENDBRANCH  28  29
ENDBRANCH  27  28
ENDBRANCH  26  27
ENDBRANCH  25  26
ENDBRANCH   1  25
TORSDOF 27
