REMARK SMILES CC[C@@](C)([NH2+]CC(=O)N[C@@H](C)c1ccc(F)cc1)C(=O)OCCOCCOCCOCCOC(=O)c1ccc(-c2c3nc(c(-c4c(F)cccc4F)c4ccc([nH]4)c(-c4c(F)cccc4F)c4nc(c(-c5c(F)cccc5F)c5ccc2[nH]5)C=C4)C=C3)cc1
REMARK SMILES IDX 25 1 24 2 23 3 22 4 21 5 19 6 20 7 3 8 4 9 2 10 1 11 5 12
REMARK SMILES IDX 6 15 7 16 8 17 9 18 10 20 11 21 12 22 13 23 18 24 14 25
REMARK SMILES IDX 17 26 15 27 16 28 26 29 27 30 28 31 29 32 30 33 31 34 32 35
REMARK SMILES IDX 33 36 34 37 35 38 36 39 37 40 89 41 38 42 88 43 39 44 40 45
REMARK SMILES IDX 41 46 82 47 42 48 87 49 81 50 83 51 43 52 86 53 80 54 79 55
REMARK SMILES IDX 44 57 70 58 53 59 69 60 54 61 57 62 68 63 84 64 55 65 56 66
REMARK SMILES IDX 67 68 85 69 58 70 45 71 46 72 51 73 47 74 48 75 50 76 52 77
REMARK SMILES IDX 49 78 71 79 72 80 77 81 73 82 74 83 76 84 78 85 75 86 59 87
REMARK SMILES IDX 60 88 65 89 61 90 62 91 64 92 66 93 63 94
REMARK H PARENT 5 13 5 14 9 19 83 56 57 67
REMARK Flexibility Score: inf
ROOT
ATOM      1  C   UNL     1       3.527   0.992  -2.899  1.00  0.00     0.188 C 
ENDROOT
BRANCH   1   2
ATOM      2  O   UNL     1       4.867   0.642  -2.588  1.00  0.00    -0.376 OA
BRANCH   2   3
ATOM      3  C   UNL     1       5.186  -0.685  -2.200  1.00  0.00     0.202 C 
BRANCH   3   4
ATOM      4  C   UNL     1       4.147  -1.666  -1.637  1.00  0.00     0.261 C 
BRANCH   4   5
ATOM      5  O   UNL     1       2.781  -1.441  -2.003  1.00  0.00    -0.459 OA
BRANCH   5   6
ATOM      6  C   UNL     1       1.792  -1.319  -1.072  1.00  0.00     0.367 C 
ATOM      7  O   UNL     1       2.004  -1.264   0.133  1.00  0.00    -0.245 OA
BRANCH   6   8
ATOM      8  C   UNL     1       0.364  -1.279  -1.747  1.00  0.00     0.191 C 
ATOM      9  C   UNL     1      -0.847  -1.968  -1.090  1.00  0.00     0.092 C 
BRANCH   8  10
ATOM     10  C   UNL     1       0.000   0.245  -1.731  1.00  0.00     0.077 C 
ATOM     11  C   UNL     1       0.074   0.870  -0.320  1.00  0.00     0.011 C 
ENDBRANCH   8  10
BRANCH   8  12
ATOM     12  N   UNL     1       0.409  -1.901  -3.109  1.00  0.00    -0.325 N 
ATOM     13  H   UNL     1       0.947  -1.274  -3.707  1.00  0.00     0.347 HD
ATOM     14  H   UNL     1      -0.572  -2.028  -3.356  1.00  0.00     0.347 HD
BRANCH  12  15
ATOM     15  C   UNL     1       1.003  -3.269  -3.254  1.00  0.00     0.362 C 
BRANCH  15  16
ATOM     16  C   UNL     1       0.331  -4.448  -2.512  1.00  0.00     0.275 C 
ATOM     17  O   UNL     1      -0.659  -5.005  -2.999  1.00  0.00    -0.268 OA
ATOM     18  N   UNL     1       0.816  -4.955  -1.322  1.00  0.00    -0.345 N 
ATOM     19  H   UNL     1       0.516  -5.867  -1.102  1.00  0.00     0.164 HD
BRANCH  18  20
ATOM     20  C   UNL     1       1.705  -4.341  -0.342  1.00  0.00     0.109 C 
ATOM     21  C   UNL     1       1.006  -4.043   0.997  1.00  0.00     0.036 C 
BRANCH  20  22
ATOM     22  C   UNL     1       3.049  -4.985  -0.080  1.00  0.00    -0.026 A 
ATOM     23  C   UNL     1       4.020  -4.199   0.591  1.00  0.00     0.009 A 
ATOM     24  C   UNL     1       3.389  -6.279  -0.464  1.00  0.00     0.009 A 
ATOM     25  C   UNL     1       5.307  -4.664   0.822  1.00  0.00     0.039 A 
ATOM     26  C   UNL     1       4.678  -6.759  -0.205  1.00  0.00     0.039 A 
ATOM     27  C   UNL     1       5.624  -5.948   0.420  1.00  0.00     0.123 A 
ATOM     28  F   UNL     1       6.859  -6.414   0.639  1.00  0.00    -0.207 F 
ENDBRANCH  20  22
ENDBRANCH  18  20
ENDBRANCH  15  16
ENDBRANCH  12  15
ENDBRANCH   8  12
ENDBRANCH   6   8
ENDBRANCH   5   6
ENDBRANCH   4   5
ENDBRANCH   3   4
ENDBRANCH   2   3
ENDBRANCH   1   2
BRANCH   1  29
ATOM     29  C   UNL     1       2.841   0.315  -4.107  1.00  0.00     0.188 C 
BRANCH  29  30
ATOM     30  O   UNL     1       3.431  -0.900  -4.531  1.00  0.00    -0.377 OA
BRANCH  30  31
ATOM     31  C   UNL     1       4.509  -0.840  -5.449  1.00  0.00     0.188 C 
BRANCH  31  32
ATOM     32  C   UNL     1       5.343   0.450  -5.595  1.00  0.00     0.188 C 
BRANCH  32  33
ATOM     33  O   UNL     1       4.609   1.661  -5.521  1.00  0.00    -0.376 OA
BRANCH  33  34
ATOM     34  C   UNL     1       4.180   2.291  -6.718  1.00  0.00     0.202 C 
BRANCH  34  35
ATOM     35  C   UNL     1       3.220   1.525  -7.643  1.00  0.00     0.261 C 
BRANCH  35  36
ATOM     36  O   UNL     1       3.671   0.247  -8.117  1.00  0.00    -0.460 OA
BRANCH  36  37
ATOM     37  C   UNL     1       4.817   0.197  -8.824  1.00  0.00     0.338 C 
ATOM     38  O   UNL     1       5.516   1.140  -9.167  1.00  0.00    -0.246 OA
BRANCH  37  39
ATOM     39  C   UNL     1       5.199  -1.224  -8.952  1.00  0.00     0.060 A 
ATOM     40  C   UNL     1       6.386  -1.671  -8.354  1.00  0.00     0.016 A 
ATOM     41  C   UNL     1       4.371  -2.119  -9.632  1.00  0.00     0.016 A 
ATOM     42  C   UNL     1       6.753  -3.014  -8.446  1.00  0.00     0.010 A 
ATOM     43  C   UNL     1       4.758  -3.456  -9.753  1.00  0.00     0.010 A 
ATOM     44  C   UNL     1       5.961  -3.905  -9.179  1.00  0.00    -0.014 A 
BRANCH  44  45
ATOM     45  C   UNL     1       6.463  -5.264  -9.491  1.00  0.00     0.031 A 
ATOM     46  C   UNL     1       7.131  -5.492 -10.818  1.00  0.00     0.074 A 
ATOM     47  C   UNL     1       6.331  -6.278  -8.617  1.00  0.00     0.049 A 
ATOM     48  N   UNL     1       7.549  -6.608 -11.355  1.00  0.00    -0.248 NA
ATOM     49  C   UNL     1       7.361  -4.299 -11.652  1.00  0.00     0.031 C 
ATOM     50  C   UNL     1       5.756  -6.170  -7.278  1.00  0.00     0.029 A 
ATOM     51  N   UNL     1       6.660  -7.607  -8.737  1.00  0.00    -0.354 N 
ATOM     52  C   UNL     1       8.080  -6.255 -12.589  1.00  0.00     0.074 A 
ATOM     53  C   UNL     1       7.919  -4.826 -12.732  1.00  0.00     0.031 C 
ATOM     54  C   UNL     1       5.750  -7.389  -6.708  1.00  0.00     0.029 A 
ATOM     55  C   UNL     1       6.279  -8.368  -7.658  1.00  0.00     0.049 A 
ATOM     56  H   UNL     1       7.123  -7.979  -9.522  1.00  0.00     0.167 HD
ATOM     57  C   UNL     1       8.654  -7.056 -13.515  1.00  0.00     0.037 A 
ATOM     58  C   UNL     1       6.317  -9.704  -7.475  1.00  0.00     0.037 A 
ATOM     59  C   UNL     1       8.821  -8.476 -13.363  1.00  0.00     0.049 A 
ATOM     60  C   UNL     1       6.875 -10.585  -8.565  1.00  0.00     0.074 A 
ATOM     61  C   UNL     1       9.417  -9.365 -14.239  1.00  0.00     0.029 A 
ATOM     62  N   UNL     1       8.386  -9.213 -12.274  1.00  0.00    -0.354 N 
ATOM     63  N   UNL     1       7.395 -10.242  -9.719  1.00  0.00    -0.248 NA
ATOM     64  C   UNL     1       6.843 -12.038  -8.335  1.00  0.00     0.031 C 
ATOM     65  C   UNL     1       9.287 -10.650 -13.710  1.00  0.00     0.029 A 
ATOM     66  C   UNL     1       8.666 -10.554 -12.475  1.00  0.00     0.049 A 
ATOM     67  H   UNL     1       7.945  -8.840 -11.477  1.00  0.00     0.167 HD
ATOM     68  C   UNL     1       7.771 -11.429 -10.338  1.00  0.00     0.074 A 
ATOM     69  C   UNL     1       7.435 -12.502  -9.428  1.00  0.00     0.031 C 
ATOM     70  C   UNL     1       8.338 -11.612 -11.555  1.00  0.00     0.037 A 
BRANCH  57  71
ATOM     71  C   UNL     1       9.140  -6.436 -14.790  1.00  0.00     0.057 A 
ATOM     72  C   UNL     1       8.493  -6.712 -16.002  1.00  0.00     0.134 A 
ATOM     73  C   UNL     1      10.313  -5.675 -14.838  1.00  0.00     0.134 A 
ATOM     74  F   UNL     1       7.366  -7.439 -16.022  1.00  0.00    -0.206 F 
ATOM     75  C   UNL     1       9.015  -6.280 -17.221  1.00  0.00     0.040 A 
ATOM     76  C   UNL     1      10.833  -5.218 -16.050  1.00  0.00     0.040 A 
ATOM     77  F   UNL     1      10.971  -5.367 -13.711  1.00  0.00    -0.206 F 
ATOM     78  C   UNL     1      10.192  -5.534 -17.247  1.00  0.00     0.006 A 
ENDBRANCH  57  71
BRANCH  58  79
ATOM     79  C   UNL     1       5.777 -10.300  -6.224  1.00  0.00     0.057 A 
ATOM     80  C   UNL     1       4.409 -10.250  -5.924  1.00  0.00     0.134 A 
ATOM     81  C   UNL     1       6.610 -10.954  -5.309  1.00  0.00     0.134 A 
ATOM     82  F   UNL     1       3.554  -9.644  -6.761  1.00  0.00    -0.206 F 
ATOM     83  C   UNL     1       3.893 -10.809  -4.754  1.00  0.00     0.040 A 
ATOM     84  C   UNL     1       6.103 -11.545  -4.149  1.00  0.00     0.040 A 
ATOM     85  F   UNL     1       7.924 -11.063  -5.551  1.00  0.00    -0.206 F 
ATOM     86  C   UNL     1       4.741 -11.466  -3.866  1.00  0.00     0.006 A 
ENDBRANCH  58  79
BRANCH  70  87
ATOM     87  C   UNL     1       8.657 -13.014 -11.986  1.00  0.00     0.057 A 
ATOM     88  C   UNL     1       9.987 -13.436 -12.119  1.00  0.00     0.134 A 
ATOM     89  C   UNL     1       7.654 -13.905 -12.384  1.00  0.00     0.134 A 
ATOM     90  F   UNL     1      10.997 -12.624 -11.771  1.00  0.00    -0.206 F 
ATOM     91  C   UNL     1      10.308 -14.683 -12.658  1.00  0.00     0.040 A 
ATOM     92  C   UNL     1       7.961 -15.166 -12.898  1.00  0.00     0.040 A 
ATOM     93  F   UNL     1       6.360 -13.566 -12.275  1.00  0.00    -0.206 F 
ATOM     94  C   UNL     1       9.292 -15.552 -13.049  1.00  0.00     0.006 A 
ENDBRANCH  70  87
ENDBRANCH  44  45
ENDBRANCH  37  39
ENDBRANCH  36  37
ENDBRANCH  35  36
ENDBRANCH  34  35
ENDBRANCH  33  34
ENDBRANCH  32  33
ENDBRANCH  31  32
ENDBRANCH  30  31
ENDBRANCH  29  30
ENDBRANCH   1  29
TORSDOF 26
