REMARK SMILES COc1ccc(/C=C2/C(=O)N(c3ccccc3)C(=O)N=C2OCCOCCOCCOCCOC(=O)c2ccc(-c3c4nc(c(-c5c(F)cccc5F)c5ccc([nH]5)c(-c5c(F)cccc5F)c5nc(c(-c6c(F)cccc6F)c6ccc3[nH]6)C=C5)C=C4)cc2)cc1C(=O)[O-]
REMARK SMILES IDX 29 1 28 2 27 3 26 4 25 5 24 6 23 7 22 8 21 9 7 10 8 11 9 12
REMARK SMILES IDX 10 13 11 14 20 15 18 16 19 17 6 18 3 19 4 20 92 21 5 22
REMARK SMILES IDX 91 23 2 24 1 25 93 26 94 27 95 28 12 29 13 30 17 31 14 32
REMARK SMILES IDX 16 33 15 34 30 35 31 36 32 37 33 38 34 39 35 40 36 41 37 42
REMARK SMILES IDX 38 43 90 44 39 45 89 46 40 47 41 48 42 49 83 50 43 51 88 52
REMARK SMILES IDX 82 53 84 54 44 55 87 56 81 57 80 58 45 60 71 61 54 62 70 63
REMARK SMILES IDX 55 64 58 65 69 66 85 67 56 68 57 69 68 71 86 72 59 73 46 74
REMARK SMILES IDX 47 75 52 76 48 77 49 78 51 79 53 80 50 81 72 82 73 83 78 84
REMARK SMILES IDX 74 85 75 86 77 87 79 88 76 89 60 90 61 91 66 92 62 93 63 94
REMARK SMILES IDX 65 95 67 96 64 97
REMARK H PARENT 84 59 58 70
REMARK Flexibility Score: inf
ROOT
ATOM      1  C   UNL     1      -2.624  -0.131  -5.126  1.00  0.00     0.188 C 
ENDROOT
BRANCH   1   2
ATOM      2  O   UNL     1      -1.449   0.019  -5.898  1.00  0.00    -0.377 OA
BRANCH   2   3
ATOM      3  C   UNL     1      -0.986  -1.172  -6.510  1.00  0.00     0.188 C 
BRANCH   3   4
ATOM      4  C   UNL     1      -1.886  -1.985  -7.464  1.00  0.00     0.188 C 
BRANCH   4   5
ATOM      5  O   UNL     1      -3.044  -2.712  -7.076  1.00  0.00    -0.376 OA
BRANCH   5   6
ATOM      6  C   UNL     1      -3.280  -3.388  -5.857  1.00  0.00     0.201 C 
BRANCH   6   7
ATOM      7  C   UNL     1      -2.356  -4.477  -5.313  1.00  0.00     0.260 C 
BRANCH   7   8
ATOM      8  O   UNL     1      -0.970  -4.122  -5.319  1.00  0.00    -0.475 OA
BRANCH   8   9
ATOM      9  C   UNL     1      -0.257  -4.448  -6.405  1.00  0.00     0.231 C 
ATOM     10  C   UNL     1       1.801  -3.202  -5.478  1.00  0.00     0.027 C 
ATOM     11  C   UNL     1       1.091  -3.856  -6.443  1.00  0.00     0.103 C 
ATOM     12  C   UNL     1       1.697  -3.903  -7.836  1.00  0.00     0.272 C 
ATOM     13  O   UNL     1       2.830  -3.471  -8.044  1.00  0.00    -0.268 OA
ATOM     14  N   UNL     1       0.850  -4.398  -8.829  1.00  0.00    -0.226 N 
ATOM     15  N   UNL     1      -0.833  -5.107  -7.335  1.00  0.00    -0.156 NA
ATOM     16  C   UNL     1      -0.286  -5.168  -8.573  1.00  0.00     0.358 C 
ATOM     17  O   UNL     1      -0.832  -5.859  -9.430  1.00  0.00    -0.245 OA
BRANCH  10  18
ATOM     18  C   UNL     1       1.607  -2.752  -4.052  1.00  0.00    -0.024 A 
ATOM     19  C   UNL     1       1.321  -1.625  -1.421  1.00  0.00     0.127 A 
ATOM     20  C   UNL     1       0.381  -2.508  -1.933  1.00  0.00     0.048 A 
ATOM     21  C   UNL     1       2.475  -1.386  -2.166  1.00  0.00     0.040 A 
ATOM     22  C   UNL     1       0.554  -3.094  -3.199  1.00  0.00     0.012 A 
ATOM     23  C   UNL     1       2.582  -1.898  -3.486  1.00  0.00     0.022 A 
BRANCH  19  24
ATOM     24  O   UNL     1       1.066  -1.157  -0.161  1.00  0.00    -0.496 OA
ATOM     25  C   UNL     1       0.878   0.259  -0.120  1.00  0.00     0.278 C 
ENDBRANCH  19  24
BRANCH  21  26
ATOM     26  C   UNL     1       3.654  -0.681  -1.619  1.00  0.00     0.075 C 
ATOM     27  O   UNL     1       4.460  -0.036  -2.267  1.00  0.00    -0.545 OA
ATOM     28  O   UNL     1       3.835  -0.917  -0.308  1.00  0.00    -0.545 OA
ENDBRANCH  21  26
ENDBRANCH  10  18
BRANCH  14  29
ATOM     29  C   UNL     1       1.186  -4.247 -10.205  1.00  0.00     0.054 A 
ATOM     30  C   UNL     1       0.319  -3.528 -11.047  1.00  0.00     0.027 A 
ATOM     31  C   UNL     1       2.265  -4.941 -10.754  1.00  0.00     0.027 A 
ATOM     32  C   UNL     1       0.531  -3.508 -12.426  1.00  0.00     0.002 A 
ATOM     33  C   UNL     1       2.451  -4.946 -12.138  1.00  0.00     0.002 A 
ATOM     34  C   UNL     1       1.588  -4.231 -12.972  1.00  0.00     0.000 A 
ENDBRANCH  14  29
ENDBRANCH   8   9
ENDBRANCH   7   8
ENDBRANCH   6   7
ENDBRANCH   5   6
ENDBRANCH   4   5
ENDBRANCH   3   4
ENDBRANCH   2   3
ENDBRANCH   1   2
BRANCH   1  35
ATOM     35  C   UNL     1      -3.883   0.130  -5.965  1.00  0.00     0.188 C 
BRANCH  35  36
ATOM     36  O   UNL     1      -3.596   0.264  -7.350  1.00  0.00    -0.376 OA
BRANCH  36  37
ATOM     37  C   UNL     1      -3.405   1.573  -7.875  1.00  0.00     0.202 C 
BRANCH  37  38
ATOM     38  C   UNL     1      -2.308   2.483  -7.290  1.00  0.00     0.261 C 
BRANCH  38  39
ATOM     39  O   UNL     1      -2.354   2.728  -5.875  1.00  0.00    -0.460 OA
BRANCH  39  40
ATOM     40  C   UNL     1      -3.459   3.309  -5.369  1.00  0.00     0.338 C 
ATOM     41  O   UNL     1      -4.433   3.712  -5.976  1.00  0.00    -0.246 OA
BRANCH  40  42
ATOM     42  C   UNL     1      -3.379   3.182  -3.898  1.00  0.00     0.060 A 
ATOM     43  C   UNL     1      -4.414   2.521  -3.223  1.00  0.00     0.016 A 
ATOM     44  C   UNL     1      -2.280   3.683  -3.196  1.00  0.00     0.016 A 
ATOM     45  C   UNL     1      -4.371   2.395  -1.837  1.00  0.00     0.010 A 
ATOM     46  C   UNL     1      -2.251   3.583  -1.804  1.00  0.00     0.010 A 
ATOM     47  C   UNL     1      -3.316   2.972  -1.119  1.00  0.00    -0.014 A 
BRANCH  47  48
ATOM     48  C   UNL     1      -3.456   3.152   0.343  1.00  0.00     0.031 A 
ATOM     49  C   UNL     1      -4.008   4.460   0.839  1.00  0.00     0.074 A 
ATOM     50  C   UNL     1      -3.145   2.171   1.207  1.00  0.00     0.049 A 
ATOM     51  N   UNL     1      -4.216   4.865   2.064  1.00  0.00    -0.248 NA
ATOM     52  C   UNL     1      -4.383   5.442  -0.193  1.00  0.00     0.031 C 
ATOM     53  C   UNL     1      -2.655   0.844   0.844  1.00  0.00     0.029 A 
ATOM     54  N   UNL     1      -3.194   2.151   2.578  1.00  0.00    -0.354 N 
ATOM     55  C   UNL     1      -4.754   6.141   1.949  1.00  0.00     0.074 A 
ATOM     56  C   UNL     1      -4.800   6.461   0.540  1.00  0.00     0.031 C 
ATOM     57  C   UNL     1      -2.426   0.142   1.969  1.00  0.00     0.029 A 
ATOM     58  C   UNL     1      -2.736   0.979   3.127  1.00  0.00     0.049 A 
ATOM     59  H   UNL     1      -3.526   2.905   3.116  1.00  0.00     0.167 HD
ATOM     60  C   UNL     1      -5.187   6.967   2.929  1.00  0.00     0.037 A 
ATOM     61  C   UNL     1      -2.574   0.635   4.419  1.00  0.00     0.037 A 
ATOM     62  C   UNL     1      -5.125   6.654   4.331  1.00  0.00     0.049 A 
ATOM     63  C   UNL     1      -2.971   1.611   5.497  1.00  0.00     0.074 A 
ATOM     64  C   UNL     1      -5.529   7.424   5.407  1.00  0.00     0.029 A 
ATOM     65  N   UNL     1      -4.617   5.473   4.851  1.00  0.00    -0.354 N 
ATOM     66  N   UNL     1      -3.497   2.808   5.380  1.00  0.00    -0.248 NA
ATOM     67  C   UNL     1      -2.762   1.183   6.888  1.00  0.00     0.031 C 
ATOM     68  C   UNL     1      -5.223   6.727   6.580  1.00  0.00     0.029 A 
ATOM     69  C   UNL     1      -4.678   5.501   6.233  1.00  0.00     0.049 A 
ATOM     70  H   UNL     1      -4.265   4.725   4.315  1.00  0.00     0.167 HD
ATOM     71  C   UNL     1      -3.718   3.256   6.677  1.00  0.00     0.074 A 
ATOM     72  C   UNL     1      -3.276   2.201   7.564  1.00  0.00     0.031 C 
ATOM     73  C   UNL     1      -4.245   4.433   7.098  1.00  0.00     0.037 A 
BRANCH  60  74
ATOM     74  C   UNL     1      -5.743   8.296   2.510  1.00  0.00     0.057 A 
ATOM     75  C   UNL     1      -6.981   8.407   1.863  1.00  0.00     0.134 A 
ATOM     76  C   UNL     1      -5.038   9.478   2.765  1.00  0.00     0.134 A 
ATOM     77  F   UNL     1      -7.697   7.311   1.570  1.00  0.00    -0.206 F 
ATOM     78  C   UNL     1      -7.488   9.646   1.465  1.00  0.00     0.040 A 
ATOM     79  C   UNL     1      -5.546  10.724   2.396  1.00  0.00     0.040 A 
ATOM     80  F   UNL     1      -3.845   9.441   3.378  1.00  0.00    -0.206 F 
ATOM     81  C   UNL     1      -6.772  10.810   1.738  1.00  0.00     0.006 A 
ENDBRANCH  60  74
BRANCH  61  82
ATOM     82  C   UNL     1      -2.002  -0.688   4.775  1.00  0.00     0.057 A 
ATOM     83  C   UNL     1      -2.776  -1.669   5.407  1.00  0.00     0.134 A 
ATOM     84  C   UNL     1      -0.657  -0.988   4.527  1.00  0.00     0.134 A 
ATOM     85  F   UNL     1      -4.064  -1.432   5.692  1.00  0.00    -0.206 F 
ATOM     86  C   UNL     1      -2.228  -2.891   5.802  1.00  0.00     0.040 A 
ATOM     87  C   UNL     1      -0.103  -2.216   4.892  1.00  0.00     0.040 A 
ATOM     88  F   UNL     1       0.137  -0.090   3.926  1.00  0.00    -0.206 F 
ATOM     89  C   UNL     1      -0.887  -3.168   5.541  1.00  0.00     0.006 A 
ENDBRANCH  61  82
BRANCH  73  90
ATOM     90  C   UNL     1      -4.420   4.618   8.578  1.00  0.00     0.057 A 
ATOM     91  C   UNL     1      -3.332   4.809   9.439  1.00  0.00     0.134 A 
ATOM     92  C   UNL     1      -5.702   4.634   9.143  1.00  0.00     0.134 A 
ATOM     93  F   UNL     1      -2.078   4.793   8.963  1.00  0.00    -0.206 F 
ATOM     94  C   UNL     1      -3.511   4.980  10.813  1.00  0.00     0.040 A 
ATOM     95  C   UNL     1      -5.896   4.834  10.511  1.00  0.00     0.040 A 
ATOM     96  F   UNL     1      -6.789   4.469   8.374  1.00  0.00    -0.206 F 
ATOM     97  C   UNL     1      -4.797   4.998  11.351  1.00  0.00     0.006 A 
ENDBRANCH  73  90
ENDBRANCH  47  48
ENDBRANCH  40  42
ENDBRANCH  39  40
ENDBRANCH  38  39
ENDBRANCH  37  38
ENDBRANCH  36  37
ENDBRANCH  35  36
ENDBRANCH   1  35
TORSDOF 23
