REMARK SMILES NS(=O)(=O)c1ccc(N2N=C(C(=O)OCCOCCOCCOCCOC(=O)c3ccc(-c4c5nc(c(-c6c(F)cccc6F)c6ccc([nH]6)c(-c6c(F)cccc6F)c6nc(c(-c7c(F)cccc7F)c7ccc4[nH]7)C=C6)C=C5)cc3)C[C@H]2c2ccco2)cc1
REMARK SMILES IDX 19 1 18 2 17 3 16 4 15 5 14 6 12 7 13 8 11 9 9 10 10 11
REMARK SMILES IDX 84 12 83 13 8 14 5 15 6 16 91 17 7 18 90 19 2 20 3 21 4 22
REMARK SMILES IDX 1 23 85 26 86 27 89 28 87 29 88 30 20 31 21 32 22 33 23 34
REMARK SMILES IDX 24 35 25 36 26 37 27 38 28 39 29 40 30 41 82 42 31 43 81 44
REMARK SMILES IDX 32 45 33 46 34 47 75 48 35 49 80 50 74 51 76 52 36 53 79 54
REMARK SMILES IDX 73 55 72 56 37 58 63 59 46 60 62 61 47 62 50 63 61 64 77 65
REMARK SMILES IDX 48 66 49 67 60 69 78 70 51 71 38 72 39 73 44 74 40 75 41 76
REMARK SMILES IDX 43 77 45 78 42 79 64 80 65 81 70 82 66 83 67 84 69 85 71 86
REMARK SMILES IDX 68 87 52 88 53 89 58 90 54 91 55 92 57 93 59 94 56 95
REMARK H PARENT 1 24 1 25 76 57 50 68
REMARK Flexibility Score: inf
ROOT
ATOM      1  C   UNL     1       2.139  -5.927   7.447  1.00  0.00     0.188 C 
ENDROOT
BRANCH   1   2
ATOM      2  C   UNL     1       3.619  -5.956   7.024  1.00  0.00     0.188 C 
BRANCH   2   3
ATOM      3  O   UNL     1       4.389  -6.858   7.802  1.00  0.00    -0.376 OA
BRANCH   3   4
ATOM      4  C   UNL     1       5.171  -6.386   8.885  1.00  0.00     0.202 C 
BRANCH   4   5
ATOM      5  C   UNL     1       4.642  -5.367   9.911  1.00  0.00     0.261 C 
BRANCH   5   6
ATOM      6  O   UNL     1       3.699  -4.413   9.425  1.00  0.00    -0.459 OA
BRANCH   6   7
ATOM      7  C   UNL     1       4.169  -3.280   8.877  1.00  0.00     0.354 C 
ATOM      8  O   UNL     1       5.319  -2.899   8.816  1.00  0.00    -0.245 OA
BRANCH   7   9
ATOM      9  C   UNL     1       3.005  -2.613   8.184  1.00  0.00     0.148 C 
ATOM     10  N   UNL     1       1.804  -1.738   6.679  1.00  0.00    -0.254 N 
ATOM     11  N   UNL     1       3.034  -2.273   6.929  1.00  0.00    -0.169 NA
ATOM     12  C   UNL     1       1.041  -1.461   7.913  1.00  0.00     0.180 C 
ATOM     13  C   UNL     1       1.688  -2.463   8.880  1.00  0.00     0.101 C 
BRANCH  10  14
ATOM     14  C   UNL     1       1.548  -1.169   5.441  1.00  0.00     0.060 A 
ATOM     15  C   UNL     1       0.918  -0.006   2.956  1.00  0.00     0.082 A 
ATOM     16  C   UNL     1       0.721  -1.375   3.149  1.00  0.00     0.024 A 
ATOM     17  C   UNL     1       1.470   0.775   3.970  1.00  0.00     0.024 A 
ATOM     18  C   UNL     1       1.040  -1.948   4.388  1.00  0.00     0.029 A 
ATOM     19  C   UNL     1       1.797   0.186   5.194  1.00  0.00     0.029 A 
BRANCH  15  20
ATOM     20  S   UNL     1       0.451   0.761   1.434  1.00  0.00     0.238 S 
ATOM     21  O   UNL     1       1.068   2.061   1.343  1.00  0.00    -0.207 OA
ATOM     22  O   UNL     1      -0.968   0.560   1.239  1.00  0.00    -0.207 OA
BRANCH  20  23
ATOM     23  N   UNL     1       1.221  -0.173   0.270  1.00  0.00    -0.225 NA
ATOM     24  H   UNL     1       1.008   0.197  -0.657  1.00  0.00     0.137 HD
ATOM     25  H   UNL     1       0.893  -1.136   0.335  1.00  0.00     0.137 HD
ENDBRANCH  20  23
ENDBRANCH  15  20
ENDBRANCH  10  14
BRANCH  12  26
ATOM     26  C   UNL     1       1.093  -0.061   8.463  1.00  0.00     0.128 A 
ATOM     27  C   UNL     1       0.488   1.125   8.091  1.00  0.00     0.048 A 
ATOM     28  O   UNL     1       1.861   0.155   9.574  1.00  0.00    -0.467 OA
ATOM     29  C   UNL     1       0.936   2.112   9.003  1.00  0.00     0.042 A 
ATOM     30  C   UNL     1       1.752   1.465   9.898  1.00  0.00     0.195 A 
ENDBRANCH  12  26
ENDBRANCH   7   9
ENDBRANCH   6   7
ENDBRANCH   5   6
ENDBRANCH   4   5
ENDBRANCH   3   4
ENDBRANCH   2   3
ENDBRANCH   1   2
BRANCH   1  31
ATOM     31  O   UNL     1       1.899  -6.391   8.769  1.00  0.00    -0.377 OA
BRANCH  31  32
ATOM     32  C   UNL     1       1.915  -7.800   9.013  1.00  0.00     0.188 C 
BRANCH  32  33
ATOM     33  C   UNL     1       2.428  -8.827   7.972  1.00  0.00     0.188 C 
BRANCH  33  34
ATOM     34  O   UNL     1       2.194  -8.472   6.618  1.00  0.00    -0.376 OA
BRANCH  34  35
ATOM     35  C   UNL     1       1.158  -9.139   5.917  1.00  0.00     0.202 C 
BRANCH  35  36
ATOM     36  C   UNL     1      -0.273  -8.847   6.389  1.00  0.00     0.261 C 
BRANCH  36  37
ATOM     37  O   UNL     1      -0.545  -9.152   7.766  1.00  0.00    -0.460 OA
BRANCH  37  38
ATOM     38  C   UNL     1      -0.440 -10.448   8.133  1.00  0.00     0.338 C 
ATOM     39  O   UNL     1      -0.179 -11.398   7.419  1.00  0.00    -0.246 OA
BRANCH  38  40
ATOM     40  C   UNL     1      -0.519 -10.513   9.606  1.00  0.00     0.060 A 
ATOM     41  C   UNL     1       0.546 -11.088  10.311  1.00  0.00     0.016 A 
ATOM     42  C   UNL     1      -1.644 -10.036  10.284  1.00  0.00     0.016 A 
ATOM     43  C   UNL     1       0.461 -11.243  11.694  1.00  0.00     0.010 A 
ATOM     44  C   UNL     1      -1.734 -10.206  11.668  1.00  0.00     0.010 A 
ATOM     45  C   UNL     1      -0.702 -10.853  12.371  1.00  0.00    -0.014 A 
BRANCH  45  46
ATOM     46  C   UNL     1      -0.918 -11.320  13.763  1.00  0.00     0.031 A 
ATOM     47  C   UNL     1      -1.781 -12.535  13.983  1.00  0.00     0.074 A 
ATOM     48  C   UNL     1      -0.325 -10.715  14.807  1.00  0.00     0.049 A 
ATOM     49  N   UNL     1      -2.109 -13.132  15.100  1.00  0.00    -0.248 NA
ATOM     50  C   UNL     1      -2.354 -13.158  12.778  1.00  0.00     0.031 C 
ATOM     51  C   UNL     1       0.553  -9.550  14.724  1.00  0.00     0.029 A 
ATOM     52  N   UNL     1      -0.381 -11.001  16.148  1.00  0.00    -0.354 N 
ATOM     53  C   UNL     1      -2.931 -14.191  14.734  1.00  0.00     0.074 A 
ATOM     54  C   UNL     1      -3.079 -14.138  13.296  1.00  0.00     0.031 C 
ATOM     55  C   UNL     1       0.947  -9.214  15.965  1.00  0.00     0.029 A 
ATOM     56  C   UNL     1       0.328 -10.122  16.930  1.00  0.00     0.049 A 
ATOM     57  H   UNL     1      -0.882 -11.765  16.516  1.00  0.00     0.167 HD
ATOM     58  C   UNL     1      -3.504 -15.130  15.523  1.00  0.00     0.037 A 
ATOM     59  C   UNL     1       0.446 -10.050  18.270  1.00  0.00     0.037 A 
ATOM     60  C   UNL     1      -3.350 -15.189  16.952  1.00  0.00     0.049 A 
ATOM     61  C   UNL     1      -0.238 -11.084  19.129  1.00  0.00     0.074 A 
ATOM     62  C   UNL     1      -3.863 -16.123  17.835  1.00  0.00     0.029 A 
ATOM     63  N   UNL     1      -2.637 -14.272  17.708  1.00  0.00    -0.354 N 
ATOM     64  N   UNL     1      -0.977 -12.106  18.769  1.00  0.00    -0.248 NA
ATOM     65  C   UNL     1      -0.060 -10.959  20.583  1.00  0.00     0.031 C 
ATOM     66  C   UNL     1      -3.511 -15.736  19.132  1.00  0.00     0.029 A 
ATOM     67  C   UNL     1      -2.721 -14.600  19.051  1.00  0.00     0.049 A 
ATOM     68  H   UNL     1      -2.144 -13.501  17.344  1.00  0.00     0.167 HD
ATOM     69  C   UNL     1      -1.322 -12.762  19.946  1.00  0.00     0.074 A 
ATOM     70  C   UNL     1      -0.695 -12.033  21.028  1.00  0.00     0.031 C 
ATOM     71  C   UNL     1      -2.087 -13.869  20.118  1.00  0.00     0.037 A 
BRANCH  58  72
ATOM     72  C   UNL     1      -4.380 -16.155  14.861  1.00  0.00     0.057 A 
ATOM     73  C   UNL     1      -3.858 -17.169  14.046  1.00  0.00     0.134 A 
ATOM     74  C   UNL     1      -5.763 -16.151  15.079  1.00  0.00     0.134 A 
ATOM     75  F   UNL     1      -2.543 -17.221  13.783  1.00  0.00    -0.206 F 
ATOM     76  C   UNL     1      -4.683 -18.129  13.459  1.00  0.00     0.040 A 
ATOM     77  C   UNL     1      -6.595 -17.122  14.521  1.00  0.00     0.040 A 
ATOM     78  F   UNL     1      -6.328 -15.209  15.849  1.00  0.00    -0.206 F 
ATOM     79  C   UNL     1      -6.055 -18.113  13.703  1.00  0.00     0.006 A 
ENDBRANCH  58  72
BRANCH  59  80
ATOM     80  C   UNL     1       1.228  -8.952  18.896  1.00  0.00     0.057 A 
ATOM     81  C   UNL     1       2.410  -9.204  19.603  1.00  0.00     0.134 A 
ATOM     82  C   UNL     1       0.782  -7.626  18.844  1.00  0.00     0.134 A 
ATOM     83  F   UNL     1       2.878 -10.457  19.712  1.00  0.00    -0.206 F 
ATOM     84  C   UNL     1       3.103  -8.185  20.260  1.00  0.00     0.040 A 
ATOM     85  C   UNL     1       1.481  -6.592  19.470  1.00  0.00     0.040 A 
ATOM     86  F   UNL     1      -0.342  -7.314  18.183  1.00  0.00    -0.206 F 
ATOM     87  C   UNL     1       2.639  -6.873  20.191  1.00  0.00     0.006 A 
ENDBRANCH  59  80
BRANCH  71  88
ATOM     88  C   UNL     1      -2.248 -14.386  21.521  1.00  0.00     0.057 A 
ATOM     89  C   UNL     1      -2.982 -13.694  22.493  1.00  0.00     0.134 A 
ATOM     90  C   UNL     1      -1.670 -15.605  21.899  1.00  0.00     0.134 A 
ATOM     91  F   UNL     1      -3.555 -12.515  22.202  1.00  0.00    -0.206 F 
ATOM     92  C   UNL     1      -3.101 -14.175  23.799  1.00  0.00     0.040 A 
ATOM     93  C   UNL     1      -1.812 -16.114  23.191  1.00  0.00     0.040 A 
ATOM     94  F   UNL     1      -0.966 -16.329  21.015  1.00  0.00    -0.206 F 
ATOM     95  C   UNL     1      -2.519 -15.391  24.149  1.00  0.00     0.006 A 
ENDBRANCH  71  88
ENDBRANCH  45  46
ENDBRANCH  38  40
ENDBRANCH  37  38
ENDBRANCH  36  37
ENDBRANCH  35  36
ENDBRANCH  34  35
ENDBRANCH  33  34
ENDBRANCH  32  33
ENDBRANCH  31  32
ENDBRANCH   1  31
TORSDOF 24
