REMARK SMILES CC[NH2+]C[C@@H](C)C(=O)N1CCO[C@@H](CC(=O)OCCOCCOCCOCCOC(=O)c2ccc(-c3c4nc(c(-c5c(F)cccc5F)c5ccc([nH]5)c(-c5c(F)cccc5F)c5nc(c(-c6c(F)cccc6F)c6ccc3[nH]6)C=C5)C=C4)cc2)C1
REMARK SMILES IDX 21 1 20 2 19 3 18 4 17 5 15 6 16 7 14 8 13 9 9 10 10 11
REMARK SMILES IDX 86 12 11 13 12 14 7 15 8 16 5 17 6 18 4 19 3 20 2 23 1 24
REMARK SMILES IDX 22 25 23 26 24 27 25 28 26 29 27 30 28 31 29 32 30 33 31 34
REMARK SMILES IDX 32 35 33 36 85 37 34 38 84 39 35 40 36 41 37 42 78 43 38 44
REMARK SMILES IDX 83 45 77 46 79 47 39 48 82 49 76 50 75 51 40 53 66 54 49 55
REMARK SMILES IDX 65 56 50 57 53 58 64 59 80 60 51 61 52 62 63 64 81 65 54 66
REMARK SMILES IDX 41 67 42 68 47 69 43 70 44 71 46 72 48 73 45 74 67 75 68 76
REMARK SMILES IDX 73 77 69 78 70 79 72 80 74 81 71 82 55 83 56 84 61 85 57 86
REMARK SMILES IDX 58 87 60 88 62 89 59 90
REMARK H PARENT 3 21 3 22 79 52 53 63
REMARK Flexibility Score: inf
ROOT
ATOM      1  C   UNL     1       4.910  -3.150   9.253  1.00  0.00     0.188 C 
ENDROOT
BRANCH   1   2
ATOM      2  O   UNL     1       4.635  -4.494   9.591  1.00  0.00    -0.376 OA
BRANCH   2   3
ATOM      3  C   UNL     1       3.331  -4.910   9.972  1.00  0.00     0.202 C 
BRANCH   3   4
ATOM      4  C   UNL     1       2.270  -3.991  10.602  1.00  0.00     0.261 C 
BRANCH   4   5
ATOM      5  O   UNL     1       2.094  -2.692  10.011  1.00  0.00    -0.463 OA
BRANCH   5   6
ATOM      6  C   UNL     1       2.351  -1.647  10.823  1.00  0.00     0.308 C 
ATOM      7  O   UNL     1       2.732  -1.758  11.986  1.00  0.00    -0.252 OA
BRANCH   6   8
ATOM      8  C   UNL     1       2.151  -0.284  10.219  1.00  0.00     0.156 C 
BRANCH   8   9
ATOM      9  C   UNL     1       1.867  -0.043   8.742  1.00  0.00     0.148 C 
ATOM     10  N   UNL     1       0.384  -0.144   6.778  1.00  0.00    -0.337 N 
ATOM     11  C   UNL     1       0.386   1.313   6.718  1.00  0.00     0.148 C 
ATOM     12  C   UNL     1       0.565  -0.646   8.161  1.00  0.00     0.152 C 
ATOM     13  C   UNL     1       1.694   1.853   7.278  1.00  0.00     0.182 C 
ATOM     14  O   UNL     1       1.852   1.413   8.632  1.00  0.00    -0.374 OA
BRANCH  10  15
ATOM     15  C   UNL     1       0.239  -1.037   5.734  1.00  0.00     0.231 C 
ATOM     16  O   UNL     1      -0.207  -2.172   5.948  1.00  0.00    -0.274 OA
BRANCH  15  17
ATOM     17  C   UNL     1       0.821  -0.750   4.329  1.00  0.00     0.130 C 
ATOM     18  C   UNL     1       2.347  -0.739   4.420  1.00  0.00     0.024 C 
BRANCH  17  19
ATOM     19  C   UNL     1       0.274   0.436   3.523  1.00  0.00     0.273 C 
BRANCH  19  20
ATOM     20  N   UNL     1       0.769   0.581   2.146  1.00  0.00    -0.346 N 
ATOM     21  H   UNL     1       0.459   1.486   1.791  1.00  0.00     0.346 HD
ATOM     22  H   UNL     1       1.784   0.497   2.194  1.00  0.00     0.346 HD
BRANCH  20  23
ATOM     23  C   UNL     1       0.312  -0.450   1.226  1.00  0.00     0.257 C 
ATOM     24  C   UNL     1       0.842  -0.135  -0.168  1.00  0.00     0.071 C 
ENDBRANCH  20  23
ENDBRANCH  19  20
ENDBRANCH  17  19
ENDBRANCH  15  17
ENDBRANCH  10  15
ENDBRANCH   8   9
ENDBRANCH   6   8
ENDBRANCH   5   6
ENDBRANCH   4   5
ENDBRANCH   3   4
ENDBRANCH   2   3
ENDBRANCH   1   2
BRANCH   1  25
ATOM     25  C   UNL     1       4.334  -2.559   7.961  1.00  0.00     0.188 C 
BRANCH  25  26
ATOM     26  O   UNL     1       3.044  -3.006   7.601  1.00  0.00    -0.377 OA
BRANCH  26  27
ATOM     27  C   UNL     1       2.908  -4.183   6.804  1.00  0.00     0.188 C 
BRANCH  27  28
ATOM     28  C   UNL     1       4.108  -5.126   6.567  1.00  0.00     0.188 C 
BRANCH  28  29
ATOM     29  O   UNL     1       5.346  -4.469   6.353  1.00  0.00    -0.376 OA
BRANCH  29  30
ATOM     30  C   UNL     1       5.794  -4.270   5.022  1.00  0.00     0.202 C 
BRANCH  30  31
ATOM     31  C   UNL     1       4.919  -3.413   4.096  1.00  0.00     0.261 C 
BRANCH  31  32
ATOM     32  O   UNL     1       3.577  -3.879   3.875  1.00  0.00    -0.460 OA
BRANCH  32  33
ATOM     33  C   UNL     1       3.419  -5.100   3.329  1.00  0.00     0.338 C 
ATOM     34  O   UNL     1       4.301  -5.844   2.926  1.00  0.00    -0.246 OA
BRANCH  33  35
ATOM     35  C   UNL     1       2.000  -5.490   3.458  1.00  0.00     0.060 A 
ATOM     36  C   UNL     1       1.681  -6.661   4.158  1.00  0.00     0.016 A 
ATOM     37  C   UNL     1       0.990  -4.726   2.868  1.00  0.00     0.016 A 
ATOM     38  C   UNL     1       0.357  -7.098   4.226  1.00  0.00     0.010 A 
ATOM     39  C   UNL     1      -0.335  -5.173   2.923  1.00  0.00     0.010 A 
ATOM     40  C   UNL     1      -0.651  -6.384   3.565  1.00  0.00    -0.014 A 
BRANCH  40  41
ATOM     41  C   UNL     1      -1.982  -7.014   3.365  1.00  0.00     0.031 A 
ATOM     42  C   UNL     1      -2.267  -7.677   2.042  1.00  0.00     0.074 A 
ATOM     43  C   UNL     1      -2.908  -7.042   4.341  1.00  0.00     0.049 A 
ATOM     44  N   UNL     1      -3.360  -8.257   1.617  1.00  0.00    -0.248 NA
ATOM     45  C   UNL     1      -1.164  -7.688   1.066  1.00  0.00     0.031 C 
ATOM     46  C   UNL     1      -2.744  -6.481   5.680  1.00  0.00     0.029 A 
ATOM     47  N   UNL     1      -4.178  -7.566   4.347  1.00  0.00    -0.354 N 
ATOM     48  C   UNL     1      -3.079  -8.694   0.328  1.00  0.00     0.074 A 
ATOM     49  C   UNL     1      -1.726  -8.284   0.026  1.00  0.00     0.031 C 
ATOM     50  C   UNL     1      -3.877  -6.684   6.377  1.00  0.00     0.029 A 
ATOM     51  C   UNL     1      -4.857  -7.354   5.523  1.00  0.00     0.049 A 
ATOM     52  H   UNL     1      -4.565  -8.049   3.581  1.00  0.00     0.167 HD
ATOM     53  C   UNL     1      -3.871  -9.386  -0.524  1.00  0.00     0.037 A 
ATOM     54  C   UNL     1      -6.131  -7.643   5.857  1.00  0.00     0.037 A 
ATOM     55  C   UNL     1      -5.218  -9.795  -0.227  1.00  0.00     0.049 A 
ATOM     56  C   UNL     1      -7.023  -8.334   4.854  1.00  0.00     0.074 A 
ATOM     57  C   UNL     1      -6.099 -10.504  -1.026  1.00  0.00     0.029 A 
ATOM     58  N   UNL     1      -5.881  -9.528   0.961  1.00  0.00    -0.354 N 
ATOM     59  N   UNL     1      -6.742  -8.759   3.646  1.00  0.00    -0.248 NA
ATOM     60  C   UNL     1      -8.413  -8.586   5.266  1.00  0.00     0.031 C 
ATOM     61  C   UNL     1      -7.314 -10.616  -0.344  1.00  0.00     0.029 A 
ATOM     62  C   UNL     1      -7.168 -10.036   0.906  1.00  0.00     0.049 A 
ATOM     63  H   UNL     1      -5.494  -9.048   1.729  1.00  0.00     0.167 HD
ATOM     64  C   UNL     1      -7.904  -9.360   3.172  1.00  0.00     0.074 A 
ATOM     65  C   UNL     1      -8.889  -9.257   4.226  1.00  0.00     0.031 C 
ATOM     66  C   UNL     1      -8.134  -9.946   1.971  1.00  0.00     0.037 A 
BRANCH  53  67
ATOM     67  C   UNL     1      -3.310  -9.728  -1.874  1.00  0.00     0.057 A 
ATOM     68  C   UNL     1      -2.305 -10.691  -2.036  1.00  0.00     0.134 A 
ATOM     69  C   UNL     1      -3.816  -9.122  -3.031  1.00  0.00     0.134 A 
ATOM     70  F   UNL     1      -1.766 -11.298  -0.969  1.00  0.00    -0.206 F 
ATOM     71  C   UNL     1      -1.813 -11.026  -3.299  1.00  0.00     0.040 A 
ATOM     72  C   UNL     1      -3.353  -9.469  -4.300  1.00  0.00     0.040 A 
ATOM     73  F   UNL     1      -4.782  -8.194  -2.947  1.00  0.00    -0.206 F 
ATOM     74  C   UNL     1      -2.345 -10.421  -4.437  1.00  0.00     0.006 A 
ENDBRANCH  53  67
BRANCH  54  75
ATOM     75  C   UNL     1      -6.667  -7.260   7.191  1.00  0.00     0.057 A 
ATOM     76  C   UNL     1      -7.067  -8.227   8.121  1.00  0.00     0.134 A 
ATOM     77  C   UNL     1      -6.851  -5.917   7.543  1.00  0.00     0.134 A 
ATOM     78  F   UNL     1      -6.944  -9.532   7.834  1.00  0.00    -0.206 F 
ATOM     79  C   UNL     1      -7.657  -7.876   9.337  1.00  0.00     0.040 A 
ATOM     80  C   UNL     1      -7.410  -5.551   8.769  1.00  0.00     0.040 A 
ATOM     81  F   UNL     1      -6.495  -4.939   6.697  1.00  0.00    -0.206 F 
ATOM     82  C   UNL     1      -7.827  -6.532   9.665  1.00  0.00     0.006 A 
ENDBRANCH  54  75
BRANCH  66  83
ATOM     83  C   UNL     1      -9.481 -10.576   1.748  1.00  0.00     0.057 A 
ATOM     84  C   UNL     1     -10.645  -9.813   1.594  1.00  0.00     0.134 A 
ATOM     85  C   UNL     1      -9.603 -11.968   1.639  1.00  0.00     0.134 A 
ATOM     86  F   UNL     1     -10.601  -8.476   1.695  1.00  0.00    -0.206 F 
ATOM     87  C   UNL     1     -11.886 -10.413   1.366  1.00  0.00     0.040 A 
ATOM     88  C   UNL     1     -10.832 -12.577   1.380  1.00  0.00     0.040 A 
ATOM     89  F   UNL     1      -8.527 -12.759   1.763  1.00  0.00    -0.206 F 
ATOM     90  C   UNL     1     -11.979 -11.799   1.250  1.00  0.00     0.006 A 
ENDBRANCH  66  83
ENDBRANCH  40  41
ENDBRANCH  33  35
ENDBRANCH  32  33
ENDBRANCH  31  32
ENDBRANCH  30  31
ENDBRANCH  29  30
ENDBRANCH  28  29
ENDBRANCH  27  28
ENDBRANCH  26  27
ENDBRANCH  25  26
ENDBRANCH   1  25
TORSDOF 26
