REMARK SMILES O=C(OCCOCCOCCOCCOC(=O)[C@H]1[C@H]2CC[C@H](CC2)[C@@H]1C(=O)Nc1sc2c(c1C(=O)N1CCCCC1)CCCC2)c1ccc(-c2c3nc(c(-c4c(F)cccc4F)c4ccc([nH]4)c(-c4c(F)cccc4F)c4nc(c(-c5c(F)cccc5F)c5ccc2[nH]5)C=C4)C=C3)cc1
REMARK SMILES IDX 10 1 9 2 8 3 7 4 6 5 5 6 4 7 3 8 2 9 1 10 46 11 47 12 99 13
REMARK SMILES IDX 48 14 98 15 49 16 50 17 51 18 92 19 52 20 97 21 91 22 93 23
REMARK SMILES IDX 53 24 96 25 90 26 89 27 54 29 80 30 63 31 79 32 64 33 67 34
REMARK SMILES IDX 78 35 94 36 65 37 66 38 77 40 95 41 68 42 55 43 56 44 61 45
REMARK SMILES IDX 57 46 58 47 60 48 62 49 59 50 81 51 82 52 87 53 83 54 84 55
REMARK SMILES IDX 86 56 88 57 85 58 69 59 70 60 75 61 71 62 72 63 74 64 76 65
REMARK SMILES IDX 73 66 11 67 12 68 13 69 14 70 15 71 16 72 17 73 18 74 19 75
REMARK SMILES IDX 25 76 24 77 20 78 22 79 23 80 21 81 26 82 27 83 28 84 29 86
REMARK SMILES IDX 30 87 33 88 31 89 32 90 45 91 42 92 44 93 43 94 34 95 35 96
REMARK SMILES IDX 36 97 37 98 41 99 38 100 40 101 39 102
REMARK H PARENT 93 28 67 39 28 85
REMARK Flexibility Score: inf
ROOT
ATOM      1  C   UNL     1       4.044  -2.042   2.100  1.00  0.00     0.188 C 
ENDROOT
BRANCH   1   2
ATOM      2  O   UNL     1       2.662  -1.877   2.422  1.00  0.00    -0.377 OA
BRANCH   2   3
ATOM      3  C   UNL     1       1.829  -1.311   1.411  1.00  0.00     0.188 C 
BRANCH   3   4
ATOM      4  C   UNL     1       2.255   0.093   1.022  1.00  0.00     0.188 C 
BRANCH   4   5
ATOM      5  O   UNL     1       3.552   0.029   0.430  1.00  0.00    -0.376 OA
BRANCH   5   6
ATOM      6  C   UNL     1       4.444   1.050   0.863  1.00  0.00     0.202 C 
BRANCH   6   7
ATOM      7  C   UNL     1       4.291   2.337   0.064  1.00  0.00     0.261 C 
BRANCH   7   8
ATOM      8  O   UNL     1       2.990   2.506  -0.525  1.00  0.00    -0.460 OA
BRANCH   8   9
ATOM      9  C   UNL     1       2.463   1.997  -1.665  1.00  0.00     0.338 C 
ATOM     10  O   UNL     1       1.337   2.383  -1.984  1.00  0.00    -0.246 OA
BRANCH   9  11
ATOM     11  C   UNL     1       3.111   0.979  -2.563  1.00  0.00     0.060 A 
ATOM     12  C   UNL     1       4.252   0.228  -2.276  1.00  0.00     0.016 A 
ATOM     13  C   UNL     1       2.468   0.726  -3.792  1.00  0.00     0.016 A 
ATOM     14  C   UNL     1       4.721  -0.760  -3.133  1.00  0.00     0.010 A 
ATOM     15  C   UNL     1       2.967  -0.217  -4.697  1.00  0.00     0.010 A 
ATOM     16  C   UNL     1       4.111  -0.947  -4.367  1.00  0.00    -0.014 A 
BRANCH  16  17
ATOM     17  C   UNL     1       4.881  -1.677  -5.385  1.00  0.00     0.031 A 
ATOM     18  C   UNL     1       5.755  -0.852  -6.281  1.00  0.00     0.074 A 
ATOM     19  C   UNL     1       4.921  -3.018  -5.388  1.00  0.00     0.049 A 
ATOM     20  N   UNL     1       6.459  -1.209  -7.318  1.00  0.00    -0.248 NA
ATOM     21  C   UNL     1       5.869   0.580  -5.942  1.00  0.00     0.031 C 
ATOM     22  C   UNL     1       4.247  -3.886  -4.421  1.00  0.00     0.029 A 
ATOM     23  N   UNL     1       5.574  -3.885  -6.222  1.00  0.00    -0.354 N 
ATOM     24  C   UNL     1       7.056  -0.043  -7.779  1.00  0.00     0.074 A 
ATOM     25  C   UNL     1       6.665   1.029  -6.896  1.00  0.00     0.031 C 
ATOM     26  C   UNL     1       4.513  -5.168  -4.729  1.00  0.00     0.029 A 
ATOM     27  C   UNL     1       5.310  -5.205  -5.951  1.00  0.00     0.049 A 
ATOM     28  H   UNL     1       6.174  -3.591  -6.945  1.00  0.00     0.167 HD
ATOM     29  C   UNL     1       7.837   0.112  -8.870  1.00  0.00     0.037 A 
ATOM     30  C   UNL     1       5.631  -6.301  -6.664  1.00  0.00     0.037 A 
ATOM     31  C   UNL     1       8.195  -0.984  -9.723  1.00  0.00     0.049 A 
ATOM     32  C   UNL     1       6.400  -6.095  -7.945  1.00  0.00     0.074 A 
ATOM     33  C   UNL     1       8.911  -0.973 -10.903  1.00  0.00     0.029 A 
ATOM     34  N   UNL     1       7.843  -2.304  -9.470  1.00  0.00    -0.354 N 
ATOM     35  N   UNL     1       6.891  -4.982  -8.442  1.00  0.00    -0.248 NA
ATOM     36  C   UNL     1       6.629  -7.279  -8.781  1.00  0.00     0.031 C 
ATOM     37  C   UNL     1       8.953  -2.285 -11.387  1.00  0.00     0.029 A 
ATOM     38  C   UNL     1       8.302  -3.118 -10.485  1.00  0.00     0.049 A 
ATOM     39  H   UNL     1       7.341  -2.614  -8.681  1.00  0.00     0.167 HD
ATOM     40  C   UNL     1       7.488  -5.330  -9.646  1.00  0.00     0.074 A 
ATOM     41  C   UNL     1       7.319  -6.764  -9.789  1.00  0.00     0.031 C 
ATOM     42  C   UNL     1       8.109  -4.545 -10.562  1.00  0.00     0.037 A 
BRANCH  29  43
ATOM     43  C   UNL     1       8.231   1.512  -9.231  1.00  0.00     0.057 A 
ATOM     44  C   UNL     1       9.191   2.235  -8.511  1.00  0.00     0.134 A 
ATOM     45  C   UNL     1       7.580   2.172 -10.281  1.00  0.00     0.134 A 
ATOM     46  F   UNL     1       9.822   1.676  -7.467  1.00  0.00    -0.206 F 
ATOM     47  C   UNL     1       9.472   3.571  -8.809  1.00  0.00     0.040 A 
ATOM     48  C   UNL     1       7.866   3.500 -10.601  1.00  0.00     0.040 A 
ATOM     49  F   UNL     1       6.637   1.543 -10.998  1.00  0.00    -0.206 F 
ATOM     50  C   UNL     1       8.809   4.207  -9.858  1.00  0.00     0.006 A 
ENDBRANCH  29  43
BRANCH  30  51
ATOM     51  C   UNL     1       5.144  -7.644  -6.252  1.00  0.00     0.057 A 
ATOM     52  C   UNL     1       6.024  -8.673  -5.900  1.00  0.00     0.134 A 
ATOM     53  C   UNL     1       3.773  -7.942  -6.226  1.00  0.00     0.134 A 
ATOM     54  F   UNL     1       7.349  -8.467  -5.924  1.00  0.00    -0.206 F 
ATOM     55  C   UNL     1       5.564  -9.947  -5.550  1.00  0.00     0.040 A 
ATOM     56  C   UNL     1       3.298  -9.200  -5.850  1.00  0.00     0.040 A 
ATOM     57  F   UNL     1       2.870  -7.008  -6.558  1.00  0.00    -0.206 F 
ATOM     58  C   UNL     1       4.196 -10.210  -5.519  1.00  0.00     0.006 A 
ENDBRANCH  30  51
BRANCH  42  59
ATOM     59  C   UNL     1       8.658  -5.228 -11.773  1.00  0.00     0.057 A 
ATOM     60  C   UNL     1       7.825  -5.640 -12.819  1.00  0.00     0.134 A 
ATOM     61  C   UNL     1      10.039  -5.396 -11.927  1.00  0.00     0.134 A 
ATOM     62  F   UNL     1       6.493  -5.513 -12.719  1.00  0.00    -0.206 F 
ATOM     63  C   UNL     1       8.349  -6.206 -13.979  1.00  0.00     0.040 A 
ATOM     64  C   UNL     1      10.576  -5.938 -13.092  1.00  0.00     0.040 A 
ATOM     65  F   UNL     1      10.884  -5.009 -10.960  1.00  0.00    -0.206 F 
ATOM     66  C   UNL     1       9.729  -6.346 -14.122  1.00  0.00     0.006 A 
ENDBRANCH  42  59
ENDBRANCH  16  17
ENDBRANCH   9  11
ENDBRANCH   8   9
ENDBRANCH   7   8
ENDBRANCH   6   7
ENDBRANCH   5   6
ENDBRANCH   4   5
ENDBRANCH   3   4
ENDBRANCH   2   3
ENDBRANCH   1   2
BRANCH   1  67
ATOM     67  C   UNL     1       4.449  -3.008   0.987  1.00  0.00     0.188 C 
BRANCH  67  68
ATOM     68  O   UNL     1       3.372  -3.457   0.196  1.00  0.00    -0.376 OA
BRANCH  68  69
ATOM     69  C   UNL     1       2.717  -4.652   0.594  1.00  0.00     0.202 C 
BRANCH  69  70
ATOM     70  C   UNL     1       2.470  -5.038   2.071  1.00  0.00     0.261 C 
BRANCH  70  71
ATOM     71  O   UNL     1       3.276  -4.352   3.043  1.00  0.00    -0.463 OA
BRANCH  71  72
ATOM     72  C   UNL     1       3.485  -4.972   4.218  1.00  0.00     0.310 C 
ATOM     73  O   UNL     1       3.092  -6.122   4.411  1.00  0.00    -0.252 OA
BRANCH  72  74
ATOM     74  C   UNL     1       4.375  -4.182   5.218  1.00  0.00     0.115 C 
ATOM     75  C   UNL     1       4.218  -2.651   5.493  1.00  0.00     0.004 C 
ATOM     76  C   UNL     1       4.255  -4.934   6.559  1.00  0.00     0.096 C 
ATOM     77  C   UNL     1       2.778  -2.326   5.858  1.00  0.00     0.005 C 
ATOM     78  C   UNL     1       5.137  -2.247   6.680  1.00  0.00     0.005 C 
ATOM     79  C   UNL     1       3.608  -3.958   7.613  1.00  0.00     0.002 C 
ATOM     80  C   UNL     1       2.353  -3.278   6.980  1.00  0.00     0.005 C 
ATOM     81  C   UNL     1       4.583  -2.829   7.975  1.00  0.00     0.005 C 
BRANCH  76  82
ATOM     82  C   UNL     1       5.545  -5.652   7.012  1.00  0.00     0.229 C 
ATOM     83  O   UNL     1       5.911  -5.547   8.191  1.00  0.00    -0.274 OA
ATOM     84  N   UNL     1       6.213  -6.589   6.257  1.00  0.00    -0.317 N 
ATOM     85  H   UNL     1       6.833  -7.148   6.778  1.00  0.00     0.170 HD
BRANCH  84  86
ATOM     86  C   UNL     1       6.183  -6.899   4.906  1.00  0.00     0.108 A 
ATOM     87  S   UNL     1       6.989  -5.822   3.847  1.00  0.00    -0.122 S 
ATOM     88  C   UNL     1       5.927  -8.125   4.284  1.00  0.00     0.078 A 
ATOM     89  C   UNL     1       6.558  -6.733   2.489  1.00  0.00     0.011 A 
ATOM     90  C   UNL     1       6.053  -7.973   2.833  1.00  0.00    -0.019 A 
ATOM     91  C   UNL     1       6.772  -6.247   1.086  1.00  0.00     0.047 C 
ATOM     92  C   UNL     1       5.670  -8.951   1.757  1.00  0.00     0.037 C 
ATOM     93  C   UNL     1       5.843  -7.004   0.130  1.00  0.00     0.006 C 
ATOM     94  C   UNL     1       5.997  -8.506   0.323  1.00  0.00     0.005 C 
BRANCH  88  95
ATOM     95  C   UNL     1       5.447  -9.277   5.077  1.00  0.00     0.257 C 
ATOM     96  O   UNL     1       5.193  -9.165   6.277  1.00  0.00    -0.269 OA
ATOM     97  N   UNL     1       5.223 -10.493   4.428  1.00  0.00    -0.339 N 
ATOM     98  C   UNL     1       4.087 -11.269   4.903  1.00  0.00     0.120 C 
ATOM     99  C   UNL     1       6.340 -11.305   3.949  1.00  0.00     0.120 C 
ATOM    100  C   UNL     1       3.549 -12.145   3.782  1.00  0.00     0.022 C 
ATOM    101  C   UNL     1       5.899 -12.294   2.861  1.00  0.00     0.022 C 
ATOM    102  C   UNL     1       4.639 -13.070   3.244  1.00  0.00     0.004 C 
ENDBRANCH  88  95
ENDBRANCH  84  86
ENDBRANCH  76  82
ENDBRANCH  72  74
ENDBRANCH  71  72
ENDBRANCH  70  71
ENDBRANCH  69  70
ENDBRANCH  68  69
ENDBRANCH  67  68
ENDBRANCH   1  67
TORSDOF 23
