REMARK SMILES CC(C)(C)OC(=O)N1CCC[C@H]1C(=O)N1CCC[C@H]1C(=O)N1CCC[C@@H]1C(=O)OCCOCCOCCOCCOC(=O)c1ccc(-c2c3nc(c(-c4c(F)cccc4F)c4ccc([nH]4)c(-c4c(F)cccc4F)c4nc(c(-c5c(F)cccc5F)c5ccc2[nH]5)C=C4)C=C3)cc1
REMARK SMILES IDX 33 1 32 2 31 3 30 4 29 5 27 6 28 7 26 8 22 9 23 10 24 11
REMARK SMILES IDX 25 12 20 13 21 14 19 15 15 16 16 17 17 18 18 19 13 20 14 21
REMARK SMILES IDX 12 22 8 23 9 24 10 25 11 26 6 27 7 28 5 29 2 30 1 31 3 32
REMARK SMILES IDX 4 33 34 34 35 35 36 36 37 37 38 38 39 39 40 40 41 41 42 42
REMARK SMILES IDX 43 43 44 44 45 45 97 46 46 47 96 48 47 49 48 50 49 51 90 52
REMARK SMILES IDX 50 53 95 54 89 55 91 56 51 57 94 58 88 59 87 60 52 62 78 63
REMARK SMILES IDX 61 64 77 65 62 66 65 67 76 68 92 69 63 70 64 71 75 73 93 74
REMARK SMILES IDX 66 75 53 76 54 77 59 78 55 79 56 80 58 81 60 82 57 83 79 84
REMARK SMILES IDX 80 85 85 86 81 87 82 88 84 89 86 90 83 91 67 92 68 93 73 94
REMARK SMILES IDX 69 95 70 96 72 97 74 98 71 99
REMARK H PARENT 91 61 65 72
REMARK Flexibility Score: inf
ROOT
ATOM      1  C   UNL     1       1.286   6.836 -10.070  1.00  0.00     0.188 C 
ENDROOT
BRANCH   1   2
ATOM      2  O   UNL     1       2.232   5.786  -9.946  1.00  0.00    -0.376 OA
BRANCH   2   3
ATOM      3  C   UNL     1       2.026   4.648  -9.126  1.00  0.00     0.202 C 
BRANCH   3   4
ATOM      4  C   UNL     1       1.527   4.736  -7.676  1.00  0.00     0.261 C 
BRANCH   4   5
ATOM      5  O   UNL     1       0.372   5.554  -7.444  1.00  0.00    -0.462 OA
BRANCH   5   6
ATOM      6  C   UNL     1       0.644   6.814  -7.029  1.00  0.00     0.328 C 
ATOM      7  O   UNL     1       1.786   7.223  -6.843  1.00  0.00    -0.250 OA
BRANCH   6   8
ATOM      8  C   UNL     1      -0.612   7.651  -6.685  1.00  0.00     0.195 C 
ATOM      9  N   UNL     1      -0.888   7.593  -5.269  1.00  0.00    -0.327 N 
ATOM     10  C   UNL     1      -2.273   7.835  -4.982  1.00  0.00     0.120 C 
ATOM     11  C   UNL     1      -2.955   7.111  -6.117  1.00  0.00     0.024 C 
ATOM     12  C   UNL     1      -1.979   7.267  -7.292  1.00  0.00     0.039 C 
BRANCH   9  13
ATOM     13  C   UNL     1       0.121   7.465  -4.359  1.00  0.00     0.246 C 
ATOM     14  O   UNL     1       1.018   8.297  -4.272  1.00  0.00    -0.272 OA
BRANCH  13  15
ATOM     15  C   UNL     1       0.113   6.120  -3.597  1.00  0.00     0.174 C 
ATOM     16  N   UNL     1      -0.520   6.188  -2.304  1.00  0.00    -0.329 N 
ATOM     17  C   UNL     1      -1.790   5.486  -2.270  1.00  0.00     0.120 C 
ATOM     18  C   UNL     1      -1.792   4.562  -3.483  1.00  0.00     0.024 C 
ATOM     19  C   UNL     1      -0.549   4.923  -4.297  1.00  0.00     0.037 C 
BRANCH  16  20
ATOM     20  C   UNL     1       0.211   6.735  -1.284  1.00  0.00     0.246 C 
ATOM     21  O   UNL     1       0.818   7.792  -1.470  1.00  0.00    -0.272 OA
BRANCH  20  22
ATOM     22  C   UNL     1       0.371   5.941   0.028  1.00  0.00     0.178 C 
ATOM     23  N   UNL     1       1.189   4.718  -0.116  1.00  0.00    -0.296 N 
ATOM     24  C   UNL     1       2.499   4.882   0.469  1.00  0.00     0.124 C 
ATOM     25  C   UNL     1       2.258   5.871   1.590  1.00  0.00     0.024 C 
ATOM     26  C   UNL     1       1.169   6.790   1.045  1.00  0.00     0.037 C 
BRANCH  23  27
ATOM     27  C   UNL     1       0.666   3.547  -0.607  1.00  0.00     0.410 C 
ATOM     28  O   UNL     1      -0.366   3.502  -1.234  1.00  0.00    -0.224 OA
BRANCH  27  29
ATOM     29  O   UNL     1       1.362   2.426  -0.273  1.00  0.00    -0.444 OA
BRANCH  29  30
ATOM     30  C   UNL     1       0.834   1.139  -0.722  1.00  0.00     0.106 C 
ATOM     31  C   UNL     1       1.512   0.088   0.165  1.00  0.00     0.056 C 
ATOM     32  C   UNL     1       1.242   0.923  -2.183  1.00  0.00     0.056 C 
ATOM     33  C   UNL     1      -0.690   0.957  -0.544  1.00  0.00     0.056 C 
ENDBRANCH  29  30
ENDBRANCH  27  29
ENDBRANCH  23  27
ENDBRANCH  20  22
ENDBRANCH  16  20
ENDBRANCH  13  15
ENDBRANCH   9  13
ENDBRANCH   6   8
ENDBRANCH   5   6
ENDBRANCH   4   5
ENDBRANCH   3   4
ENDBRANCH   2   3
ENDBRANCH   1   2
BRANCH   1  34
ATOM     34  C   UNL     1      -0.225   6.568 -10.129  1.00  0.00     0.188 C 
BRANCH  34  35
ATOM     35  O   UNL     1      -0.616   5.246  -9.820  1.00  0.00    -0.377 OA
BRANCH  35  36
ATOM     36  C   UNL     1      -0.787   4.338 -10.899  1.00  0.00     0.188 C 
BRANCH  36  37
ATOM     37  C   UNL     1       0.061   4.541 -12.168  1.00  0.00     0.188 C 
BRANCH  37  38
ATOM     38  O   UNL     1       0.005   5.859 -12.699  1.00  0.00    -0.376 OA
BRANCH  38  39
ATOM     39  C   UNL     1      -0.951   6.144 -13.711  1.00  0.00     0.202 C 
BRANCH  39  40
ATOM     40  C   UNL     1      -2.437   6.095 -13.308  1.00  0.00     0.261 C 
BRANCH  40  41
ATOM     41  O   UNL     1      -2.950   4.811 -12.914  1.00  0.00    -0.460 OA
BRANCH  41  42
ATOM     42  C   UNL     1      -2.759   3.774 -13.755  1.00  0.00     0.338 C 
ATOM     43  O   UNL     1      -2.304   3.814 -14.883  1.00  0.00    -0.246 OA
BRANCH  42  44
ATOM     44  C   UNL     1      -3.008   2.520 -13.016  1.00  0.00     0.060 A 
ATOM     45  C   UNL     1      -2.002   1.545 -13.011  1.00  0.00     0.016 A 
ATOM     46  C   UNL     1      -4.235   2.278 -12.393  1.00  0.00     0.016 A 
ATOM     47  C   UNL     1      -2.253   0.290 -12.465  1.00  0.00     0.010 A 
ATOM     48  C   UNL     1      -4.494   1.010 -11.862  1.00  0.00     0.010 A 
ATOM     49  C   UNL     1      -3.525  -0.005 -11.958  1.00  0.00    -0.014 A 
BRANCH  49  50
ATOM     50  C   UNL     1      -3.911  -1.431 -11.822  1.00  0.00     0.031 A 
ATOM     51  C   UNL     1      -4.641  -2.073 -12.974  1.00  0.00     0.074 A 
ATOM     52  C   UNL     1      -3.551  -2.165 -10.756  1.00  0.00     0.049 A 
ATOM     53  N   UNL     1      -5.046  -3.308 -13.122  1.00  0.00    -0.248 NA
ATOM     54  C   UNL     1      -4.953  -1.200 -14.119  1.00  0.00     0.031 C 
ATOM     55  C   UNL     1      -2.801  -1.675  -9.602  1.00  0.00     0.029 A 
ATOM     56  N   UNL     1      -3.767  -3.492 -10.482  1.00  0.00    -0.354 N 
ATOM     57  C   UNL     1      -5.658  -3.357 -14.369  1.00  0.00     0.074 A 
ATOM     58  C   UNL     1      -5.610  -2.022 -14.920  1.00  0.00     0.031 C 
ATOM     59  C   UNL     1      -2.620  -2.691  -8.740  1.00  0.00     0.029 A 
ATOM     60  C   UNL     1      -3.258  -3.894  -9.272  1.00  0.00     0.049 A 
ATOM     61  H   UNL     1      -4.241  -4.099 -11.095  1.00  0.00     0.167 HD
ATOM     62  C   UNL     1      -6.197  -4.420 -15.010  1.00  0.00     0.037 A 
ATOM     63  C   UNL     1      -3.311  -5.096  -8.665  1.00  0.00     0.037 A 
ATOM     64  C   UNL     1      -6.245  -5.750 -14.464  1.00  0.00     0.049 A 
ATOM     65  C   UNL     1      -3.977  -6.252  -9.369  1.00  0.00     0.074 A 
ATOM     66  C   UNL     1      -6.771  -6.897 -15.031  1.00  0.00     0.029 A 
ATOM     67  N   UNL     1      -5.752  -6.107 -13.219  1.00  0.00    -0.354 N 
ATOM     68  N   UNL     1      -4.535  -6.292 -10.556  1.00  0.00    -0.248 NA
ATOM     69  C   UNL     1      -4.007  -7.535  -8.652  1.00  0.00     0.031 C 
ATOM     70  C   UNL     1      -6.639  -7.939 -14.107  1.00  0.00     0.029 A 
ATOM     71  C   UNL     1      -5.977  -7.454 -12.991  1.00  0.00     0.049 A 
ATOM     72  H   UNL     1      -5.307  -5.494 -12.589  1.00  0.00     0.167 HD
ATOM     73  C   UNL     1      -4.944  -7.608 -10.742  1.00  0.00     0.074 A 
ATOM     74  C   UNL     1      -4.561  -8.335  -9.550  1.00  0.00     0.031 C 
ATOM     75  C   UNL     1      -5.575  -8.167 -11.805  1.00  0.00     0.037 A 
BRANCH  62  76
ATOM     76  C   UNL     1      -6.802  -4.175 -16.361  1.00  0.00     0.057 A 
ATOM     77  C   UNL     1      -6.018  -3.883 -17.485  1.00  0.00     0.134 A 
ATOM     78  C   UNL     1      -8.189  -4.240 -16.542  1.00  0.00     0.134 A 
ATOM     79  F   UNL     1      -4.684  -3.785 -17.377  1.00  0.00    -0.206 F 
ATOM     80  C   UNL     1      -6.593  -3.640 -18.734  1.00  0.00     0.040 A 
ATOM     81  C   UNL     1      -8.774  -4.027 -17.791  1.00  0.00     0.040 A 
ATOM     82  F   UNL     1      -8.999  -4.514 -15.508  1.00  0.00    -0.206 F 
ATOM     83  C   UNL     1      -7.975  -3.719 -18.890  1.00  0.00     0.006 A 
ENDBRANCH  62  76
BRANCH  63  84
ATOM     84  C   UNL     1      -2.717  -5.279  -7.316  1.00  0.00     0.057 A 
ATOM     85  C   UNL     1      -1.593  -6.090  -7.117  1.00  0.00     0.134 A 
ATOM     86  C   UNL     1      -3.285  -4.678  -6.186  1.00  0.00     0.134 A 
ATOM     87  F   UNL     1      -1.018  -6.713  -8.156  1.00  0.00    -0.206 F 
ATOM     88  C   UNL     1      -1.071  -6.316  -5.842  1.00  0.00     0.040 A 
ATOM     89  C   UNL     1      -2.756  -4.873  -4.909  1.00  0.00     0.040 A 
ATOM     90  F   UNL     1      -4.363  -3.889  -6.308  1.00  0.00    -0.206 F 
ATOM     91  C   UNL     1      -1.651  -5.703  -4.734  1.00  0.00     0.006 A 
ENDBRANCH  63  84
BRANCH  75  92
ATOM     92  C   UNL     1      -5.836  -9.646 -11.755  1.00  0.00     0.057 A 
ATOM     93  C   UNL     1      -6.785 -10.209 -10.894  1.00  0.00     0.134 A 
ATOM     94  C   UNL     1      -5.143 -10.515 -12.609  1.00  0.00     0.134 A 
ATOM     95  F   UNL     1      -7.478  -9.434 -10.045  1.00  0.00    -0.206 F 
ATOM     96  C   UNL     1      -7.012 -11.586 -10.858  1.00  0.00     0.040 A 
ATOM     97  C   UNL     1      -5.383 -11.890 -12.604  1.00  0.00     0.040 A 
ATOM     98  F   UNL     1      -4.229 -10.042 -13.470  1.00  0.00    -0.206 F 
ATOM     99  C   UNL     1      -6.313 -12.430 -11.720  1.00  0.00     0.006 A 
ENDBRANCH  75  92
ENDBRANCH  49  50
ENDBRANCH  42  44
ENDBRANCH  41  42
ENDBRANCH  40  41
ENDBRANCH  39  40
ENDBRANCH  38  39
ENDBRANCH  37  38
ENDBRANCH  36  37
ENDBRANCH  35  36
ENDBRANCH  34  35
ENDBRANCH   1  34
TORSDOF 27
