REMARK SMILES O=C(OCCOCCOCCOCCOC(=O)c1cnc2c(C(F)(F)F)cccc2c1NCc1cccnc1)c1ccc(-c2c3nc(c(-c4c(F)cccc4F)c4ccc([nH]4)c(-c4c(F)cccc4F)c4nc(c(-c5c(F)cccc5F)c5ccc2[nH]5)C=C4)C=C3)cc1
REMARK SMILES IDX 10 1 9 2 8 3 7 4 6 5 5 6 4 7 3 8 2 9 1 10 40 11 41 12 93 13
REMARK SMILES IDX 42 14 92 15 43 16 44 17 45 18 86 19 46 20 91 21 85 22 87 23
REMARK SMILES IDX 47 24 90 25 84 26 83 27 48 29 74 30 57 31 73 32 58 33 61 34
REMARK SMILES IDX 72 35 88 36 59 37 60 38 71 40 89 41 62 42 49 43 50 44 55 45
REMARK SMILES IDX 51 46 52 47 54 48 56 49 53 50 75 51 76 52 81 53 77 54 78 55
REMARK SMILES IDX 80 56 82 57 79 58 63 59 64 60 69 61 65 62 66 63 68 64 70 65
REMARK SMILES IDX 67 66 11 67 12 68 13 69 14 70 15 71 16 72 17 73 18 74 19 75
REMARK SMILES IDX 31 76 20 77 30 78 21 79 29 80 22 81 28 82 27 83 32 84 33 86
REMARK SMILES IDX 34 87 35 88 39 89 36 90 38 91 37 92 23 93 24 94 25 95 26 96
REMARK H PARENT 87 28 61 39 32 85
REMARK Flexibility Score: inf
ROOT
ATOM      1  C   UNL     1       3.718  -1.420   2.775  1.00  0.00     0.188 C 
ENDROOT
BRANCH   1   2
ATOM      2  O   UNL     1       2.512  -1.294   3.506  1.00  0.00    -0.377 OA
BRANCH   2   3
ATOM      3  C   UNL     1       1.548  -0.352   3.055  1.00  0.00     0.188 C 
BRANCH   3   4
ATOM      4  C   UNL     1       1.192  -0.455   1.573  1.00  0.00     0.188 C 
BRANCH   4   5
ATOM      5  O   UNL     1       2.196   0.103   0.729  1.00  0.00    -0.376 OA
BRANCH   5   6
ATOM      6  C   UNL     1       2.358   1.514   0.805  1.00  0.00     0.202 C 
BRANCH   6   7
ATOM      7  C   UNL     1       3.129   1.994  -0.428  1.00  0.00     0.261 C 
BRANCH   7   8
ATOM      8  O   UNL     1       2.536   1.670  -1.706  1.00  0.00    -0.460 OA
BRANCH   8   9
ATOM      9  C   UNL     1       1.836   0.517  -1.856  1.00  0.00     0.338 C 
ATOM     10  O   UNL     1       0.619   0.497  -1.985  1.00  0.00    -0.246 OA
BRANCH   9  11
ATOM     11  C   UNL     1       2.678  -0.674  -2.176  1.00  0.00     0.060 A 
ATOM     12  C   UNL     1       3.824  -1.030  -1.454  1.00  0.00     0.016 A 
ATOM     13  C   UNL     1       2.247  -1.510  -3.213  1.00  0.00     0.016 A 
ATOM     14  C   UNL     1       4.538  -2.187  -1.765  1.00  0.00     0.010 A 
ATOM     15  C   UNL     1       2.965  -2.665  -3.535  1.00  0.00     0.010 A 
ATOM     16  C   UNL     1       4.120  -3.004  -2.816  1.00  0.00    -0.014 A 
BRANCH  16  17
ATOM     17  C   UNL     1       4.935  -4.168  -3.222  1.00  0.00     0.031 A 
ATOM     18  C   UNL     1       5.810  -4.046  -4.433  1.00  0.00     0.074 A 
ATOM     19  C   UNL     1       4.895  -5.314  -2.519  1.00  0.00     0.049 A 
ATOM     20  N   UNL     1       6.476  -4.972  -5.071  1.00  0.00    -0.248 NA
ATOM     21  C   UNL     1       5.957  -2.695  -4.999  1.00  0.00     0.031 C 
ATOM     22  C   UNL     1       4.145  -5.524  -1.280  1.00  0.00     0.029 A 
ATOM     23  N   UNL     1       5.489  -6.527  -2.763  1.00  0.00    -0.354 N 
ATOM     24  C   UNL     1       7.090  -4.325  -6.135  1.00  0.00     0.074 A 
ATOM     25  C   UNL     1       6.731  -2.925  -6.049  1.00  0.00     0.031 C 
ATOM     26  C   UNL     1       4.304  -6.800  -0.887  1.00  0.00     0.029 A 
ATOM     27  C   UNL     1       5.120  -7.505  -1.872  1.00  0.00     0.049 A 
ATOM     28  H   UNL     1       6.119  -6.680  -3.504  1.00  0.00     0.167 HD
ATOM     29  C   UNL     1       7.870  -4.857  -7.102  1.00  0.00     0.037 A 
ATOM     30  C   UNL     1       5.372  -8.829  -1.886  1.00  0.00     0.037 A 
ATOM     31  C   UNL     1       8.227  -6.248  -7.176  1.00  0.00     0.049 A 
ATOM     32  C   UNL     1       6.175  -9.410  -3.021  1.00  0.00     0.074 A 
ATOM     33  C   UNL     1       9.018  -6.888  -8.112  1.00  0.00     0.029 A 
ATOM     34  N   UNL     1       7.806  -7.214  -6.275  1.00  0.00    -0.354 N 
ATOM     35  N   UNL     1       6.743  -8.797  -4.032  1.00  0.00    -0.248 NA
ATOM     36  C   UNL     1       6.351 -10.870  -3.031  1.00  0.00     0.031 C 
ATOM     37  C   UNL     1       9.044  -8.251  -7.800  1.00  0.00     0.029 A 
ATOM     38  C   UNL     1       8.297  -8.452  -6.650  1.00  0.00     0.049 A 
ATOM     39  H   UNL     1       7.241  -7.045  -5.487  1.00  0.00     0.167 HD
ATOM     40  C   UNL     1       7.346  -9.793  -4.791  1.00  0.00     0.074 A 
ATOM     41  C   UNL     1       7.098 -11.047  -4.112  1.00  0.00     0.031 C 
ATOM     42  C   UNL     1       8.036  -9.684  -5.953  1.00  0.00     0.037 A 
BRANCH  29  43
ATOM     43  C   UNL     1       8.347  -3.941  -8.185  1.00  0.00     0.057 A 
ATOM     44  C   UNL     1       9.392  -3.033  -7.981  1.00  0.00     0.134 A 
ATOM     45  C   UNL     1       7.763  -3.987  -9.457  1.00  0.00     0.134 A 
ATOM     46  F   UNL     1       9.976  -2.926  -6.778  1.00  0.00    -0.206 F 
ATOM     47  C   UNL     1       9.834  -2.193  -9.005  1.00  0.00     0.040 A 
ATOM     48  C   UNL     1       8.207  -3.166 -10.493  1.00  0.00     0.040 A 
ATOM     49  F   UNL     1       6.754  -4.834  -9.712  1.00  0.00    -0.206 F 
ATOM     50  C   UNL     1       9.245  -2.264 -10.267  1.00  0.00     0.006 A 
ENDBRANCH  29  43
BRANCH  30  51
ATOM     51  C   UNL     1       4.804  -9.717  -0.839  1.00  0.00     0.057 A 
ATOM     52  C   UNL     1       5.629 -10.377   0.079  1.00  0.00     0.134 A 
ATOM     53  C   UNL     1       3.428  -9.969  -0.765  1.00  0.00     0.134 A 
ATOM     54  F   UNL     1       6.958 -10.202   0.039  1.00  0.00    -0.206 F 
ATOM     55  C   UNL     1       5.110 -11.272   1.017  1.00  0.00     0.040 A 
ATOM     56  C   UNL     1       2.893 -10.840   0.185  1.00  0.00     0.040 A 
ATOM     57  F   UNL     1       2.584  -9.375  -1.621  1.00  0.00    -0.206 F 
ATOM     58  C   UNL     1       3.736 -11.502   1.074  1.00  0.00     0.006 A 
ENDBRANCH  30  51
BRANCH  42  59
ATOM     59  C   UNL     1       8.571 -10.948  -6.553  1.00  0.00     0.057 A 
ATOM     60  C   UNL     1       7.735 -11.850  -7.223  1.00  0.00     0.134 A 
ATOM     61  C   UNL     1       9.940 -11.238  -6.510  1.00  0.00     0.134 A 
ATOM     62  F   UNL     1       6.413 -11.632  -7.286  1.00  0.00    -0.206 F 
ATOM     63  C   UNL     1       8.242 -13.005  -7.819  1.00  0.00     0.040 A 
ATOM     64  C   UNL     1      10.461 -12.379  -7.121  1.00  0.00     0.040 A 
ATOM     65  F   UNL     1      10.793 -10.408  -5.890  1.00  0.00    -0.206 F 
ATOM     66  C   UNL     1       9.610 -13.267  -7.776  1.00  0.00     0.006 A 
ENDBRANCH  42  59
ENDBRANCH  16  17
ENDBRANCH   9  11
ENDBRANCH   8   9
ENDBRANCH   7   8
ENDBRANCH   6   7
ENDBRANCH   5   6
ENDBRANCH   4   5
ENDBRANCH   3   4
ENDBRANCH   2   3
ENDBRANCH   1   2
BRANCH   1  67
ATOM     67  C   UNL     1       4.071  -2.884   2.450  1.00  0.00     0.188 C 
BRANCH  67  68
ATOM     68  O   UNL     1       3.025  -3.843   2.541  1.00  0.00    -0.376 OA
BRANCH  68  69
ATOM     69  C   UNL     1       2.458  -4.061   3.839  1.00  0.00     0.202 C 
BRANCH  69  70
ATOM     70  C   UNL     1       3.431  -4.134   5.030  1.00  0.00     0.261 C 
BRANCH  70  71
ATOM     71  O   UNL     1       3.850  -2.822   5.480  1.00  0.00    -0.460 OA
BRANCH  71  72
ATOM     72  C   UNL     1       5.172  -2.583   5.645  1.00  0.00     0.341 C 
ATOM     73  O   UNL     1       6.083  -3.380   5.400  1.00  0.00    -0.246 OA
BRANCH  72  74
ATOM     74  C   UNL     1       5.396  -1.232   6.204  1.00  0.00     0.102 A 
ATOM     75  C   UNL     1       4.574  -0.920   7.281  1.00  0.00     0.129 A 
ATOM     76  C   UNL     1       6.465  -0.358   5.907  1.00  0.00     0.060 A 
ATOM     77  N   UNL     1       4.751   0.127   8.113  1.00  0.00    -0.255 NA
ATOM     78  C   UNL     1       6.638   0.789   6.779  1.00  0.00     0.025 A 
ATOM     79  C   UNL     1       5.783   0.947   7.902  1.00  0.00     0.085 A 
ATOM     80  C   UNL     1       7.646   1.774   6.592  1.00  0.00     0.012 A 
ATOM     81  C   UNL     1       6.022   1.965   8.826  1.00  0.00     0.082 A 
ATOM     82  C   UNL     1       7.862   2.804   7.505  1.00  0.00     0.001 A 
ATOM     83  C   UNL     1       7.064   2.887   8.631  1.00  0.00     0.015 A 
BRANCH  76  84
ATOM     84  N   UNL     1       7.354  -0.459   4.835  1.00  0.00    -0.380 N 
ATOM     85  H   UNL     1       8.162   0.095   4.928  1.00  0.00     0.160 HD
BRANCH  84  86
ATOM     86  C   UNL     1       7.303  -1.231   3.608  1.00  0.00     0.150 C 
BRANCH  86  87
ATOM     87  C   UNL     1       7.190  -0.378   2.364  1.00  0.00    -0.011 A 
ATOM     88  C   UNL     1       7.340  -0.976   1.104  1.00  0.00     0.009 A 
ATOM     89  C   UNL     1       6.906   0.984   2.374  1.00  0.00     0.116 A 
ATOM     90  C   UNL     1       7.247  -0.208  -0.056  1.00  0.00     0.020 A 
ATOM     91  N   UNL     1       6.791   1.752   1.260  1.00  0.00    -0.264 NA
ATOM     92  C   UNL     1       6.984   1.142   0.073  1.00  0.00     0.111 A 
ENDBRANCH  86  87
ENDBRANCH  84  86
ENDBRANCH  76  84
BRANCH  81  93
ATOM     93  C   UNL     1       5.164   2.061  10.061  1.00  0.00     0.418 C 
ATOM     94  F   UNL     1       3.871   2.399   9.802  1.00  0.00    -0.166 F 
ATOM     95  F   UNL     1       5.132   0.917  10.801  1.00  0.00    -0.166 F 
ATOM     96  F   UNL     1       5.610   3.021  10.931  1.00  0.00    -0.166 F 
ENDBRANCH  81  93
ENDBRANCH  72  74
ENDBRANCH  71  72
ENDBRANCH  70  71
ENDBRANCH  69  70
ENDBRANCH  68  69
ENDBRANCH  67  68
ENDBRANCH   1  67
TORSDOF 24
