REMARK SMILES Cc1ccc(-c2noc(CCC(=O)OCCOCCOCCOCCOC(=O)c3ccc(-c4c5nc(c(-c6c(F)cccc6F)c6ccc([nH]6)c(-c6c(F)cccc6F)c6nc(c(-c7c(F)cccc7F)c7ccc4[nH]7)C=C6)C=C5)cc3)n2)cc1C
REMARK SMILES IDX 19 1 18 2 17 3 16 4 15 5 14 6 12 7 13 8 11 9 10 10 9 11 6 12
REMARK SMILES IDX 7 13 83 14 8 15 5 16 1 17 2 18 3 19 85 20 4 21 84 22 86 23
REMARK SMILES IDX 20 24 21 25 22 26 23 27 24 28 25 29 26 30 27 31 28 32 29 33
REMARK SMILES IDX 30 34 82 35 31 36 81 37 32 38 33 39 34 40 75 41 35 42 80 43
REMARK SMILES IDX 74 44 76 45 36 46 79 47 73 48 72 49 37 51 63 52 46 53 62 54
REMARK SMILES IDX 47 55 50 56 61 57 77 58 48 59 49 60 60 62 78 63 51 64 38 65
REMARK SMILES IDX 39 66 44 67 40 68 41 69 43 70 45 71 42 72 64 73 65 74 70 75
REMARK SMILES IDX 66 76 67 77 69 78 71 79 68 80 52 81 53 82 58 83 54 84 55 85
REMARK SMILES IDX 57 86 59 87 56 88
REMARK H PARENT 76 50 50 61
REMARK Flexibility Score: inf
ROOT
ATOM      1  C   UNL     1      -7.995  -3.606   0.283  1.00  0.00     0.188 C 
ENDROOT
BRANCH   1   2
ATOM      2  C   UNL     1      -8.236  -5.124   0.271  1.00  0.00     0.188 C 
BRANCH   2   3
ATOM      3  O   UNL     1      -7.742  -5.785   1.413  1.00  0.00    -0.376 OA
BRANCH   3   4
ATOM      4  C   UNL     1      -6.568  -6.568   1.320  1.00  0.00     0.202 C 
BRANCH   4   5
ATOM      5  C   UNL     1      -5.367  -6.175   0.441  1.00  0.00     0.261 C 
BRANCH   5   6
ATOM      6  O   UNL     1      -5.548  -5.073  -0.459  1.00  0.00    -0.463 OA
BRANCH   6   7
ATOM      7  C   UNL     1      -5.495  -5.336  -1.778  1.00  0.00     0.306 C 
ATOM      8  O   UNL     1      -5.474  -6.469  -2.250  1.00  0.00    -0.252 OA
BRANCH   7   9
ATOM      9  C   UNL     1      -5.504  -4.117  -2.677  1.00  0.00     0.132 C 
BRANCH   9  10
ATOM     10  C   UNL     1      -5.468  -2.682  -2.163  1.00  0.00     0.112 C 
BRANCH  10  11
ATOM     11  C   UNL     1      -4.368  -2.295  -1.256  1.00  0.00     0.227 A 
ATOM     12  C   UNL     1      -2.788  -1.388  -0.232  1.00  0.00     0.202 A 
ATOM     13  N   UNL     1      -3.188  -2.349   0.611  1.00  0.00    -0.057 NA
ATOM     14  N   UNL     1      -3.505  -1.317  -1.403  1.00  0.00    -0.191 NA
ATOM     15  O   UNL     1      -4.265  -2.922  -0.054  1.00  0.00    -0.339 OA
BRANCH  12  16
ATOM     16  C   UNL     1      -1.591  -0.607  -0.042  1.00  0.00     0.023 A 
ATOM     17  C   UNL     1       2.070   1.655   0.056  1.00  0.00     0.044 C 
ATOM     18  C   UNL     1       0.809   0.839   0.062  1.00  0.00    -0.048 A 
ATOM     19  C   UNL     1      -0.431   1.503   0.012  1.00  0.00     0.004 A 
ATOM     20  C   UNL     1       0.840  -0.568   0.087  1.00  0.00    -0.047 A 
ATOM     21  C   UNL     1      -1.626   0.785  -0.052  1.00  0.00     0.012 A 
ATOM     22  C   UNL     1      -0.368  -1.275   0.053  1.00  0.00     0.015 A 
ATOM     23  C   UNL     1       2.103  -1.380   0.104  1.00  0.00     0.044 C 
ENDBRANCH  12  16
ENDBRANCH  10  11
ENDBRANCH   9  10
ENDBRANCH   7   9
ENDBRANCH   6   7
ENDBRANCH   5   6
ENDBRANCH   4   5
ENDBRANCH   3   4
ENDBRANCH   2   3
ENDBRANCH   1   2
BRANCH   1  24
ATOM     24  O   UNL     1      -6.925  -3.064   1.043  1.00  0.00    -0.377 OA
BRANCH  24  25
ATOM     25  C   UNL     1      -6.805  -3.376   2.432  1.00  0.00     0.188 C 
BRANCH  25  26
ATOM     26  C   UNL     1      -8.055  -3.719   3.272  1.00  0.00     0.188 C 
BRANCH  26  27
ATOM     27  O   UNL     1      -9.292  -3.442   2.638  1.00  0.00    -0.376 OA
BRANCH  27  28
ATOM     28  C   UNL     1      -9.942  -2.226   2.979  1.00  0.00     0.202 C 
BRANCH  28  29
ATOM     29  C   UNL     1      -9.175  -0.919   2.727  1.00  0.00     0.261 C 
BRANCH  29  30
ATOM     30  O   UNL     1      -7.935  -0.766   3.438  1.00  0.00    -0.460 OA
BRANCH  30  31
ATOM     31  C   UNL     1      -7.972  -0.799   4.784  1.00  0.00     0.338 C 
ATOM     32  O   UNL     1      -8.959  -0.908   5.499  1.00  0.00    -0.246 OA
BRANCH  31  33
ATOM     33  C   UNL     1      -6.583  -0.853   5.271  1.00  0.00     0.060 A 
ATOM     34  C   UNL     1      -6.151  -1.976   5.989  1.00  0.00     0.016 A 
ATOM     35  C   UNL     1      -5.714   0.213   5.028  1.00  0.00     0.016 A 
ATOM     36  C   UNL     1      -4.855  -2.017   6.502  1.00  0.00     0.010 A 
ATOM     37  C   UNL     1      -4.423   0.178   5.558  1.00  0.00     0.010 A 
ATOM     38  C   UNL     1      -4.001  -0.920   6.329  1.00  0.00    -0.014 A 
BRANCH  38  39
ATOM     39  C   UNL     1      -2.752  -0.829   7.122  1.00  0.00     0.031 A 
ATOM     40  C   UNL     1      -2.767  -0.013   8.385  1.00  0.00     0.074 A 
ATOM     41  C   UNL     1      -1.634  -1.474   6.748  1.00  0.00     0.049 A 
ATOM     42  N   UNL     1      -1.797   0.244   9.225  1.00  0.00    -0.248 NA
ATOM     43  C   UNL     1      -4.055   0.600   8.745  1.00  0.00     0.031 C 
ATOM     44  C   UNL     1      -1.505  -2.333   5.574  1.00  0.00     0.029 A 
ATOM     45  N   UNL     1      -0.390  -1.498   7.327  1.00  0.00    -0.354 N 
ATOM     46  C   UNL     1      -2.357   1.050  10.209  1.00  0.00     0.074 A 
ATOM     47  C   UNL     1      -3.738   1.274   9.838  1.00  0.00     0.031 C 
ATOM     48  C   UNL     1      -0.247  -2.805   5.519  1.00  0.00     0.029 A 
ATOM     49  C   UNL     1       0.524  -2.251   6.631  1.00  0.00     0.049 A 
ATOM     50  H   UNL     1      -0.173  -1.022   8.160  1.00  0.00     0.167 HD
ATOM     51  C   UNL     1      -1.778   1.551  11.326  1.00  0.00     0.037 A 
ATOM     52  C   UNL     1       1.836  -2.452   6.862  1.00  0.00     0.037 A 
ATOM     53  C   UNL     1      -0.399   1.343  11.681  1.00  0.00     0.049 A 
ATOM     54  C   UNL     1       2.487  -1.800   8.055  1.00  0.00     0.074 A 
ATOM     55  C   UNL     1       0.287   1.805  12.791  1.00  0.00     0.029 A 
ATOM     56  N   UNL     1       0.510   0.621  10.921  1.00  0.00    -0.354 N 
ATOM     57  N   UNL     1       1.950  -1.055   8.991  1.00  0.00    -0.248 NA
ATOM     58  C   UNL     1       3.931  -2.020   8.221  1.00  0.00     0.031 C 
ATOM     59  C   UNL     1       1.625   1.415  12.671  1.00  0.00     0.029 A 
ATOM     60  C   UNL     1       1.759   0.652  11.521  1.00  0.00     0.049 A 
ATOM     61  H   UNL     1       0.299   0.156  10.080  1.00  0.00     0.167 HD
ATOM     62  C   UNL     1       2.979  -0.746   9.873  1.00  0.00     0.074 A 
ATOM     63  C   UNL     1       4.171  -1.392   9.364  1.00  0.00     0.031 C 
ATOM     64  C   UNL     1       2.939   0.001  11.006  1.00  0.00     0.037 A 
BRANCH  51  65
ATOM     65  C   UNL     1      -2.637   2.407  12.214  1.00  0.00     0.057 A 
ATOM     66  C   UNL     1      -3.713   1.880  12.942  1.00  0.00     0.134 A 
ATOM     67  C   UNL     1      -2.396   3.782  12.329  1.00  0.00     0.134 A 
ATOM     68  F   UNL     1      -4.011   0.573  12.866  1.00  0.00    -0.206 F 
ATOM     69  C   UNL     1      -4.544   2.694  13.714  1.00  0.00     0.040 A 
ATOM     70  C   UNL     1      -3.199   4.601  13.125  1.00  0.00     0.040 A 
ATOM     71  F   UNL     1      -1.380   4.354  11.666  1.00  0.00    -0.206 F 
ATOM     72  C   UNL     1      -4.284   4.060  13.810  1.00  0.00     0.006 A 
ENDBRANCH  51  65
BRANCH  52  73
ATOM     73  C   UNL     1       2.624  -3.319   5.950  1.00  0.00     0.057 A 
ATOM     74  C   UNL     1       3.118  -4.556   6.381  1.00  0.00     0.134 A 
ATOM     75  C   UNL     1       2.911  -2.935   4.634  1.00  0.00     0.134 A 
ATOM     76  F   UNL     1       2.900  -4.969   7.638  1.00  0.00    -0.206 F 
ATOM     77  C   UNL     1       3.875  -5.375   5.542  1.00  0.00     0.040 A 
ATOM     78  C   UNL     1       3.645  -3.755   3.776  1.00  0.00     0.040 A 
ATOM     79  F   UNL     1       2.472  -1.760   4.160  1.00  0.00    -0.206 F 
ATOM     80  C   UNL     1       4.134  -4.978   4.231  1.00  0.00     0.006 A 
ENDBRANCH  52  73
BRANCH  64  81
ATOM     81  C   UNL     1       4.210   0.125  11.799  1.00  0.00     0.057 A 
ATOM     82  C   UNL     1       5.303   0.873  11.345  1.00  0.00     0.134 A 
ATOM     83  C   UNL     1       4.324  -0.483  13.057  1.00  0.00     0.134 A 
ATOM     84  F   UNL     1       5.266   1.472  10.144  1.00  0.00    -0.206 F 
ATOM     85  C   UNL     1       6.473   0.991  12.100  1.00  0.00     0.040 A 
ATOM     86  C   UNL     1       5.476  -0.346  13.835  1.00  0.00     0.040 A 
ATOM     87  F   UNL     1       3.312  -1.205  13.560  1.00  0.00    -0.206 F 
ATOM     88  C   UNL     1       6.558   0.386  13.352  1.00  0.00     0.006 A 
ENDBRANCH  64  81
ENDBRANCH  38  39
ENDBRANCH  31  33
ENDBRANCH  30  31
ENDBRANCH  29  30
ENDBRANCH  28  29
ENDBRANCH  27  28
ENDBRANCH  26  27
ENDBRANCH  25  26
ENDBRANCH  24  25
ENDBRANCH   1  24
TORSDOF 23
