REMARK SMILES Cc1ccn2c([C@@H]3CCCC[C@@H]3C(=O)OCCOCCOCCOCCOC(=O)c3ccc(-c4c5nc(c(-c6c(F)cccc6F)c6ccc([nH]6)c(-c6c(F)cccc6F)c6nc(c(-c7c(F)cccc7F)c7ccc4[nH]7)C=C6)C=C5)cc3)nnc2c1
REMARK SMILES IDX 22 1 21 2 20 3 19 4 18 5 17 6 16 7 15 8 13 9 14 10 12 11
REMARK SMILES IDX 7 12 8 13 9 14 11 15 10 16 6 17 1 18 2 19 3 20 87 21 4 22
REMARK SMILES IDX 86 23 5 24 85 25 84 26 23 27 24 28 25 29 26 30 27 31 28 32
REMARK SMILES IDX 29 33 30 34 31 35 83 36 32 37 82 38 33 39 34 40 35 41 76 42
REMARK SMILES IDX 36 43 81 44 75 45 77 46 37 47 80 48 74 49 73 50 38 52 64 53
REMARK SMILES IDX 47 54 63 55 48 56 51 57 62 58 78 59 49 60 50 61 61 63 79 64
REMARK SMILES IDX 52 65 39 66 40 67 45 68 41 69 42 70 44 71 46 72 43 73 65 74
REMARK SMILES IDX 66 75 71 76 67 77 68 78 70 79 72 80 69 81 53 82 54 83 59 84
REMARK SMILES IDX 55 85 56 86 58 87 60 88 57 89
REMARK H PARENT 77 51 51 62
REMARK Flexibility Score: inf
ROOT
ATOM      1  C   UNL     1      -5.439  -0.455   3.874  1.00  0.00     0.188 C 
ENDROOT
BRANCH   1   2
ATOM      2  O   UNL     1      -4.949   0.616   4.672  1.00  0.00    -0.377 OA
BRANCH   2   3
ATOM      3  C   UNL     1      -4.361   1.724   4.023  1.00  0.00     0.188 C 
BRANCH   3   4
ATOM      4  C   UNL     1      -3.140   1.439   3.128  1.00  0.00     0.188 C 
BRANCH   4   5
ATOM      5  O   UNL     1      -3.135   0.155   2.523  1.00  0.00    -0.376 OA
BRANCH   5   6
ATOM      6  C   UNL     1      -2.224  -0.855   2.936  1.00  0.00     0.202 C 
BRANCH   6   7
ATOM      7  C   UNL     1      -2.318  -1.446   4.361  1.00  0.00     0.261 C 
BRANCH   7   8
ATOM      8  O   UNL     1      -2.474  -0.423   5.351  1.00  0.00    -0.463 OA
BRANCH   8   9
ATOM      9  C   UNL     1      -1.319   0.263   5.482  1.00  0.00     0.309 C 
ATOM     10  O   UNL     1      -0.300  -0.130   4.978  1.00  0.00    -0.252 OA
BRANCH   9  11
ATOM     11  C   UNL     1      -1.439   1.564   6.254  1.00  0.00     0.110 C 
ATOM     12  C   UNL     1      -0.023   2.187   6.418  1.00  0.00     0.072 C 
ATOM     13  C   UNL     1       0.873   1.282   7.267  1.00  0.00     0.012 C 
ATOM     14  C   UNL     1       0.192   0.939   8.606  1.00  0.00     0.001 C 
ATOM     15  C   UNL     1      -2.100   1.292   7.608  1.00  0.00     0.016 C 
ATOM     16  C   UNL     1      -1.225   0.378   8.458  1.00  0.00     0.001 C 
BRANCH  12  17
ATOM     17  C   UNL     1       0.535   2.748   5.107  1.00  0.00     0.141 A 
ATOM     18  C   UNL     1       1.261   0.391   0.129  1.00  0.00     0.044 C 
ATOM     19  C   UNL     1       1.335   1.100   1.451  1.00  0.00    -0.046 A 
ATOM     20  C   UNL     1       1.825   0.333   2.594  1.00  0.00     0.022 A 
ATOM     21  C   UNL     1       0.928   2.377   1.621  1.00  0.00     0.053 A 
ATOM     22  C   UNL     1       1.730   0.854   3.832  1.00  0.00     0.095 A 
ATOM     23  C   UNL     1       0.829   2.924   2.933  1.00  0.00     0.161 A 
ATOM     24  N   UNL     1       1.112   2.093   4.014  1.00  0.00    -0.286 N 
ATOM     25  N   UNL     1       0.433   4.095   3.372  1.00  0.00    -0.130 NA
ATOM     26  N   UNL     1       0.269   3.993   4.731  1.00  0.00    -0.134 NA
ENDBRANCH  12  17
ENDBRANCH   9  11
ENDBRANCH   8   9
ENDBRANCH   7   8
ENDBRANCH   6   7
ENDBRANCH   5   6
ENDBRANCH   4   5
ENDBRANCH   3   4
ENDBRANCH   2   3
ENDBRANCH   1   2
BRANCH   1  27
ATOM     27  C   UNL     1      -5.793  -0.281   2.384  1.00  0.00     0.188 C 
BRANCH  27  28
ATOM     28  O   UNL     1      -6.262   1.012   2.069  1.00  0.00    -0.376 OA
BRANCH  28  29
ATOM     29  C   UNL     1      -7.674   1.139   1.992  1.00  0.00     0.202 C 
BRANCH  29  30
ATOM     30  C   UNL     1      -8.495   0.700   3.222  1.00  0.00     0.261 C 
BRANCH  30  31
ATOM     31  O   UNL     1      -8.297  -0.668   3.652  1.00  0.00    -0.460 OA
BRANCH  31  32
ATOM     32  C   UNL     1      -8.819  -1.706   2.955  1.00  0.00     0.338 C 
ATOM     33  O   UNL     1      -9.712  -1.643   2.132  1.00  0.00    -0.246 OA
BRANCH  32  34
ATOM     34  C   UNL     1      -7.845  -2.842   3.089  1.00  0.00     0.060 A 
ATOM     35  C   UNL     1      -7.214  -3.152   4.298  1.00  0.00     0.016 A 
ATOM     36  C   UNL     1      -7.329  -3.363   1.890  1.00  0.00     0.016 A 
ATOM     37  C   UNL     1      -6.005  -3.859   4.282  1.00  0.00     0.010 A 
ATOM     38  C   UNL     1      -6.113  -4.058   1.876  1.00  0.00     0.010 A 
ATOM     39  C   UNL     1      -5.420  -4.278   3.067  1.00  0.00    -0.014 A 
BRANCH  39  40
ATOM     40  C   UNL     1      -4.240  -5.170   3.137  1.00  0.00     0.031 A 
ATOM     41  C   UNL     1      -4.538  -6.422   3.894  1.00  0.00     0.074 A 
ATOM     42  C   UNL     1      -3.064  -5.098   2.471  1.00  0.00     0.049 A 
ATOM     43  N   UNL     1      -3.966  -6.900   4.950  1.00  0.00    -0.248 NA
ATOM     44  C   UNL     1      -5.723  -7.176   3.450  1.00  0.00     0.031 C 
ATOM     45  C   UNL     1      -2.689  -4.181   1.396  1.00  0.00     0.029 A 
ATOM     46  N   UNL     1      -1.960  -5.915   2.567  1.00  0.00    -0.354 N 
ATOM     47  C   UNL     1      -4.620  -8.103   5.213  1.00  0.00     0.074 A 
ATOM     48  C   UNL     1      -5.776  -8.144   4.360  1.00  0.00     0.031 C 
ATOM     49  C   UNL     1      -1.520  -4.581   0.844  1.00  0.00     0.029 A 
ATOM     50  C   UNL     1      -1.029  -5.758   1.542  1.00  0.00     0.049 A 
ATOM     51  H   UNL     1      -1.838  -6.559   3.301  1.00  0.00     0.167 HD
ATOM     52  C   UNL     1      -4.056  -9.092   5.955  1.00  0.00     0.037 A 
ATOM     53  C   UNL     1       0.019  -6.569   1.229  1.00  0.00     0.037 A 
ATOM     54  C   UNL     1      -3.016  -8.599   6.815  1.00  0.00     0.049 A 
ATOM     55  C   UNL     1       0.283  -7.456   2.385  1.00  0.00     0.074 A 
ATOM     56  C   UNL     1      -2.943  -7.651   7.818  1.00  0.00     0.029 A 
ATOM     57  N   UNL     1      -1.713  -8.894   6.505  1.00  0.00    -0.354 N 
ATOM     58  N   UNL     1       0.838  -7.078   3.499  1.00  0.00    -0.248 NA
ATOM     59  C   UNL     1      -0.433  -8.721   2.437  1.00  0.00     0.031 C 
ATOM     60  C   UNL     1      -1.647  -7.071   7.688  1.00  0.00     0.029 A 
ATOM     61  C   UNL     1      -1.008  -7.727   6.637  1.00  0.00     0.049 A 
ATOM     62  H   UNL     1      -1.355  -9.772   6.239  1.00  0.00     0.167 HD
ATOM     63  C   UNL     1       0.186  -7.812   4.477  1.00  0.00     0.074 A 
ATOM     64  C   UNL     1      -0.518  -8.870   3.759  1.00  0.00     0.031 C 
ATOM     65  C   UNL     1       0.052  -7.332   5.746  1.00  0.00     0.037 A 
BRANCH  52  66
ATOM     66  C   UNL     1      -4.213 -10.557   5.621  1.00  0.00     0.057 A 
ATOM     67  C   UNL     1      -4.549 -11.044   4.340  1.00  0.00     0.134 A 
ATOM     68  C   UNL     1      -3.717 -11.523   6.514  1.00  0.00     0.134 A 
ATOM     69  F   UNL     1      -4.958 -10.243   3.348  1.00  0.00    -0.206 F 
ATOM     70  C   UNL     1      -4.382 -12.379   3.966  1.00  0.00     0.040 A 
ATOM     71  C   UNL     1      -3.492 -12.851   6.132  1.00  0.00     0.040 A 
ATOM     72  F   UNL     1      -3.349 -11.185   7.759  1.00  0.00    -0.206 F 
ATOM     73  C   UNL     1      -3.816 -13.280   4.851  1.00  0.00     0.006 A 
ENDBRANCH  52  66
BRANCH  53  74
ATOM     74  C   UNL     1       0.680  -6.818  -0.082  1.00  0.00     0.057 A 
ATOM     75  C   UNL     1      -0.010  -6.663  -1.296  1.00  0.00     0.134 A 
ATOM     76  C   UNL     1       1.923  -7.470  -0.171  1.00  0.00     0.134 A 
ATOM     77  F   UNL     1      -1.242  -6.138  -1.331  1.00  0.00    -0.206 F 
ATOM     78  C   UNL     1       0.495  -7.124  -2.517  1.00  0.00     0.040 A 
ATOM     79  C   UNL     1       2.435  -7.950  -1.387  1.00  0.00     0.040 A 
ATOM     80  F   UNL     1       2.649  -7.714   0.930  1.00  0.00    -0.206 F 
ATOM     81  C   UNL     1       1.715  -7.785  -2.565  1.00  0.00     0.006 A 
ENDBRANCH  53  74
BRANCH  65  82
ATOM     82  C   UNL     1       0.872  -6.139   6.141  1.00  0.00     0.057 A 
ATOM     83  C   UNL     1       1.687  -6.234   7.276  1.00  0.00     0.134 A 
ATOM     84  C   UNL     1       0.783  -4.881   5.524  1.00  0.00     0.134 A 
ATOM     85  F   UNL     1       1.778  -7.392   7.949  1.00  0.00    -0.206 F 
ATOM     86  C   UNL     1       2.392  -5.136   7.770  1.00  0.00     0.040 A 
ATOM     87  C   UNL     1       1.513  -3.783   5.988  1.00  0.00     0.040 A 
ATOM     88  F   UNL     1      -0.050  -4.668   4.494  1.00  0.00    -0.206 F 
ATOM     89  C   UNL     1       2.316  -3.908   7.119  1.00  0.00     0.006 A 
ENDBRANCH  65  82
ENDBRANCH  39  40
ENDBRANCH  32  34
ENDBRANCH  31  32
ENDBRANCH  30  31
ENDBRANCH  29  30
ENDBRANCH  28  29
ENDBRANCH  27  28
ENDBRANCH   1  27
TORSDOF 21
