REMARK SMILES C[C@@](NC(=O)[C@H]1COc2ccccc21)(C(=O)OCCOCCOCCOCCOC(=O)c1ccc(-c2c3nc(c(-c4c(F)cccc4F)c4ccc([nH]4)c(-c4c(F)cccc4F)c4nc(c(-c5c(F)cccc5F)c5ccc2[nH]5)C=C4)C=C3)cc1)C(F)(F)F
REMARK SMILES IDX 23 1 22 2 21 3 20 4 19 5 18 6 17 7 15 8 16 9 2 10 1 11 3 12
REMARK SMILES IDX 4 13 5 15 6 16 7 17 14 18 8 19 9 20 13 21 10 22 12 23 11 24
REMARK SMILES IDX 86 25 87 26 88 27 89 28 24 29 25 30 26 31 27 32 28 33 29 34
REMARK SMILES IDX 30 35 31 36 32 37 33 38 85 39 34 40 84 41 35 42 36 43 37 44
REMARK SMILES IDX 78 45 38 46 83 47 77 48 79 49 39 50 82 51 76 52 75 53 40 55
REMARK SMILES IDX 66 56 49 57 65 58 50 59 53 60 64 61 80 62 51 63 52 64 63 66
REMARK SMILES IDX 81 67 54 68 41 69 42 70 47 71 43 72 44 73 46 74 48 75 45 76
REMARK SMILES IDX 67 77 68 78 73 79 69 80 70 81 72 82 74 83 71 84 55 85 56 86
REMARK SMILES IDX 61 87 57 88 58 89 60 90 62 91 59 92
REMARK H PARENT 3 14 79 54 53 65
REMARK Flexibility Score: inf
ROOT
ATOM      1  O   UNL     1      -1.739   0.236   2.677  1.00  0.00    -0.377 OA
ENDROOT
BRANCH   1   2
ATOM      2  C   UNL     1      -1.442   0.922   1.478  1.00  0.00     0.188 C 
BRANCH   2   3
ATOM      3  C   UNL     1      -2.593   1.750   0.793  1.00  0.00     0.188 C 
BRANCH   3   4
ATOM      4  O   UNL     1      -3.825   1.190   0.210  1.00  0.00    -0.376 OA
BRANCH   4   5
ATOM      5  C   UNL     1      -4.046   0.119  -0.776  1.00  0.00     0.202 C 
BRANCH   5   6
ATOM      6  C   UNL     1      -3.050  -0.361  -2.218  1.00  0.00     0.261 C 
BRANCH   6   7
ATOM      7  O   UNL     1      -1.019   0.051  -2.237  1.00  0.00    -0.461 OA
BRANCH   7   8
ATOM      8  C   UNL     1       0.089   0.804  -1.770  1.00  0.00     0.341 C 
ATOM      9  O   UNL     1       0.058   1.796  -1.049  1.00  0.00    -0.249 OA
BRANCH   8  10
ATOM     10  C   UNL     1       1.339   0.040  -2.076  1.00  0.00     0.231 C 
ATOM     11  C   UNL     1       1.826  -0.633  -0.770  1.00  0.00     0.058 C 
BRANCH  10  12
ATOM     12  N   UNL     1       1.167  -0.960  -3.201  1.00  0.00    -0.332 N 
ATOM     13  C   UNL     1       0.080  -1.494  -3.850  1.00  0.00     0.232 C 
ATOM     14  H   UNL     1       2.024  -1.303  -3.544  1.00  0.00     0.164 HD
ATOM     15  O   UNL     1       0.326  -2.253  -4.794  1.00  0.00    -0.274 OA
BRANCH  13  16
ATOM     16  C   UNL     1      -1.402  -1.216  -3.474  1.00  0.00     0.150 C 
ATOM     17  C   UNL     1      -1.517  -1.484  -1.485  1.00  0.00     0.248 C 
ATOM     18  C   UNL     1      -1.867   0.631  -3.820  1.00  0.00     0.010 A 
ATOM     19  O   UNL     1      -1.968   0.301  -0.863  1.00  0.00    -0.492 OA
ATOM     20  C   UNL     1      -2.234   1.474  -2.315  1.00  0.00     0.123 A 
ATOM     21  C   UNL     1      -1.955   1.337  -4.966  1.00  0.00     0.008 A 
ATOM     22  C   UNL     1      -2.763   2.716  -2.196  1.00  0.00     0.047 A 
ATOM     23  C   UNL     1      -2.410   2.674  -4.739  1.00  0.00     0.001 A 
ATOM     24  C   UNL     1      -2.818   3.305  -3.461  1.00  0.00     0.004 A 
ENDBRANCH  13  16
ENDBRANCH  10  12
BRANCH  10  25
ATOM     25  C   UNL     1       2.348   1.153  -2.411  1.00  0.00     0.422 C 
ATOM     26  F   UNL     1       2.577   2.006  -1.387  1.00  0.00    -0.168 F 
ATOM     27  F   UNL     1       3.551   0.592  -2.706  1.00  0.00    -0.168 F 
ATOM     28  F   UNL     1       1.978   1.877  -3.488  1.00  0.00    -0.168 F 
ENDBRANCH  10  25
ENDBRANCH   8  10
ENDBRANCH   7   8
ENDBRANCH   6   7
ENDBRANCH   5   6
ENDBRANCH   4   5
ENDBRANCH   3   4
ENDBRANCH   2   3
ENDBRANCH   1   2
BRANCH   1  29
ATOM     29  C   UNL     1      -3.065  -0.225   2.717  1.00  0.00     0.188 C 
BRANCH  29  30
ATOM     30  C   UNL     1      -4.085   0.843   3.166  1.00  0.00     0.188 C 
BRANCH  30  31
ATOM     31  O   UNL     1      -3.738   2.122   3.695  1.00  0.00    -0.376 OA
BRANCH  31  32
ATOM     32  C   UNL     1      -2.450   2.448   4.186  1.00  0.00     0.202 C 
BRANCH  32  33
ATOM     33  C   UNL     1      -1.911   1.740   5.432  1.00  0.00     0.261 C 
BRANCH  33  34
ATOM     34  O   UNL     1      -2.224   0.351   5.522  1.00  0.00    -0.460 OA
BRANCH  34  35
ATOM     35  C   UNL     1      -3.414   0.070   6.100  1.00  0.00     0.338 C 
ATOM     36  O   UNL     1      -4.193   0.845   6.623  1.00  0.00    -0.246 OA
BRANCH  35  37
ATOM     37  C   UNL     1      -3.732  -1.342   5.811  1.00  0.00     0.060 A 
ATOM     38  C   UNL     1      -4.989  -1.637   5.257  1.00  0.00     0.016 A 
ATOM     39  C   UNL     1      -2.784  -2.350   6.010  1.00  0.00     0.016 A 
ATOM     40  C   UNL     1      -5.309  -2.936   4.902  1.00  0.00     0.010 A 
ATOM     41  C   UNL     1      -3.138  -3.670   5.744  1.00  0.00     0.010 A 
ATOM     42  C   UNL     1      -4.420  -3.958   5.242  1.00  0.00    -0.014 A 
BRANCH  42  43
ATOM     43  C   UNL     1      -5.007  -5.288   5.477  1.00  0.00     0.031 A 
ATOM     44  C   UNL     1      -5.544  -5.543   6.858  1.00  0.00     0.074 A 
ATOM     45  C   UNL     1      -5.133  -6.187   4.493  1.00  0.00     0.049 A 
ATOM     46  N   UNL     1      -6.085  -6.620   7.357  1.00  0.00    -0.248 NA
ATOM     47  C   UNL     1      -5.454  -4.419   7.810  1.00  0.00     0.031 C 
ATOM     48  C   UNL     1      -4.729  -5.990   3.104  1.00  0.00     0.029 A 
ATOM     49  N   UNL     1      -5.647  -7.454   4.527  1.00  0.00    -0.354 N 
ATOM     50  C   UNL     1      -6.382  -6.306   8.678  1.00  0.00     0.074 A 
ATOM     51  C   UNL     1      -5.937  -4.955   8.915  1.00  0.00     0.031 C 
ATOM     52  C   UNL     1      -4.999  -7.113   2.414  1.00  0.00     0.029 A 
ATOM     53  C   UNL     1      -5.559  -8.109   3.326  1.00  0.00     0.049 A 
ATOM     54  H   UNL     1      -6.042  -7.856   5.334  1.00  0.00     0.167 HD
ATOM     55  C   UNL     1      -6.978  -7.080   9.611  1.00  0.00     0.037 A 
ATOM     56  C   UNL     1      -5.876  -9.381   3.023  1.00  0.00     0.037 A 
ATOM     57  C   UNL     1      -7.401  -8.428   9.357  1.00  0.00     0.049 A 
ATOM     58  C   UNL     1      -6.447 -10.261   4.104  1.00  0.00     0.074 A 
ATOM     59  C   UNL     1      -8.008  -9.319  10.220  1.00  0.00     0.029 A 
ATOM     60  N   UNL     1      -7.242  -9.082   8.143  1.00  0.00    -0.354 N 
ATOM     61  N   UNL     1      -6.721  -9.970   5.354  1.00  0.00    -0.248 NA
ATOM     62  C   UNL     1      -6.754 -11.647   3.730  1.00  0.00     0.031 C 
ATOM     63  C   UNL     1      -8.155 -10.536   9.547  1.00  0.00     0.029 A 
ATOM     64  C   UNL     1      -7.713 -10.379   8.241  1.00  0.00     0.049 A 
ATOM     65  H   UNL     1      -6.852  -8.682   7.332  1.00  0.00     0.167 HD
ATOM     66  C   UNL     1      -7.271 -11.121   5.906  1.00  0.00     0.074 A 
ATOM     67  C   UNL     1      -7.293 -12.113   4.848  1.00  0.00     0.031 C 
ATOM     68  C   UNL     1      -7.726 -11.341   7.166  1.00  0.00     0.037 A 
BRANCH  55  69
ATOM     69  C   UNL     1      -7.130  -6.498  10.987  1.00  0.00     0.057 A 
ATOM     70  C   UNL     1      -7.983  -5.418  11.257  1.00  0.00     0.134 A 
ATOM     71  C   UNL     1      -6.377  -7.004  12.053  1.00  0.00     0.134 A 
ATOM     72  F   UNL     1      -8.712  -4.864  10.275  1.00  0.00    -0.206 F 
ATOM     73  C   UNL     1      -8.051  -4.840  12.526  1.00  0.00     0.040 A 
ATOM     74  C   UNL     1      -6.464  -6.458  13.334  1.00  0.00     0.040 A 
ATOM     75  F   UNL     1      -5.535  -8.031  11.866  1.00  0.00    -0.206 F 
ATOM     76  C   UNL     1      -7.293  -5.365  13.571  1.00  0.00     0.006 A 
ENDBRANCH  55  69
BRANCH  56  77
ATOM     77  C   UNL     1      -5.661  -9.889   1.646  1.00  0.00     0.057 A 
ATOM     78  C   UNL     1      -6.740 -10.218   0.819  1.00  0.00     0.134 A 
ATOM     79  C   UNL     1      -4.373 -10.054   1.121  1.00  0.00     0.134 A 
ATOM     80  F   UNL     1      -7.997 -10.097   1.270  1.00  0.00    -0.206 F 
ATOM     81  C   UNL     1      -6.548 -10.705  -0.475  1.00  0.00     0.040 A 
ATOM     82  C   UNL     1      -4.166 -10.515  -0.179  1.00  0.00     0.040 A 
ATOM     83  F   UNL     1      -3.295  -9.752   1.861  1.00  0.00    -0.206 F 
ATOM     84  C   UNL     1      -5.257 -10.848  -0.980  1.00  0.00     0.006 A 
ENDBRANCH  56  77
BRANCH  68  85
ATOM     85  C   UNL     1      -8.338 -12.682   7.451  1.00  0.00     0.057 A 
ATOM     86  C   UNL     1      -7.577 -13.855   7.512  1.00  0.00     0.134 A 
ATOM     87  C   UNL     1      -9.712 -12.788   7.713  1.00  0.00     0.134 A 
ATOM     88  F   UNL     1      -6.259 -13.825   7.264  1.00  0.00    -0.206 F 
ATOM     89  C   UNL     1      -8.165 -15.091   7.788  1.00  0.00     0.040 A 
ATOM     90  C   UNL     1     -10.304 -14.011   8.026  1.00  0.00     0.040 A 
ATOM     91  F   UNL     1     -10.497 -11.700   7.686  1.00  0.00    -0.206 F 
ATOM     92  C   UNL     1      -9.531 -15.169   8.055  1.00  0.00     0.006 A 
ENDBRANCH  68  85
ENDBRANCH  42  43
ENDBRANCH  35  37
ENDBRANCH  34  35
ENDBRANCH  33  34
ENDBRANCH  32  33
ENDBRANCH  31  32
ENDBRANCH  30  31
ENDBRANCH  29  30
ENDBRANCH   1  29
TORSDOF 23
