REMARK SMILES CC(=O)NS(=O)(=O)c1cc(-c2ccn(C(F)F)c(=O)c2)ccc1C(=O)OCCOCCOCCOCCOC(=O)c1ccc(-c2c3nc(c(-c4c(F)cccc4F)c4ccc([nH]4)c(-c4c(F)cccc4F)c4nc(c(-c5c(F)cccc5F)c5ccc2[nH]5)C=C4)C=C3)cc1
REMARK SMILES IDX 32 1 31 2 30 3 29 4 28 5 27 6 26 7 24 8 25 9 23 10 8 11 9 12
REMARK SMILES IDX 10 13 22 14 21 15 5 16 6 17 7 18 4 19 1 20 2 21 3 22 11 24
REMARK SMILES IDX 12 25 20 26 13 27 18 28 14 29 19 30 15 31 16 32 17 33 33 34
REMARK SMILES IDX 34 35 35 36 36 37 37 38 38 39 39 40 40 41 41 42 42 43 94 44
REMARK SMILES IDX 43 45 93 46 44 47 45 48 46 49 87 50 47 51 92 52 86 53 88 54
REMARK SMILES IDX 48 55 91 56 85 57 84 58 49 60 75 61 58 62 74 63 59 64 62 65
REMARK SMILES IDX 73 66 89 67 60 68 61 69 72 71 90 72 63 73 50 74 51 75 56 76
REMARK SMILES IDX 52 77 53 78 55 79 57 80 54 81 76 82 77 83 82 84 78 85 79 86
REMARK SMILES IDX 81 87 83 88 80 89 64 90 65 91 70 92 66 93 67 94 69 95 71 96
REMARK SMILES IDX 68 97
REMARK H PARENT 4 23 88 59 62 70
REMARK Flexibility Score: inf
ROOT
ATOM      1  O   UNL     1      -1.286   0.930  -4.139  1.00  0.00    -0.377 OA
ENDROOT
BRANCH   1   2
ATOM      2  C   UNL     1      -0.030   1.584  -4.079  1.00  0.00     0.188 C 
BRANCH   2   3
ATOM      3  C   UNL     1       0.387   2.400  -5.305  1.00  0.00     0.188 C 
BRANCH   3   4
ATOM      4  O   UNL     1       0.614   1.586  -6.455  1.00  0.00    -0.376 OA
BRANCH   4   5
ATOM      5  C   UNL     1       1.968   1.428  -6.870  1.00  0.00     0.202 C 
BRANCH   5   6
ATOM      6  C   UNL     1       2.618   0.175  -6.275  1.00  0.00     0.261 C 
BRANCH   6   7
ATOM      7  O   UNL     1       2.674   0.202  -4.838  1.00  0.00    -0.460 OA
BRANCH   7   8
ATOM      8  C   UNL     1       3.542   1.054  -4.279  1.00  0.00     0.339 C 
ATOM      9  O   UNL     1       4.344   1.749  -4.883  1.00  0.00    -0.246 OA
BRANCH   8  10
ATOM     10  C   UNL     1       3.269   1.233  -2.827  1.00  0.00     0.080 A 
ATOM     11  C   UNL     1       2.976   0.239  -1.882  1.00  0.00     0.103 A 
ATOM     12  C   UNL     1       2.970   0.572  -0.516  1.00  0.00     0.032 A 
ATOM     13  C   UNL     1       3.065   1.901  -0.091  1.00  0.00    -0.017 A 
ATOM     14  C   UNL     1       3.372   2.570  -2.387  1.00  0.00     0.018 A 
ATOM     15  C   UNL     1       3.230   2.907  -1.039  1.00  0.00     0.010 A 
BRANCH  11  16
ATOM     16  S   UNL     1       2.476  -1.407  -2.326  1.00  0.00     0.264 S 
ATOM     17  O   UNL     1       3.686  -2.153  -2.590  1.00  0.00    -0.201 OA
ATOM     18  O   UNL     1       1.371  -1.360  -3.249  1.00  0.00    -0.201 OA
BRANCH  16  19
ATOM     19  N   UNL     1       1.824  -2.061  -0.912  1.00  0.00    -0.249 N 
ATOM     20  C   UNL     1      -0.036  -0.558  -0.207  1.00  0.00     0.115 C 
ATOM     21  C   UNL     1       0.450  -1.930  -0.598  1.00  0.00     0.230 C 
ATOM     22  O   UNL     1      -0.233  -2.932  -0.440  1.00  0.00    -0.274 OA
ATOM     23  H   UNL     1       2.415  -2.545  -0.290  1.00  0.00     0.183 HD
ENDBRANCH  16  19
ENDBRANCH  11  16
BRANCH  13  24
ATOM     24  C   UNL     1       2.934   2.221   1.339  1.00  0.00    -0.011 A 
ATOM     25  C   UNL     1       1.742   2.822   1.903  1.00  0.00     0.027 A 
ATOM     26  C   UNL     1       3.960   1.909   2.148  1.00  0.00     0.080 A 
ATOM     27  C   UNL     1       1.665   3.068   3.216  1.00  0.00     0.095 A 
ATOM     28  C   UNL     1       3.888   2.178   3.611  1.00  0.00     0.255 A 
ATOM     29  N   UNL     1       2.714   2.757   4.061  1.00  0.00    -0.258 N 
ATOM     30  O   UNL     1       4.850   1.870   4.306  1.00  0.00    -0.269 OA
BRANCH  29  31
ATOM     31  C   UNL     1       2.631   3.044   5.471  1.00  0.00     0.451 C 
ATOM     32  F   UNL     1       2.777   1.916   6.207  1.00  0.00    -0.185 F 
ATOM     33  F   UNL     1       3.596   3.919   5.843  1.00  0.00    -0.185 F 
ENDBRANCH  29  31
ENDBRANCH  13  24
ENDBRANCH   8  10
ENDBRANCH   7   8
ENDBRANCH   6   7
ENDBRANCH   5   6
ENDBRANCH   4   5
ENDBRANCH   3   4
ENDBRANCH   2   3
ENDBRANCH   1   2
BRANCH   1  34
ATOM     34  C   UNL     1      -1.460   0.022  -5.219  1.00  0.00     0.188 C 
BRANCH  34  35
ATOM     35  C   UNL     1      -2.207   0.614  -6.435  1.00  0.00     0.188 C 
BRANCH  35  36
ATOM     36  O   UNL     1      -3.222   1.611  -6.313  1.00  0.00    -0.376 OA
BRANCH  36  37
ATOM     37  C   UNL     1      -3.639   2.072  -5.042  1.00  0.00     0.202 C 
BRANCH  37  38
ATOM     38  C   UNL     1      -4.585   1.149  -4.262  1.00  0.00     0.261 C 
BRANCH  38  39
ATOM     39  O   UNL     1      -4.341  -0.251  -4.439  1.00  0.00    -0.460 OA
BRANCH  39  40
ATOM     40  C   UNL     1      -4.994  -0.815  -5.483  1.00  0.00     0.338 C 
ATOM     41  O   UNL     1      -5.810  -0.289  -6.221  1.00  0.00    -0.246 OA
BRANCH  40  42
ATOM     42  C   UNL     1      -4.486  -2.187  -5.691  1.00  0.00     0.060 A 
ATOM     43  C   UNL     1      -4.142  -2.572  -6.993  1.00  0.00     0.016 A 
ATOM     44  C   UNL     1      -4.395  -3.099  -4.636  1.00  0.00     0.016 A 
ATOM     45  C   UNL     1      -3.739  -3.881  -7.251  1.00  0.00     0.010 A 
ATOM     46  C   UNL     1      -4.018  -4.419  -4.899  1.00  0.00     0.010 A 
ATOM     47  C   UNL     1      -3.724  -4.821  -6.213  1.00  0.00    -0.014 A 
BRANCH  47  48
ATOM     48  C   UNL     1      -3.626  -6.261  -6.545  1.00  0.00     0.031 A 
ATOM     49  C   UNL     1      -4.901  -7.016  -6.802  1.00  0.00     0.074 A 
ATOM     50  C   UNL     1      -2.438  -6.881  -6.641  1.00  0.00     0.049 A 
ATOM     51  N   UNL     1      -5.076  -8.279  -7.092  1.00  0.00    -0.248 NA
ATOM     52  C   UNL     1      -6.148  -6.236  -6.723  1.00  0.00     0.031 C 
ATOM     53  C   UNL     1      -1.134  -6.249  -6.454  1.00  0.00     0.029 A 
ATOM     54  N   UNL     1      -2.143  -8.192  -6.919  1.00  0.00    -0.354 N 
ATOM     55  C   UNL     1      -6.448  -8.443  -7.234  1.00  0.00     0.074 A 
ATOM     56  C   UNL     1      -7.062  -7.160  -6.974  1.00  0.00     0.031 C 
ATOM     57  C   UNL     1      -0.175  -7.180  -6.608  1.00  0.00     0.029 A 
ATOM     58  C   UNL     1      -0.800  -8.473  -6.881  1.00  0.00     0.049 A 
ATOM     59  H   UNL     1      -2.830  -8.867  -7.125  1.00  0.00     0.167 HD
ATOM     60  C   UNL     1      -7.136  -9.562  -7.559  1.00  0.00     0.037 A 
ATOM     61  C   UNL     1      -0.157  -9.648  -7.033  1.00  0.00     0.037 A 
ATOM     62  C   UNL     1      -6.530 -10.842  -7.801  1.00  0.00     0.049 A 
ATOM     63  C   UNL     1      -0.951 -10.896  -7.316  1.00  0.00     0.074 A 
ATOM     64  C   UNL     1      -7.141 -12.037  -8.137  1.00  0.00     0.029 A 
ATOM     65  N   UNL     1      -5.169 -11.093  -7.721  1.00  0.00    -0.354 N 
ATOM     66  N   UNL     1      -2.245 -11.037  -7.473  1.00  0.00    -0.248 NA
ATOM     67  C   UNL     1      -0.193 -12.150  -7.442  1.00  0.00     0.031 C 
ATOM     68  C   UNL     1      -6.151 -13.022  -8.223  1.00  0.00     0.029 A 
ATOM     69  C   UNL     1      -4.922 -12.430  -7.980  1.00  0.00     0.049 A 
ATOM     70  H   UNL     1      -4.481 -10.421  -7.511  1.00  0.00     0.167 HD
ATOM     71  C   UNL     1      -2.453 -12.385  -7.743  1.00  0.00     0.074 A 
ATOM     72  C   UNL     1      -1.151 -13.018  -7.735  1.00  0.00     0.031 C 
ATOM     73  C   UNL     1      -3.617 -13.039  -7.978  1.00  0.00     0.037 A 
BRANCH  60  74
ATOM     74  C   UNL     1      -8.627  -9.446  -7.641  1.00  0.00     0.057 A 
ATOM     75  C   UNL     1      -9.258  -8.800  -8.712  1.00  0.00     0.134 A 
ATOM     76  C   UNL     1      -9.442  -9.992  -6.643  1.00  0.00     0.134 A 
ATOM     77  F   UNL     1      -8.531  -8.239  -9.690  1.00  0.00    -0.206 F 
ATOM     78  C   UNL     1     -10.647  -8.685  -8.777  1.00  0.00     0.040 A 
ATOM     79  C   UNL     1     -10.833  -9.902  -6.707  1.00  0.00     0.040 A 
ATOM     80  F   UNL     1      -8.899 -10.621  -5.589  1.00  0.00    -0.206 F 
ATOM     81  C   UNL     1     -11.439  -9.242  -7.775  1.00  0.00     0.006 A 
ENDBRANCH  60  74
BRANCH  61  82
ATOM     82  C   UNL     1       1.320  -9.709  -6.905  1.00  0.00     0.057 A 
ATOM     83  C   UNL     1       2.135  -9.953  -8.017  1.00  0.00     0.134 A 
ATOM     84  C   UNL     1       1.949  -9.556  -5.664  1.00  0.00     0.134 A 
ATOM     85  F   UNL     1       1.588 -10.136  -9.227  1.00  0.00    -0.206 F 
ATOM     86  C   UNL     1       3.522 -10.057  -7.897  1.00  0.00     0.040 A 
ATOM     87  C   UNL     1       3.336  -9.636  -5.533  1.00  0.00     0.040 A 
ATOM     88  F   UNL     1       1.223  -9.326  -4.561  1.00  0.00    -0.206 F 
ATOM     89  C   UNL     1       4.127  -9.894  -6.652  1.00  0.00     0.006 A 
ENDBRANCH  61  82
BRANCH  73  90
ATOM     90  C   UNL     1      -3.534 -14.505  -8.281  1.00  0.00     0.057 A 
ATOM     91  C   UNL     1      -3.283 -15.452  -7.281  1.00  0.00     0.134 A 
ATOM     92  C   UNL     1      -3.762 -14.977  -9.580  1.00  0.00     0.134 A 
ATOM     93  F   UNL     1      -3.047 -15.062  -6.019  1.00  0.00    -0.206 F 
ATOM     94  C   UNL     1      -3.245 -16.818  -7.566  1.00  0.00     0.040 A 
ATOM     95  C   UNL     1      -3.749 -16.341  -9.872  1.00  0.00     0.040 A 
ATOM     96  F   UNL     1      -4.018 -14.121 -10.581  1.00  0.00    -0.206 F 
ATOM     97  C   UNL     1      -3.486 -17.266  -8.864  1.00  0.00     0.006 A 
ENDBRANCH  73  90
ENDBRANCH  47  48
ENDBRANCH  40  42
ENDBRANCH  39  40
ENDBRANCH  38  39
ENDBRANCH  37  38
ENDBRANCH  36  37
ENDBRANCH  35  36
ENDBRANCH  34  35
ENDBRANCH   1  34
TORSDOF 24
