REMARK SMILES Cc1cnn([C@H]2CC[C@@]([NH3+])(C(=O)OCCOCCOCCOCCOC(=O)c3ccc(-c4c5nc(c(-c6c(F)cccc6F)c6ccc([nH]6)c(-c6c(F)cccc6F)c6nc(c(-c7c(F)cccc7F)c7ccc4[nH]7)C=C6)C=C5)cc3)C2)c1
REMARK SMILES IDX 20 1 19 2 18 3 17 4 16 5 15 6 14 7 13 8 11 9 12 10 9 11 6 12
REMARK SMILES IDX 7 13 82 14 8 15 5 16 1 17 2 18 3 19 83 20 4 21 10 22 21 26
REMARK SMILES IDX 22 27 23 28 24 29 25 30 26 31 27 32 28 33 29 34 81 35 30 36
REMARK SMILES IDX 80 37 31 38 32 39 33 40 74 41 34 42 79 43 73 44 75 45 35 46
REMARK SMILES IDX 78 47 72 48 71 49 36 51 62 52 45 53 61 54 46 55 49 56 60 57
REMARK SMILES IDX 76 58 47 59 48 60 59 62 77 63 50 64 37 65 38 66 43 67 39 68
REMARK SMILES IDX 40 69 42 70 44 71 41 72 63 73 64 74 69 75 65 76 66 77 68 78
REMARK SMILES IDX 70 79 67 80 51 81 52 82 57 83 53 84 54 85 56 86 58 87 55 88
REMARK H PARENT 10 23 10 24 10 25 75 50 49 61
REMARK Flexibility Score: inf
ROOT
ATOM      1  C   UNL     1      -0.104  10.047  -3.671  1.00  0.00     0.188 C 
ENDROOT
BRANCH   1   2
ATOM      2  O   UNL     1       1.034   9.300  -3.275  1.00  0.00    -0.377 OA
BRANCH   2   3
ATOM      3  C   UNL     1       0.911   8.379  -2.193  1.00  0.00     0.188 C 
BRANCH   3   4
ATOM      4  C   UNL     1      -0.340   8.338  -1.302  1.00  0.00     0.188 C 
BRANCH   4   5
ATOM      5  O   UNL     1      -0.863   9.626  -1.029  1.00  0.00    -0.376 OA
BRANCH   5   6
ATOM      6  C   UNL     1      -0.872  10.003   0.336  1.00  0.00     0.202 C 
BRANCH   6   7
ATOM      7  C   UNL     1       0.538  10.170   0.911  1.00  0.00     0.261 C 
BRANCH   7   8
ATOM      8  O   UNL     1       1.309   8.950   0.976  1.00  0.00    -0.459 OA
BRANCH   8   9
ATOM      9  C   UNL     1       0.866   7.985   1.825  1.00  0.00     0.368 C 
ATOM     10  O   UNL     1      -0.114   8.111   2.553  1.00  0.00    -0.245 OA
BRANCH   9  11
ATOM     11  C   UNL     1       1.809   6.745   1.872  1.00  0.00     0.194 C 
ATOM     12  C   UNL     1       0.690   4.842   0.755  1.00  0.00     0.114 C 
ATOM     13  C   UNL     1       1.779   5.384  -0.185  1.00  0.00     0.034 C 
ATOM     14  C   UNL     1       1.027   5.442   2.133  1.00  0.00     0.108 C 
ATOM     15  C   UNL     1       2.594   6.417   0.596  1.00  0.00     0.083 C 
BRANCH  12  16
ATOM     16  N   UNL     1      -0.648   5.052   0.219  1.00  0.00    -0.269 N 
ATOM     17  C   UNL     1      -3.884   6.648  -0.301  1.00  0.00     0.048 C 
ATOM     18  C   UNL     1      -2.647   5.836  -0.267  1.00  0.00    -0.013 A 
ATOM     19  C   UNL     1      -2.159   4.966  -1.262  1.00  0.00     0.138 A 
ATOM     20  C   UNL     1      -1.679   5.794   0.715  1.00  0.00     0.112 A 
ATOM     21  N   UNL     1      -0.951   4.482  -0.969  1.00  0.00    -0.181 NA
ENDBRANCH  12  16
BRANCH  11  22
ATOM     22  N   UNL     1       2.757   7.021   2.974  1.00  0.00    -0.343 N 
ATOM     23  H   UNL     1       3.262   7.886   2.780  1.00  0.00     0.345 HD
ATOM     24  H   UNL     1       3.421   6.250   3.052  1.00  0.00     0.345 HD
ATOM     25  H   UNL     1       2.243   7.117   3.849  1.00  0.00     0.345 HD
ENDBRANCH  11  22
ENDBRANCH   9  11
ENDBRANCH   8   9
ENDBRANCH   7   8
ENDBRANCH   6   7
ENDBRANCH   5   6
ENDBRANCH   4   5
ENDBRANCH   3   4
ENDBRANCH   2   3
ENDBRANCH   1   2
BRANCH   1  26
ATOM     26  C   UNL     1      -1.299   9.256  -4.248  1.00  0.00     0.188 C 
BRANCH  26  27
ATOM     27  O   UNL     1      -1.423   7.930  -3.747  1.00  0.00    -0.376 OA
BRANCH  27  28
ATOM     28  C   UNL     1      -1.478   6.829  -4.642  1.00  0.00     0.202 C 
BRANCH  28  29
ATOM     29  C   UNL     1      -0.119   6.252  -5.053  1.00  0.00     0.261 C 
BRANCH  29  30
ATOM     30  O   UNL     1       0.844   7.256  -5.306  1.00  0.00    -0.460 OA
BRANCH  30  31
ATOM     31  C   UNL     1       0.531   8.072  -6.317  1.00  0.00     0.338 C 
ATOM     32  O   UNL     1      -0.428   7.961  -7.089  1.00  0.00    -0.246 OA
BRANCH  31  33
ATOM     33  C   UNL     1       1.548   9.116  -6.434  1.00  0.00     0.060 A 
ATOM     34  C   UNL     1       1.302  10.042  -7.447  1.00  0.00     0.016 A 
ATOM     35  C   UNL     1       2.836   8.783  -5.996  1.00  0.00     0.016 A 
ATOM     36  C   UNL     1       2.329  10.276  -8.315  1.00  0.00     0.010 A 
ATOM     37  C   UNL     1       3.854   8.984  -6.881  1.00  0.00     0.010 A 
ATOM     38  C   UNL     1       3.537   9.611  -8.081  1.00  0.00    -0.014 A 
BRANCH  38  39
ATOM     39  C   UNL     1       4.457   9.545  -9.181  1.00  0.00     0.031 A 
ATOM     40  C   UNL     1       5.275  10.755  -9.311  1.00  0.00     0.074 A 
ATOM     41  C   UNL     1       4.560   8.444  -9.943  1.00  0.00     0.049 A 
ATOM     42  N   UNL     1       5.232  11.646 -10.241  1.00  0.00    -0.248 NA
ATOM     43  C   UNL     1       6.119  11.102  -8.158  1.00  0.00     0.031 C 
ATOM     44  C   UNL     1       4.028   7.100  -9.698  1.00  0.00     0.029 A 
ATOM     45  N   UNL     1       5.278   8.291 -11.080  1.00  0.00    -0.354 N 
ATOM     46  C   UNL     1       6.189  12.582  -9.880  1.00  0.00     0.074 A 
ATOM     47  C   UNL     1       6.550  12.309  -8.514  1.00  0.00     0.031 C 
ATOM     48  C   UNL     1       4.637   6.230 -10.537  1.00  0.00     0.029 A 
ATOM     49  C   UNL     1       5.495   6.976 -11.444  1.00  0.00     0.049 A 
ATOM     50  H   UNL     1       5.617   9.053 -11.604  1.00  0.00     0.167 HD
ATOM     51  C   UNL     1       6.809  13.353 -10.807  1.00  0.00     0.037 A 
ATOM     52  C   UNL     1       6.413   6.565 -12.351  1.00  0.00     0.037 A 
ATOM     53  C   UNL     1       6.074  13.402 -12.042  1.00  0.00     0.049 A 
ATOM     54  C   UNL     1       6.808   7.751 -13.162  1.00  0.00     0.074 A 
ATOM     55  C   UNL     1       4.811  13.838 -12.396  1.00  0.00     0.029 A 
ATOM     56  N   UNL     1       6.499  12.606 -13.078  1.00  0.00    -0.354 N 
ATOM     57  N   UNL     1       6.025   8.352 -14.015  1.00  0.00    -0.248 NA
ATOM     58  C   UNL     1       7.932   8.551 -12.689  1.00  0.00     0.031 C 
ATOM     59  C   UNL     1       4.365  12.927 -13.397  1.00  0.00     0.029 A 
ATOM     60  C   UNL     1       5.389  12.004 -13.616  1.00  0.00     0.049 A 
ATOM     61  H   UNL     1       7.429  12.489 -13.379  1.00  0.00     0.167 HD
ATOM     62  C   UNL     1       6.312   9.706 -13.883  1.00  0.00     0.074 A 
ATOM     63  C   UNL     1       7.556   9.758 -13.121  1.00  0.00     0.031 C 
ATOM     64  C   UNL     1       5.374  10.661 -14.154  1.00  0.00     0.037 A 
BRANCH  51  65
ATOM     65  C   UNL     1       8.246  13.766 -10.681  1.00  0.00     0.057 A 
ATOM     66  C   UNL     1       8.753  14.763 -11.525  1.00  0.00     0.134 A 
ATOM     67  C   UNL     1       9.212  13.052  -9.938  1.00  0.00     0.134 A 
ATOM     68  F   UNL     1       7.935  15.481 -12.309  1.00  0.00    -0.206 F 
ATOM     69  C   UNL     1      10.125  15.008 -11.646  1.00  0.00     0.040 A 
ATOM     70  C   UNL     1      10.577  13.330 -10.004  1.00  0.00     0.040 A 
ATOM     71  F   UNL     1       8.902  11.986  -9.190  1.00  0.00    -0.206 F 
ATOM     72  C   UNL     1      11.041  14.293 -10.882  1.00  0.00     0.006 A 
ENDBRANCH  51  65
BRANCH  52  73
ATOM     73  C   UNL     1       7.208   5.319 -12.319  1.00  0.00     0.057 A 
ATOM     74  C   UNL     1       7.861   4.848 -13.464  1.00  0.00     0.134 A 
ATOM     75  C   UNL     1       7.551   4.690 -11.108  1.00  0.00     0.134 A 
ATOM     76  F   UNL     1       7.636   5.417 -14.657  1.00  0.00    -0.206 F 
ATOM     77  C   UNL     1       8.808   3.817 -13.408  1.00  0.00     0.040 A 
ATOM     78  C   UNL     1       8.485   3.653 -11.039  1.00  0.00     0.040 A 
ATOM     79  F   UNL     1       7.056   5.117  -9.937  1.00  0.00    -0.206 F 
ATOM     80  C   UNL     1       9.127   3.220 -12.191  1.00  0.00     0.006 A 
ENDBRANCH  52  73
BRANCH  64  81
ATOM     81  C   UNL     1       4.103  10.217 -14.825  1.00  0.00     0.057 A 
ATOM     82  C   UNL     1       3.176   9.349 -14.229  1.00  0.00     0.134 A 
ATOM     83  C   UNL     1       3.731  10.803 -16.039  1.00  0.00     0.134 A 
ATOM     84  F   UNL     1       3.398   8.828 -13.016  1.00  0.00    -0.206 F 
ATOM     85  C   UNL     1       1.956   9.039 -14.838  1.00  0.00     0.040 A 
ATOM     86  C   UNL     1       2.500  10.529 -16.642  1.00  0.00     0.040 A 
ATOM     87  F   UNL     1       4.538  11.694 -16.637  1.00  0.00    -0.206 F 
ATOM     88  C   UNL     1       1.613   9.635 -16.047  1.00  0.00     0.006 A 
ENDBRANCH  64  81
ENDBRANCH  38  39
ENDBRANCH  31  33
ENDBRANCH  30  31
ENDBRANCH  29  30
ENDBRANCH  28  29
ENDBRANCH  27  28
ENDBRANCH  26  27
ENDBRANCH   1  26
TORSDOF 22
