REMARK SMILES CC(C)[C@@H]1C(=O)Nc2ccccc2N1C(=O)N[C@H](Cc1ccccc1)C(=O)OCCOCCOCCOCCOC(=O)c1ccc(-c2c3nc(c(-c4c(F)cccc4F)c4ccc([nH]4)c(-c4c(F)cccc4F)c4nc(c(-c5c(F)cccc5F)c5ccc2[nH]5)C=C4)C=C3)cc1
REMARK SMILES IDX 33 1 32 2 31 3 30 4 29 5 28 6 26 7 27 8 18 9 17 10 15 11
REMARK SMILES IDX 16 12 14 14 4 15 5 16 6 17 7 18 13 19 8 20 12 22 9 23 11 24
REMARK SMILES IDX 10 25 2 26 1 27 3 28 19 29 20 30 21 31 25 32 22 33 24 34
REMARK SMILES IDX 23 35 34 36 35 37 36 38 37 39 38 40 39 41 40 42 41 43 42 44
REMARK SMILES IDX 43 45 44 46 96 47 45 48 95 49 46 50 47 51 48 52 89 53 49 54
REMARK SMILES IDX 94 55 88 56 90 57 50 58 93 59 87 60 86 61 51 63 77 64 60 65
REMARK SMILES IDX 76 66 61 67 64 68 75 69 91 70 62 71 63 72 74 74 92 75 65 76
REMARK SMILES IDX 52 77 53 78 58 79 54 80 55 81 57 82 59 83 56 84 78 85 79 86
REMARK SMILES IDX 84 87 80 88 81 89 83 90 85 91 82 92 66 93 67 94 72 95 68 96
REMARK SMILES IDX 69 97 71 98 73 99 70 100
REMARK H PARENT 17 13 7 21 90 62 64 73
REMARK Flexibility Score: inf
ROOT
ATOM      1  C   UNL     1       0.387   4.050   2.761  1.00  0.00     0.188 C 
ENDROOT
BRANCH   1   2
ATOM      2  C   UNL     1       1.204   3.359   3.855  1.00  0.00     0.188 C 
BRANCH   2   3
ATOM      3  O   UNL     1       2.382   4.017   4.282  1.00  0.00    -0.376 OA
BRANCH   3   4
ATOM      4  C   UNL     1       3.545   3.921   3.460  1.00  0.00     0.202 C 
BRANCH   4   5
ATOM      5  C   UNL     1       3.749   2.728   2.516  1.00  0.00     0.261 C 
BRANCH   5   6
ATOM      6  O   UNL     1       2.920   2.757   1.334  1.00  0.00    -0.462 OA
BRANCH   6   7
ATOM      7  C   UNL     1       2.154   1.659   1.076  1.00  0.00     0.329 C 
ATOM      8  O   UNL     1       1.881   0.790   1.897  1.00  0.00    -0.250 OA
BRANCH   7   9
ATOM      9  C   UNL     1       1.706   1.577  -0.387  1.00  0.00     0.198 C 
BRANCH   9  10
ATOM     10  N   UNL     1       2.933   1.744  -1.257  1.00  0.00    -0.324 N 
ATOM     11  C   UNL     1       3.991   2.492  -1.608  1.00  0.00     0.323 C 
ATOM     12  O   UNL     1       4.754   1.815  -2.322  1.00  0.00    -0.248 OA
ATOM     13  H   UNL     1       2.973   0.939  -1.823  1.00  0.00     0.166 HD
BRANCH  11  14
ATOM     14  N   UNL     1       4.312   3.794  -1.276  1.00  0.00    -0.280 N 
ATOM     15  C   UNL     1       3.391   4.999  -1.173  1.00  0.00     0.184 C 
ATOM     16  C   UNL     1       3.951   6.371  -1.603  1.00  0.00     0.247 C 
ATOM     17  O   UNL     1       3.273   7.391  -1.739  1.00  0.00    -0.272 OA
ATOM     18  N   UNL     1       5.286   6.498  -1.725  1.00  0.00    -0.322 N 
ATOM     19  C   UNL     1       5.739   4.150  -1.259  1.00  0.00     0.070 A 
ATOM     20  C   UNL     1       6.175   5.461  -1.515  1.00  0.00     0.065 A 
ATOM     21  H   UNL     1       5.649   7.378  -1.977  1.00  0.00     0.170 HD
ATOM     22  C   UNL     1       6.748   3.202  -1.014  1.00  0.00     0.028 A 
ATOM     23  C   UNL     1       7.533   5.795  -1.605  1.00  0.00     0.028 A 
ATOM     24  C   UNL     1       8.111   3.537  -1.078  1.00  0.00     0.002 A 
ATOM     25  C   UNL     1       8.504   4.832  -1.387  1.00  0.00     0.002 A 
BRANCH  15  26
ATOM     26  C   UNL     1       2.073   4.836  -1.927  1.00  0.00     0.015 C 
ATOM     27  C   UNL     1       0.967   5.867  -1.672  1.00  0.00     0.010 C 
ATOM     28  C   UNL     1       2.197   4.471  -3.407  1.00  0.00     0.010 C 
ENDBRANCH  15  26
ENDBRANCH  11  14
ENDBRANCH   9  10
BRANCH   9  29
ATOM     29  C   UNL     1       0.446   2.354  -0.816  1.00  0.00     0.072 C 
BRANCH  29  30
ATOM     30  C   UNL     1      -0.972   1.924  -1.146  1.00  0.00    -0.045 A 
ATOM     31  C   UNL     1      -1.832   2.979  -1.556  1.00  0.00     0.004 A 
ATOM     32  C   UNL     1      -1.427   0.621  -1.310  1.00  0.00     0.004 A 
ATOM     33  C   UNL     1      -3.072   2.750  -2.146  1.00  0.00     0.000 A 
ATOM     34  C   UNL     1      -2.691   0.390  -1.888  1.00  0.00     0.000 A 
ATOM     35  C   UNL     1      -3.502   1.446  -2.318  1.00  0.00     0.000 A 
ENDBRANCH  29  30
ENDBRANCH   9  29
ENDBRANCH   7   9
ENDBRANCH   6   7
ENDBRANCH   5   6
ENDBRANCH   4   5
ENDBRANCH   3   4
ENDBRANCH   2   3
ENDBRANCH   1   2
BRANCH   1  36
ATOM     36  O   UNL     1       1.103   4.841   1.820  1.00  0.00    -0.377 OA
BRANCH  36  37
ATOM     37  C   UNL     1       1.376   6.206   2.155  1.00  0.00     0.188 C 
BRANCH  37  38
ATOM     38  C   UNL     1       0.574   6.869   3.277  1.00  0.00     0.188 C 
BRANCH  38  39
ATOM     39  O   UNL     1      -0.850   6.880   3.164  1.00  0.00    -0.376 OA
BRANCH  39  40
ATOM     40  C   UNL     1      -1.447   6.827   1.871  1.00  0.00     0.202 C 
BRANCH  40  41
ATOM     41  C   UNL     1      -1.652   8.187   1.213  1.00  0.00     0.261 C 
BRANCH  41  42
ATOM     42  O   UNL     1      -0.414   8.729   0.730  1.00  0.00    -0.460 OA
BRANCH  42  43
ATOM     43  C   UNL     1       0.173   9.629   1.538  1.00  0.00     0.338 C 
ATOM     44  O   UNL     1      -0.233  10.038   2.626  1.00  0.00    -0.246 OA
BRANCH  43  45
ATOM     45  C   UNL     1       1.474  10.023   0.987  1.00  0.00     0.060 A 
ATOM     46  C   UNL     1       2.579  10.064   1.847  1.00  0.00     0.016 A 
ATOM     47  C   UNL     1       1.577  10.466  -0.334  1.00  0.00     0.016 A 
ATOM     48  C   UNL     1       3.777  10.618   1.408  1.00  0.00     0.010 A 
ATOM     49  C   UNL     1       2.777  11.024  -0.771  1.00  0.00     0.010 A 
ATOM     50  C   UNL     1       3.861  11.148   0.114  1.00  0.00    -0.014 A 
BRANCH  50  51
ATOM     51  C   UNL     1       5.005  12.008  -0.261  1.00  0.00     0.031 A 
ATOM     52  C   UNL     1       4.820  13.499  -0.232  1.00  0.00     0.074 A 
ATOM     53  C   UNL     1       6.184  11.472  -0.613  1.00  0.00     0.049 A 
ATOM     54  N   UNL     1       5.639  14.445  -0.611  1.00  0.00    -0.248 NA
ATOM     55  C   UNL     1       3.537  13.988   0.298  1.00  0.00     0.031 C 
ATOM     56  C   UNL     1       6.500  10.045  -0.602  1.00  0.00     0.029 A 
ATOM     57  N   UNL     1       7.333  12.072  -1.059  1.00  0.00    -0.354 N 
ATOM     58  C   UNL     1       4.970  15.638  -0.371  1.00  0.00     0.074 A 
ATOM     59  C   UNL     1       3.665  15.298   0.152  1.00  0.00     0.031 C 
ATOM     60  C   UNL     1       7.758   9.880  -1.043  1.00  0.00     0.029 A 
ATOM     61  C   UNL     1       8.312  11.179  -1.413  1.00  0.00     0.049 A 
ATOM     62  H   UNL     1       7.444  13.048  -1.119  1.00  0.00     0.167 HD
ATOM     63  C   UNL     1       5.410  16.904  -0.562  1.00  0.00     0.037 A 
ATOM     64  C   UNL     1       9.506  11.388  -1.998  1.00  0.00     0.037 A 
ATOM     65  C   UNL     1       6.708  17.231  -1.089  1.00  0.00     0.049 A 
ATOM     66  C   UNL     1       9.934  12.799  -2.302  1.00  0.00     0.074 A 
ATOM     67  C   UNL     1       7.258  18.479  -1.318  1.00  0.00     0.029 A 
ATOM     68  N   UNL     1       7.658  16.297  -1.476  1.00  0.00    -0.354 N 
ATOM     69  N   UNL     1       9.301  13.923  -2.066  1.00  0.00    -0.248 NA
ATOM     70  C   UNL     1      11.244  12.972  -2.944  1.00  0.00     0.031 C 
ATOM     71  C   UNL     1       8.521  18.300  -1.892  1.00  0.00     0.029 A 
ATOM     72  C   UNL     1       8.781  16.940  -1.965  1.00  0.00     0.049 A 
ATOM     73  H   UNL     1       7.549  15.320  -1.412  1.00  0.00     0.167 HD
ATOM     74  C   UNL     1      10.152  14.937  -2.488  1.00  0.00     0.074 A 
ATOM     75  C   UNL     1      11.346  14.292  -2.996  1.00  0.00     0.031 C 
ATOM     76  C   UNL     1       9.967  16.280  -2.450  1.00  0.00     0.037 A 
BRANCH  63  77
ATOM     77  C   UNL     1       4.465  18.022  -0.227  1.00  0.00     0.057 A 
ATOM     78  C   UNL     1       4.119  18.331   1.095  1.00  0.00     0.134 A 
ATOM     79  C   UNL     1       3.906  18.811  -1.240  1.00  0.00     0.134 A 
ATOM     80  F   UNL     1       4.607  17.604   2.113  1.00  0.00    -0.206 F 
ATOM     81  C   UNL     1       3.232  19.366   1.396  1.00  0.00     0.040 A 
ATOM     82  C   UNL     1       3.039  19.866  -0.951  1.00  0.00     0.040 A 
ATOM     83  F   UNL     1       4.196  18.572  -2.528  1.00  0.00    -0.206 F 
ATOM     84  C   UNL     1       2.694  20.141   0.370  1.00  0.00     0.006 A 
ENDBRANCH  63  77
BRANCH  64  85
ATOM     85  C   UNL     1      10.373  10.235  -2.347  1.00  0.00     0.057 A 
ATOM     86  C   UNL     1      11.584  10.010  -1.684  1.00  0.00     0.134 A 
ATOM     87  C   UNL     1      10.016   9.334  -3.360  1.00  0.00     0.134 A 
ATOM     88  F   UNL     1      11.988  10.846  -0.716  1.00  0.00    -0.206 F 
ATOM     89  C   UNL     1      12.420   8.946  -2.028  1.00  0.00     0.040 A 
ATOM     90  C   UNL     1      10.830   8.252  -3.698  1.00  0.00     0.040 A 
ATOM     91  F   UNL     1       8.861   9.484  -4.024  1.00  0.00    -0.206 F 
ATOM     92  C   UNL     1      12.041   8.060  -3.035  1.00  0.00     0.006 A 
ENDBRANCH  64  85
BRANCH  76  93
ATOM     93  C   UNL     1      11.102  17.145  -2.915  1.00  0.00     0.057 A 
ATOM     94  C   UNL     1      11.445  17.261  -4.268  1.00  0.00     0.134 A 
ATOM     95  C   UNL     1      11.829  17.912  -1.995  1.00  0.00     0.134 A 
ATOM     96  F   UNL     1      10.797  16.544  -5.198  1.00  0.00    -0.206 F 
ATOM     97  C   UNL     1      12.485  18.093  -4.686  1.00  0.00     0.040 A 
ATOM     98  C   UNL     1      12.851  18.769  -2.404  1.00  0.00     0.040 A 
ATOM     99  F   UNL     1      11.545  17.855  -0.685  1.00  0.00    -0.206 F 
ATOM    100  C   UNL     1      13.185  18.857  -3.753  1.00  0.00     0.006 A 
ENDBRANCH  76  93
ENDBRANCH  50  51
ENDBRANCH  43  45
ENDBRANCH  42  43
ENDBRANCH  41  42
ENDBRANCH  40  41
ENDBRANCH  39  40
ENDBRANCH  38  39
ENDBRANCH  37  38
ENDBRANCH  36  37
ENDBRANCH   1  36
TORSDOF 25
