REMARK SMILES Cc1cc(Cl)c(C)c2c1O[C@H](C(F)(F)F)C(C(=O)OCCOCCOCCOCCOC(=O)c1ccc(-c3c4nc(c(-c5c(F)cccc5F)c5ccc([nH]5)c(-c5c(F)cccc5F)c5nc(c(-c6c(F)cccc6F)c6ccc3[nH]6)C=C5)C=C4)cc1)=C2
REMARK SMILES IDX 26 1 25 2 24 3 23 4 22 5 21 6 20 7 19 8 17 9 18 10 16 11
REMARK SMILES IDX 1 12 2 13 3 14 9 15 4 16 8 17 10 18 5 19 6 20 88 21 11 22
REMARK SMILES IDX 7 23 12 24 13 25 14 26 15 27 27 28 28 29 29 30 30 31 31 32
REMARK SMILES IDX 32 33 33 34 34 35 35 36 87 37 36 38 86 39 37 40 38 41 39 42
REMARK SMILES IDX 80 43 40 44 85 45 79 46 81 47 41 48 84 49 78 50 77 51 42 53
REMARK SMILES IDX 68 54 51 55 67 56 52 57 55 58 66 59 82 60 53 61 54 62 65 64
REMARK SMILES IDX 83 65 56 66 43 67 44 68 49 69 45 70 46 71 48 72 50 73 47 74
REMARK SMILES IDX 69 75 70 76 75 77 71 78 72 79 74 80 76 81 73 82 57 83 58 84
REMARK SMILES IDX 63 85 59 86 60 87 62 88 64 89 61 90
REMARK H PARENT 81 52 55 63
REMARK Flexibility Score: inf
ROOT
ATOM      1  C   UNL     1       0.951  -7.795   3.978  1.00  0.00     0.188 C 
ENDROOT
BRANCH   1   2
ATOM      2  O   UNL     1       1.267  -6.782   3.019  1.00  0.00    -0.377 OA
BRANCH   2   3
ATOM      3  C   UNL     1       0.488  -6.720   1.833  1.00  0.00     0.188 C 
BRANCH   3   4
ATOM      4  C   UNL     1       0.892  -7.773   0.783  1.00  0.00     0.188 C 
BRANCH   4   5
ATOM      5  O   UNL     1       1.659  -8.832   1.332  1.00  0.00    -0.376 OA
BRANCH   5   6
ATOM      6  C   UNL     1       3.074  -8.807   1.252  1.00  0.00     0.202 C 
BRANCH   6   7
ATOM      7  C   UNL     1       3.901  -7.564   1.628  1.00  0.00     0.261 C 
BRANCH   7   8
ATOM      8  O   UNL     1       3.353  -6.290   1.278  1.00  0.00    -0.460 OA
BRANCH   8   9
ATOM      9  C   UNL     1       3.409  -5.915  -0.012  1.00  0.00     0.338 C 
ATOM     10  O   UNL     1       3.913  -6.534  -0.931  1.00  0.00    -0.246 OA
BRANCH   9  11
ATOM     11  C   UNL     1       2.593  -4.689  -0.156  1.00  0.00     0.087 C 
ATOM     12  C   UNL     1       0.817   0.069   0.095  1.00  0.00     0.048 C 
ATOM     13  C   UNL     1       0.516  -1.128  -0.763  1.00  0.00    -0.007 A 
ATOM     14  C   UNL     1      -0.367  -1.014  -1.840  1.00  0.00     0.028 A 
ATOM     15  C   UNL     1       1.126  -2.366  -0.515  1.00  0.00     0.131 A 
ATOM     16  C   UNL     1      -0.664  -2.120  -2.642  1.00  0.00     0.045 A 
ATOM     17  C   UNL     1       0.893  -3.466  -1.358  1.00  0.00     0.022 A 
ATOM     18  O   UNL     1       1.946  -2.408   0.578  1.00  0.00    -0.475 OA
ATOM     19  Cl  UNL     1      -1.780  -1.855  -3.937  1.00  0.00    -0.084 Cl
ATOM     20  C   UNL     1      -0.056  -3.368  -2.408  1.00  0.00    -0.021 A 
ATOM     21  C   UNL     1       1.712  -4.661  -1.164  1.00  0.00     0.027 C 
ATOM     22  C   UNL     1       2.726  -3.594   0.863  1.00  0.00     0.316 C 
ATOM     23  C   UNL     1      -0.415  -4.586  -3.225  1.00  0.00     0.047 C 
BRANCH  22  24
ATOM     24  C   UNL     1       4.180  -3.148   1.068  1.00  0.00     0.430 C 
ATOM     25  F   UNL     1       4.259  -2.116   1.943  1.00  0.00    -0.167 F 
ATOM     26  F   UNL     1       4.955  -4.138   1.569  1.00  0.00    -0.167 F 
ATOM     27  F   UNL     1       4.747  -2.740  -0.091  1.00  0.00    -0.167 F 
ENDBRANCH  22  24
ENDBRANCH   9  11
ENDBRANCH   8   9
ENDBRANCH   7   8
ENDBRANCH   6   7
ENDBRANCH   5   6
ENDBRANCH   4   5
ENDBRANCH   3   4
ENDBRANCH   2   3
ENDBRANCH   1   2
BRANCH   1  28
ATOM     28  C   UNL     1       0.096  -9.037   3.623  1.00  0.00     0.188 C 
BRANCH  28  29
ATOM     29  O   UNL     1      -0.985  -8.772   2.739  1.00  0.00    -0.376 OA
BRANCH  29  30
ATOM     30  C   UNL     1      -2.298  -8.781   3.273  1.00  0.00     0.202 C 
BRANCH  30  31
ATOM     31  C   UNL     1      -2.643  -7.607   4.198  1.00  0.00     0.261 C 
BRANCH  31  32
ATOM     32  O   UNL     1      -1.796  -7.454   5.347  1.00  0.00    -0.460 OA
BRANCH  32  33
ATOM     33  C   UNL     1      -1.785  -8.457   6.250  1.00  0.00     0.338 C 
ATOM     34  O   UNL     1      -2.446  -9.480   6.229  1.00  0.00    -0.246 OA
BRANCH  33  35
ATOM     35  C   UNL     1      -0.675  -8.192   7.188  1.00  0.00     0.060 A 
ATOM     36  C   UNL     1       0.367  -9.123   7.293  1.00  0.00     0.016 A 
ATOM     37  C   UNL     1      -0.656  -7.017   7.943  1.00  0.00     0.016 A 
ATOM     38  C   UNL     1       1.419  -8.893   8.180  1.00  0.00     0.010 A 
ATOM     39  C   UNL     1       0.384  -6.800   8.849  1.00  0.00     0.010 A 
ATOM     40  C   UNL     1       1.408  -7.753   8.994  1.00  0.00    -0.014 A 
BRANCH  40  41
ATOM     41  C   UNL     1       2.336  -7.667  10.146  1.00  0.00     0.031 A 
ATOM     42  C   UNL     1       1.840  -8.136  11.487  1.00  0.00     0.074 A 
ATOM     43  C   UNL     1       3.597  -7.220  10.008  1.00  0.00     0.049 A 
ATOM     44  N   UNL     1       2.444  -8.130  12.646  1.00  0.00    -0.248 NA
ATOM     45  C   UNL     1       0.476  -8.693  11.521  1.00  0.00     0.031 C 
ATOM     46  C   UNL     1       4.212  -6.794   8.754  1.00  0.00     0.029 A 
ATOM     47  N   UNL     1       4.588  -7.055  10.944  1.00  0.00    -0.354 N 
ATOM     48  C   UNL     1       1.542  -8.689  13.541  1.00  0.00     0.074 A 
ATOM     49  C   UNL     1       0.334  -8.985  12.805  1.00  0.00     0.031 C 
ATOM     50  C   UNL     1       5.479  -6.415   8.998  1.00  0.00     0.029 A 
ATOM     51  C   UNL     1       5.753  -6.540  10.430  1.00  0.00     0.049 A 
ATOM     52  H   UNL     1       4.474  -7.284  11.895  1.00  0.00     0.167 HD
ATOM     53  C   UNL     1       1.710  -8.949  14.858  1.00  0.00     0.037 A 
ATOM     54  C   UNL     1       6.899  -6.196  11.051  1.00  0.00     0.037 A 
ATOM     55  C   UNL     1       2.908  -8.646  15.593  1.00  0.00     0.049 A 
ATOM     56  C   UNL     1       7.020  -6.388  12.542  1.00  0.00     0.074 A 
ATOM     57  C   UNL     1       3.169  -8.857  16.935  1.00  0.00     0.029 A 
ATOM     58  N   UNL     1       4.042  -8.063  15.049  1.00  0.00    -0.354 N 
ATOM     59  N   UNL     1       6.163  -6.920  13.381  1.00  0.00    -0.248 NA
ATOM     60  C   UNL     1       8.266  -5.929  13.174  1.00  0.00     0.031 C 
ATOM     61  C   UNL     1       4.443  -8.358  17.214  1.00  0.00     0.029 A 
ATOM     62  C   UNL     1       4.997  -7.887  16.034  1.00  0.00     0.049 A 
ATOM     63  H   UNL     1       4.151  -7.812  14.103  1.00  0.00     0.167 HD
ATOM     64  C   UNL     1       6.777  -6.887  14.628  1.00  0.00     0.074 A 
ATOM     65  C   UNL     1       8.083  -6.295  14.436  1.00  0.00     0.031 C 
ATOM     66  C   UNL     1       6.300  -7.309  15.825  1.00  0.00     0.037 A 
BRANCH  53  67
ATOM     67  C   UNL     1       0.571  -9.589  15.593  1.00  0.00     0.057 A 
ATOM     68  C   UNL     1       0.233 -10.933  15.393  1.00  0.00     0.134 A 
ATOM     69  C   UNL     1      -0.153  -8.874  16.554  1.00  0.00     0.134 A 
ATOM     70  F   UNL     1       0.877 -11.668  14.473  1.00  0.00    -0.206 F 
ATOM     71  C   UNL     1      -0.791 -11.543  16.119  1.00  0.00     0.040 A 
ATOM     72  C   UNL     1      -1.162  -9.479  17.305  1.00  0.00     0.040 A 
ATOM     73  F   UNL     1       0.121  -7.583  16.793  1.00  0.00    -0.206 F 
ATOM     74  C   UNL     1      -1.484 -10.817  17.087  1.00  0.00     0.006 A 
ENDBRANCH  53  67
BRANCH  54  75
ATOM     75  C   UNL     1       8.033  -5.633  10.271  1.00  0.00     0.057 A 
ATOM     76  C   UNL     1       9.231  -6.342  10.125  1.00  0.00     0.134 A 
ATOM     77  C   UNL     1       7.957  -4.368   9.675  1.00  0.00     0.134 A 
ATOM     78  F   UNL     1       9.377  -7.547  10.695  1.00  0.00    -0.206 F 
ATOM     79  C   UNL     1      10.317  -5.810   9.426  1.00  0.00     0.040 A 
ATOM     80  C   UNL     1       9.025  -3.835   8.951  1.00  0.00     0.040 A 
ATOM     81  F   UNL     1       6.840  -3.634   9.782  1.00  0.00    -0.206 F 
ATOM     82  C   UNL     1      10.212  -4.554   8.830  1.00  0.00     0.006 A 
ENDBRANCH  54  75
BRANCH  66  83
ATOM     83  C   UNL     1       7.196  -7.178  17.024  1.00  0.00     0.057 A 
ATOM     84  C   UNL     1       7.468  -5.936  17.610  1.00  0.00     0.134 A 
ATOM     85  C   UNL     1       7.717  -8.317  17.653  1.00  0.00     0.134 A 
ATOM     86  F   UNL     1       7.005  -4.806  17.054  1.00  0.00    -0.206 F 
ATOM     87  C   UNL     1       8.235  -5.830  18.771  1.00  0.00     0.040 A 
ATOM     88  C   UNL     1       8.460  -8.226  18.830  1.00  0.00     0.040 A 
ATOM     89  F   UNL     1       7.482  -9.540  17.152  1.00  0.00    -0.206 F 
ATOM     90  C   UNL     1       8.724  -6.979  19.391  1.00  0.00     0.006 A 
ENDBRANCH  66  83
ENDBRANCH  40  41
ENDBRANCH  33  35
ENDBRANCH  32  33
ENDBRANCH  31  32
ENDBRANCH  30  31
ENDBRANCH  29  30
ENDBRANCH  28  29
ENDBRANCH   1  28
TORSDOF 21
