REMARK SMILES Cc1c(C(=O)OCCOCCOCCOCCOC(=O)c2ccc(-c3c4nc(c(-c5c(F)cccc5F)c5ccc([nH]5)c(-c5c(F)cccc5F)c5nc(c(-c6c(F)cccc6F)c6ccc3[nH]6)C=C5)C=C4)cc2)oc2c1/C(=N/NC(=O)C(c1ccccc1)c1ccccc1)CCC2
REMARK SMILES IDX 11 1 10 2 9 3 8 4 7 5 6 6 4 7 5 8 3 9 1 10 2 11 77 12 75 13
REMARK SMILES IDX 76 14 78 15 98 16 79 17 96 18 97 19 80 20 81 21 82 23 83 24
REMARK SMILES IDX 84 25 85 26 89 27 86 28 88 29 87 30 90 31 91 32 95 33 92 34
REMARK SMILES IDX 94 35 93 36 12 37 13 38 14 39 15 40 16 41 17 42 18 43 19 44
REMARK SMILES IDX 20 45 21 46 22 47 74 48 23 49 73 50 24 51 25 52 26 53 67 54
REMARK SMILES IDX 27 55 72 56 66 57 68 58 28 59 71 60 65 61 64 62 29 64 55 65
REMARK SMILES IDX 38 66 54 67 39 68 42 69 53 70 69 71 40 72 41 73 52 75 70 76
REMARK SMILES IDX 43 77 30 78 31 79 36 80 32 81 33 82 35 83 37 84 34 85 56 86
REMARK SMILES IDX 57 87 62 88 58 89 59 90 61 91 63 92 60 93 44 94 45 95 50 96
REMARK SMILES IDX 46 97 47 98 49 99 51 100 48 101
REMARK H PARENT 80 22 68 63 42 74
REMARK Flexibility Score: inf
ROOT
ATOM      1  C   UNL     1       1.440  -2.205  -3.848  1.00  0.00     0.188 C 
ENDROOT
BRANCH   1   2
ATOM      2  C   UNL     1       0.920  -3.256  -2.844  1.00  0.00     0.188 C 
BRANCH   2   3
ATOM      3  O   UNL     1       0.207  -4.303  -3.494  1.00  0.00    -0.376 OA
BRANCH   3   4
ATOM      4  C   UNL     1      -1.113  -4.588  -3.074  1.00  0.00     0.202 C 
BRANCH   4   5
ATOM      5  C   UNL     1      -2.149  -3.732  -3.805  1.00  0.00     0.261 C 
BRANCH   5   6
ATOM      6  O   UNL     1      -1.926  -2.329  -3.692  1.00  0.00    -0.457 OA
BRANCH   6   7
ATOM      7  C   UNL     1      -1.878  -1.787  -2.446  1.00  0.00     0.374 C 
ATOM      8  O   UNL     1      -2.185  -2.363  -1.410  1.00  0.00    -0.242 OA
BRANCH   7   9
ATOM      9  C   UNL     1      -1.236  -0.511  -2.565  1.00  0.00     0.215 A 
ATOM     10  C   UNL     1       0.123  -0.149  -0.379  1.00  0.00     0.049 C 
ATOM     11  C   UNL     1      -0.403   0.219  -1.721  1.00  0.00     0.012 A 
ATOM     12  C   UNL     1      -0.159   1.433  -2.416  1.00  0.00     0.043 A 
ATOM     13  O   UNL     1      -1.357   0.122  -3.775  1.00  0.00    -0.453 OA
ATOM     14  C   UNL     1      -0.679   1.271  -3.679  1.00  0.00     0.114 A 
ATOM     15  C   UNL     1       0.405   2.716  -2.018  1.00  0.00     0.072 C 
ATOM     16  C   UNL     1      -0.694   2.195  -4.832  1.00  0.00     0.076 C 
ATOM     17  N   UNL     1       1.106   2.639  -0.924  1.00  0.00    -0.177 NA
ATOM     18  C   UNL     1      -0.125   3.797  -2.969  1.00  0.00     0.059 C 
ATOM     19  C   UNL     1       0.087   3.450  -4.450  1.00  0.00     0.014 C 
BRANCH  17  20
ATOM     20  N   UNL     1       1.736   3.472  -0.041  1.00  0.00    -0.246 N 
ATOM     21  C   UNL     1       1.877   4.833   0.148  1.00  0.00     0.252 C 
ATOM     22  H   UNL     1       2.222   2.963   0.647  1.00  0.00     0.193 HD
ATOM     23  O   UNL     1       2.500   5.228   1.141  1.00  0.00    -0.272 OA
BRANCH  21  24
ATOM     24  C   UNL     1       1.292   5.819  -0.851  1.00  0.00     0.140 C 
BRANCH  24  25
ATOM     25  C   UNL     1       2.147   5.700  -2.182  1.00  0.00    -0.031 A 
ATOM     26  C   UNL     1       3.084   4.640  -2.379  1.00  0.00     0.005 A 
ATOM     27  C   UNL     1       2.047   6.606  -3.247  1.00  0.00     0.005 A 
ATOM     28  C   UNL     1       3.759   4.406  -3.579  1.00  0.00     0.000 A 
ATOM     29  C   UNL     1       2.766   6.399  -4.448  1.00  0.00     0.000 A 
ATOM     30  C   UNL     1       3.594   5.288  -4.625  1.00  0.00     0.000 A 
ENDBRANCH  24  25
BRANCH  24  31
ATOM     31  C   UNL     1      -0.286   5.733  -0.750  1.00  0.00    -0.031 A 
ATOM     32  C   UNL     1      -1.156   6.605  -1.419  1.00  0.00     0.005 A 
ATOM     33  C   UNL     1      -0.929   4.749   0.061  1.00  0.00     0.005 A 
ATOM     34  C   UNL     1      -2.558   6.412  -1.370  1.00  0.00     0.000 A 
ATOM     35  C   UNL     1      -2.307   4.514   0.059  1.00  0.00     0.000 A 
ATOM     36  C   UNL     1      -3.128   5.347  -0.670  1.00  0.00     0.000 A 
ENDBRANCH  24  31
ENDBRANCH  21  24
ENDBRANCH  17  20
ENDBRANCH   7   9
ENDBRANCH   6   7
ENDBRANCH   5   6
ENDBRANCH   4   5
ENDBRANCH   3   4
ENDBRANCH   2   3
ENDBRANCH   1   2
BRANCH   1  37
ATOM     37  O   UNL     1       2.205  -2.645  -4.966  1.00  0.00    -0.377 OA
BRANCH  37  38
ATOM     38  C   UNL     1       1.743  -3.816  -5.619  1.00  0.00     0.188 C 
BRANCH  38  39
ATOM     39  C   UNL     1       2.401  -5.108  -5.092  1.00  0.00     0.188 C 
BRANCH  39  40
ATOM     40  O   UNL     1       3.043  -5.126  -3.827  1.00  0.00    -0.376 OA
BRANCH  40  41
ATOM     41  C   UNL     1       4.136  -4.314  -3.431  1.00  0.00     0.202 C 
BRANCH  41  42
ATOM     42  C   UNL     1       5.041  -3.474  -4.325  1.00  0.00     0.261 C 
BRANCH  42  43
ATOM     43  O   UNL     1       4.643  -3.314  -5.659  1.00  0.00    -0.460 OA
BRANCH  43  44
ATOM     44  C   UNL     1       5.010  -4.319  -6.465  1.00  0.00     0.338 C 
ATOM     45  O   UNL     1       5.452  -5.408  -6.146  1.00  0.00    -0.246 OA
BRANCH  44  46
ATOM     46  C   UNL     1       4.929  -3.818  -7.836  1.00  0.00     0.060 A 
ATOM     47  C   UNL     1       5.197  -4.749  -8.834  1.00  0.00     0.016 A 
ATOM     48  C   UNL     1       4.929  -2.431  -8.072  1.00  0.00     0.016 A 
ATOM     49  C   UNL     1       5.720  -4.279 -10.010  1.00  0.00     0.010 A 
ATOM     50  C   UNL     1       5.460  -1.963  -9.248  1.00  0.00     0.010 A 
ATOM     51  C   UNL     1       5.935  -2.900 -10.155  1.00  0.00    -0.014 A 
BRANCH  51  52
ATOM     52  C   UNL     1       6.657  -2.484 -11.330  1.00  0.00     0.031 A 
ATOM     53  C   UNL     1       5.894  -2.672 -12.574  1.00  0.00     0.074 A 
ATOM     54  C   UNL     1       7.901  -1.979 -11.288  1.00  0.00     0.049 A 
ATOM     55  N   UNL     1       6.120  -3.533 -13.507  1.00  0.00    -0.248 NA
ATOM     56  C   UNL     1       4.639  -1.923 -12.717  1.00  0.00     0.031 C 
ATOM     57  C   UNL     1       8.660  -1.503 -10.130  1.00  0.00     0.029 A 
ATOM     58  N   UNL     1       8.726  -1.715 -12.335  1.00  0.00    -0.354 N 
ATOM     59  C   UNL     1       5.141  -3.304 -14.462  1.00  0.00     0.074 A 
ATOM     60  C   UNL     1       4.173  -2.423 -13.861  1.00  0.00     0.031 C 
ATOM     61  C   UNL     1       9.741  -0.817 -10.566  1.00  0.00     0.029 A 
ATOM     62  C   UNL     1       9.817  -0.928 -12.014  1.00  0.00     0.049 A 
ATOM     63  H   UNL     1       8.560  -2.055 -13.243  1.00  0.00     0.167 HD
ATOM     64  C   UNL     1       5.342  -3.658 -15.757  1.00  0.00     0.037 A 
ATOM     65  C   UNL     1      10.669  -0.358 -12.899  1.00  0.00     0.037 A 
ATOM     66  C   UNL     1       6.370  -4.661 -15.880  1.00  0.00     0.049 A 
ATOM     67  C   UNL     1      10.557  -1.103 -14.178  1.00  0.00     0.074 A 
ATOM     68  C   UNL     1       6.540  -5.944 -15.397  1.00  0.00     0.029 A 
ATOM     69  N   UNL     1       7.609  -4.259 -16.313  1.00  0.00    -0.354 N 
ATOM     70  N   UNL     1      10.985  -2.322 -14.355  1.00  0.00    -0.248 NA
ATOM     71  C   UNL     1       9.592  -0.637 -15.164  1.00  0.00     0.031 C 
ATOM     72  C   UNL     1       7.938  -6.069 -15.146  1.00  0.00     0.029 A 
ATOM     73  C   UNL     1       8.545  -4.869 -15.519  1.00  0.00     0.049 A 
ATOM     74  H   UNL     1       7.792  -3.643 -17.059  1.00  0.00     0.167 HD
ATOM     75  C   UNL     1      10.043  -2.911 -15.185  1.00  0.00     0.074 A 
ATOM     76  C   UNL     1       9.281  -1.799 -15.743  1.00  0.00     0.031 C 
ATOM     77  C   UNL     1       9.790  -4.252 -15.122  1.00  0.00     0.037 A 
BRANCH  64  78
ATOM     78  C   UNL     1       4.896  -2.802 -16.911  1.00  0.00     0.057 A 
ATOM     79  C   UNL     1       5.016  -3.303 -18.217  1.00  0.00     0.134 A 
ATOM     80  C   UNL     1       4.644  -1.417 -16.817  1.00  0.00     0.134 A 
ATOM     81  F   UNL     1       5.274  -4.601 -18.435  1.00  0.00    -0.206 F 
ATOM     82  C   UNL     1       4.968  -2.472 -19.342  1.00  0.00     0.040 A 
ATOM     83  C   UNL     1       4.541  -0.588 -17.935  1.00  0.00     0.040 A 
ATOM     84  F   UNL     1       4.590  -0.770 -15.646  1.00  0.00    -0.206 F 
ATOM     85  C   UNL     1       4.738  -1.109 -19.202  1.00  0.00     0.006 A 
ENDBRANCH  64  78
BRANCH  65  86
ATOM     86  C   UNL     1      11.340   0.955 -12.806  1.00  0.00     0.057 A 
ATOM     87  C   UNL     1      12.403   1.283 -13.658  1.00  0.00     0.134 A 
ATOM     88  C   UNL     1      10.779   2.019 -12.078  1.00  0.00     0.134 A 
ATOM     89  F   UNL     1      12.977   0.344 -14.424  1.00  0.00    -0.206 F 
ATOM     90  C   UNL     1      12.863   2.599 -13.801  1.00  0.00     0.040 A 
ATOM     91  C   UNL     1      11.235   3.335 -12.204  1.00  0.00     0.040 A 
ATOM     92  F   UNL     1       9.710   1.836 -11.289  1.00  0.00    -0.206 F 
ATOM     93  C   UNL     1      12.270   3.631 -13.081  1.00  0.00     0.006 A 
ENDBRANCH  65  86
BRANCH  77  94
ATOM     94  C   UNL     1      10.763  -5.107 -14.359  1.00  0.00     0.057 A 
ATOM     95  C   UNL     1      11.005  -4.986 -12.982  1.00  0.00     0.134 A 
ATOM     96  C   UNL     1      11.387  -6.172 -15.019  1.00  0.00     0.134 A 
ATOM     97  F   UNL     1      10.374  -4.061 -12.245  1.00  0.00    -0.206 F 
ATOM     98  C   UNL     1      11.870  -5.852 -12.307  1.00  0.00     0.040 A 
ATOM     99  C   UNL     1      12.226  -7.065 -14.349  1.00  0.00     0.040 A 
ATOM    100  F   UNL     1      11.158  -6.386 -16.324  1.00  0.00    -0.206 F 
ATOM    101  C   UNL     1      12.481  -6.899 -12.990  1.00  0.00     0.006 A 
ENDBRANCH  77  94
ENDBRANCH  51  52
ENDBRANCH  44  46
ENDBRANCH  43  44
ENDBRANCH  42  43
ENDBRANCH  41  42
ENDBRANCH  40  41
ENDBRANCH  39  40
ENDBRANCH  38  39
ENDBRANCH  37  38
ENDBRANCH   1  37
TORSDOF 24
