REMARK SMILES Cc1ccc(Cl)c(Nc2ccccc2C(=O)N[C@@H](C)C(=O)OCCOCCOCCOCCOC(=O)c2ccc(-c3c4nc(c(-c5c(F)cccc5F)c5ccc([nH]5)c(-c5c(F)cccc5F)c5nc(c(-c6c(F)cccc6F)c6ccc3[nH]6)C=C5)C=C4)cc2)c1Cl
REMARK SMILES IDX 27 1 26 2 25 3 24 4 23 5 22 6 20 7 21 8 18 9 19 10 17 11
REMARK SMILES IDX 15 12 16 13 14 15 9 16 10 17 11 18 13 19 12 20 8 21 7 23
REMARK SMILES IDX 1 24 2 25 3 26 91 27 4 28 92 29 5 30 6 31 28 32 29 33 30 34
REMARK SMILES IDX 31 35 32 36 33 37 34 38 35 39 36 40 37 41 38 42 90 43 39 44
REMARK SMILES IDX 89 45 40 46 41 47 42 48 83 49 43 50 88 51 82 52 84 53 44 54
REMARK SMILES IDX 87 55 81 56 80 57 45 59 71 60 54 61 70 62 55 63 58 64 69 65
REMARK SMILES IDX 85 66 56 67 57 68 68 70 86 71 59 72 46 73 47 74 52 75 48 76
REMARK SMILES IDX 49 77 51 78 53 79 50 80 72 81 73 82 78 83 74 84 75 85 77 86
REMARK SMILES IDX 79 87 76 88 60 89 61 90 66 91 62 92 63 93 65 94 67 95 64 96
REMARK H PARENT 17 14 8 22 84 58 58 69
REMARK Flexibility Score: inf
ROOT
ATOM      1  C   UNL     1       3.036   1.080  -1.327  1.00  0.00     0.188 C 
ENDROOT
BRANCH   1   2
ATOM      2  C   UNL     1       2.060   2.005  -2.161  1.00  0.00     0.188 C 
BRANCH   2   3
ATOM      3  O   UNL     1       0.681   2.236  -1.766  1.00  0.00    -0.376 OA
BRANCH   3   4
ATOM      4  C   UNL     1       0.235   3.354  -0.973  1.00  0.00     0.202 C 
BRANCH   4   5
ATOM      5  C   UNL     1      -0.929   3.121   0.178  1.00  0.00     0.261 C 
BRANCH   5   6
ATOM      6  O   UNL     1      -0.805   2.004   1.175  1.00  0.00    -0.462 OA
BRANCH   6   7
ATOM      7  C   UNL     1      -1.905   1.195   1.451  1.00  0.00     0.328 C 
ATOM      8  O   UNL     1      -3.052   1.571   1.207  1.00  0.00    -0.250 OA
BRANCH   7   9
ATOM      9  C   UNL     1      -1.594  -0.365   1.847  1.00  0.00     0.189 C 
ATOM     10  C   UNL     1      -2.752  -1.015   2.608  1.00  0.00     0.043 C 
BRANCH   9  11
ATOM     11  N   UNL     1      -0.339  -0.831   2.466  1.00  0.00    -0.339 N 
ATOM     12  C   UNL     1       0.494  -1.940   2.358  1.00  0.00     0.254 C 
ATOM     13  O   UNL     1       1.358  -1.923   3.254  1.00  0.00    -0.269 OA
ATOM     14  H   UNL     1      -0.001  -0.187   3.131  1.00  0.00     0.164 HD
BRANCH  12  15
ATOM     15  C   UNL     1       0.598  -3.108   1.340  1.00  0.00     0.063 A 
ATOM     16  C   UNL     1      -0.253  -3.665   0.343  1.00  0.00     0.051 A 
ATOM     17  C   UNL     1       0.199  -4.780  -0.443  1.00  0.00     0.027 A 
ATOM     18  C   UNL     1       1.466  -5.334  -0.320  1.00  0.00     0.002 A 
ATOM     19  C   UNL     1       1.873  -3.760   1.452  1.00  0.00     0.016 A 
ATOM     20  C   UNL     1       2.306  -4.827   0.645  1.00  0.00     0.001 A 
BRANCH  16  21
ATOM     21  N   UNL     1      -1.497  -3.164  -0.119  1.00  0.00    -0.352 N 
ATOM     22  H   UNL     1      -2.309  -3.425   0.372  1.00  0.00     0.167 HD
BRANCH  21  23
ATOM     23  C   UNL     1      -1.649  -2.298  -1.263  1.00  0.00     0.077 A 
ATOM     24  C   UNL     1       0.386   0.137  -0.446  1.00  0.00     0.046 C 
ATOM     25  C   UNL     1      -0.650  -0.256  -1.437  1.00  0.00    -0.030 A 
ATOM     26  C   UNL     1      -1.844   0.403  -1.703  1.00  0.00     0.006 A 
ATOM     27  C   UNL     1      -0.570  -1.591  -1.728  1.00  0.00     0.069 A 
ATOM     28  C   UNL     1      -2.984  -0.369  -1.879  1.00  0.00     0.023 A 
ATOM     29  Cl  UNL     1       0.953  -2.268  -2.187  1.00  0.00    -0.082 Cl
ATOM     30  C   UNL     1      -2.900  -1.719  -1.531  1.00  0.00     0.066 A 
ATOM     31  Cl  UNL     1      -4.346  -2.616  -1.288  1.00  0.00    -0.082 Cl
ENDBRANCH  21  23
ENDBRANCH  16  21
ENDBRANCH  12  15
ENDBRANCH   9  11
ENDBRANCH   7   9
ENDBRANCH   6   7
ENDBRANCH   5   6
ENDBRANCH   4   5
ENDBRANCH   3   4
ENDBRANCH   2   3
ENDBRANCH   1   2
BRANCH   1  32
ATOM     32  O   UNL     1       3.047   1.224   0.093  1.00  0.00    -0.377 OA
BRANCH  32  33
ATOM     33  C   UNL     1       3.154   2.550   0.571  1.00  0.00     0.188 C 
BRANCH  33  34
ATOM     34  C   UNL     1       4.123   3.411  -0.232  1.00  0.00     0.188 C 
BRANCH  34  35
ATOM     35  O   UNL     1       5.181   2.738  -0.881  1.00  0.00    -0.376 OA
BRANCH  35  36
ATOM     36  C   UNL     1       6.145   1.973  -0.168  1.00  0.00     0.202 C 
BRANCH  36  37
ATOM     37  C   UNL     1       6.028   1.598   1.322  1.00  0.00     0.261 C 
BRANCH  37  38
ATOM     38  O   UNL     1       5.573   2.601   2.244  1.00  0.00    -0.460 OA
BRANCH  38  39
ATOM     39  C   UNL     1       6.094   3.844   2.159  1.00  0.00     0.338 C 
ATOM     40  O   UNL     1       7.020   4.210   1.478  1.00  0.00    -0.246 OA
BRANCH  39  41
ATOM     41  C   UNL     1       5.155   4.757   2.859  1.00  0.00     0.060 A 
ATOM     42  C   UNL     1       4.649   5.857   2.148  1.00  0.00     0.016 A 
ATOM     43  C   UNL     1       4.801   4.556   4.194  1.00  0.00     0.016 A 
ATOM     44  C   UNL     1       3.830   6.783   2.774  1.00  0.00     0.010 A 
ATOM     45  C   UNL     1       4.039   5.529   4.849  1.00  0.00     0.010 A 
ATOM     46  C   UNL     1       3.609   6.672   4.149  1.00  0.00    -0.014 A 
BRANCH  46  47
ATOM     47  C   UNL     1       3.273   7.922   4.864  1.00  0.00     0.031 A 
ATOM     48  C   UNL     1       4.423   8.747   5.379  1.00  0.00     0.074 A 
ATOM     49  C   UNL     1       2.013   8.380   4.929  1.00  0.00     0.049 A 
ATOM     50  N   UNL     1       4.413   9.896   6.003  1.00  0.00    -0.248 NA
ATOM     51  C   UNL     1       5.774   8.205   5.144  1.00  0.00     0.031 C 
ATOM     52  C   UNL     1       0.837   7.712   4.378  1.00  0.00     0.029 A 
ATOM     53  N   UNL     1       1.522   9.534   5.483  1.00  0.00    -0.354 N 
ATOM     54  C   UNL     1       5.748  10.204   6.240  1.00  0.00     0.074 A 
ATOM     55  C   UNL     1       6.541   9.114   5.721  1.00  0.00     0.031 C 
ATOM     56  C   UNL     1      -0.247   8.465   4.633  1.00  0.00     0.029 A 
ATOM     57  C   UNL     1       0.158   9.648   5.391  1.00  0.00     0.049 A 
ATOM     58  H   UNL     1       2.093  10.215   5.906  1.00  0.00     0.167 HD
ATOM     59  C   UNL     1       6.268  11.303   6.833  1.00  0.00     0.037 A 
ATOM     60  C   UNL     1      -0.663  10.593   5.886  1.00  0.00     0.037 A 
ATOM     61  C   UNL     1       5.471  12.380   7.352  1.00  0.00     0.049 A 
ATOM     62  C   UNL     1      -0.068  11.761   6.630  1.00  0.00     0.074 A 
ATOM     63  C   UNL     1       5.889  13.534   7.989  1.00  0.00     0.029 A 
ATOM     64  N   UNL     1       4.085  12.430   7.297  1.00  0.00    -0.354 N 
ATOM     65  N   UNL     1       1.193  12.041   6.865  1.00  0.00    -0.248 NA
ATOM     66  C   UNL     1      -1.010  12.750   7.170  1.00  0.00     0.031 C 
ATOM     67  C   UNL     1       4.753  14.253   8.374  1.00  0.00     0.029 A 
ATOM     68  C   UNL     1       3.630  13.584   7.910  1.00  0.00     0.049 A 
ATOM     69  H   UNL     1       3.511  11.745   6.883  1.00  0.00     0.167 HD
ATOM     70  C   UNL     1       1.196  13.255   7.544  1.00  0.00     0.074 A 
ATOM     71  C   UNL     1      -0.188  13.661   7.671  1.00  0.00     0.031 C 
ATOM     72  C   UNL     1       2.246  13.973   8.015  1.00  0.00     0.037 A 
BRANCH  59  73
ATOM     73  C   UNL     1       7.760  11.360   6.996  1.00  0.00     0.057 A 
ATOM     74  C   UNL     1       8.627  11.520   5.907  1.00  0.00     0.134 A 
ATOM     75  C   UNL     1       8.336  11.255   8.268  1.00  0.00     0.134 A 
ATOM     76  F   UNL     1       8.143  11.602   4.658  1.00  0.00    -0.206 F 
ATOM     77  C   UNL     1      10.013  11.551   6.075  1.00  0.00     0.040 A 
ATOM     78  C   UNL     1       9.718  11.316   8.452  1.00  0.00     0.040 A 
ATOM     79  F   UNL     1       7.566  11.096   9.355  1.00  0.00    -0.206 F 
ATOM     80  C   UNL     1      10.562  11.456   7.352  1.00  0.00     0.006 A 
ENDBRANCH  59  73
BRANCH  60  81
ATOM     81  C   UNL     1      -2.134  10.467   5.719  1.00  0.00     0.057 A 
ATOM     82  C   UNL     1      -2.865  11.377   4.946  1.00  0.00     0.134 A 
ATOM     83  C   UNL     1      -2.851   9.447   6.358  1.00  0.00     0.134 A 
ATOM     84  F   UNL     1      -2.241  12.390   4.327  1.00  0.00    -0.206 F 
ATOM     85  C   UNL     1      -4.254  11.292   4.832  1.00  0.00     0.040 A 
ATOM     86  C   UNL     1      -4.236   9.331   6.228  1.00  0.00     0.040 A 
ATOM     87  F   UNL     1      -2.213   8.541   7.114  1.00  0.00    -0.206 F 
ATOM     88  C   UNL     1      -4.942  10.262   5.470  1.00  0.00     0.006 A 
ENDBRANCH  60  81
BRANCH  72  89
ATOM     89  C   UNL     1       1.942  15.298   8.655  1.00  0.00     0.057 A 
ATOM     90  C   UNL     1       1.292  15.402   9.892  1.00  0.00     0.134 A 
ATOM     91  C   UNL     1       2.333  16.491   8.031  1.00  0.00     0.134 A 
ATOM     92  F   UNL     1       0.884  14.300  10.541  1.00  0.00    -0.206 F 
ATOM     93  C   UNL     1       1.007  16.643  10.464  1.00  0.00     0.040 A 
ATOM     94  C   UNL     1       2.086  17.735   8.610  1.00  0.00     0.040 A 
ATOM     95  F   UNL     1       2.974  16.465   6.852  1.00  0.00    -0.206 F 
ATOM     96  C   UNL     1       1.409  17.814   9.825  1.00  0.00     0.006 A 
ENDBRANCH  72  89
ENDBRANCH  46  47
ENDBRANCH  39  41
ENDBRANCH  38  39
ENDBRANCH  37  38
ENDBRANCH  36  37
ENDBRANCH  35  36
ENDBRANCH  34  35
ENDBRANCH  33  34
ENDBRANCH  32  33
ENDBRANCH   1  32
TORSDOF 24
