REMARK SMILES COc1ccc2c(c1)c(Cc1nc(-c3ccc(C(=O)OCCOCCOCCOCCOC(=O)c4ccc(-c5c6nc(c(-c7c(F)cccc7F)c7ccc([nH]7)c(-c7c(F)cccc7F)c7nc(c(-c8c(F)cccc8F)c8ccc5[nH]8)C=C7)C=C6)cc4)cc3)cs1)c(C)n2C(=O)c1ccc(Cl)cc1
REMARK SMILES IDX 24 1 23 2 22 3 21 4 20 5 18 6 19 7 17 8 14 9 15 10 90 11
REMARK SMILES IDX 16 12 89 13 13 14 11 15 12 16 92 17 91 18 10 19 9 20 3 21
REMARK SMILES IDX 4 22 8 23 5 24 7 25 6 26 95 27 93 28 94 29 2 30 1 31 96 32
REMARK SMILES IDX 97 33 98 34 99 35 104 36 100 37 103 38 101 39 102 40 25 41
REMARK SMILES IDX 26 42 27 43 28 44 29 45 30 46 31 47 32 48 33 49 34 50 35 51
REMARK SMILES IDX 36 52 88 53 37 54 87 55 38 56 39 57 40 58 81 59 41 60 86 61
REMARK SMILES IDX 80 62 82 63 42 64 85 65 79 66 78 67 43 69 69 70 52 71 68 72
REMARK SMILES IDX 53 73 56 74 67 75 83 76 54 77 55 78 66 80 84 81 57 82 44 83
REMARK SMILES IDX 45 84 50 85 46 86 47 87 49 88 51 89 48 90 70 91 71 92 76 93
REMARK SMILES IDX 72 94 73 95 75 96 77 97 74 98 58 99 59 100 64 101 60 102
REMARK SMILES IDX 61 103 63 104 65 105 62 106
REMARK H PARENT 82 68 56 79
REMARK Flexibility Score: inf
ROOT
ATOM      1  C   UNL     1      -3.440   2.146   8.900  1.00  0.00     0.188 C 
ENDROOT
BRANCH   1   2
ATOM      2  O   UNL     1      -3.760   3.529   8.965  1.00  0.00    -0.376 OA
BRANCH   2   3
ATOM      3  C   UNL     1      -2.844   4.426   8.350  1.00  0.00     0.202 C 
BRANCH   3   4
ATOM      4  C   UNL     1      -2.830   4.466   6.814  1.00  0.00     0.261 C 
BRANCH   4   5
ATOM      5  O   UNL     1      -2.772   3.188   6.169  1.00  0.00    -0.460 OA
BRANCH   5   6
ATOM      6  C   UNL     1      -1.585   2.542   6.183  1.00  0.00     0.338 C 
ATOM      7  O   UNL     1      -0.533   2.954   6.636  1.00  0.00    -0.246 OA
BRANCH   6   8
ATOM      8  C   UNL     1      -1.844   1.137   5.789  1.00  0.00     0.060 A 
ATOM      9  C   UNL     1      -2.481  -1.540   5.263  1.00  0.00     0.001 A 
ATOM     10  C   UNL     1      -1.689  -1.209   6.370  1.00  0.00     0.011 A 
ATOM     11  C   UNL     1      -2.939  -0.523   4.413  1.00  0.00     0.011 A 
ATOM     12  C   UNL     1      -1.352   0.122   6.620  1.00  0.00     0.016 A 
ATOM     13  C   UNL     1      -2.641   0.817   4.685  1.00  0.00     0.016 A 
BRANCH   9  14
ATOM     14  C   UNL     1      -2.721  -2.932   4.930  1.00  0.00     0.081 A 
ATOM     15  C   UNL     1      -2.486  -4.698   3.622  1.00  0.00     0.098 A 
ATOM     16  N   UNL     1      -2.463  -3.383   3.657  1.00  0.00    -0.241 NA
ATOM     17  S   UNL     1      -3.055  -5.446   5.063  1.00  0.00    -0.126 S 
ATOM     18  C   UNL     1      -3.140  -3.902   5.817  1.00  0.00     0.095 A 
BRANCH  15  19
ATOM     19  C   UNL     1      -2.084  -5.506   2.421  1.00  0.00     0.105 C 
BRANCH  19  20
ATOM     20  C   UNL     1      -0.596  -5.472   2.139  1.00  0.00    -0.012 A 
ATOM     21  C   UNL     1       0.750  -2.045   1.079  1.00  0.00     0.119 A 
ATOM     22  C   UNL     1       2.016  -2.479   0.736  1.00  0.00     0.048 A 
ATOM     23  C   UNL     1      -0.180  -2.965   1.559  1.00  0.00     0.057 A 
ATOM     24  C   UNL     1       2.369  -3.827   0.878  1.00  0.00     0.031 A 
ATOM     25  C   UNL     1       0.155  -4.329   1.736  1.00  0.00     0.008 A 
ATOM     26  C   UNL     1       1.453  -4.749   1.435  1.00  0.00     0.057 A 
ATOM     27  N   UNL     1       1.559  -6.115   1.763  1.00  0.00    -0.280 N 
ATOM     28  C   UNL     1       0.281  -6.554   2.154  1.00  0.00     0.028 A 
ATOM     29  C   UNL     1      -0.084  -7.959   2.522  1.00  0.00     0.065 C 
BRANCH  21  30
ATOM     30  O   UNL     1       0.313  -0.751   1.012  1.00  0.00    -0.497 OA
ATOM     31  C   UNL     1       0.904   0.043  -0.009  1.00  0.00     0.278 C 
ENDBRANCH  21  30
BRANCH  27  32
ATOM     32  C   UNL     1       2.747  -6.905   1.679  1.00  0.00     0.262 C 
ATOM     33  O   UNL     1       2.671  -8.126   1.806  1.00  0.00    -0.268 OA
BRANCH  32  34
ATOM     34  C   UNL     1       4.101  -6.389   1.402  1.00  0.00     0.040 A 
ATOM     35  C   UNL     1       4.732  -5.498   2.279  1.00  0.00     0.015 A 
ATOM     36  C   UNL     1       4.733  -6.794   0.220  1.00  0.00     0.015 A 
ATOM     37  C   UNL     1       5.964  -4.943   1.921  1.00  0.00     0.021 A 
ATOM     38  C   UNL     1       5.967  -6.243  -0.128  1.00  0.00     0.021 A 
ATOM     39  C   UNL     1       6.568  -5.306   0.714  1.00  0.00     0.041 A 
ATOM     40  Cl  UNL     1       8.055  -4.576   0.250  1.00  0.00    -0.084 Cl
ENDBRANCH  32  34
ENDBRANCH  27  32
ENDBRANCH  19  20
ENDBRANCH  15  19
ENDBRANCH   9  14
ENDBRANCH   6   8
ENDBRANCH   5   6
ENDBRANCH   4   5
ENDBRANCH   3   4
ENDBRANCH   2   3
ENDBRANCH   1   2
BRANCH   1  41
ATOM     41  C   UNL     1      -4.477   1.302   8.144  1.00  0.00     0.188 C 
BRANCH  41  42
ATOM     42  O   UNL     1      -5.248   1.963   7.159  1.00  0.00    -0.377 OA
BRANCH  42  43
ATOM     43  C   UNL     1      -6.077   3.051   7.566  1.00  0.00     0.188 C 
BRANCH  43  44
ATOM     44  C   UNL     1      -6.570   3.158   9.025  1.00  0.00     0.188 C 
BRANCH  44  45
ATOM     45  O   UNL     1      -6.804   1.890   9.607  1.00  0.00    -0.376 OA
BRANCH  45  46
ATOM     46  C   UNL     1      -8.143   1.447   9.737  1.00  0.00     0.202 C 
BRANCH  46  47
ATOM     47  C   UNL     1      -9.060   1.436   8.501  1.00  0.00     0.261 C 
BRANCH  47  48
ATOM     48  O   UNL     1      -9.050   2.646   7.729  1.00  0.00    -0.460 OA
BRANCH  48  49
ATOM     49  C   UNL     1      -9.868   3.675   8.056  1.00  0.00     0.338 C 
ATOM     50  O   UNL     1     -10.802   3.656   8.826  1.00  0.00    -0.246 OA
BRANCH  49  51
ATOM     51  C   UNL     1      -9.174   4.894   7.550  1.00  0.00     0.060 A 
ATOM     52  C   UNL     1      -8.543   4.892   6.304  1.00  0.00     0.016 A 
ATOM     53  C   UNL     1      -8.894   5.908   8.479  1.00  0.00     0.016 A 
ATOM     54  C   UNL     1      -7.532   5.818   6.056  1.00  0.00     0.010 A 
ATOM     55  C   UNL     1      -7.888   6.845   8.219  1.00  0.00     0.010 A 
ATOM     56  C   UNL     1      -7.170   6.778   7.025  1.00  0.00    -0.014 A 
BRANCH  56  57
ATOM     57  C   UNL     1      -6.188   7.798   6.609  1.00  0.00     0.031 A 
ATOM     58  C   UNL     1      -6.608   8.497   5.364  1.00  0.00     0.074 A 
ATOM     59  C   UNL     1      -5.085   8.251   7.247  1.00  0.00     0.049 A 
ATOM     60  N   UNL     1      -6.013   8.520   4.217  1.00  0.00    -0.248 NA
ATOM     61  C   UNL     1      -7.930   9.144   5.380  1.00  0.00     0.031 C 
ATOM     62  C   UNL     1      -4.670   7.967   8.620  1.00  0.00     0.029 A 
ATOM     63  N   UNL     1      -4.130   9.146   6.812  1.00  0.00    -0.354 N 
ATOM     64  C   UNL     1      -6.803   9.333   3.410  1.00  0.00     0.074 A 
ATOM     65  C   UNL     1      -8.032   9.565   4.121  1.00  0.00     0.031 C 
ATOM     66  C   UNL     1      -3.667   8.807   8.966  1.00  0.00     0.029 A 
ATOM     67  C   UNL     1      -3.285   9.611   7.813  1.00  0.00     0.049 A 
ATOM     68  H   UNL     1      -4.053   9.431   5.873  1.00  0.00     0.167 HD
ATOM     69  C   UNL     1      -6.286   9.972   2.329  1.00  0.00     0.037 A 
ATOM     70  C   UNL     1      -2.354  10.598   7.742  1.00  0.00     0.037 A 
ATOM     71  C   UNL     1      -5.027   9.416   1.919  1.00  0.00     0.049 A 
ATOM     72  C   UNL     1      -1.989  10.845   6.330  1.00  0.00     0.074 A 
ATOM     73  C   UNL     1      -4.581   8.340   1.188  1.00  0.00     0.029 A 
ATOM     74  N   UNL     1      -3.951   9.940   2.574  1.00  0.00    -0.354 N 
ATOM     75  N   UNL     1      -1.260  10.043   5.609  1.00  0.00    -0.248 NA
ATOM     76  C   UNL     1      -2.623  11.937   5.596  1.00  0.00     0.031 C 
ATOM     77  C   UNL     1      -3.209   8.156   1.537  1.00  0.00     0.029 A 
ATOM     78  C   UNL     1      -2.858   9.122   2.475  1.00  0.00     0.049 A 
ATOM     79  H   UNL     1      -3.959  10.798   3.056  1.00  0.00     0.167 HD
ATOM     80  C   UNL     1      -1.687  10.264   4.317  1.00  0.00     0.074 A 
ATOM     81  C   UNL     1      -2.360  11.553   4.345  1.00  0.00     0.031 C 
ATOM     82  C   UNL     1      -1.781   9.232   3.433  1.00  0.00     0.037 A 
BRANCH  69  83
ATOM     83  C   UNL     1      -6.655  11.388   1.951  1.00  0.00     0.057 A 
ATOM     84  C   UNL     1      -7.148  12.341   2.868  1.00  0.00     0.134 A 
ATOM     85  C   UNL     1      -6.189  11.914   0.734  1.00  0.00     0.134 A 
ATOM     86  F   UNL     1      -7.530  12.011   4.108  1.00  0.00    -0.206 F 
ATOM     87  C   UNL     1      -7.168  13.711   2.599  1.00  0.00     0.040 A 
ATOM     88  C   UNL     1      -6.155  13.290   0.476  1.00  0.00     0.040 A 
ATOM     89  F   UNL     1      -5.675  11.110  -0.210  1.00  0.00    -0.206 F 
ATOM     90  C   UNL     1      -6.641  14.194   1.413  1.00  0.00     0.006 A 
ENDBRANCH  69  83
BRANCH  70  91
ATOM     91  C   UNL     1      -1.788  11.448   8.818  1.00  0.00     0.057 A 
ATOM     92  C   UNL     1      -2.570  11.851   9.912  1.00  0.00     0.134 A 
ATOM     93  C   UNL     1      -0.547  12.092   8.680  1.00  0.00     0.134 A 
ATOM     94  F   UNL     1      -3.806  11.363  10.092  1.00  0.00    -0.206 F 
ATOM     95  C   UNL     1      -2.149  12.833  10.815  1.00  0.00     0.040 A 
ATOM     96  C   UNL     1      -0.117  13.086   9.570  1.00  0.00     0.040 A 
ATOM     97  F   UNL     1       0.258  11.814   7.646  1.00  0.00    -0.206 F 
ATOM     98  C   UNL     1      -0.923  13.464  10.639  1.00  0.00     0.006 A 
ENDBRANCH  70  91
BRANCH  82  99
ATOM     99  C   UNL     1      -0.852   8.077   3.623  1.00  0.00     0.057 A 
ATOM    100  C   UNL     1       0.058   7.780   2.600  1.00  0.00     0.134 A 
ATOM    101  C   UNL     1      -0.840   7.245   4.749  1.00  0.00     0.134 A 
ATOM    102  F   UNL     1       0.080   8.516   1.477  1.00  0.00    -0.206 F 
ATOM    103  C   UNL     1       0.952   6.713   2.694  1.00  0.00     0.040 A 
ATOM    104  C   UNL     1       0.083   6.202   4.874  1.00  0.00     0.040 A 
ATOM    105  F   UNL     1      -1.735   7.400   5.736  1.00  0.00    -0.206 F 
ATOM    106  C   UNL     1       0.976   5.928   3.842  1.00  0.00     0.006 A 
ENDBRANCH  82  99
ENDBRANCH  56  57
ENDBRANCH  49  51
ENDBRANCH  48  49
ENDBRANCH  47  48
ENDBRANCH  46  47
ENDBRANCH  45  46
ENDBRANCH  44  45
ENDBRANCH  43  44
ENDBRANCH  42  43
ENDBRANCH  41  42
ENDBRANCH   1  41
TORSDOF 26
