REMARK SMILES CC(C)(CC(=O)Nc1cccc(C(=O)NC2CC2)c1)CC(=O)OCCOCCOCCOCCOC(=O)c1ccc(-c2c3nc(c(-c4c(F)cccc4F)c4ccc([nH]4)c(-c4c(F)cccc4F)c4nc(c(-c5c(F)cccc5F)c5ccc2[nH]5)C=C4)C=C3)cc1
REMARK SMILES IDX 27 1 26 2 25 3 24 4 23 5 21 6 22 7 20 8 2 9 1 10 3 11 4 12
REMARK SMILES IDX 5 13 6 14 7 15 8 17 9 18 19 19 10 20 12 21 11 22 13 23 14 24
REMARK SMILES IDX 15 25 16 27 17 28 18 29 28 30 29 31 30 32 31 33 32 34 33 35
REMARK SMILES IDX 34 36 35 37 36 38 37 39 38 40 39 41 91 42 40 43 90 44 41 45
REMARK SMILES IDX 42 46 43 47 84 48 44 49 89 50 83 51 85 52 45 53 88 54 82 55
REMARK SMILES IDX 81 56 46 58 72 59 55 60 71 61 56 62 59 63 70 64 86 65 57 66
REMARK SMILES IDX 58 67 69 69 87 70 60 71 47 72 48 73 53 74 49 75 50 76 52 77
REMARK SMILES IDX 54 78 51 79 73 80 74 81 79 82 75 83 76 84 78 85 80 86 77 87
REMARK SMILES IDX 61 88 62 89 67 90 63 91 64 92 66 93 68 94 65 95
REMARK H PARENT 7 16 15 26 85 57 59 68
REMARK Flexibility Score: inf
ROOT
ATOM      1  C   UNL     1       1.324   2.173  -3.899  1.00  0.00     0.188 C 
ENDROOT
BRANCH   1   2
ATOM      2  O   UNL     1       0.247   2.636  -4.701  1.00  0.00    -0.376 OA
BRANCH   2   3
ATOM      3  C   UNL     1      -1.034   2.018  -4.525  1.00  0.00     0.202 C 
BRANCH   3   4
ATOM      4  C   UNL     1      -1.133   0.496  -4.655  1.00  0.00     0.261 C 
BRANCH   4   5
ATOM      5  O   UNL     1      -0.817  -0.241  -3.442  1.00  0.00    -0.463 OA
BRANCH   5   6
ATOM      6  C   UNL     1       0.171  -1.149  -3.554  1.00  0.00     0.306 C 
ATOM      7  O   UNL     1       0.972  -1.172  -4.488  1.00  0.00    -0.252 OA
BRANCH   6   8
ATOM      8  C   UNL     1       0.148  -2.305  -2.572  1.00  0.00     0.129 C 
BRANCH   8   9
ATOM      9  C   UNL     1      -0.370  -2.396  -1.108  1.00  0.00    -0.016 C 
ATOM     10  C   UNL     1       0.701  -2.005  -0.120  1.00  0.00     0.012 C 
ATOM     11  C   UNL     1      -0.518  -3.926  -0.838  1.00  0.00     0.012 C 
BRANCH   9  12
ATOM     12  C   UNL     1      -1.689  -1.680  -0.742  1.00  0.00     0.107 C 
BRANCH  12  13
ATOM     13  C   UNL     1      -1.942  -0.153  -0.710  1.00  0.00     0.224 C 
ATOM     14  O   UNL     1      -2.780   0.308  -1.504  1.00  0.00    -0.275 OA
ATOM     15  N   UNL     1      -1.563   0.704   0.289  1.00  0.00    -0.326 N 
ATOM     16  H   UNL     1      -2.142   1.499   0.333  1.00  0.00     0.169 HD
BRANCH  15  17
ATOM     17  C   UNL     1      -0.556   0.731   1.265  1.00  0.00     0.041 A 
ATOM     18  C   UNL     1      -0.916   1.003   2.583  1.00  0.00     0.026 A 
ATOM     19  C   UNL     1       0.807   0.742   0.936  1.00  0.00     0.040 A 
ATOM     20  C   UNL     1       0.065   1.115   3.567  1.00  0.00     0.003 A 
ATOM     21  C   UNL     1       1.814   0.713   1.907  1.00  0.00     0.041 A 
ATOM     22  C   UNL     1       1.411   0.927   3.237  1.00  0.00     0.014 A 
BRANCH  21  23
ATOM     23  C   UNL     1       3.285   0.511   1.676  1.00  0.00     0.251 C 
ATOM     24  O   UNL     1       4.045   0.750   2.623  1.00  0.00    -0.269 OA
ATOM     25  N   UNL     1       3.903   0.032   0.536  1.00  0.00    -0.349 N 
ATOM     26  H   UNL     1       4.880  -0.032   0.644  1.00  0.00     0.164 HD
BRANCH  25  27
ATOM     27  C   UNL     1       3.481  -0.393  -0.754  1.00  0.00     0.082 C 
ATOM     28  C   UNL     1       4.391  -0.314  -1.948  1.00  0.00     0.027 C 
ATOM     29  C   UNL     1       4.059  -1.649  -1.360  1.00  0.00     0.027 C 
ENDBRANCH  25  27
ENDBRANCH  21  23
ENDBRANCH  15  17
ENDBRANCH  12  13
ENDBRANCH   9  12
ENDBRANCH   8   9
ENDBRANCH   6   8
ENDBRANCH   5   6
ENDBRANCH   4   5
ENDBRANCH   3   4
ENDBRANCH   2   3
ENDBRANCH   1   2
BRANCH   1  30
ATOM     30  C   UNL     1       1.346   2.616  -2.435  1.00  0.00     0.188 C 
BRANCH  30  31
ATOM     31  O   UNL     1       0.059   2.685  -1.837  1.00  0.00    -0.377 OA
BRANCH  31  32
ATOM     32  C   UNL     1      -0.522   3.986  -2.011  1.00  0.00     0.188 C 
BRANCH  32  33
ATOM     33  C   UNL     1      -0.467   4.745  -0.707  1.00  0.00     0.188 C 
BRANCH  33  34
ATOM     34  O   UNL     1       0.843   5.087  -0.271  1.00  0.00    -0.376 OA
BRANCH  34  35
ATOM     35  C   UNL     1       1.262   4.366   0.892  1.00  0.00     0.202 C 
BRANCH  35  36
ATOM     36  C   UNL     1       0.547   4.747   2.206  1.00  0.00     0.261 C 
BRANCH  36  37
ATOM     37  O   UNL     1      -0.838   4.317   2.248  1.00  0.00    -0.460 OA
BRANCH  37  38
ATOM     38  C   UNL     1      -1.761   5.279   2.009  1.00  0.00     0.338 C 
ATOM     39  O   UNL     1      -1.549   6.481   1.887  1.00  0.00    -0.246 OA
BRANCH  38  40
ATOM     40  C   UNL     1      -3.079   4.683   1.679  1.00  0.00     0.060 A 
ATOM     41  C   UNL     1      -3.737   5.145   0.529  1.00  0.00     0.016 A 
ATOM     42  C   UNL     1      -3.713   3.762   2.515  1.00  0.00     0.016 A 
ATOM     43  C   UNL     1      -5.050   4.759   0.255  1.00  0.00     0.010 A 
ATOM     44  C   UNL     1      -5.037   3.380   2.243  1.00  0.00     0.010 A 
ATOM     45  C   UNL     1      -5.735   3.924   1.145  1.00  0.00    -0.014 A 
BRANCH  45  46
ATOM     46  C   UNL     1      -7.221   3.835   1.056  1.00  0.00     0.031 A 
ATOM     47  C   UNL     1      -8.051   4.652   2.019  1.00  0.00     0.074 A 
ATOM     48  C   UNL     1      -7.843   3.117   0.102  1.00  0.00     0.049 A 
ATOM     49  N   UNL     1      -9.353   4.746   2.131  1.00  0.00    -0.248 NA
ATOM     50  C   UNL     1      -7.308   5.475   2.987  1.00  0.00     0.031 C 
ATOM     51  C   UNL     1      -7.182   2.325  -0.931  1.00  0.00     0.029 A 
ATOM     52  N   UNL     1      -9.185   2.946  -0.149  1.00  0.00    -0.354 N 
ATOM     53  C   UNL     1      -9.581   5.623   3.186  1.00  0.00     0.074 A 
ATOM     54  C   UNL     1      -8.286   6.004   3.705  1.00  0.00     0.031 C 
ATOM     55  C   UNL     1      -8.121   1.752  -1.706  1.00  0.00     0.029 A 
ATOM     56  C   UNL     1      -9.449   2.110  -1.207  1.00  0.00     0.049 A 
ATOM     57  H   UNL     1      -9.892   3.382   0.380  1.00  0.00     0.167 HD
ATOM     58  C   UNL     1     -10.758   6.085   3.674  1.00  0.00     0.037 A 
ATOM     59  C   UNL     1     -10.623   1.671  -1.706  1.00  0.00     0.037 A 
ATOM     60  C   UNL     1     -12.052   5.727   3.158  1.00  0.00     0.049 A 
ATOM     61  C   UNL     1     -11.922   2.134  -1.093  1.00  0.00     0.074 A 
ATOM     62  C   UNL     1     -13.296   6.170   3.574  1.00  0.00     0.029 A 
ATOM     63  N   UNL     1     -12.272   4.836   2.120  1.00  0.00    -0.354 N 
ATOM     64  N   UNL     1     -12.123   2.983  -0.115  1.00  0.00    -0.248 NA
ATOM     65  C   UNL     1     -13.161   1.576  -1.659  1.00  0.00     0.031 C 
ATOM     66  C   UNL     1     -14.272   5.497   2.832  1.00  0.00     0.029 A 
ATOM     67  C   UNL     1     -13.634   4.687   1.907  1.00  0.00     0.049 A 
ATOM     68  H   UNL     1     -11.567   4.376   1.610  1.00  0.00     0.167 HD
ATOM     69  C   UNL     1     -13.504   3.088   0.025  1.00  0.00     0.074 A 
ATOM     70  C   UNL     1     -14.093   2.224  -0.975  1.00  0.00     0.031 C 
ATOM     71  C   UNL     1     -14.218   3.835   0.902  1.00  0.00     0.037 A 
BRANCH  58  72
ATOM     72  C   UNL     1     -10.701   7.012   4.855  1.00  0.00     0.057 A 
ATOM     73  C   UNL     1     -10.224   8.325   4.752  1.00  0.00     0.134 A 
ATOM     74  C   UNL     1     -11.167   6.592   6.108  1.00  0.00     0.134 A 
ATOM     75  F   UNL     1      -9.751   8.787   3.584  1.00  0.00    -0.206 F 
ATOM     76  C   UNL     1     -10.185   9.177   5.858  1.00  0.00     0.040 A 
ATOM     77  C   UNL     1     -11.163   7.444   7.213  1.00  0.00     0.040 A 
ATOM     78  F   UNL     1     -11.644   5.349   6.277  1.00  0.00    -0.206 F 
ATOM     79  C   UNL     1     -10.663   8.739   7.091  1.00  0.00     0.006 A 
ENDBRANCH  58  72
BRANCH  59  80
ATOM     80  C   UNL     1     -10.641   0.722  -2.852  1.00  0.00     0.057 A 
ATOM     81  C   UNL     1     -11.156   1.096  -4.099  1.00  0.00     0.134 A 
ATOM     82  C   UNL     1     -10.190  -0.596  -2.712  1.00  0.00     0.134 A 
ATOM     83  F   UNL     1     -11.635   2.334  -4.289  1.00  0.00    -0.206 F 
ATOM     84  C   UNL     1     -11.240   0.190  -5.159  1.00  0.00     0.040 A 
ATOM     85  C   UNL     1     -10.240  -1.504  -3.772  1.00  0.00     0.040 A 
ATOM     86  F   UNL     1      -9.694  -1.022  -1.542  1.00  0.00    -0.206 F 
ATOM     87  C   UNL     1     -10.775  -1.114  -4.998  1.00  0.00     0.006 A 
ENDBRANCH  59  80
BRANCH  71  88
ATOM     88  C   UNL     1     -15.719   3.797   0.799  1.00  0.00     0.057 A 
ATOM     89  C   UNL     1     -16.463   2.666   1.160  1.00  0.00     0.134 A 
ATOM     90  C   UNL     1     -16.432   4.927   0.376  1.00  0.00     0.134 A 
ATOM     91  F   UNL     1     -15.845   1.546   1.565  1.00  0.00    -0.206 F 
ATOM     92  C   UNL     1     -17.858   2.652   1.079  1.00  0.00     0.040 A 
ATOM     93  C   UNL     1     -17.827   4.936   0.321  1.00  0.00     0.040 A 
ATOM     94  F   UNL     1     -15.786   6.050   0.027  1.00  0.00    -0.206 F 
ATOM     95  C   UNL     1     -18.544   3.793   0.666  1.00  0.00     0.006 A 
ENDBRANCH  71  88
ENDBRANCH  45  46
ENDBRANCH  38  40
ENDBRANCH  37  38
ENDBRANCH  36  37
ENDBRANCH  35  36
ENDBRANCH  34  35
ENDBRANCH  33  34
ENDBRANCH  32  33
ENDBRANCH  31  32
ENDBRANCH  30  31
ENDBRANCH   1  30
TORSDOF 26
