REMARK SMILES CC(C)[C@@H](NC(=O)[C@@H]1CC[C@H]2CCCC[C@@H]2[NH2+]1)C(=O)OCCOCCOCCOCCOC(=O)c1ccc(-c2c3nc(c(-c4c(F)cccc4F)c4ccc([nH]4)c(-c4c(F)cccc4F)c4nc(c(-c5c(F)cccc5F)c5ccc2[nH]5)C=C4)C=C3)cc1
REMARK SMILES IDX 26 1 25 2 24 3 23 4 22 5 21 6 20 7 18 8 19 9 4 10 2 11 1 12
REMARK SMILES IDX 3 13 5 14 6 15 7 17 8 18 9 19 17 20 10 21 16 22 11 25 15 26
REMARK SMILES IDX 12 27 14 28 13 29 27 30 28 31 29 32 30 33 31 34 32 35 33 36
REMARK SMILES IDX 34 37 35 38 36 39 88 40 37 41 87 42 38 43 39 44 40 45 81 46
REMARK SMILES IDX 41 47 86 48 80 49 82 50 42 51 85 52 79 53 78 54 43 56 69 57
REMARK SMILES IDX 52 58 68 59 53 60 56 61 67 62 83 63 54 64 55 65 66 67 84 68
REMARK SMILES IDX 57 69 44 70 45 71 50 72 46 73 47 74 49 75 51 76 48 77 70 78
REMARK SMILES IDX 71 79 76 80 72 81 73 82 75 83 77 84 74 85 58 86 59 87 64 88
REMARK SMILES IDX 60 89 61 90 63 91 65 92 62 93
REMARK H PARENT 5 16 17 23 17 24 82 55 56 66
REMARK Flexibility Score: inf
ROOT
ATOM      1  O   UNL     1      -6.993   4.874   2.364  1.00  0.00    -0.377 OA
ENDROOT
BRANCH   1   2
ATOM      2  C   UNL     1      -8.069   4.277   1.660  1.00  0.00     0.188 C 
BRANCH   2   3
ATOM      3  C   UNL     1      -8.342   2.814   1.994  1.00  0.00     0.188 C 
BRANCH   3   4
ATOM      4  O   UNL     1      -7.829   2.341   3.230  1.00  0.00    -0.376 OA
BRANCH   4   5
ATOM      5  C   UNL     1      -6.406   2.226   3.333  1.00  0.00     0.202 C 
BRANCH   5   6
ATOM      6  C   UNL     1      -5.647   1.843   2.054  1.00  0.00     0.261 C 
BRANCH   6   7
ATOM      7  O   UNL     1      -5.330   3.015   1.246  1.00  0.00    -0.462 OA
BRANCH   7   8
ATOM      8  C   UNL     1      -4.762   2.750   0.045  1.00  0.00     0.328 C 
ATOM      9  O   UNL     1      -4.747   1.614  -0.430  1.00  0.00    -0.250 OA
BRANCH   8  10
ATOM     10  C   UNL     1      -3.977   3.913  -0.636  1.00  0.00     0.195 C 
BRANCH  10  11
ATOM     11  C   UNL     1      -4.308   5.438  -0.635  1.00  0.00     0.017 C 
ATOM     12  C   UNL     1      -3.762   6.111  -1.917  1.00  0.00     0.010 C 
ATOM     13  C   UNL     1      -5.771   5.835  -0.518  1.00  0.00     0.010 C 
ENDBRANCH  10  11
BRANCH  10  14
ATOM     14  N   UNL     1      -2.497   3.700  -0.674  1.00  0.00    -0.337 N 
ATOM     15  C   UNL     1      -1.415   3.851   0.133  1.00  0.00     0.278 C 
ATOM     16  H   UNL     1      -2.225   3.341  -1.549  1.00  0.00     0.164 HD
ATOM     17  O   UNL     1      -0.369   4.071  -0.502  1.00  0.00    -0.268 OA
BRANCH  15  18
ATOM     18  C   UNL     1      -1.324   3.616   1.678  1.00  0.00     0.272 C 
ATOM     19  C   UNL     1      -2.585   3.484   2.495  1.00  0.00     0.076 C 
ATOM     20  N   UNL     1      -0.391   4.583   2.324  1.00  0.00    -0.333 N 
ATOM     21  C   UNL     1      -3.317   4.805   2.712  1.00  0.00     0.016 C 
ATOM     22  C   UNL     1      -1.030   5.697   3.049  1.00  0.00     0.186 C 
ATOM     23  H   UNL     1       0.203   4.981   1.596  1.00  0.00     0.347 HD
ATOM     24  H   UNL     1       0.122   4.050   3.027  1.00  0.00     0.347 HD
ATOM     25  C   UNL     1      -2.399   5.996   2.439  1.00  0.00     0.048 C 
ATOM     26  C   UNL     1      -0.097   6.910   3.036  1.00  0.00     0.065 C 
ATOM     27  C   UNL     1      -3.043   7.304   2.887  1.00  0.00     0.010 C 
ATOM     28  C   UNL     1      -0.792   8.193   3.497  1.00  0.00     0.006 C 
ATOM     29  C   UNL     1      -2.066   8.455   2.702  1.00  0.00     0.001 C 
ENDBRANCH  15  18
ENDBRANCH  10  14
ENDBRANCH   8  10
ENDBRANCH   7   8
ENDBRANCH   6   7
ENDBRANCH   5   6
ENDBRANCH   4   5
ENDBRANCH   3   4
ENDBRANCH   2   3
ENDBRANCH   1   2
BRANCH   1  30
ATOM     30  C   UNL     1      -7.243   5.679   3.510  1.00  0.00     0.188 C 
BRANCH  30  31
ATOM     31  C   UNL     1      -8.678   5.793   4.020  1.00  0.00     0.188 C 
BRANCH  31  32
ATOM     32  O   UNL     1      -9.642   6.436   3.180  1.00  0.00    -0.376 OA
BRANCH  32  33
ATOM     33  C   UNL     1      -9.208   7.410   2.232  1.00  0.00     0.202 C 
BRANCH  33  34
ATOM     34  C   UNL     1      -9.117   8.834   2.768  1.00  0.00     0.261 C 
BRANCH  34  35
ATOM     35  O   UNL     1      -8.042   8.976   3.706  1.00  0.00    -0.460 OA
BRANCH  35  36
ATOM     36  C   UNL     1      -8.420   8.898   4.996  1.00  0.00     0.338 C 
ATOM     37  O   UNL     1      -9.554   8.727   5.435  1.00  0.00    -0.246 OA
BRANCH  36  38
ATOM     38  C   UNL     1      -7.248   8.963   5.876  1.00  0.00     0.060 A 
ATOM     39  C   UNL     1      -7.186   8.062   6.945  1.00  0.00     0.016 A 
ATOM     40  C   UNL     1      -6.327  10.009   5.759  1.00  0.00     0.016 A 
ATOM     41  C   UNL     1      -6.271   8.270   7.967  1.00  0.00     0.010 A 
ATOM     42  C   UNL     1      -5.413  10.222   6.790  1.00  0.00     0.010 A 
ATOM     43  C   UNL     1      -5.439   9.396   7.926  1.00  0.00    -0.014 A 
BRANCH  43  44
ATOM     44  C   UNL     1      -4.812   9.849   9.186  1.00  0.00     0.031 A 
ATOM     45  C   UNL     1      -5.529  10.894   9.999  1.00  0.00     0.074 A 
ATOM     46  C   UNL     1      -3.674   9.291   9.625  1.00  0.00     0.049 A 
ATOM     47  N   UNL     1      -5.190  11.438  11.139  1.00  0.00    -0.248 NA
ATOM     48  C   UNL     1      -6.804  11.392   9.453  1.00  0.00     0.031 C 
ATOM     49  C   UNL     1      -2.927   8.241   8.935  1.00  0.00     0.029 A 
ATOM     50  N   UNL     1      -2.952   9.533  10.763  1.00  0.00    -0.354 N 
ATOM     51  C   UNL     1      -6.202  12.343  11.439  1.00  0.00     0.074 A 
ATOM     52  C   UNL     1      -7.152  12.300  10.351  1.00  0.00     0.031 C 
ATOM     53  C   UNL     1      -1.841   7.932   9.665  1.00  0.00     0.029 A 
ATOM     54  C   UNL     1      -1.811   8.778  10.856  1.00  0.00     0.049 A 
ATOM     55  H   UNL     1      -3.226  10.185  11.447  1.00  0.00     0.167 HD
ATOM     56  C   UNL     1      -6.332  13.131  12.532  1.00  0.00     0.037 A 
ATOM     57  C   UNL     1      -0.850   8.785  11.798  1.00  0.00     0.037 A 
ATOM     58  C   UNL     1      -5.383  13.163  13.612  1.00  0.00     0.049 A 
ATOM     59  C   UNL     1      -0.997   9.700  12.984  1.00  0.00     0.074 A 
ATOM     60  C   UNL     1      -5.411  13.924  14.766  1.00  0.00     0.029 A 
ATOM     61  N   UNL     1      -4.231  12.392  13.666  1.00  0.00    -0.354 N 
ATOM     62  N   UNL     1      -1.962  10.544  13.266  1.00  0.00    -0.248 NA
ATOM     63  C   UNL     1       0.070   9.651  13.992  1.00  0.00     0.031 C 
ATOM     64  C   UNL     1      -4.255  13.641  15.502  1.00  0.00     0.029 A 
ATOM     65  C   UNL     1      -3.534  12.667  14.829  1.00  0.00     0.049 A 
ATOM     66  H   UNL     1      -3.951  11.745  12.979  1.00  0.00     0.167 HD
ATOM     67  C   UNL     1      -1.635  11.099  14.497  1.00  0.00     0.074 A 
ATOM     68  C   UNL     1      -0.390  10.486  14.911  1.00  0.00     0.031 C 
ATOM     69  C   UNL     1      -2.303  12.030  15.223  1.00  0.00     0.037 A 
BRANCH  56  70
ATOM     70  C   UNL     1      -7.527  14.036  12.594  1.00  0.00     0.057 A 
ATOM     71  C   UNL     1      -8.821  13.544  12.814  1.00  0.00     0.134 A 
ATOM     72  C   UNL     1      -7.380  15.421  12.448  1.00  0.00     0.134 A 
ATOM     73  F   UNL     1      -9.034  12.226  12.941  1.00  0.00    -0.206 F 
ATOM     74  C   UNL     1      -9.927  14.395  12.867  1.00  0.00     0.040 A 
ATOM     75  C   UNL     1      -8.475  16.284  12.524  1.00  0.00     0.040 A 
ATOM     76  F   UNL     1      -6.170  15.959  12.233  1.00  0.00    -0.206 F 
ATOM     77  C   UNL     1      -9.754  15.771  12.729  1.00  0.00     0.006 A 
ENDBRANCH  56  70
BRANCH  57  78
ATOM     78  C   UNL     1       0.332   7.898  11.660  1.00  0.00     0.057 A 
ATOM     79  C   UNL     1       0.537   6.818  12.525  1.00  0.00     0.134 A 
ATOM     80  C   UNL     1       1.296   8.124  10.670  1.00  0.00     0.134 A 
ATOM     81  F   UNL     1      -0.342   6.561  13.505  1.00  0.00    -0.206 F 
ATOM     82  C   UNL     1       1.669   6.008  12.427  1.00  0.00     0.040 A 
ATOM     83  C   UNL     1       2.420   7.306  10.544  1.00  0.00     0.040 A 
ATOM     84  F   UNL     1       1.154   9.139   9.805  1.00  0.00    -0.206 F 
ATOM     85  C   UNL     1       2.613   6.250  11.431  1.00  0.00     0.006 A 
ENDBRANCH  57  78
BRANCH  69  86
ATOM     86  C   UNL     1      -1.726  12.393  16.560  1.00  0.00     0.057 A 
ATOM     87  C   UNL     1      -0.556  13.152  16.683  1.00  0.00     0.134 A 
ATOM     88  C   UNL     1      -2.365  11.992  17.740  1.00  0.00     0.134 A 
ATOM     89  F   UNL     1       0.109  13.559  15.591  1.00  0.00    -0.206 F 
ATOM     90  C   UNL     1      -0.022  13.468  17.933  1.00  0.00     0.040 A 
ATOM     91  C   UNL     1      -1.857  12.326  18.995  1.00  0.00     0.040 A 
ATOM     92  F   UNL     1      -3.498  11.273  17.691  1.00  0.00    -0.206 F 
ATOM     93  C   UNL     1      -0.676  13.058  19.093  1.00  0.00     0.006 A 
ENDBRANCH  69  86
ENDBRANCH  43  44
ENDBRANCH  36  38
ENDBRANCH  35  36
ENDBRANCH  34  35
ENDBRANCH  33  34
ENDBRANCH  32  33
ENDBRANCH  31  32
ENDBRANCH  30  31
ENDBRANCH   1  30
TORSDOF 23
