REMARK SMILES O=C(OCCOCCOCCOCCOC(=O)c1ccccc1Nc1nc(Cl)nc(Nc2ccc(N3CCOCC3=O)cc2)n1)c1ccc(-c2c3nc(c(-c4c(F)cccc4F)c4ccc([nH]4)c(-c4c(F)cccc4F)c4nc(c(-c5c(F)cccc5F)c5ccc2[nH]5)C=C4)C=C3)cc1
REMARK SMILES IDX 10 1 9 2 8 3 7 4 6 5 5 6 4 7 3 8 2 9 1 10 46 11 47 12 99 13
REMARK SMILES IDX 48 14 98 15 49 16 50 17 51 18 92 19 52 20 97 21 91 22 93 23
REMARK SMILES IDX 53 24 96 25 90 26 89 27 54 29 80 30 63 31 79 32 64 33 67 34
REMARK SMILES IDX 78 35 94 36 65 37 66 38 77 40 95 41 68 42 55 43 56 44 61 45
REMARK SMILES IDX 57 46 58 47 60 48 62 49 59 50 81 51 82 52 87 53 83 54 84 55
REMARK SMILES IDX 86 56 88 57 85 58 69 59 70 60 75 61 71 62 72 63 74 64 76 65
REMARK SMILES IDX 73 66 11 67 12 68 13 69 14 70 15 71 16 72 17 73 18 74 19 75
REMARK SMILES IDX 23 76 20 77 22 78 21 79 24 80 25 82 26 83 45 84 27 85 30 86
REMARK SMILES IDX 28 87 29 88 31 89 32 91 33 92 44 93 34 94 43 95 35 96 36 97
REMARK SMILES IDX 37 98 41 99 38 100 40 101 42 102 39 103
REMARK H PARENT 93 28 67 39 24 81 31 90
REMARK Flexibility Score: inf
ROOT
ATOM      1  C   UNL     1       3.952   2.287  -3.139  1.00  0.00     0.188 C 
ENDROOT
BRANCH   1   2
ATOM      2  O   UNL     1       2.534   2.407  -3.167  1.00  0.00    -0.377 OA
BRANCH   2   3
ATOM      3  C   UNL     1       1.836   1.962  -2.005  1.00  0.00     0.188 C 
BRANCH   3   4
ATOM      4  C   UNL     1       2.247   0.583  -1.489  1.00  0.00     0.188 C 
BRANCH   4   5
ATOM      5  O   UNL     1       3.579   0.606  -0.963  1.00  0.00    -0.376 OA
BRANCH   5   6
ATOM      6  C   UNL     1       4.377  -0.536  -1.281  1.00  0.00     0.202 C 
BRANCH   6   7
ATOM      7  C   UNL     1       4.189  -1.712  -0.322  1.00  0.00     0.261 C 
BRANCH   7   8
ATOM      8  O   UNL     1       2.834  -1.828   0.136  1.00  0.00    -0.460 OA
BRANCH   8   9
ATOM      9  C   UNL     1       2.265  -1.235   1.216  1.00  0.00     0.338 C 
ATOM     10  O   UNL     1       1.078  -1.466   1.442  1.00  0.00    -0.246 OA
BRANCH   9  11
ATOM     11  C   UNL     1       2.993  -0.341   2.176  1.00  0.00     0.060 A 
ATOM     12  C   UNL     1       4.170   0.360   1.912  1.00  0.00     0.016 A 
ATOM     13  C   UNL     1       2.409  -0.174   3.446  1.00  0.00     0.016 A 
ATOM     14  C   UNL     1       4.807   1.113   2.886  1.00  0.00     0.010 A 
ATOM     15  C   UNL     1       3.028   0.602   4.431  1.00  0.00     0.010 A 
ATOM     16  C   UNL     1       4.259   1.204   4.159  1.00  0.00    -0.014 A 
BRANCH  16  17
ATOM     17  C   UNL     1       5.133   1.727   5.222  1.00  0.00     0.031 A 
ATOM     18  C   UNL     1       5.833   0.723   6.090  1.00  0.00     0.074 A 
ATOM     19  C   UNL     1       5.439   3.034   5.261  1.00  0.00     0.049 A 
ATOM     20  N   UNL     1       6.662   0.912   7.079  1.00  0.00    -0.248 NA
ATOM     21  C   UNL     1       5.579  -0.696   5.782  1.00  0.00     0.031 C 
ATOM     22  C   UNL     1       4.926   4.047   4.335  1.00  0.00     0.029 A 
ATOM     23  N   UNL     1       6.290   3.725   6.078  1.00  0.00    -0.354 N 
ATOM     24  C   UNL     1       6.997  -0.358   7.532  1.00  0.00     0.074 A 
ATOM     25  C   UNL     1       6.287  -1.311   6.713  1.00  0.00     0.031 C 
ATOM     26  C   UNL     1       5.498   5.229   4.622  1.00  0.00     0.029 A 
ATOM     27  C   UNL     1       6.360   5.066   5.787  1.00  0.00     0.049 A 
ATOM     28  H   UNL     1       6.802   3.303   6.805  1.00  0.00     0.167 HD
ATOM     29  C   UNL     1       7.819  -0.690   8.552  1.00  0.00     0.037 A 
ATOM     30  C   UNL     1       7.031   6.044   6.422  1.00  0.00     0.037 A 
ATOM     31  C   UNL     1       8.514   0.287   9.342  1.00  0.00     0.049 A 
ATOM     32  C   UNL     1       7.851   5.662   7.625  1.00  0.00     0.074 A 
ATOM     33  C   UNL     1       9.317   0.099  10.450  1.00  0.00     0.029 A 
ATOM     34  N   UNL     1       8.480   1.654   9.092  1.00  0.00    -0.354 N 
ATOM     35  N   UNL     1       8.096   4.467   8.113  1.00  0.00    -0.248 NA
ATOM     36  C   UNL     1       8.468   6.758   8.379  1.00  0.00     0.031 C 
ATOM     37  C   UNL     1       9.732   1.359  10.898  1.00  0.00     0.029 A 
ATOM     38  C   UNL     1       9.231   2.327  10.037  1.00  0.00     0.049 A 
ATOM     39  H   UNL     1       7.993   2.080   8.350  1.00  0.00     0.167 HD
ATOM     40  C   UNL     1       8.911   4.664   9.219  1.00  0.00     0.074 A 
ATOM     41  C   UNL     1       9.132   6.095   9.316  1.00  0.00     0.031 C 
ATOM     42  C   UNL     1       9.429   3.755  10.082  1.00  0.00     0.037 A 
BRANCH  29  43
ATOM     43  C   UNL     1       7.909  -2.146   8.902  1.00  0.00     0.057 A 
ATOM     44  C   UNL     1       8.562  -3.079   8.086  1.00  0.00     0.134 A 
ATOM     45  C   UNL     1       7.259  -2.633  10.043  1.00  0.00     0.134 A 
ATOM     46  F   UNL     1       9.173  -2.687   6.957  1.00  0.00    -0.206 F 
ATOM     47  C   UNL     1       8.534  -4.447   8.373  1.00  0.00     0.040 A 
ATOM     48  C   UNL     1       7.245  -3.993  10.354  1.00  0.00     0.040 A 
ATOM     49  F   UNL     1       6.604  -1.796  10.863  1.00  0.00    -0.206 F 
ATOM     50  C   UNL     1       7.874  -4.907   9.511  1.00  0.00     0.006 A 
ENDBRANCH  29  43
BRANCH  30  51
ATOM     51  C   UNL     1       6.919   7.456   5.972  1.00  0.00     0.057 A 
ATOM     52  C   UNL     1       8.027   8.161   5.488  1.00  0.00     0.134 A 
ATOM     53  C   UNL     1       5.700   8.146   6.034  1.00  0.00     0.134 A 
ATOM     54  F   UNL     1       9.228   7.568   5.421  1.00  0.00    -0.206 F 
ATOM     55  C   UNL     1       7.931   9.499   5.095  1.00  0.00     0.040 A 
ATOM     56  C   UNL     1       5.584   9.474   5.619  1.00  0.00     0.040 A 
ATOM     57  F   UNL     1       4.597   7.535   6.491  1.00  0.00    -0.206 F 
ATOM     58  C   UNL     1       6.705  10.158   5.155  1.00  0.00     0.006 A 
ENDBRANCH  30  51
BRANCH  42  59
ATOM     59  C   UNL     1      10.312   4.287  11.168  1.00  0.00     0.057 A 
ATOM     60  C   UNL     1       9.793   4.983  12.266  1.00  0.00     0.134 A 
ATOM     61  C   UNL     1      11.692   4.058  11.133  1.00  0.00     0.134 A 
ATOM     62  F   UNL     1       8.480   5.244  12.348  1.00  0.00    -0.206 F 
ATOM     63  C   UNL     1      10.623   5.455  13.282  1.00  0.00     0.040 A 
ATOM     64  C   UNL     1      12.528   4.499  12.156  1.00  0.00     0.040 A 
ATOM     65  F   UNL     1      12.246   3.387  10.111  1.00  0.00    -0.206 F 
ATOM     66  C   UNL     1      11.994   5.206  13.232  1.00  0.00     0.006 A 
ENDBRANCH  42  59
ENDBRANCH  16  17
ENDBRANCH   9  11
ENDBRANCH   8   9
ENDBRANCH   7   8
ENDBRANCH   6   7
ENDBRANCH   5   6
ENDBRANCH   4   5
ENDBRANCH   3   4
ENDBRANCH   2   3
ENDBRANCH   1   2
BRANCH   1  67
ATOM     67  C   UNL     1       4.727   3.058  -2.050  1.00  0.00     0.188 C 
BRANCH  67  68
ATOM     68  O   UNL     1       3.892   3.758  -1.141  1.00  0.00    -0.376 OA
BRANCH  68  69
ATOM     69  C   UNL     1       3.846   5.172  -1.281  1.00  0.00     0.202 C 
BRANCH  69  70
ATOM     70  C   UNL     1       3.275   5.747  -2.586  1.00  0.00     0.261 C 
BRANCH  70  71
ATOM     71  O   UNL     1       3.787   5.189  -3.807  1.00  0.00    -0.460 OA
BRANCH  71  72
ATOM     72  C   UNL     1       5.047   5.463  -4.210  1.00  0.00     0.340 C 
ATOM     73  O   UNL     1       5.833   6.221  -3.666  1.00  0.00    -0.246 OA
BRANCH  72  74
ATOM     74  C   UNL     1       5.378   4.507  -5.310  1.00  0.00     0.083 A 
ATOM     75  C   UNL     1       6.613   3.842  -5.223  1.00  0.00     0.018 A 
ATOM     76  C   UNL     1       4.445   4.155  -6.316  1.00  0.00     0.055 A 
ATOM     77  C   UNL     1       6.915   2.803  -6.104  1.00  0.00     0.001 A 
ATOM     78  C   UNL     1       4.788   3.122  -7.205  1.00  0.00     0.027 A 
ATOM     79  C   UNL     1       6.004   2.445  -7.094  1.00  0.00     0.002 A 
BRANCH  76  80
ATOM     80  N   UNL     1       3.197   4.802  -6.408  1.00  0.00    -0.323 N 
ATOM     81  H   UNL     1       2.770   5.063  -5.560  1.00  0.00     0.170 HD
BRANCH  80  82
ATOM     82  C   UNL     1       2.512   5.109  -7.574  1.00  0.00     0.233 A 
ATOM     83  N   UNL     1       1.955   4.157  -8.301  1.00  0.00    -0.182 NA
ATOM     84  N   UNL     1       2.535   6.395  -7.897  1.00  0.00    -0.176 NA
ATOM     85  C   UNL     1       1.376   4.614  -9.396  1.00  0.00     0.228 A 
ATOM     86  C   UNL     1       2.005   6.716  -9.065  1.00  0.00     0.233 A 
ATOM     87  Cl  UNL     1       0.627   3.449 -10.395  1.00  0.00    -0.041 Cl
ATOM     88  N   UNL     1       1.368   5.856  -9.845  1.00  0.00    -0.182 NA
BRANCH  86  89
ATOM     89  N   UNL     1       2.276   8.007  -9.505  1.00  0.00    -0.324 N 
ATOM     90  H   UNL     1       2.803   8.577  -8.899  1.00  0.00     0.170 HD
BRANCH  89  91
ATOM     91  C   UNL     1       1.881   8.581 -10.710  1.00  0.00     0.041 A 
ATOM     92  C   UNL     1       2.837   9.057 -11.610  1.00  0.00     0.028 A 
ATOM     93  C   UNL     1       0.540   8.559 -11.097  1.00  0.00     0.028 A 
ATOM     94  C   UNL     1       2.459   9.463 -12.894  1.00  0.00     0.028 A 
ATOM     95  C   UNL     1       0.154   9.012 -12.354  1.00  0.00     0.028 A 
ATOM     96  C   UNL     1       1.112   9.443 -13.274  1.00  0.00     0.044 A 
BRANCH  96  97
ATOM     97  N   UNL     1       0.722   9.778 -14.601  1.00  0.00    -0.308 N 
ATOM     98  C   UNL     1       1.398   9.055 -15.685  1.00  0.00     0.154 C 
ATOM     99  C   UNL     1      -0.474  10.466 -14.839  1.00  0.00     0.253 C 
ATOM    100  C   UNL     1       1.094   9.624 -17.064  1.00  0.00     0.183 C 
ATOM    101  C   UNL     1      -0.881  10.599 -16.314  1.00  0.00     0.260 C 
ATOM    102  O   UNL     1      -1.142  11.031 -13.970  1.00  0.00    -0.272 OA
ATOM    103  O   UNL     1      -0.317   9.691 -17.246  1.00  0.00    -0.370 OA
ENDBRANCH  96  97
ENDBRANCH  89  91
ENDBRANCH  86  89
ENDBRANCH  80  82
ENDBRANCH  76  80
ENDBRANCH  72  74
ENDBRANCH  71  72
ENDBRANCH  70  71
ENDBRANCH  69  70
ENDBRANCH  68  69
ENDBRANCH  67  68
ENDBRANCH   1  67
TORSDOF 25
