REMARK SMILES C=C(C)COc1ccc2nc(C)n(-c3cccc(C(=O)OCCOCCOCCOCCOC(=O)c4ccc(-c5c6nc(c(-c7c(F)cccc7F)c7ccc([nH]7)c(-c7c(F)cccc7F)c7nc(c(-c8c(F)cccc8F)c8ccc5[nH]8)C=C7)C=C6)cc4)c3)c(=O)c2c1
REMARK SMILES IDX 26 1 25 2 24 3 23 4 22 5 21 6 19 7 20 8 18 9 14 10 15 11
REMARK SMILES IDX 90 12 16 13 17 14 13 15 6 16 7 17 94 18 8 19 93 20 9 21
REMARK SMILES IDX 91 22 10 23 92 24 11 25 12 26 5 27 4 28 2 29 1 30 3 31 27 32
REMARK SMILES IDX 28 33 29 34 30 35 31 36 32 37 33 38 34 39 35 40 36 41 37 42
REMARK SMILES IDX 89 43 38 44 88 45 39 46 40 47 41 48 82 49 42 50 87 51 81 52
REMARK SMILES IDX 83 53 43 54 86 55 80 56 79 57 44 59 70 60 53 61 69 62 54 63
REMARK SMILES IDX 57 64 68 65 84 66 55 67 56 68 67 70 85 71 58 72 45 73 46 74
REMARK SMILES IDX 51 75 47 76 48 77 50 78 52 79 49 80 71 81 72 82 77 83 73 84
REMARK SMILES IDX 74 85 76 86 78 87 75 88 59 89 60 90 65 91 61 92 62 93 64 94
REMARK SMILES IDX 66 95 63 96
REMARK H PARENT 83 58 57 69
REMARK Flexibility Score: inf
ROOT
ATOM      1  C   UNL     1      -3.116 -11.437   1.396  1.00  0.00     0.188 C 
ENDROOT
BRANCH   1   2
ATOM      2  C   UNL     1      -2.745 -12.720   2.164  1.00  0.00     0.188 C 
BRANCH   2   3
ATOM      3  O   UNL     1      -3.259 -12.753   3.488  1.00  0.00    -0.376 OA
BRANCH   3   4
ATOM      4  C   UNL     1      -2.341 -12.626   4.561  1.00  0.00     0.202 C 
BRANCH   4   5
ATOM      5  C   UNL     1      -1.571 -11.303   4.692  1.00  0.00     0.261 C 
BRANCH   5   6
ATOM      6  O   UNL     1      -0.941 -10.831   3.495  1.00  0.00    -0.460 OA
BRANCH   6   7
ATOM      7  C   UNL     1       0.157 -11.488   3.058  1.00  0.00     0.338 C 
ATOM      8  O   UNL     1       0.703 -12.432   3.598  1.00  0.00    -0.246 OA
BRANCH   7   9
ATOM      9  C   UNL     1       0.431 -11.019   1.674  1.00  0.00     0.062 A 
ATOM     10  C   UNL     1       0.358  -9.269  -0.025  1.00  0.00     0.051 A 
ATOM     11  C   UNL     1       0.685 -10.231  -0.993  1.00  0.00     0.027 A 
ATOM     12  C   UNL     1       0.241  -9.679   1.313  1.00  0.00     0.042 A 
ATOM     13  C   UNL     1       0.875 -11.571  -0.636  1.00  0.00     0.003 A 
ATOM     14  C   UNL     1       0.754 -11.965   0.697  1.00  0.00     0.016 A 
BRANCH  10  15
ATOM     15  N   UNL     1       0.181  -7.887  -0.370  1.00  0.00    -0.264 N 
ATOM     16  C   UNL     1       1.220  -3.197   0.345  1.00  0.00     0.120 A 
ATOM     17  C   UNL     1       0.522  -2.906  -0.825  1.00  0.00     0.049 A 
ATOM     18  C   UNL     1       1.355  -4.515   0.768  1.00  0.00     0.062 A 
ATOM     19  C   UNL     1      -0.107  -3.925  -1.537  1.00  0.00     0.033 A 
ATOM     20  C   UNL     1       0.730  -5.532   0.034  1.00  0.00     0.070 A 
ATOM     21  C   UNL     1      -0.008  -5.247  -1.109  1.00  0.00     0.078 A 
ATOM     22  C   UNL     1       0.857  -6.944   0.426  1.00  0.00     0.266 A 
ATOM     23  N   UNL     1      -0.671  -6.233  -1.835  1.00  0.00    -0.234 NA
ATOM     24  O   UNL     1       1.578  -7.202   1.390  1.00  0.00    -0.268 OA
ATOM     25  C   UNL     1      -0.582  -7.469  -1.451  1.00  0.00     0.113 A 
ATOM     26  C   UNL     1      -1.438  -8.438  -2.242  1.00  0.00     0.088 C 
BRANCH  16  27
ATOM     27  O   UNL     1       1.859  -2.207   1.042  1.00  0.00    -0.489 OA
BRANCH  27  28
ATOM     28  C   UNL     1       0.947  -1.432   1.841  1.00  0.00     0.260 C 
BRANCH  28  29
ATOM     29  C   UNL     1       0.267  -0.343   1.039  1.00  0.00    -0.043 C 
ATOM     30  C   UNL     1       0.953   0.504   0.251  1.00  0.00     0.011 C 
ATOM     31  C   UNL     1      -1.232  -0.308   1.122  1.00  0.00     0.042 C 
ENDBRANCH  28  29
ENDBRANCH  27  28
ENDBRANCH  16  27
ENDBRANCH  10  15
ENDBRANCH   7   9
ENDBRANCH   6   7
ENDBRANCH   5   6
ENDBRANCH   4   5
ENDBRANCH   3   4
ENDBRANCH   2   3
ENDBRANCH   1   2
BRANCH   1  32
ATOM     32  O   UNL     1      -3.676 -10.366   2.139  1.00  0.00    -0.377 OA
BRANCH  32  33
ATOM     33  C   UNL     1      -4.850 -10.590   2.918  1.00  0.00     0.188 C 
BRANCH  33  34
ATOM     34  C   UNL     1      -5.759 -11.829   2.721  1.00  0.00     0.188 C 
BRANCH  34  35
ATOM     35  O   UNL     1      -5.561 -12.529   1.503  1.00  0.00    -0.376 OA
BRANCH  35  36
ATOM     36  C   UNL     1      -6.587 -12.447   0.530  1.00  0.00     0.202 C 
BRANCH  36  37
ATOM     37  C   UNL     1      -6.745 -11.078  -0.141  1.00  0.00     0.261 C 
BRANCH  37  38
ATOM     38  O   UNL     1      -6.990  -9.979   0.749  1.00  0.00    -0.460 OA
BRANCH  38  39
ATOM     39  C   UNL     1      -8.146  -9.999   1.459  1.00  0.00     0.338 C 
ATOM     40  O   UNL     1      -9.021 -10.828   1.415  1.00  0.00    -0.246 OA
BRANCH  39  41
ATOM     41  C   UNL     1      -8.051  -8.909   2.461  1.00  0.00     0.060 A 
ATOM     42  C   UNL     1      -7.730  -7.610   2.062  1.00  0.00     0.016 A 
ATOM     43  C   UNL     1      -8.242  -9.208   3.817  1.00  0.00     0.016 A 
ATOM     44  C   UNL     1      -7.634  -6.600   3.021  1.00  0.00     0.010 A 
ATOM     45  C   UNL     1      -8.142  -8.196   4.776  1.00  0.00     0.010 A 
ATOM     46  C   UNL     1      -7.866  -6.879   4.380  1.00  0.00    -0.014 A 
BRANCH  46  47
ATOM     47  C   UNL     1      -8.021  -5.753   5.335  1.00  0.00     0.031 A 
ATOM     48  C   UNL     1      -6.963  -5.382   6.329  1.00  0.00     0.074 A 
ATOM     49  C   UNL     1      -9.171  -5.054   5.285  1.00  0.00     0.049 A 
ATOM     50  N   UNL     1      -6.919  -4.346   7.130  1.00  0.00    -0.248 NA
ATOM     51  C   UNL     1      -5.816  -6.291   6.451  1.00  0.00     0.031 C 
ATOM     52  C   UNL     1     -10.296  -5.356   4.398  1.00  0.00     0.029 A 
ATOM     53  N   UNL     1      -9.580  -3.947   5.980  1.00  0.00    -0.354 N 
ATOM     54  C   UNL     1      -5.729  -4.460   7.836  1.00  0.00     0.074 A 
ATOM     55  C   UNL     1      -5.109  -5.698   7.406  1.00  0.00     0.031 C 
ATOM     56  C   UNL     1     -11.252  -4.434   4.574  1.00  0.00     0.029 A 
ATOM     57  C   UNL     1     -10.819  -3.492   5.600  1.00  0.00     0.049 A 
ATOM     58  H   UNL     1      -9.040  -3.519   6.683  1.00  0.00     0.167 HD
ATOM     59  C   UNL     1      -5.199  -3.601   8.744  1.00  0.00     0.037 A 
ATOM     60  C   UNL     1     -11.524  -2.427   6.022  1.00  0.00     0.037 A 
ATOM     61  C   UNL     1      -5.843  -2.389   9.195  1.00  0.00     0.049 A 
ATOM     62  C   UNL     1     -10.929  -1.515   7.056  1.00  0.00     0.074 A 
ATOM     63  C   UNL     1      -5.369  -1.437  10.083  1.00  0.00     0.029 A 
ATOM     64  N   UNL     1      -7.111  -1.974   8.813  1.00  0.00    -0.354 N 
ATOM     65  N   UNL     1      -9.756  -1.576   7.638  1.00  0.00    -0.248 NA
ATOM     66  C   UNL     1     -11.754  -0.377   7.479  1.00  0.00     0.031 C 
ATOM     67  C   UNL     1      -6.370  -0.478  10.280  1.00  0.00     0.029 A 
ATOM     68  C   UNL     1      -7.446  -0.796   9.467  1.00  0.00     0.049 A 
ATOM     69  H   UNL     1      -7.689  -2.446   8.171  1.00  0.00     0.167 HD
ATOM     70  C   UNL     1      -9.689  -0.466   8.470  1.00  0.00     0.074 A 
ATOM     71  C   UNL     1     -10.932   0.258   8.301  1.00  0.00     0.031 C 
ATOM     72  C   UNL     1      -8.686  -0.081   9.298  1.00  0.00     0.037 A 
BRANCH  59  73
ATOM     73  C   UNL     1      -3.850  -3.942   9.314  1.00  0.00     0.057 A 
ATOM     74  C   UNL     1      -3.699  -4.273  10.667  1.00  0.00     0.134 A 
ATOM     75  C   UNL     1      -2.688  -3.897   8.530  1.00  0.00     0.134 A 
ATOM     76  F   UNL     1      -4.765  -4.319  11.481  1.00  0.00    -0.206 F 
ATOM     77  C   UNL     1      -2.446  -4.550  11.217  1.00  0.00     0.040 A 
ATOM     78  C   UNL     1      -1.433  -4.200   9.062  1.00  0.00     0.040 A 
ATOM     79  F   UNL     1      -2.759  -3.586   7.227  1.00  0.00    -0.206 F 
ATOM     80  C   UNL     1      -1.309  -4.523  10.412  1.00  0.00     0.006 A 
ENDBRANCH  59  73
BRANCH  60  81
ATOM     81  C   UNL     1     -12.858  -2.142   5.439  1.00  0.00     0.057 A 
ATOM     82  C   UNL     1     -13.959  -2.968   5.695  1.00  0.00     0.134 A 
ATOM     83  C   UNL     1     -13.066  -1.020   4.628  1.00  0.00     0.134 A 
ATOM     84  F   UNL     1     -13.820  -4.065   6.453  1.00  0.00    -0.206 F 
ATOM     85  C   UNL     1     -15.219  -2.687   5.168  1.00  0.00     0.040 A 
ATOM     86  C   UNL     1     -14.328  -0.711   4.120  1.00  0.00     0.040 A 
ATOM     87  F   UNL     1     -12.052  -0.185   4.358  1.00  0.00    -0.206 F 
ATOM     88  C   UNL     1     -15.409  -1.548   4.388  1.00  0.00     0.006 A 
ENDBRANCH  60  81
BRANCH  72  89
ATOM     89  C   UNL     1      -8.882   1.206  10.049  1.00  0.00     0.057 A 
ATOM     90  C   UNL     1      -8.117   2.337   9.735  1.00  0.00     0.134 A 
ATOM     91  C   UNL     1      -9.828   1.336  11.075  1.00  0.00     0.134 A 
ATOM     92  F   UNL     1      -7.188   2.285   8.768  1.00  0.00    -0.206 F 
ATOM     93  C   UNL     1      -8.290   3.549  10.407  1.00  0.00     0.040 A 
ATOM     94  C   UNL     1     -10.034   2.551  11.732  1.00  0.00     0.040 A 
ATOM     95  F   UNL     1     -10.607   0.298  11.417  1.00  0.00    -0.206 F 
ATOM     96  C   UNL     1      -9.259   3.661  11.401  1.00  0.00     0.006 A 
ENDBRANCH  72  89
ENDBRANCH  46  47
ENDBRANCH  39  41
ENDBRANCH  38  39
ENDBRANCH  37  38
ENDBRANCH  36  37
ENDBRANCH  35  36
ENDBRANCH  34  35
ENDBRANCH  33  34
ENDBRANCH  32  33
ENDBRANCH   1  32
TORSDOF 24
