REMARK SMILES O=C(N[C@@H](Cc1c[nH]c2ccccc12)C(=O)N[C@@H](CO)C(=O)OCCOCCOCCOCCOC(=O)c1ccc(-c2c3nc(c(-c4c(F)cccc4F)c4ccc([nH]4)c(-c4c(F)cccc4F)c4nc(c(-c5c(F)cccc5F)c5ccc2[nH]5)C=C4)C=C3)cc1)c1ccc(F)cc1
REMARK SMILES IDX 28 1 27 2 26 3 25 4 24 5 23 6 21 7 22 8 18 9 17 10 15 11
REMARK SMILES IDX 16 12 4 14 3 15 1 16 2 17 92 19 93 20 98 21 94 22 97 23
REMARK SMILES IDX 95 24 96 25 5 26 6 27 7 28 14 29 8 30 9 31 13 32 10 34 12 35
REMARK SMILES IDX 11 36 19 37 20 38 29 40 30 41 31 42 32 43 33 44 34 45 35 46
REMARK SMILES IDX 36 47 37 48 38 49 39 50 91 51 40 52 90 53 41 54 42 55 43 56
REMARK SMILES IDX 84 57 44 58 89 59 83 60 85 61 45 62 88 63 82 64 81 65 46 67
REMARK SMILES IDX 72 68 55 69 71 70 56 71 59 72 70 73 86 74 57 75 58 76 69 78
REMARK SMILES IDX 87 79 60 80 47 81 48 82 53 83 49 84 50 85 52 86 54 87 51 88
REMARK SMILES IDX 73 89 74 90 79 91 75 92 76 93 78 94 80 95 77 96 61 97 62 98
REMARK SMILES IDX 67 99 63 100 64 101 66 102 68 103 65 104
REMARK H PARENT 17 13 3 18 8 33 20 39 85 66 59 77
REMARK Flexibility Score: inf
ROOT
ATOM      1  C   UNL     1       6.966  -3.132  -3.390  1.00  0.00     0.188 C 
ENDROOT
BRANCH   1   2
ATOM      2  C   UNL     1       6.800  -4.651  -3.429  1.00  0.00     0.188 C 
BRANCH   2   3
ATOM      3  O   UNL     1       7.369  -5.253  -4.582  1.00  0.00    -0.376 OA
BRANCH   3   4
ATOM      4  C   UNL     1       6.532  -5.521  -5.695  1.00  0.00     0.202 C 
BRANCH   4   5
ATOM      5  C   UNL     1       5.995  -4.341  -6.561  1.00  0.00     0.261 C 
BRANCH   5   6
ATOM      6  O   UNL     1       5.223  -3.273  -5.957  1.00  0.00    -0.462 OA
BRANCH   6   7
ATOM      7  C   UNL     1       4.231  -3.707  -5.153  1.00  0.00     0.331 C 
ATOM      8  O   UNL     1       4.081  -4.908  -4.903  1.00  0.00    -0.250 OA
BRANCH   7   9
ATOM      9  C   UNL     1       3.200  -2.471  -4.491  1.00  0.00     0.218 C 
BRANCH   9  10
ATOM     10  N   UNL     1       4.327  -1.254  -4.017  1.00  0.00    -0.339 N 
ATOM     11  C   UNL     1       4.661  -0.609  -2.826  1.00  0.00     0.243 C 
ATOM     12  O   UNL     1       5.502   0.301  -2.937  1.00  0.00    -0.273 OA
ATOM     13  H   UNL     1       4.868  -0.935  -4.775  1.00  0.00     0.164 HD
BRANCH  11  14
ATOM     14  C   UNL     1       3.994  -0.801  -1.357  1.00  0.00     0.176 C 
BRANCH  14  15
ATOM     15  N   UNL     1       2.812   0.026  -0.998  1.00  0.00    -0.340 N 
ATOM     16  O   UNL     1       1.197   0.827   0.297  1.00  0.00    -0.269 OA
ATOM     17  C   UNL     1       2.404   0.635   0.149  1.00  0.00     0.251 C 
ATOM     18  H   UNL     1       2.191   0.161  -1.750  1.00  0.00     0.164 HD
BRANCH  17  19
ATOM     19  C   UNL     1       3.323   1.056   1.214  1.00  0.00     0.040 A 
ATOM     20  C   UNL     1       4.504   1.745   0.932  1.00  0.00     0.017 A 
ATOM     21  C   UNL     1       2.890   0.900   2.542  1.00  0.00     0.017 A 
ATOM     22  C   UNL     1       5.263   2.258   1.986  1.00  0.00     0.040 A 
ATOM     23  C   UNL     1       3.654   1.409   3.590  1.00  0.00     0.040 A 
ATOM     24  C   UNL     1       4.834   2.084   3.301  1.00  0.00     0.123 A 
ATOM     25  F   UNL     1       5.561   2.593   4.304  1.00  0.00    -0.207 F 
ENDBRANCH  17  19
ENDBRANCH  14  15
BRANCH  14  26
ATOM     26  C   UNL     1       3.704  -2.236  -0.917  1.00  0.00     0.072 C 
BRANCH  26  27
ATOM     27  C   UNL     1       2.552  -2.903  -1.634  1.00  0.00    -0.020 A 
ATOM     28  C   UNL     1       2.357  -4.288  -1.582  1.00  0.00     0.087 A 
ATOM     29  C   UNL     1       1.889  -2.378  -2.822  1.00  0.00     0.003 A 
ATOM     30  N   UNL     1       1.840  -4.839  -2.751  1.00  0.00    -0.361 N 
ATOM     31  C   UNL     1       1.789  -3.884  -3.737  1.00  0.00     0.046 A 
ATOM     32  C   UNL     1       2.093  -0.820  -3.766  1.00  0.00     0.010 A 
ATOM     33  H   UNL     1       1.553  -5.775  -2.856  1.00  0.00     0.166 HD
ATOM     34  C   UNL     1       1.938  -3.882  -5.542  1.00  0.00     0.026 A 
ATOM     35  C   UNL     1       2.392  -0.842  -5.535  1.00  0.00     0.001 A 
ATOM     36  C   UNL     1       2.323  -2.370  -6.405  1.00  0.00     0.002 A 
ENDBRANCH  26  27
ENDBRANCH  14  26
ENDBRANCH  11  14
ENDBRANCH   9  10
BRANCH   9  37
ATOM     37  C   UNL     1       1.028  -2.226  -4.742  1.00  0.00     0.193 C 
BRANCH  37  38
ATOM     38  O   UNL     1       0.229  -1.508  -5.882  1.00  0.00    -0.394 OA
ATOM     39  H   UNL     1       0.326  -0.547  -5.788  1.00  0.00     0.210 HD
ENDBRANCH  37  38
ENDBRANCH   9  37
ENDBRANCH   7   9
ENDBRANCH   6   7
ENDBRANCH   5   6
ENDBRANCH   4   5
ENDBRANCH   3   4
ENDBRANCH   2   3
ENDBRANCH   1   2
BRANCH   1  40
ATOM     40  O   UNL     1       7.401  -2.532  -4.593  1.00  0.00    -0.377 OA
BRANCH  40  41
ATOM     41  C   UNL     1       8.720  -2.813  -5.057  1.00  0.00     0.188 C 
BRANCH  41  42
ATOM     42  C   UNL     1       9.691  -3.691  -4.239  1.00  0.00     0.188 C 
BRANCH  42  43
ATOM     43  O   UNL     1       9.582  -3.522  -2.835  1.00  0.00    -0.376 OA
BRANCH  43  44
ATOM     44  C   UNL     1      10.538  -2.681  -2.211  1.00  0.00     0.202 C 
BRANCH  44  45
ATOM     45  C   UNL     1      10.484  -1.192  -2.579  1.00  0.00     0.261 C 
BRANCH  45  46
ATOM     46  O   UNL     1      10.720  -0.848  -3.956  1.00  0.00    -0.460 OA
BRANCH  46  47
ATOM     47  C   UNL     1      11.817  -1.319  -4.588  1.00  0.00     0.338 C 
ATOM     48  O   UNL     1      12.736  -1.951  -4.104  1.00  0.00    -0.246 OA
BRANCH  47  49
ATOM     49  C   UNL     1      11.595  -1.130  -6.042  1.00  0.00     0.060 A 
ATOM     50  C   UNL     1      11.641  -2.243  -6.897  1.00  0.00     0.016 A 
ATOM     51  C   UNL     1      11.291   0.135  -6.549  1.00  0.00     0.016 A 
ATOM     52  C   UNL     1      11.419  -2.085  -8.267  1.00  0.00     0.010 A 
ATOM     53  C   UNL     1      11.107   0.298  -7.923  1.00  0.00     0.010 A 
ATOM     54  C   UNL     1      11.209  -0.804  -8.791  1.00  0.00    -0.014 A 
BRANCH  54  55
ATOM     55  C   UNL     1      11.389  -0.557 -10.241  1.00  0.00     0.031 A 
ATOM     56  C   UNL     1      12.768  -0.173 -10.704  1.00  0.00     0.074 A 
ATOM     57  C   UNL     1      10.375  -0.638 -11.118  1.00  0.00     0.049 A 
ATOM     58  N   UNL     1      13.173   0.226 -11.880  1.00  0.00    -0.248 NA
ATOM     59  C   UNL     1      13.836  -0.243  -9.690  1.00  0.00     0.031 C 
ATOM     60  C   UNL     1       9.010  -1.052 -10.806  1.00  0.00     0.029 A 
ATOM     61  N   UNL     1      10.343  -0.350 -12.461  1.00  0.00    -0.354 N 
ATOM     62  C   UNL     1      14.535   0.466 -11.743  1.00  0.00     0.074 A 
ATOM     63  C   UNL     1      14.885   0.189 -10.370  1.00  0.00     0.031 C 
ATOM     64  C   UNL     1       8.264  -0.966 -11.923  1.00  0.00     0.029 A 
ATOM     65  C   UNL     1       9.091  -0.452 -13.015  1.00  0.00     0.049 A 
ATOM     66  H   UNL     1      11.142  -0.095 -12.977  1.00  0.00     0.167 HD
ATOM     67  C   UNL     1      15.417   0.883 -12.680  1.00  0.00     0.037 A 
ATOM     68  C   UNL     1       8.661  -0.130 -14.252  1.00  0.00     0.037 A 
ATOM     69  C   UNL     1      15.064   1.172 -14.042  1.00  0.00     0.049 A 
ATOM     70  C   UNL     1       9.643   0.423 -15.256  1.00  0.00     0.074 A 
ATOM     71  C   UNL     1      15.882   1.596 -15.072  1.00  0.00     0.029 A 
ATOM     72  N   UNL     1      13.780   1.079 -14.557  1.00  0.00    -0.354 N 
ATOM     73  N   UNL     1      10.931   0.632 -15.127  1.00  0.00    -0.248 NA
ATOM     74  C   UNL     1       9.110   0.791 -16.577  1.00  0.00     0.031 C 
ATOM     75  C   UNL     1      15.084   1.808 -16.200  1.00  0.00     0.029 A 
ATOM     76  C   UNL     1      13.779   1.462 -15.886  1.00  0.00     0.049 A 
ATOM     77  H   UNL     1      12.988   0.784 -14.052  1.00  0.00     0.167 HD
ATOM     78  C   UNL     1      11.367   1.121 -16.354  1.00  0.00     0.074 A 
ATOM     79  C   UNL     1      10.206   1.175 -17.217  1.00  0.00     0.031 C 
ATOM     80  C   UNL     1      12.615   1.487 -16.735  1.00  0.00     0.037 A 
BRANCH  67  81
ATOM     81  C   UNL     1      16.837   1.086 -12.245  1.00  0.00     0.057 A 
ATOM     82  C   UNL     1      17.680   0.010 -11.938  1.00  0.00     0.134 A 
ATOM     83  C   UNL     1      17.372   2.376 -12.145  1.00  0.00     0.134 A 
ATOM     84  F   UNL     1      17.221  -1.250 -11.993  1.00  0.00    -0.206 F 
ATOM     85  C   UNL     1      18.997   0.211 -11.524  1.00  0.00     0.040 A 
ATOM     86  C   UNL     1      18.695   2.589 -11.758  1.00  0.00     0.040 A 
ATOM     87  F   UNL     1      16.617   3.450 -12.422  1.00  0.00    -0.206 F 
ATOM     88  C   UNL     1      19.510   1.504 -11.441  1.00  0.00     0.006 A 
ENDBRANCH  67  81
BRANCH  68  89
ATOM     89  C   UNL     1       7.228  -0.290 -14.613  1.00  0.00     0.057 A 
ATOM     90  C   UNL     1       6.819  -1.240 -15.556  1.00  0.00     0.134 A 
ATOM     91  C   UNL     1       6.238   0.526 -14.052  1.00  0.00     0.134 A 
ATOM     92  F   UNL     1       7.722  -2.033 -16.151  1.00  0.00    -0.206 F 
ATOM     93  C   UNL     1       5.481  -1.364 -15.939  1.00  0.00     0.040 A 
ATOM     94  C   UNL     1       4.894   0.397 -14.406  1.00  0.00     0.040 A 
ATOM     95  F   UNL     1       6.563   1.460 -13.146  1.00  0.00    -0.206 F 
ATOM     96  C   UNL     1       4.513  -0.546 -15.358  1.00  0.00     0.006 A 
ENDBRANCH  68  89
BRANCH  80  97
ATOM     97  C   UNL     1      12.814   1.927 -18.156  1.00  0.00     0.057 A 
ATOM     98  C   UNL     1      12.380   3.177 -18.613  1.00  0.00     0.134 A 
ATOM     99  C   UNL     1      13.527   1.120 -19.053  1.00  0.00     0.134 A 
ATOM    100  F   UNL     1      11.684   3.993 -17.807  1.00  0.00    -0.206 F 
ATOM    101  C   UNL     1      12.640   3.604 -19.917  1.00  0.00     0.040 A 
ATOM    102  C   UNL     1      13.816   1.547 -20.349  1.00  0.00     0.040 A 
ATOM    103  F   UNL     1      13.981  -0.084 -18.672  1.00  0.00    -0.206 F 
ATOM    104  C   UNL     1      13.369   2.793 -20.785  1.00  0.00     0.006 A 
ENDBRANCH  80  97
ENDBRANCH  54  55
ENDBRANCH  47  49
ENDBRANCH  46  47
ENDBRANCH  45  46
ENDBRANCH  44  45
ENDBRANCH  43  44
ENDBRANCH  42  43
ENDBRANCH  41  42
ENDBRANCH  40  41
ENDBRANCH   1  40
TORSDOF 28
