REMARK SMILES O=C(N[C@@H](Cc1ccc(O)cc1)C(=O)N[C@@H](CO)C(=O)OCCOCCOCCOCCOC(=O)c1ccc(-c2c3nc(c(-c4c(F)cccc4F)c4ccc([nH]4)c(-c4c(F)cccc4F)c4nc(c(-c5c(F)cccc5F)c5ccc2[nH]5)C=C4)C=C3)cc1)c1ccc(F)cc1
REMARK SMILES IDX 25 1 24 2 23 3 22 4 21 5 19 6 20 7 16 8 15 9 13 10 14 11
REMARK SMILES IDX 4 13 3 14 1 15 2 16 90 18 91 19 96 20 92 21 95 22 93 23
REMARK SMILES IDX 94 24 5 25 6 26 7 27 12 28 8 29 11 30 9 31 10 32 17 34 18 35
REMARK SMILES IDX 26 37 27 38 28 39 29 40 30 41 31 42 32 43 33 44 34 45 35 46
REMARK SMILES IDX 36 47 37 48 89 49 38 50 88 51 39 52 40 53 41 54 82 55 42 56
REMARK SMILES IDX 87 57 81 58 83 59 43 60 86 61 80 62 79 63 44 65 70 66 53 67
REMARK SMILES IDX 69 68 54 69 57 70 68 71 84 72 55 73 56 74 67 76 85 77 58 78
REMARK SMILES IDX 45 79 46 80 51 81 47 82 48 83 50 84 52 85 49 86 71 87 72 88
REMARK SMILES IDX 77 89 73 90 74 91 76 92 78 93 75 94 59 95 60 96 65 97 61 98
REMARK SMILES IDX 62 99 64 100 66 101 63 102
REMARK H PARENT 15 12 3 17 10 33 18 36 83 64 57 75
REMARK Flexibility Score: inf
ROOT
ATOM      1  C   UNL     1       6.360  -4.338  -3.957  1.00  0.00     0.188 C 
ENDROOT
BRANCH   1   2
ATOM      2  O   UNL     1       6.735  -4.861  -5.224  1.00  0.00    -0.376 OA
BRANCH   2   3
ATOM      3  C   UNL     1       5.633  -5.056  -6.106  1.00  0.00     0.202 C 
BRANCH   3   4
ATOM      4  C   UNL     1       5.099  -3.761  -6.733  1.00  0.00     0.261 C 
BRANCH   4   5
ATOM      5  O   UNL     1       4.671  -2.764  -5.779  1.00  0.00    -0.462 OA
BRANCH   5   6
ATOM      6  C   UNL     1       3.376  -2.782  -5.373  1.00  0.00     0.331 C 
ATOM      7  O   UNL     1       2.562  -3.635  -5.716  1.00  0.00    -0.250 OA
BRANCH   6   8
ATOM      8  C   UNL     1       3.016  -1.554  -4.493  1.00  0.00     0.218 C 
BRANCH   8   9
ATOM      9  N   UNL     1       4.127  -0.745  -3.973  1.00  0.00    -0.339 N 
ATOM     10  C   UNL     1       4.560  -0.437  -2.721  1.00  0.00     0.243 C 
ATOM     11  O   UNL     1       5.541   0.320  -2.669  1.00  0.00    -0.273 OA
ATOM     12  H   UNL     1       4.676  -0.339  -4.683  1.00  0.00     0.164 HD
BRANCH  10  13
ATOM     13  C   UNL     1       3.940  -0.928  -1.379  1.00  0.00     0.176 C 
BRANCH  13  14
ATOM     14  N   UNL     1       2.591  -0.423  -1.154  1.00  0.00    -0.340 N 
ATOM     15  O   UNL     1       0.864   0.384   0.026  1.00  0.00    -0.269 OA
ATOM     16  C   UNL     1       2.078   0.214  -0.049  1.00  0.00     0.251 C 
ATOM     17  H   UNL     1       1.959  -0.557  -1.897  1.00  0.00     0.164 HD
BRANCH  16  18
ATOM     18  C   UNL     1       2.946   0.680   1.064  1.00  0.00     0.040 A 
ATOM     19  C   UNL     1       4.070   1.490   0.840  1.00  0.00     0.017 A 
ATOM     20  C   UNL     1       2.563   0.375   2.378  1.00  0.00     0.017 A 
ATOM     21  C   UNL     1       4.840   1.932   1.920  1.00  0.00     0.040 A 
ATOM     22  C   UNL     1       3.325   0.835   3.456  1.00  0.00     0.040 A 
ATOM     23  C   UNL     1       4.461   1.601   3.217  1.00  0.00     0.123 A 
ATOM     24  F   UNL     1       5.192   2.039   4.250  1.00  0.00    -0.207 F 
ENDBRANCH  16  18
ENDBRANCH  13  14
BRANCH  13  25
ATOM     25  C   UNL     1       4.203  -2.371  -0.866  1.00  0.00     0.070 C 
BRANCH  25  26
ATOM     26  C   UNL     1       3.555  -3.594  -1.470  1.00  0.00    -0.045 A 
ATOM     27  C   UNL     1       2.260  -3.612  -1.984  1.00  0.00     0.007 A 
ATOM     28  C   UNL     1       4.282  -4.799  -1.499  1.00  0.00     0.007 A 
ATOM     29  C   UNL     1       1.843  -4.662  -2.805  1.00  0.00     0.046 A 
ATOM     30  C   UNL     1       3.846  -5.880  -2.269  1.00  0.00     0.046 A 
ATOM     31  C   UNL     1       2.681  -5.750  -3.003  1.00  0.00     0.115 A 
BRANCH  31  32
ATOM     32  O   UNL     1       2.413  -6.668  -3.972  1.00  0.00    -0.508 OA
ATOM     33  H   UNL     1       1.629  -6.598  -4.480  1.00  0.00     0.293 HD
ENDBRANCH  31  32
ENDBRANCH  25  26
ENDBRANCH  13  25
ENDBRANCH  10  13
ENDBRANCH   8   9
BRANCH   8  34
ATOM     34  C   UNL     1       2.050  -0.676  -5.298  1.00  0.00     0.193 C 
BRANCH  34  35
ATOM     35  O   UNL     1       2.683  -0.104  -6.441  1.00  0.00    -0.394 OA
ATOM     36  H   UNL     1       3.418   0.460  -6.155  1.00  0.00     0.210 HD
ENDBRANCH  34  35
ENDBRANCH   8  34
ENDBRANCH   6   8
ENDBRANCH   5   6
ENDBRANCH   4   5
ENDBRANCH   3   4
ENDBRANCH   2   3
ENDBRANCH   1   2
BRANCH   1  37
ATOM     37  C   UNL     1       6.750  -2.885  -3.703  1.00  0.00     0.188 C 
BRANCH  37  38
ATOM     38  O   UNL     1       7.397  -2.175  -4.737  1.00  0.00    -0.377 OA
BRANCH  38  39
ATOM     39  C   UNL     1       8.551  -2.772  -5.310  1.00  0.00     0.188 C 
BRANCH  39  40
ATOM     40  C   UNL     1       9.431  -3.708  -4.453  1.00  0.00     0.188 C 
BRANCH  40  41
ATOM     41  O   UNL     1       9.289  -3.553  -3.046  1.00  0.00    -0.376 OA
BRANCH  41  42
ATOM     42  C   UNL     1      10.290  -2.800  -2.375  1.00  0.00     0.202 C 
BRANCH  42  43
ATOM     43  C   UNL     1      10.254  -1.288  -2.626  1.00  0.00     0.261 C 
BRANCH  43  44
ATOM     44  O   UNL     1      10.508  -0.876  -3.978  1.00  0.00    -0.460 OA
BRANCH  44  45
ATOM     45  C   UNL     1      11.661  -1.274  -4.567  1.00  0.00     0.338 C 
ATOM     46  O   UNL     1      12.570  -1.900  -4.077  1.00  0.00    -0.246 OA
BRANCH  45  47
ATOM     47  C   UNL     1      11.514  -0.982  -6.010  1.00  0.00     0.060 A 
ATOM     48  C   UNL     1      11.607  -2.036  -6.931  1.00  0.00     0.016 A 
ATOM     49  C   UNL     1      11.205   0.311  -6.436  1.00  0.00     0.016 A 
ATOM     50  C   UNL     1      11.407  -1.791  -8.290  1.00  0.00     0.010 A 
ATOM     51  C   UNL     1      11.041   0.562  -7.797  1.00  0.00     0.010 A 
ATOM     52  C   UNL     1      11.172  -0.482  -8.730  1.00  0.00    -0.014 A 
BRANCH  52  53
ATOM     53  C   UNL     1      11.336  -0.136 -10.159  1.00  0.00     0.031 A 
ATOM     54  C   UNL     1      12.709   0.281 -10.609  1.00  0.00     0.074 A 
ATOM     55  C   UNL     1      10.306  -0.141 -11.021  1.00  0.00     0.049 A 
ATOM     56  N   UNL     1      13.098   0.766 -11.758  1.00  0.00    -0.248 NA
ATOM     57  C   UNL     1      13.788   0.137  -9.616  1.00  0.00     0.031 C 
ATOM     58  C   UNL     1       8.943  -0.566 -10.717  1.00  0.00     0.029 A 
ATOM     59  N   UNL     1      10.254   0.253 -12.336  1.00  0.00    -0.354 N 
ATOM     60  C   UNL     1      14.460   0.994 -11.621  1.00  0.00     0.074 A 
ATOM     61  C   UNL     1      14.830   0.614 -10.277  1.00  0.00     0.031 C 
ATOM     62  C   UNL     1       8.178  -0.385 -11.810  1.00  0.00     0.029 A 
ATOM     63  C   UNL     1       8.991   0.203 -12.874  1.00  0.00     0.049 A 
ATOM     64  H   UNL     1      11.045   0.543 -12.844  1.00  0.00     0.167 HD
ATOM     65  C   UNL     1      15.329   1.480 -12.536  1.00  0.00     0.037 A 
ATOM     66  C   UNL     1       8.546   0.621 -14.076  1.00  0.00     0.037 A 
ATOM     67  C   UNL     1      14.958   1.876 -13.865  1.00  0.00     0.049 A 
ATOM     68  C   UNL     1       9.516   1.243 -15.050  1.00  0.00     0.074 A 
ATOM     69  C   UNL     1      15.762   2.377 -14.871  1.00  0.00     0.029 A 
ATOM     70  N   UNL     1      13.666   1.825 -14.366  1.00  0.00    -0.354 N 
ATOM     71  N   UNL     1      10.807   1.437 -14.925  1.00  0.00    -0.248 NA
ATOM     72  C   UNL     1       8.965   1.713 -16.331  1.00  0.00     0.031 C 
ATOM     73  C   UNL     1      14.949   2.674 -15.968  1.00  0.00     0.029 A 
ATOM     74  C   UNL     1      13.647   2.309 -15.662  1.00  0.00     0.049 A 
ATOM     75  H   UNL     1      12.880   1.494 -13.874  1.00  0.00     0.167 HD
ATOM     76  C   UNL     1      11.226   2.015 -16.117  1.00  0.00     0.074 A 
ATOM     77  C   UNL     1      10.053   2.142 -16.956  1.00  0.00     0.031 C 
ATOM     78  C   UNL     1      12.471   2.403 -16.488  1.00  0.00     0.037 A 
BRANCH  65  79
ATOM     79  C   UNL     1      16.755   1.641 -12.107  1.00  0.00     0.057 A 
ATOM     80  C   UNL     1      17.598   0.538 -11.914  1.00  0.00     0.134 A 
ATOM     81  C   UNL     1      17.294   2.915 -11.891  1.00  0.00     0.134 A 
ATOM     82  F   UNL     1      17.134  -0.710 -12.082  1.00  0.00    -0.206 F 
ATOM     83  C   UNL     1      18.921   0.697 -11.501  1.00  0.00     0.040 A 
ATOM     84  C   UNL     1      18.622   3.087 -11.501  1.00  0.00     0.040 A 
ATOM     85  F   UNL     1      16.537   4.011 -12.054  1.00  0.00    -0.206 F 
ATOM     86  C   UNL     1      19.438   1.976 -11.300  1.00  0.00     0.006 A 
ENDBRANCH  65  79
BRANCH  66  87
ATOM     87  C   UNL     1       7.108   0.495 -14.428  1.00  0.00     0.057 A 
ATOM     88  C   UNL     1       6.681  -0.391 -15.424  1.00  0.00     0.134 A 
ATOM     89  C   UNL     1       6.131   1.281 -13.803  1.00  0.00     0.134 A 
ATOM     90  F   UNL     1       7.571  -1.150 -16.079  1.00  0.00    -0.206 F 
ATOM     91  C   UNL     1       5.338  -0.479 -15.799  1.00  0.00     0.040 A 
ATOM     92  C   UNL     1       4.782   1.185 -14.151  1.00  0.00     0.040 A 
ATOM     93  F   UNL     1       6.475   2.153 -12.844  1.00  0.00    -0.206 F 
ATOM     94  C   UNL     1       4.384   0.308 -15.157  1.00  0.00     0.006 A 
ENDBRANCH  66  87
BRANCH  78  95
ATOM     95  C   UNL     1      12.651   2.951 -17.873  1.00  0.00     0.057 A 
ATOM     96  C   UNL     1      12.236   4.242 -18.219  1.00  0.00     0.134 A 
ATOM     97  C   UNL     1      13.330   2.204 -18.845  1.00  0.00     0.134 A 
ATOM     98  F   UNL     1      11.574   5.003 -17.335  1.00  0.00    -0.206 F 
ATOM     99  C   UNL     1      12.485   4.769 -19.488  1.00  0.00     0.040 A 
ATOM    100  C   UNL     1      13.605   2.729 -20.108  1.00  0.00     0.040 A 
ATOM    101  F   UNL     1      13.763   0.964 -18.572  1.00  0.00    -0.206 F 
ATOM    102  C   UNL     1      13.180   4.016 -20.432  1.00  0.00     0.006 A 
ENDBRANCH  78  95
ENDBRANCH  52  53
ENDBRANCH  45  47
ENDBRANCH  44  45
ENDBRANCH  43  44
ENDBRANCH  42  43
ENDBRANCH  41  42
ENDBRANCH  40  41
ENDBRANCH  39  40
ENDBRANCH  38  39
ENDBRANCH  37  38
ENDBRANCH   1  37
TORSDOF 29
