REMARK SMILES CC[C@H](CC#N)[NH2+]Cc1cc(C(=O)OCCOCCOCCOCCOC(=O)c2ccc(-c3c4nc(c(-c5c(F)cccc5F)c5ccc([nH]5)c(-c5c(F)cccc5F)c5nc(c(-c6c(F)cccc6F)c6ccc3[nH]6)C=C5)C=C4)cc2)cs1
REMARK SMILES IDX 18 1 17 2 16 3 15 4 14 5 12 6 13 7 11 8 9 9 10 10 84 11
REMARK SMILES IDX 83 12 8 13 7 14 3 17 2 18 1 19 4 20 5 21 6 22 19 23 20 24
REMARK SMILES IDX 21 25 22 26 23 27 24 28 25 29 26 30 27 31 28 32 29 33 30 34
REMARK SMILES IDX 82 35 31 36 81 37 32 38 33 39 34 40 75 41 35 42 80 43 74 44
REMARK SMILES IDX 76 45 36 46 79 47 73 48 72 49 37 51 63 52 46 53 62 54 47 55
REMARK SMILES IDX 50 56 61 57 77 58 48 59 49 60 60 62 78 63 51 64 38 65 39 66
REMARK SMILES IDX 44 67 40 68 41 69 43 70 45 71 42 72 64 73 65 74 70 75 66 76
REMARK SMILES IDX 67 77 69 78 71 79 68 80 52 81 53 82 58 83 54 84 55 85 57 86
REMARK SMILES IDX 59 87 56 88
REMARK H PARENT 7 15 7 16 76 50 50 61
REMARK Flexibility Score: inf
ROOT
ATOM      1  C   UNL     1      -3.095   6.530   4.045  1.00  0.00     0.188 C 
ENDROOT
BRANCH   1   2
ATOM      2  O   UNL     1      -3.451   6.931   2.721  1.00  0.00    -0.376 OA
BRANCH   2   3
ATOM      3  C   UNL     1      -3.943   6.013   1.760  1.00  0.00     0.202 C 
BRANCH   3   4
ATOM      4  C   UNL     1      -2.949   4.999   1.187  1.00  0.00     0.261 C 
BRANCH   4   5
ATOM      5  O   UNL     1      -2.061   4.441   2.158  1.00  0.00    -0.460 OA
BRANCH   5   6
ATOM      6  C   UNL     1      -0.905   5.132   2.377  1.00  0.00     0.339 C 
ATOM      7  O   UNL     1      -0.541   6.110   1.735  1.00  0.00    -0.246 OA
BRANCH   6   8
ATOM      8  C   UNL     1      -0.103   4.534   3.446  1.00  0.00     0.071 A 
ATOM      9  C   UNL     1       0.792   2.716   4.542  1.00  0.00     0.060 A 
ATOM     10  C   UNL     1      -0.390   3.312   4.150  1.00  0.00     0.037 A 
ATOM     11  S   UNL     1       2.000   3.902   4.783  1.00  0.00    -0.142 S 
ATOM     12  C   UNL     1       1.107   5.048   3.872  1.00  0.00     0.081 A 
BRANCH   9  13
ATOM     13  C   UNL     1       1.088   1.255   4.659  1.00  0.00     0.308 C 
BRANCH  13  14
ATOM     14  N   UNL     1       0.442   0.467   3.598  1.00  0.00    -0.339 N 
ATOM     15  H   UNL     1       0.592  -0.518   3.816  1.00  0.00     0.346 HD
ATOM     16  H   UNL     1      -0.529   0.777   3.604  1.00  0.00     0.346 HD
BRANCH  14  17
ATOM     17  C   UNL     1       0.894   0.684   2.203  1.00  0.00     0.196 C 
BRANCH  17  18
ATOM     18  C   UNL     1       0.285   1.945   1.532  1.00  0.00     0.063 C 
ATOM     19  C   UNL     1       0.000   1.957   0.032  1.00  0.00     0.010 C 
ENDBRANCH  17  18
BRANCH  17  20
ATOM     20  C   UNL     1       0.439  -0.513   1.409  1.00  0.00     0.184 C 
BRANCH  20  21
ATOM     21  C   UNL     1       1.204  -1.805   1.647  1.00  0.00     0.068 C 
ATOM     22  N   UNL     1       1.840  -2.876   1.845  1.00  0.00    -0.198 NA
ENDBRANCH  20  21
ENDBRANCH  17  20
ENDBRANCH  14  17
ENDBRANCH  13  14
ENDBRANCH   9  13
ENDBRANCH   6   8
ENDBRANCH   5   6
ENDBRANCH   4   5
ENDBRANCH   3   4
ENDBRANCH   2   3
ENDBRANCH   1   2
BRANCH   1  23
ATOM     23  C   UNL     1      -3.436   5.146   4.638  1.00  0.00     0.188 C 
BRANCH  23  24
ATOM     24  O   UNL     1      -4.404   4.398   3.924  1.00  0.00    -0.377 OA
BRANCH  24  25
ATOM     25  C   UNL     1      -5.722   4.455   4.455  1.00  0.00     0.188 C 
BRANCH  25  26
ATOM     26  C   UNL     1      -6.260   5.863   4.758  1.00  0.00     0.188 C 
BRANCH  26  27
ATOM     27  O   UNL     1      -5.510   6.537   5.768  1.00  0.00    -0.376 OA
BRANCH  27  28
ATOM     28  C   UNL     1      -6.051   6.560   7.083  1.00  0.00     0.202 C 
BRANCH  28  29
ATOM     29  C   UNL     1      -5.874   5.255   7.874  1.00  0.00     0.261 C 
BRANCH  29  30
ATOM     30  O   UNL     1      -6.594   4.122   7.361  1.00  0.00    -0.460 OA
BRANCH  30  31
ATOM     31  C   UNL     1      -7.926   4.253   7.194  1.00  0.00     0.338 C 
ATOM     32  O   UNL     1      -8.626   5.192   7.522  1.00  0.00    -0.246 OA
BRANCH  31  33
ATOM     33  C   UNL     1      -8.388   3.134   6.351  1.00  0.00     0.060 A 
ATOM     34  C   UNL     1      -9.115   3.426   5.189  1.00  0.00     0.016 A 
ATOM     35  C   UNL     1      -8.130   1.811   6.717  1.00  0.00     0.016 A 
ATOM     36  C   UNL     1      -9.638   2.390   4.418  1.00  0.00     0.010 A 
ATOM     37  C   UNL     1      -8.673   0.775   5.959  1.00  0.00     0.010 A 
ATOM     38  C   UNL     1      -9.467   1.064   4.835  1.00  0.00    -0.014 A 
BRANCH  38  39
ATOM     39  C   UNL     1     -10.322  -0.000   4.263  1.00  0.00     0.031 A 
ATOM     40  C   UNL     1     -11.609  -0.319   4.973  1.00  0.00     0.074 A 
ATOM     41  C   UNL     1      -9.971  -0.669   3.153  1.00  0.00     0.049 A 
ATOM     42  N   UNL     1     -12.487  -1.255   4.725  1.00  0.00    -0.248 NA
ATOM     43  C   UNL     1     -11.946   0.534   6.126  1.00  0.00     0.031 C 
ATOM     44  C   UNL     1      -8.773  -0.421   2.356  1.00  0.00     0.029 A 
ATOM     45  N   UNL     1     -10.595  -1.711   2.515  1.00  0.00    -0.354 N 
ATOM     46  C   UNL     1     -13.473  -1.107   5.692  1.00  0.00     0.074 A 
ATOM     47  C   UNL     1     -13.076  -0.011   6.546  1.00  0.00     0.031 C 
ATOM     48  C   UNL     1      -8.738  -1.303   1.340  1.00  0.00     0.029 A 
ATOM     49  C   UNL     1      -9.894  -2.193   1.438  1.00  0.00     0.049 A 
ATOM     50  H   UNL     1     -11.461  -2.079   2.803  1.00  0.00     0.167 HD
ATOM     51  C   UNL     1     -14.613  -1.819   5.852  1.00  0.00     0.037 A 
ATOM     52  C   UNL     1     -10.151  -3.249   0.642  1.00  0.00     0.037 A 
ATOM     53  C   UNL     1     -15.002  -2.916   5.010  1.00  0.00     0.049 A 
ATOM     54  C   UNL     1     -11.387  -4.076   0.885  1.00  0.00     0.074 A 
ATOM     55  C   UNL     1     -16.137  -3.701   5.085  1.00  0.00     0.029 A 
ATOM     56  N   UNL     1     -14.255  -3.386   3.941  1.00  0.00    -0.354 N 
ATOM     57  N   UNL     1     -12.324  -3.919   1.790  1.00  0.00    -0.248 NA
ATOM     58  C   UNL     1     -11.600  -5.228  -0.003  1.00  0.00     0.031 C 
ATOM     59  C   UNL     1     -16.058  -4.676   4.084  1.00  0.00     0.029 A 
ATOM     60  C   UNL     1     -14.896  -4.466   3.358  1.00  0.00     0.049 A 
ATOM     61  H   UNL     1     -13.397  -3.009   3.640  1.00  0.00     0.167 HD
ATOM     62  C   UNL     1     -13.251  -4.929   1.559  1.00  0.00     0.074 A 
ATOM     63  C   UNL     1     -12.766  -5.691   0.427  1.00  0.00     0.031 C 
ATOM     64  C   UNL     1     -14.403  -5.199   2.221  1.00  0.00     0.037 A 
BRANCH  51  65
ATOM     65  C   UNL     1     -15.497  -1.443   7.003  1.00  0.00     0.057 A 
ATOM     66  C   UNL     1     -16.252  -0.264   7.000  1.00  0.00     0.134 A 
ATOM     67  C   UNL     1     -15.593  -2.272   8.128  1.00  0.00     0.134 A 
ATOM     68  F   UNL     1     -16.185   0.584   5.963  1.00  0.00    -0.206 F 
ATOM     69  C   UNL     1     -17.054   0.090   8.086  1.00  0.00     0.040 A 
ATOM     70  C   UNL     1     -16.410  -1.941   9.209  1.00  0.00     0.040 A 
ATOM     71  F   UNL     1     -14.893  -3.414   8.194  1.00  0.00    -0.206 F 
ATOM     72  C   UNL     1     -17.139  -0.753   9.193  1.00  0.00     0.006 A 
ENDBRANCH  51  65
BRANCH  52  73
ATOM     73  C   UNL     1      -9.216  -3.599  -0.456  1.00  0.00     0.057 A 
ATOM     74  C   UNL     1      -9.578  -3.431  -1.797  1.00  0.00     0.134 A 
ATOM     75  C   UNL     1      -7.949  -4.133  -0.192  1.00  0.00     0.134 A 
ATOM     76  F   UNL     1     -10.788  -2.946  -2.113  1.00  0.00    -0.206 F 
ATOM     77  C   UNL     1      -8.721  -3.796  -2.837  1.00  0.00     0.040 A 
ATOM     78  C   UNL     1      -7.073  -4.481  -1.222  1.00  0.00     0.040 A 
ATOM     79  F   UNL     1      -7.542  -4.318   1.072  1.00  0.00    -0.206 F 
ATOM     80  C   UNL     1      -7.462  -4.319  -2.550  1.00  0.00     0.006 A 
ENDBRANCH  52  73
BRANCH  64  81
ATOM     81  C   UNL     1     -15.243  -6.333   1.713  1.00  0.00     0.057 A 
ATOM     82  C   UNL     1     -14.885  -7.671   1.918  1.00  0.00     0.134 A 
ATOM     83  C   UNL     1     -16.458  -6.079   1.063  1.00  0.00     0.134 A 
ATOM     84  F   UNL     1     -13.729  -7.980   2.525  1.00  0.00    -0.206 F 
ATOM     85  C   UNL     1     -15.699  -8.717   1.480  1.00  0.00     0.040 A 
ATOM     86  C   UNL     1     -17.291  -7.116   0.642  1.00  0.00     0.040 A 
ATOM     87  F   UNL     1     -16.863  -4.819   0.845  1.00  0.00    -0.206 F 
ATOM     88  C   UNL     1     -16.910  -8.440   0.847  1.00  0.00     0.006 A 
ENDBRANCH  64  81
ENDBRANCH  38  39
ENDBRANCH  31  33
ENDBRANCH  30  31
ENDBRANCH  29  30
ENDBRANCH  28  29
ENDBRANCH  27  28
ENDBRANCH  26  27
ENDBRANCH  25  26
ENDBRANCH  24  25
ENDBRANCH  23  24
ENDBRANCH   1  23
TORSDOF 26
