REMARK SMILES CCc1ccccc1NC(=O)CCCC(=O)OCCOCCOCCOCCOC(=O)c1ccc(-c2c3nc(c(-c4c(F)cccc4F)c4ccc([nH]4)c(-c4c(F)cccc4F)c4nc(c(-c5c(F)cccc5F)c5ccc2[nH]5)C=C4)C=C3)cc1
REMARK SMILES IDX 21 1 20 2 19 3 18 4 17 5 15 6 16 7 14 8 13 9 12 10 10 11
REMARK SMILES IDX 9 12 11 14 8 15 3 16 4 17 5 18 7 19 6 20 2 21 1 22 22 23
REMARK SMILES IDX 23 24 24 25 25 26 26 27 27 28 28 29 29 30 30 31 31 32 32 33
REMARK SMILES IDX 33 34 85 35 34 36 84 37 35 38 36 39 37 40 78 41 38 42 83 43
REMARK SMILES IDX 77 44 79 45 39 46 82 47 76 48 75 49 40 51 66 52 49 53 65 54
REMARK SMILES IDX 50 55 53 56 64 57 80 58 51 59 52 60 63 62 81 63 54 64 41 65
REMARK SMILES IDX 42 66 47 67 43 68 44 69 46 70 48 71 45 72 67 73 68 74 73 75
REMARK SMILES IDX 69 76 70 77 72 78 74 79 71 80 55 81 56 82 61 83 57 84 58 85
REMARK SMILES IDX 60 86 62 87 59 88
REMARK H PARENT 9 13 79 50 53 61
REMARK Flexibility Score: inf
ROOT
ATOM      1  C   UNL     1       1.715   6.534   4.560  1.00  0.00     0.188 C 
ENDROOT
BRANCH   1   2
ATOM      2  O   UNL     1       3.094   6.270   4.362  1.00  0.00    -0.376 OA
BRANCH   2   3
ATOM      3  C   UNL     1       3.437   4.942   4.022  1.00  0.00     0.202 C 
BRANCH   3   4
ATOM      4  C   UNL     1       2.997   4.482   2.646  1.00  0.00     0.261 C 
BRANCH   4   5
ATOM      5  O   UNL     1       1.592   4.475   2.339  1.00  0.00    -0.463 OA
BRANCH   5   6
ATOM      6  C   UNL     1       0.640   3.887   3.093  1.00  0.00     0.305 C 
ATOM      7  O   UNL     1       0.815   3.429   4.213  1.00  0.00    -0.252 OA
BRANCH   6   8
ATOM      8  C   UNL     1      -0.697   3.849   2.368  1.00  0.00     0.123 C 
BRANCH   8   9
ATOM      9  C   UNL     1      -0.778   4.523   0.991  1.00  0.00     0.022 C 
BRANCH   9  10
ATOM     10  C   UNL     1       0.193   4.056  -0.103  1.00  0.00     0.101 C 
BRANCH  10  11
ATOM     11  C   UNL     1      -0.178   2.742  -0.746  1.00  0.00     0.224 C 
ATOM     12  N   UNL     1       0.026   1.525  -0.177  1.00  0.00    -0.326 N 
ATOM     13  H   UNL     1      -0.422   0.804  -0.675  1.00  0.00     0.169 HD
ATOM     14  O   UNL     1      -0.785   2.753  -1.825  1.00  0.00    -0.275 OA
BRANCH  12  15
ATOM     15  C   UNL     1       0.719   1.040   0.948  1.00  0.00     0.044 A 
ATOM     16  C   UNL     1       0.329  -0.188   1.506  1.00  0.00    -0.025 A 
ATOM     17  C   UNL     1       0.696  -0.516   2.824  1.00  0.00     0.006 A 
ATOM     18  C   UNL     1       1.659   0.227   3.477  1.00  0.00     0.000 A 
ATOM     19  C   UNL     1       1.824   1.643   1.512  1.00  0.00     0.026 A 
ATOM     20  C   UNL     1       2.307   1.221   2.765  1.00  0.00     0.002 A 
BRANCH  16  21
ATOM     21  C   UNL     1      -0.252  -1.280   0.641  1.00  0.00     0.034 C 
ATOM     22  C   UNL     1       0.729  -1.573  -0.502  1.00  0.00     0.009 C 
ENDBRANCH  16  21
ENDBRANCH  12  15
ENDBRANCH  10  11
ENDBRANCH   9  10
ENDBRANCH   8   9
ENDBRANCH   6   8
ENDBRANCH   5   6
ENDBRANCH   4   5
ENDBRANCH   3   4
ENDBRANCH   2   3
ENDBRANCH   1   2
BRANCH   1  23
ATOM     23  C   UNL     1       0.972   7.105   3.337  1.00  0.00     0.188 C 
BRANCH  23  24
ATOM     24  O   UNL     1       1.632   7.163   2.080  1.00  0.00    -0.377 OA
BRANCH  24  25
ATOM     25  C   UNL     1       2.918   7.760   1.947  1.00  0.00     0.188 C 
BRANCH  25  26
ATOM     26  C   UNL     1       3.492   8.689   3.026  1.00  0.00     0.188 C 
BRANCH  26  27
ATOM     27  O   UNL     1       2.531   9.204   3.920  1.00  0.00    -0.376 OA
BRANCH  27  28
ATOM     28  C   UNL     1       1.887  10.422   3.598  1.00  0.00     0.202 C 
BRANCH  28  29
ATOM     29  C   UNL     1       1.259  10.618   2.206  1.00  0.00     0.261 C 
BRANCH  29  30
ATOM     30  O   UNL     1       2.079  10.391   1.047  1.00  0.00    -0.460 OA
BRANCH  30  31
ATOM     31  C   UNL     1       3.250  11.045   0.921  1.00  0.00     0.338 C 
ATOM     32  O   UNL     1       3.709  11.890   1.673  1.00  0.00    -0.246 OA
BRANCH  31  33
ATOM     33  C   UNL     1       3.998  10.408  -0.189  1.00  0.00     0.060 A 
ATOM     34  C   UNL     1       5.251   9.827   0.064  1.00  0.00     0.016 A 
ATOM     35  C   UNL     1       3.456  10.376  -1.476  1.00  0.00     0.016 A 
ATOM     36  C   UNL     1       5.988   9.266  -0.980  1.00  0.00     0.010 A 
ATOM     37  C   UNL     1       4.209   9.845  -2.527  1.00  0.00     0.010 A 
ATOM     38  C   UNL     1       5.498   9.334  -2.289  1.00  0.00    -0.014 A 
BRANCH  38  39
ATOM     39  C   UNL     1       6.432   9.143  -3.425  1.00  0.00     0.031 A 
ATOM     40  C   UNL     1       7.074  10.374  -4.009  1.00  0.00     0.074 A 
ATOM     41  C   UNL     1       6.736   7.926  -3.906  1.00  0.00     0.049 A 
ATOM     42  N   UNL     1       7.866  10.493  -5.043  1.00  0.00    -0.248 NA
ATOM     43  C   UNL     1       6.778  11.647  -3.328  1.00  0.00     0.031 C 
ATOM     44  C   UNL     1       6.237   6.657  -3.382  1.00  0.00     0.029 A 
ATOM     45  N   UNL     1       7.541   7.565  -4.957  1.00  0.00    -0.354 N 
ATOM     46  C   UNL     1       8.153  11.850  -5.139  1.00  0.00     0.074 A 
ATOM     47  C   UNL     1       7.429  12.518  -4.082  1.00  0.00     0.031 C 
ATOM     48  C   UNL     1       6.739   5.654  -4.123  1.00  0.00     0.029 A 
ATOM     49  C   UNL     1       7.562   6.213  -5.196  1.00  0.00     0.049 A 
ATOM     50  H   UNL     1       8.056   8.214  -5.490  1.00  0.00     0.167 HD
ATOM     51  C   UNL     1       8.955  12.483  -6.027  1.00  0.00     0.037 A 
ATOM     52  C   UNL     1       8.157   5.516  -6.184  1.00  0.00     0.037 A 
ATOM     53  C   UNL     1       9.666  11.815  -7.082  1.00  0.00     0.049 A 
ATOM     54  C   UNL     1       8.962   6.254  -7.224  1.00  0.00     0.074 A 
ATOM     55  C   UNL     1      10.500  12.362  -8.041  1.00  0.00     0.029 A 
ATOM     56  N   UNL     1       9.621  10.450  -7.321  1.00  0.00    -0.354 N 
ATOM     57  N   UNL     1       9.227   7.536  -7.313  1.00  0.00    -0.248 NA
ATOM     58  C   UNL     1       9.550   5.447  -8.303  1.00  0.00     0.031 C 
ATOM     59  C   UNL     1      10.914  11.335  -8.894  1.00  0.00     0.029 A 
ATOM     60  C   UNL     1      10.392  10.139  -8.428  1.00  0.00     0.049 A 
ATOM     61  H   UNL     1       9.114   9.798  -6.784  1.00  0.00     0.167 HD
ATOM     62  C   UNL     1      10.040   7.683  -8.431  1.00  0.00     0.074 A 
ATOM     63  C   UNL     1      10.232   6.358  -8.983  1.00  0.00     0.031 C 
ATOM     64  C   UNL     1      10.582   8.811  -8.954  1.00  0.00     0.037 A 
BRANCH  51  65
ATOM     65  C   UNL     1       9.073  13.975  -5.911  1.00  0.00     0.057 A 
ATOM     66  C   UNL     1       9.752  14.586  -4.848  1.00  0.00     0.134 A 
ATOM     67  C   UNL     1       8.518  14.810  -6.888  1.00  0.00     0.134 A 
ATOM     68  F   UNL     1      10.289  13.845  -3.867  1.00  0.00    -0.206 F 
ATOM     69  C   UNL     1       9.856  15.976  -4.752  1.00  0.00     0.040 A 
ATOM     70  C   UNL     1       8.641  16.199  -6.818  1.00  0.00     0.040 A 
ATOM     71  F   UNL     1       7.854  14.291  -7.932  1.00  0.00    -0.206 F 
ATOM     72  C   UNL     1       9.307  16.785  -5.744  1.00  0.00     0.006 A 
ENDBRANCH  51  65
BRANCH  52  73
ATOM     73  C   UNL     1       8.007   4.039  -6.256  1.00  0.00     0.057 A 
ATOM     74  C   UNL     1       9.101   3.188  -6.061  1.00  0.00     0.134 A 
ATOM     75  C   UNL     1       6.774   3.442  -6.550  1.00  0.00     0.134 A 
ATOM     76  F   UNL     1      10.315   3.698  -5.802  1.00  0.00    -0.206 F 
ATOM     77  C   UNL     1       8.981   1.801  -6.172  1.00  0.00     0.040 A 
ATOM     78  C   UNL     1       6.633   2.056  -6.637  1.00  0.00     0.040 A 
ATOM     79  F   UNL     1       5.686   4.199  -6.753  1.00  0.00    -0.206 F 
ATOM     80  C   UNL     1       7.741   1.231  -6.456  1.00  0.00     0.006 A 
ENDBRANCH  52  73
BRANCH  64  81
ATOM     81  C   UNL     1      11.476   8.660 -10.152  1.00  0.00     0.057 A 
ATOM     82  C   UNL     1      10.978   8.323 -11.417  1.00  0.00     0.134 A 
ATOM     83  C   UNL     1      12.852   8.907 -10.045  1.00  0.00     0.134 A 
ATOM     84  F   UNL     1       9.673   8.066 -11.587  1.00  0.00    -0.206 F 
ATOM     85  C   UNL     1      11.819   8.210 -12.525  1.00  0.00     0.040 A 
ATOM     86  C   UNL     1      13.698   8.828 -11.152  1.00  0.00     0.040 A 
ATOM     87  F   UNL     1      13.394   9.248  -8.866  1.00  0.00    -0.206 F 
ATOM     88  C   UNL     1      13.182   8.472 -12.396  1.00  0.00     0.006 A 
ENDBRANCH  64  81
ENDBRANCH  38  39
ENDBRANCH  31  33
ENDBRANCH  30  31
ENDBRANCH  29  30
ENDBRANCH  28  29
ENDBRANCH  27  28
ENDBRANCH  26  27
ENDBRANCH  25  26
ENDBRANCH  24  25
ENDBRANCH  23  24
ENDBRANCH   1  23
TORSDOF 25
