REMARK SMILES Cc1cnc(N2CCO[C@H](CC(=O)OCCOCCOCCOCCOC(=O)c3ccc(-c4c5nc(c(-c6c(F)cccc6F)c6ccc([nH]6)c(-c6c(F)cccc6F)c6nc(c(-c7c(F)cccc7F)c7ccc4[nH]7)C=C6)C=C5)cc3)C2)c([N+](=O)[O-])c1
REMARK SMILES IDX 19 1 18 2 17 3 16 4 15 5 14 6 12 7 13 8 11 9 10 10 6 11 7 12
REMARK SMILES IDX 83 13 8 14 9 15 5 16 1 17 2 18 3 19 88 20 4 21 84 22 85 23
REMARK SMILES IDX 86 24 87 25 20 26 21 27 22 28 23 29 24 30 25 31 26 32 27 33
REMARK SMILES IDX 28 34 29 35 30 36 82 37 31 38 81 39 32 40 33 41 34 42 75 43
REMARK SMILES IDX 35 44 80 45 74 46 76 47 36 48 79 49 73 50 72 51 37 53 63 54
REMARK SMILES IDX 46 55 62 56 47 57 50 58 61 59 77 60 48 61 49 62 60 64 78 65
REMARK SMILES IDX 51 66 38 67 39 68 44 69 40 70 41 71 43 72 45 73 42 74 64 75
REMARK SMILES IDX 65 76 70 77 66 78 67 79 69 80 71 81 68 82 52 83 53 84 58 85
REMARK SMILES IDX 54 86 55 87 57 88 59 89 56 90
REMARK H PARENT 76 52 50 63
REMARK Flexibility Score: inf
ROOT
ATOM      1  C   UNL     1      -5.641   0.604   4.203  1.00  0.00     0.188 C 
ENDROOT
BRANCH   1   2
ATOM      2  C   UNL     1      -4.707   1.096   5.308  1.00  0.00     0.188 C 
BRANCH   2   3
ATOM      3  O   UNL     1      -5.126   2.118   6.189  1.00  0.00    -0.376 OA
BRANCH   3   4
ATOM      4  C   UNL     1      -5.681   3.364   5.820  1.00  0.00     0.202 C 
BRANCH   4   5
ATOM      5  C   UNL     1      -5.527   4.109   4.478  1.00  0.00     0.261 C 
BRANCH   5   6
ATOM      6  O   UNL     1      -5.337   3.348   3.279  1.00  0.00    -0.463 OA
BRANCH   6   7
ATOM      7  C   UNL     1      -4.048   3.231   2.894  1.00  0.00     0.308 C 
ATOM      8  O   UNL     1      -3.113   3.742   3.505  1.00  0.00    -0.252 OA
BRANCH   7   9
ATOM      9  C   UNL     1      -3.797   2.445   1.632  1.00  0.00     0.156 C 
BRANCH   9  10
ATOM     10  C   UNL     1      -4.716   1.329   1.090  1.00  0.00     0.148 C 
ATOM     11  N   UNL     1      -3.014   0.573  -0.427  1.00  0.00    -0.346 N 
ATOM     12  C   UNL     1      -3.771   0.953  -1.616  1.00  0.00     0.147 C 
ATOM     13  C   UNL     1      -3.850   0.106   0.673  1.00  0.00     0.151 C 
ATOM     14  C   UNL     1      -4.824   2.017  -1.237  1.00  0.00     0.182 C 
ATOM     15  O   UNL     1      -5.544   1.744  -0.021  1.00  0.00    -0.374 OA
BRANCH  11  16
ATOM     16  C   UNL     1      -1.658   0.413  -0.389  1.00  0.00     0.208 A 
ATOM     17  C   UNL     1       2.542  -0.381   0.042  1.00  0.00     0.046 C 
ATOM     18  C   UNL     1       1.088  -0.069  -0.103  1.00  0.00    -0.026 A 
ATOM     19  C   UNL     1       0.123  -1.067  -0.061  1.00  0.00     0.117 A 
ATOM     20  C   UNL     1       0.639   1.232  -0.288  1.00  0.00     0.094 A 
ATOM     21  N   UNL     1      -1.213  -0.849  -0.179  1.00  0.00    -0.233 NA
ATOM     22  C   UNL     1      -0.734   1.460  -0.440  1.00  0.00     0.311 A 
BRANCH  22  23
ATOM     23  N   UNL     1      -1.157   2.838  -0.500  1.00  0.00     0.066 N 
ATOM     24  O   UNL     1      -1.780   3.216  -1.500  1.00  0.00    -0.258 OA
ATOM     25  O   UNL     1      -0.810   3.571   0.438  1.00  0.00    -0.258 OA
ENDBRANCH  22  23
ENDBRANCH  11  16
ENDBRANCH   9  10
ENDBRANCH   7   9
ENDBRANCH   6   7
ENDBRANCH   5   6
ENDBRANCH   4   5
ENDBRANCH   3   4
ENDBRANCH   2   3
ENDBRANCH   1   2
BRANCH   1  26
ATOM     26  O   UNL     1      -6.844  -0.062   4.494  1.00  0.00    -0.377 OA
BRANCH  26  27
ATOM     27  C   UNL     1      -7.739   0.690   5.290  1.00  0.00     0.188 C 
BRANCH  27  28
ATOM     28  C   UNL     1      -7.663   0.216   6.737  1.00  0.00     0.188 C 
BRANCH  28  29
ATOM     29  O   UNL     1      -6.731  -0.820   6.978  1.00  0.00    -0.376 OA
BRANCH  29  30
ATOM     30  C   UNL     1      -6.853  -2.103   6.377  1.00  0.00     0.202 C 
BRANCH  30  31
ATOM     31  C   UNL     1      -7.869  -2.560   5.298  1.00  0.00     0.261 C 
BRANCH  31  32
ATOM     32  O   UNL     1      -9.049  -1.794   5.044  1.00  0.00    -0.460 OA
BRANCH  32  33
ATOM     33  C   UNL     1     -10.049  -1.833   5.942  1.00  0.00     0.338 C 
ATOM     34  O   UNL     1     -10.083  -2.460   6.985  1.00  0.00    -0.246 OA
BRANCH  33  35
ATOM     35  C   UNL     1     -11.036  -0.809   5.524  1.00  0.00     0.060 A 
ATOM     36  C   UNL     1     -11.281   0.277   6.373  1.00  0.00     0.016 A 
ATOM     37  C   UNL     1     -11.671  -0.886   4.280  1.00  0.00     0.016 A 
ATOM     38  C   UNL     1     -12.171   1.281   5.990  1.00  0.00     0.010 A 
ATOM     39  C   UNL     1     -12.590   0.103   3.912  1.00  0.00     0.010 A 
ATOM     40  C   UNL     1     -12.860   1.179   4.775  1.00  0.00    -0.014 A 
BRANCH  40  41
ATOM     41  C   UNL     1     -13.994   2.095   4.501  1.00  0.00     0.031 A 
ATOM     42  C   UNL     1     -15.382   1.632   4.846  1.00  0.00     0.074 A 
ATOM     43  C   UNL     1     -13.799   3.321   3.985  1.00  0.00     0.049 A 
ATOM     44  N   UNL     1     -16.529   2.234   4.666  1.00  0.00    -0.248 NA
ATOM     45  C   UNL     1     -15.487   0.309   5.484  1.00  0.00     0.031 C 
ATOM     46  C   UNL     1     -12.501   3.905   3.655  1.00  0.00     0.029 A 
ATOM     47  N   UNL     1     -14.704   4.295   3.642  1.00  0.00    -0.354 N 
ATOM     48  C   UNL     1     -17.491   1.364   5.164  1.00  0.00     0.074 A 
ATOM     49  C   UNL     1     -16.797   0.182   5.627  1.00  0.00     0.031 C 
ATOM     50  C   UNL     1     -12.695   5.132   3.140  1.00  0.00     0.029 A 
ATOM     51  C   UNL     1     -14.130   5.405   3.074  1.00  0.00     0.049 A 
ATOM     52  H   UNL     1     -15.674   4.205   3.789  1.00  0.00     0.167 HD
ATOM     53  C   UNL     1     -18.831   1.538   5.235  1.00  0.00     0.037 A 
ATOM     54  C   UNL     1     -14.702   6.502   2.538  1.00  0.00     0.037 A 
ATOM     55  C   UNL     1     -19.520   2.709   4.763  1.00  0.00     0.049 A 
ATOM     56  C   UNL     1     -16.204   6.628   2.537  1.00  0.00     0.074 A 
ATOM     57  C   UNL     1     -20.875   2.988   4.807  1.00  0.00     0.029 A 
ATOM     58  N   UNL     1     -18.909   3.790   4.147  1.00  0.00    -0.354 N 
ATOM     59  N   UNL     1     -17.105   5.817   3.038  1.00  0.00    -0.248 NA
ATOM     60  C   UNL     1     -16.770   7.823   1.893  1.00  0.00     0.031 C 
ATOM     61  C   UNL     1     -21.090   4.210   4.162  1.00  0.00     0.029 A 
ATOM     62  C   UNL     1     -19.863   4.721   3.771  1.00  0.00     0.049 A 
ATOM     63  H   UNL     1     -17.940   3.883   3.999  1.00  0.00     0.167 HD
ATOM     64  C   UNL     1     -18.337   6.411   2.790  1.00  0.00     0.074 A 
ATOM     65  C   UNL     1     -18.068   7.661   2.111  1.00  0.00     0.031 C 
ATOM     66  C   UNL     1     -19.580   5.962   3.093  1.00  0.00     0.037 A 
BRANCH  53  67
ATOM     67  C   UNL     1     -19.643   0.416   5.814  1.00  0.00     0.057 A 
ATOM     68  C   UNL     1     -19.610   0.104   7.180  1.00  0.00     0.134 A 
ATOM     69  C   UNL     1     -20.488  -0.345   4.997  1.00  0.00     0.134 A 
ATOM     70  F   UNL     1     -18.809   0.784   8.014  1.00  0.00    -0.206 F 
ATOM     71  C   UNL     1     -20.372  -0.939   7.708  1.00  0.00     0.040 A 
ATOM     72  C   UNL     1     -21.276  -1.372   5.518  1.00  0.00     0.040 A 
ATOM     73  F   UNL     1     -20.568  -0.098   3.681  1.00  0.00    -0.206 F 
ATOM     74  C   UNL     1     -21.214  -1.676   6.877  1.00  0.00     0.006 A 
ENDBRANCH  53  67
BRANCH  54  75
ATOM     75  C   UNL     1     -13.859   7.561   1.923  1.00  0.00     0.057 A 
ATOM     76  C   UNL     1     -13.776   8.841   2.482  1.00  0.00     0.134 A 
ATOM     77  C   UNL     1     -13.144   7.328   0.742  1.00  0.00     0.134 A 
ATOM     78  F   UNL     1     -14.460   9.136   3.598  1.00  0.00    -0.206 F 
ATOM     79  C   UNL     1     -13.028   9.856   1.881  1.00  0.00     0.040 A 
ATOM     80  C   UNL     1     -12.369   8.324   0.145  1.00  0.00     0.040 A 
ATOM     81  F   UNL     1     -13.184   6.125   0.151  1.00  0.00    -0.206 F 
ATOM     82  C   UNL     1     -12.317   9.596   0.711  1.00  0.00     0.006 A 
ENDBRANCH  54  75
BRANCH  66  83
ATOM     83  C   UNL     1     -20.743   6.834   2.714  1.00  0.00     0.057 A 
ATOM     84  C   UNL     1     -21.138   7.001   1.380  1.00  0.00     0.134 A 
ATOM     85  C   UNL     1     -21.507   7.475   3.698  1.00  0.00     0.134 A 
ATOM     86  F   UNL     1     -20.443   6.424   0.388  1.00  0.00    -0.206 F 
ATOM     87  C   UNL     1     -22.236   7.793   1.038  1.00  0.00     0.040 A 
ATOM     88  C   UNL     1     -22.624   8.245   3.370  1.00  0.00     0.040 A 
ATOM     89  F   UNL     1     -21.192   7.348   4.996  1.00  0.00    -0.206 F 
ATOM     90  C   UNL     1     -22.987   8.411   2.036  1.00  0.00     0.006 A 
ENDBRANCH  66  83
ENDBRANCH  40  41
ENDBRANCH  33  35
ENDBRANCH  32  33
ENDBRANCH  31  32
ENDBRANCH  30  31
ENDBRANCH  29  30
ENDBRANCH  28  29
ENDBRANCH  27  28
ENDBRANCH  26  27
ENDBRANCH   1  26
TORSDOF 23
