REMARK SMILES O=C(OCCOCCOCCOCCOC(=O)[C@@H]1CSc2ccccc21)c1ccc(-c2c3nc(c(-c4c(F)cccc4F)c4ccc([nH]4)c(-c4c(F)cccc4F)c4nc(c(-c5c(F)cccc5F)c5ccc2[nH]5)C=C4)C=C3)cc1
REMARK SMILES IDX 8 1 7 2 6 3 5 4 4 5 3 6 2 7 1 8 27 9 28 10 80 11 29 12 79 13
REMARK SMILES IDX 30 14 31 15 32 16 73 17 33 18 78 19 72 20 74 21 34 22 77 23
REMARK SMILES IDX 71 24 70 25 35 27 61 28 44 29 60 30 45 31 48 32 59 33 75 34
REMARK SMILES IDX 46 35 47 36 58 38 76 39 49 40 36 41 37 42 42 43 38 44 39 45
REMARK SMILES IDX 41 46 43 47 40 48 62 49 63 50 68 51 64 52 65 53 67 54 69 55
REMARK SMILES IDX 66 56 50 57 51 58 56 59 52 60 53 61 55 62 57 63 54 64 9 65
REMARK SMILES IDX 10 66 11 67 12 68 13 69 14 70 15 71 16 72 17 73 18 74 19 75
REMARK SMILES IDX 26 76 20 77 21 78 25 79 22 80 24 81 23 82
REMARK H PARENT 74 26 48 37
REMARK Flexibility Score: inf
ROOT
ATOM      1  C   UNL     1       4.790  -2.089   0.861  1.00  0.00     0.188 C 
ENDROOT
BRANCH   1   2
ATOM      2  C   UNL     1       3.660  -2.751   1.647  1.00  0.00     0.188 C 
BRANCH   2   3
ATOM      3  O   UNL     1       3.908  -4.154   1.789  1.00  0.00    -0.376 OA
BRANCH   3   4
ATOM      4  C   UNL     1       2.798  -5.001   1.512  1.00  0.00     0.202 C 
BRANCH   4   5
ATOM      5  C   UNL     1       1.860  -5.233   2.691  1.00  0.00     0.261 C 
BRANCH   5   6
ATOM      6  O   UNL     1       1.790  -4.139   3.611  1.00  0.00    -0.460 OA
BRANCH   6   7
ATOM      7  C   UNL     1       2.669  -3.758   4.567  1.00  0.00     0.338 C 
ATOM      8  O   UNL     1       2.350  -2.799   5.272  1.00  0.00    -0.246 OA
BRANCH   7   9
ATOM      9  C   UNL     1       4.037  -4.350   4.788  1.00  0.00     0.060 A 
ATOM     10  C   UNL     1       4.904  -3.611   5.620  1.00  0.00     0.016 A 
ATOM     11  C   UNL     1       4.526  -5.548   4.258  1.00  0.00     0.016 A 
ATOM     12  C   UNL     1       6.194  -4.058   5.923  1.00  0.00     0.010 A 
ATOM     13  C   UNL     1       5.827  -5.983   4.520  1.00  0.00     0.010 A 
ATOM     14  C   UNL     1       6.655  -5.258   5.380  1.00  0.00    -0.014 A 
BRANCH  14  15
ATOM     15  C   UNL     1       7.889  -5.903   5.866  1.00  0.00     0.031 A 
ATOM     16  C   UNL     1       9.179  -5.800   5.116  1.00  0.00     0.074 A 
ATOM     17  C   UNL     1       7.761  -6.703   6.942  1.00  0.00     0.049 A 
ATOM     18  N   UNL     1      10.332  -6.348   5.399  1.00  0.00    -0.248 NA
ATOM     19  C   UNL     1       9.176  -4.993   3.887  1.00  0.00     0.031 C 
ATOM     20  C   UNL     1       6.513  -6.912   7.685  1.00  0.00     0.029 A 
ATOM     21  N   UNL     1       8.660  -7.521   7.568  1.00  0.00    -0.354 N 
ATOM     22  C   UNL     1      11.203  -5.939   4.397  1.00  0.00     0.074 A 
ATOM     23  C   UNL     1      10.433  -5.126   3.477  1.00  0.00     0.031 C 
ATOM     24  C   UNL     1       6.717  -7.831   8.640  1.00  0.00     0.029 A 
ATOM     25  C   UNL     1       8.104  -8.272   8.575  1.00  0.00     0.049 A 
ATOM     26  H   UNL     1       9.612  -7.568   7.322  1.00  0.00     0.167 HD
ATOM     27  C   UNL     1      12.523  -6.220   4.275  1.00  0.00     0.037 A 
ATOM     28  C   UNL     1       8.655  -9.220   9.353  1.00  0.00     0.037 A 
ATOM     29  C   UNL     1      13.248  -7.066   5.192  1.00  0.00     0.049 A 
ATOM     30  C   UNL     1      10.114  -9.519   9.183  1.00  0.00     0.074 A 
ATOM     31  C   UNL     1      14.600  -7.363   5.210  1.00  0.00     0.029 A 
ATOM     32  N   UNL     1      12.670  -7.772   6.239  1.00  0.00    -0.354 N 
ATOM     33  N   UNL     1      10.961  -9.020   8.315  1.00  0.00    -0.248 NA
ATOM     34  C   UNL     1      10.703 -10.489  10.113  1.00  0.00     0.031 C 
ATOM     35  C   UNL     1      14.830  -8.288   6.234  1.00  0.00     0.029 A 
ATOM     36  C   UNL     1      13.632  -8.525   6.891  1.00  0.00     0.049 A 
ATOM     37  H   UNL     1      11.716  -7.741   6.482  1.00  0.00     0.167 HD
ATOM     38  C   UNL     1      12.192  -9.578   8.622  1.00  0.00     0.074 A 
ATOM     39  C   UNL     1      11.979 -10.454   9.758  1.00  0.00     0.031 C 
ATOM     40  C   UNL     1      13.393  -9.378   8.027  1.00  0.00     0.037 A 
BRANCH  27  41
ATOM     41  C   UNL     1      13.277  -5.613   3.126  1.00  0.00     0.057 A 
ATOM     42  C   UNL     1      13.799  -6.415   2.102  1.00  0.00     0.134 A 
ATOM     43  C   UNL     1      13.569  -4.244   3.080  1.00  0.00     0.134 A 
ATOM     44  F   UNL     1      13.571  -7.737   2.088  1.00  0.00    -0.206 F 
ATOM     45  C   UNL     1      14.592  -5.880   1.084  1.00  0.00     0.040 A 
ATOM     46  C   UNL     1      14.342  -3.693   2.055  1.00  0.00     0.040 A 
ATOM     47  F   UNL     1      13.102  -3.416   4.027  1.00  0.00    -0.206 F 
ATOM     48  C   UNL     1      14.864  -4.514   1.057  1.00  0.00     0.006 A 
ENDBRANCH  27  41
BRANCH  28  49
ATOM     49  C   UNL     1       7.836  -9.910  10.378  1.00  0.00     0.057 A 
ATOM     50  C   UNL     1       6.836 -10.824  10.024  1.00  0.00     0.134 A 
ATOM     51  C   UNL     1       8.032  -9.665  11.741  1.00  0.00     0.134 A 
ATOM     52  F   UNL     1       6.584 -11.086   8.733  1.00  0.00    -0.206 F 
ATOM     53  C   UNL     1       6.066 -11.474  10.989  1.00  0.00     0.040 A 
ATOM     54  C   UNL     1       7.287 -10.326  12.718  1.00  0.00     0.040 A 
ATOM     55  F   UNL     1       8.979  -8.803  12.142  1.00  0.00    -0.206 F 
ATOM     56  C   UNL     1       6.299 -11.233  12.342  1.00  0.00     0.006 A 
ENDBRANCH  28  49
BRANCH  40  57
ATOM     57  C   UNL     1      14.570 -10.080   8.633  1.00  0.00     0.057 A 
ATOM     58  C   UNL     1      15.534  -9.355   9.344  1.00  0.00     0.134 A 
ATOM     59  C   UNL     1      14.765 -11.459   8.492  1.00  0.00     0.134 A 
ATOM     60  F   UNL     1      15.406  -8.029   9.510  1.00  0.00    -0.206 F 
ATOM     61  C   UNL     1      16.655  -9.977   9.892  1.00  0.00     0.040 A 
ATOM     62  C   UNL     1      15.868 -12.097   9.059  1.00  0.00     0.040 A 
ATOM     63  F   UNL     1      13.866 -12.210   7.838  1.00  0.00    -0.206 F 
ATOM     64  C   UNL     1      16.821 -11.354   9.755  1.00  0.00     0.006 A 
ENDBRANCH  40  57
ENDBRANCH  14  15
ENDBRANCH   7   9
ENDBRANCH   6   7
ENDBRANCH   5   6
ENDBRANCH   4   5
ENDBRANCH   3   4
ENDBRANCH   2   3
ENDBRANCH   1   2
BRANCH   1  65
ATOM     65  O   UNL     1       4.735  -2.323  -0.542  1.00  0.00    -0.377 OA
BRANCH  65  66
ATOM     66  C   UNL     1       4.677  -3.681  -0.956  1.00  0.00     0.188 C 
BRANCH  66  67
ATOM     67  C   UNL     1       5.767  -4.647  -0.438  1.00  0.00     0.188 C 
BRANCH  67  68
ATOM     68  O   UNL     1       6.937  -3.993   0.029  1.00  0.00    -0.376 OA
BRANCH  68  69
ATOM     69  C   UNL     1       8.029  -3.990  -0.883  1.00  0.00     0.202 C 
BRANCH  69  70
ATOM     70  C   UNL     1       7.816  -3.100  -2.112  1.00  0.00     0.261 C 
BRANCH  70  71
ATOM     71  O   UNL     1       6.743  -3.482  -2.999  1.00  0.00    -0.463 OA
BRANCH  71  72
ATOM     72  C   UNL     1       6.739  -4.731  -3.549  1.00  0.00     0.314 C 
ATOM     73  O   UNL     1       7.611  -5.556  -3.382  1.00  0.00    -0.252 OA
BRANCH  72  74
ATOM     74  C   UNL     1       5.456  -4.923  -4.368  1.00  0.00     0.140 C 
ATOM     75  C   UNL     1       4.402  -5.794  -3.661  1.00  0.00     0.095 C 
ATOM     76  C   UNL     1       5.765  -5.601  -5.671  1.00  0.00    -0.019 A 
ATOM     77  S   UNL     1       4.494  -7.483  -4.319  1.00  0.00    -0.125 SA
ATOM     78  C   UNL     1       5.384  -6.943  -5.741  1.00  0.00     0.011 A 
ATOM     79  C   UNL     1       6.480  -5.010  -6.706  1.00  0.00     0.006 A 
ATOM     80  C   UNL     1       5.730  -7.724  -6.827  1.00  0.00     0.015 A 
ATOM     81  C   UNL     1       6.834  -5.791  -7.802  1.00  0.00     0.000 A 
ATOM     82  C   UNL     1       6.468  -7.142  -7.859  1.00  0.00     0.001 A 
ENDBRANCH  72  74
ENDBRANCH  71  72
ENDBRANCH  70  71
ENDBRANCH  69  70
ENDBRANCH  68  69
ENDBRANCH  67  68
ENDBRANCH  66  67
ENDBRANCH  65  66
ENDBRANCH   1  65
TORSDOF 20
