REMARK SMILES O=C(OCCOCCOCCOCCOC(=O)c1ccc([C@H]2Nc3ccc(Cl)cc3[C@@H]3C=CC[C@@H]23)cc1)c1ccc(-c2c3nc(c(-c4c(F)cccc4F)c4ccc([nH]4)c(-c4c(F)cccc4F)c4nc(c(-c5c(F)cccc5F)c5ccc2[nH]5)C=C4)C=C3)cc1
REMARK SMILES IDX 8 1 7 2 6 3 5 4 4 5 3 6 2 7 1 8 38 9 39 10 91 11 40 12 90 13
REMARK SMILES IDX 41 14 42 15 43 16 84 17 44 18 89 19 83 20 85 21 45 22 88 23
REMARK SMILES IDX 82 24 81 25 46 27 72 28 55 29 71 30 56 31 59 32 70 33 86 34
REMARK SMILES IDX 57 35 58 36 69 38 87 39 60 40 47 41 48 42 53 43 49 44 50 45
REMARK SMILES IDX 52 46 54 47 51 48 73 49 74 50 79 51 75 52 76 53 78 54 80 55
REMARK SMILES IDX 77 56 61 57 62 58 67 59 63 60 64 61 66 62 68 63 65 64 9 65
REMARK SMILES IDX 10 66 11 67 12 68 13 69 14 70 15 71 16 72 17 73 18 74 19 75
REMARK SMILES IDX 37 76 20 77 36 78 21 79 22 80 23 81 35 82 24 83 31 85 34 86
REMARK SMILES IDX 25 87 30 88 32 89 33 90 26 91 29 92 27 93 28 94
REMARK H PARENT 85 26 59 37 23 84
REMARK Flexibility Score: inf
ROOT
ATOM      1  C   UNL     1       1.850   2.906  -0.230  1.00  0.00     0.188 C 
ENDROOT
BRANCH   1   2
ATOM      2  C   UNL     1       2.273   1.537  -0.758  1.00  0.00     0.188 C 
BRANCH   2   3
ATOM      3  O   UNL     1       3.599   1.211  -0.331  1.00  0.00    -0.376 OA
BRANCH   3   4
ATOM      4  C   UNL     1       4.395   0.523  -1.295  1.00  0.00     0.202 C 
BRANCH   4   5
ATOM      5  C   UNL     1       4.106  -0.978  -1.412  1.00  0.00     0.261 C 
BRANCH   5   6
ATOM      6  O   UNL     1       2.731  -1.302  -1.155  1.00  0.00    -0.460 OA
BRANCH   6   7
ATOM      7  C   UNL     1       2.171  -1.687   0.020  1.00  0.00     0.338 C 
ATOM      8  O   UNL     1       0.985  -2.013   0.026  1.00  0.00    -0.246 OA
BRANCH   7   9
ATOM      9  C   UNL     1       2.918  -1.760   1.315  1.00  0.00     0.060 A 
ATOM     10  C   UNL     1       4.056  -1.018   1.627  1.00  0.00     0.016 A 
ATOM     11  C   UNL     1       2.397  -2.604   2.313  1.00  0.00     0.016 A 
ATOM     12  C   UNL     1       4.724  -1.177   2.829  1.00  0.00     0.010 A 
ATOM     13  C   UNL     1       3.038  -2.740   3.550  1.00  0.00     0.010 A 
ATOM     14  C   UNL     1       4.232  -2.053   3.789  1.00  0.00    -0.014 A 
BRANCH  14  15
ATOM     15  C   UNL     1       5.113  -2.349   4.932  1.00  0.00     0.031 A 
ATOM     16  C   UNL     1       5.865  -3.646   4.912  1.00  0.00     0.074 A 
ATOM     17  C   UNL     1       5.381  -1.389   5.835  1.00  0.00     0.049 A 
ATOM     18  N   UNL     1       6.702  -4.133   5.787  1.00  0.00    -0.248 NA
ATOM     19  C   UNL     1       5.664  -4.502   3.729  1.00  0.00     0.031 C 
ATOM     20  C   UNL     1       4.806  -0.041   5.829  1.00  0.00     0.029 A 
ATOM     21  N   UNL     1       6.239  -1.380   6.901  1.00  0.00    -0.354 N 
ATOM     22  C   UNL     1       7.109  -5.356   5.269  1.00  0.00     0.074 A 
ATOM     23  C   UNL     1       6.421  -5.548   4.015  1.00  0.00     0.031 C 
ATOM     24  C   UNL     1       5.346   0.670   6.832  1.00  0.00     0.029 A 
ATOM     25  C   UNL     1       6.246  -0.191   7.589  1.00  0.00     0.049 A 
ATOM     26  H   UNL     1       6.797  -2.152   7.151  1.00  0.00     0.167 HD
ATOM     27  C   UNL     1       7.986  -6.237   5.802  1.00  0.00     0.037 A 
ATOM     28  C   UNL     1       6.886   0.139   8.726  1.00  0.00     0.037 A 
ATOM     29  C   UNL     1       8.651  -6.016   7.056  1.00  0.00     0.049 A 
ATOM     30  C   UNL     1       7.762  -0.907   9.363  1.00  0.00     0.074 A 
ATOM     31  C   UNL     1       9.473  -6.868   7.767  1.00  0.00     0.029 A 
ATOM     32  N   UNL     1       8.565  -4.835   7.782  1.00  0.00    -0.354 N 
ATOM     33  N   UNL     1       8.063  -2.109   8.927  1.00  0.00    -0.248 NA
ATOM     34  C   UNL     1       8.374  -0.563  10.651  1.00  0.00     0.031 C 
ATOM     35  C   UNL     1       9.857  -6.213   8.943  1.00  0.00     0.029 A 
ATOM     36  C   UNL     1       9.314  -4.936   8.939  1.00  0.00     0.049 A 
ATOM     37  H   UNL     1       8.048  -4.042   7.512  1.00  0.00     0.167 HD
ATOM     38  C   UNL     1       8.908  -2.660   9.880  1.00  0.00     0.074 A 
ATOM     39  C   UNL     1       9.093  -1.647  10.901  1.00  0.00     0.031 C 
ATOM     40  C   UNL     1       9.474  -3.892   9.921  1.00  0.00     0.037 A 
BRANCH  27  41
ATOM     41  C   UNL     1       8.199  -7.519   5.056  1.00  0.00     0.057 A 
ATOM     42  C   UNL     1       8.912  -7.571   3.851  1.00  0.00     0.134 A 
ATOM     43  C   UNL     1       7.633  -8.713   5.522  1.00  0.00     0.134 A 
ATOM     44  F   UNL     1       9.449  -6.457   3.330  1.00  0.00    -0.206 F 
ATOM     45  C   UNL     1       9.033  -8.758   3.124  1.00  0.00     0.040 A 
ATOM     46  C   UNL     1       7.765  -9.909   4.816  1.00  0.00     0.040 A 
ATOM     47  F   UNL     1       6.926  -8.731   6.662  1.00  0.00    -0.206 F 
ATOM     48  C   UNL     1       8.460  -9.932   3.608  1.00  0.00     0.006 A 
ENDBRANCH  27  41
BRANCH  28  49
ATOM     49  C   UNL     1       6.667   1.464   9.365  1.00  0.00     0.057 A 
ATOM     50  C   UNL     1       7.708   2.383   9.539  1.00  0.00     0.134 A 
ATOM     51  C   UNL     1       5.405   1.830   9.856  1.00  0.00     0.134 A 
ATOM     52  F   UNL     1       8.945   2.091   9.113  1.00  0.00    -0.206 F 
ATOM     53  C   UNL     1       7.510   3.601  10.196  1.00  0.00     0.040 A 
ATOM     54  C   UNL     1       5.185   3.056  10.485  1.00  0.00     0.040 A 
ATOM     55  F   UNL     1       4.360   0.999   9.726  1.00  0.00    -0.206 F 
ATOM     56  C   UNL     1       6.243   3.942  10.668  1.00  0.00     0.006 A 
ENDBRANCH  28  49
BRANCH  40  57
ATOM     57  C   UNL     1      10.363  -4.182  11.090  1.00  0.00     0.057 A 
ATOM     58  C   UNL     1       9.846  -4.404  12.372  1.00  0.00     0.134 A 
ATOM     59  C   UNL     1      11.749  -4.277  10.919  1.00  0.00     0.134 A 
ATOM     60  F   UNL     1       8.527  -4.313  12.599  1.00  0.00    -0.206 F 
ATOM     61  C   UNL     1      10.682  -4.685  13.452  1.00  0.00     0.040 A 
ATOM     62  C   UNL     1      12.592  -4.585  11.985  1.00  0.00     0.040 A 
ATOM     63  F   UNL     1      12.302  -4.084   9.712  1.00  0.00    -0.206 F 
ATOM     64  C   UNL     1      12.059  -4.783  13.257  1.00  0.00     0.006 A 
ENDBRANCH  40  57
ENDBRANCH  14  15
ENDBRANCH   7   9
ENDBRANCH   6   7
ENDBRANCH   5   6
ENDBRANCH   4   5
ENDBRANCH   3   4
ENDBRANCH   2   3
ENDBRANCH   1   2
BRANCH   1  65
ATOM     65  O   UNL     1       2.527   4.018  -0.814  1.00  0.00    -0.377 OA
BRANCH  65  66
ATOM     66  C   UNL     1       3.950   3.953  -0.863  1.00  0.00     0.188 C 
BRANCH  66  67
ATOM     67  C   UNL     1       4.719   3.805   0.468  1.00  0.00     0.188 C 
BRANCH  67  68
ATOM     68  O   UNL     1       3.885   3.743   1.613  1.00  0.00    -0.376 OA
BRANCH  68  69
ATOM     69  C   UNL     1       3.794   4.933   2.385  1.00  0.00     0.202 C 
BRANCH  69  70
ATOM     70  C   UNL     1       3.206   6.180   1.703  1.00  0.00     0.261 C 
BRANCH  70  71
ATOM     71  O   UNL     1       3.818   6.593   0.464  1.00  0.00    -0.460 OA
BRANCH  71  72
ATOM     72  C   UNL     1       5.067   7.114   0.470  1.00  0.00     0.338 C 
ATOM     73  O   UNL     1       5.774   7.304   1.445  1.00  0.00    -0.246 OA
BRANCH  72  74
ATOM     74  C   UNL     1       5.509   7.202  -0.951  1.00  0.00     0.060 A 
ATOM     75  C   UNL     1       6.635   6.482  -1.370  1.00  0.00     0.016 A 
ATOM     76  C   UNL     1       4.717   7.849  -1.901  1.00  0.00     0.016 A 
ATOM     77  C   UNL     1       6.894   6.306  -2.742  1.00  0.00     0.007 A 
ATOM     78  C   UNL     1       5.013   7.714  -3.264  1.00  0.00     0.007 A 
ATOM     79  C   UNL     1       6.050   6.869  -3.712  1.00  0.00    -0.025 A 
BRANCH  79  80
ATOM     80  C   UNL     1       6.083   6.482  -5.196  1.00  0.00     0.114 C 
ATOM     81  N   UNL     1       7.415   6.016  -5.658  1.00  0.00    -0.378 N 
ATOM     82  C   UNL     1       5.035   5.410  -5.559  1.00  0.00     0.031 C 
ATOM     83  C   UNL     1       7.569   4.779  -6.300  1.00  0.00     0.038 A 
ATOM     84  H   UNL     1       8.204   6.585  -5.511  1.00  0.00     0.161 HD
ATOM     85  C   UNL     1       5.562   4.052  -5.069  1.00  0.00     0.049 C 
ATOM     86  C   UNL     1       3.569   5.479  -5.141  1.00  0.00     0.034 C 
ATOM     87  C   UNL     1       8.549   4.588  -7.277  1.00  0.00     0.027 A 
ATOM     88  C   UNL     1       6.648   3.727  -6.054  1.00  0.00    -0.016 A 
ATOM     89  C   UNL     1       4.314   3.244  -4.970  1.00  0.00    -0.023 C 
ATOM     90  C   UNL     1       3.229   4.029  -4.962  1.00  0.00    -0.030 C 
ATOM     91  C   UNL     1       8.603   3.391  -8.006  1.00  0.00     0.022 A 
ATOM     92  C   UNL     1       6.726   2.519  -6.756  1.00  0.00     0.027 A 
ATOM     93  C   UNL     1       7.696   2.365  -7.741  1.00  0.00     0.041 A 
ATOM     94  Cl  UNL     1       7.746   0.913  -8.664  1.00  0.00    -0.084 Cl
ENDBRANCH  79  80
ENDBRANCH  72  74
ENDBRANCH  71  72
ENDBRANCH  70  71
ENDBRANCH  69  70
ENDBRANCH  68  69
ENDBRANCH  67  68
ENDBRANCH  66  67
ENDBRANCH  65  66
ENDBRANCH   1  65
TORSDOF 21
