REMARK SMILES C[C@H]1[NH2+]CC[C@H]1C(=O)N(C)CCCC(=O)OCCOCCOCCOCCOC(=O)c1ccc(-c2c3nc(c(-c4c(F)cccc4F)c4ccc([nH]4)c(-c4c(F)cccc4F)c4nc(c(-c5c(F)cccc5F)c5ccc2[nH]5)C=C4)C=C3)cc1
REMARK SMILES IDX 20 1 19 2 18 3 17 4 16 5 14 6 15 7 13 8 12 9 11 10 9 11
REMARK SMILES IDX 10 12 7 13 8 14 6 15 1 16 2 17 3 18 4 19 5 22 21 23 22 24
REMARK SMILES IDX 23 25 24 26 25 27 26 28 27 29 28 30 29 31 30 32 31 33 32 34
REMARK SMILES IDX 84 35 33 36 83 37 34 38 35 39 36 40 77 41 37 42 82 43 76 44
REMARK SMILES IDX 78 45 38 46 81 47 75 48 74 49 39 51 65 52 48 53 64 54 49 55
REMARK SMILES IDX 52 56 63 57 79 58 50 59 51 60 62 62 80 63 53 64 40 65 41 66
REMARK SMILES IDX 46 67 42 68 43 69 45 70 47 71 44 72 66 73 67 74 72 75 68 76
REMARK SMILES IDX 69 77 71 78 73 79 70 80 54 81 55 82 60 83 56 84 57 85 59 86
REMARK SMILES IDX 61 87 58 88
REMARK H PARENT 3 20 3 21 78 50 52 61
REMARK Flexibility Score: inf
ROOT
ATOM      1  C   UNL     1       2.423   7.663  -1.261  1.00  0.00     0.188 C 
ENDROOT
BRANCH   1   2
ATOM      2  O   UNL     1       1.183   8.293  -1.013  1.00  0.00    -0.376 OA
BRANCH   2   3
ATOM      3  C   UNL     1      -0.011   7.658  -1.430  1.00  0.00     0.202 C 
BRANCH   3   4
ATOM      4  C   UNL     1      -0.238   6.155  -1.212  1.00  0.00     0.261 C 
BRANCH   4   5
ATOM      5  O   UNL     1       0.933   5.380  -0.941  1.00  0.00    -0.463 OA
BRANCH   5   6
ATOM      6  C   UNL     1       1.383   4.572  -1.921  1.00  0.00     0.305 C 
ATOM      7  O   UNL     1       1.005   4.628  -3.088  1.00  0.00    -0.252 OA
BRANCH   6   8
ATOM      8  C   UNL     1       2.485   3.621  -1.482  1.00  0.00     0.124 C 
BRANCH   8   9
ATOM      9  C   UNL     1       2.920   3.436  -0.018  1.00  0.00     0.033 C 
BRANCH   9  10
ATOM     10  C   UNL     1       1.885   3.465   1.112  1.00  0.00     0.119 C 
BRANCH  10  11
ATOM     11  N   UNL     1       1.090   2.242   1.170  1.00  0.00    -0.345 N 
ATOM     12  C   UNL     1       1.091   1.554   2.451  1.00  0.00     0.146 C 
BRANCH  11  13
ATOM     13  C   UNL     1       0.155   2.041   0.180  1.00  0.00     0.231 C 
ATOM     14  O   UNL     1      -0.322   2.998  -0.438  1.00  0.00    -0.274 OA
BRANCH  13  15
ATOM     15  C   UNL     1      -0.331   0.663  -0.210  1.00  0.00     0.142 C 
ATOM     16  C   UNL     1       1.916  -0.631   0.366  1.00  0.00     0.076 C 
ATOM     17  C   UNL     1       0.597  -0.539  -0.392  1.00  0.00     0.192 C 
ATOM     18  N   UNL     1      -0.232  -1.725  -0.081  1.00  0.00    -0.343 N 
ATOM     19  C   UNL     1      -1.594  -1.281   0.227  1.00  0.00     0.261 C 
ATOM     20  H   UNL     1       0.159  -2.215   0.724  1.00  0.00     0.346 HD
ATOM     21  H   UNL     1      -0.246  -2.358  -0.880  1.00  0.00     0.346 HD
ATOM     22  C   UNL     1      -1.518   0.184   0.591  1.00  0.00     0.081 C 
ENDBRANCH  13  15
ENDBRANCH  11  13
ENDBRANCH  10  11
ENDBRANCH   9  10
ENDBRANCH   8   9
ENDBRANCH   6   8
ENDBRANCH   5   6
ENDBRANCH   4   5
ENDBRANCH   3   4
ENDBRANCH   2   3
ENDBRANCH   1   2
BRANCH   1  23
ATOM     23  C   UNL     1       3.060   7.013  -0.016  1.00  0.00     0.188 C 
BRANCH  23  24
ATOM     24  O   UNL     1       2.292   6.766   1.157  1.00  0.00    -0.377 OA
BRANCH  24  25
ATOM     25  C   UNL     1       1.438   7.788   1.668  1.00  0.00     0.188 C 
BRANCH  25  26
ATOM     26  C   UNL     1       1.824   9.274   1.499  1.00  0.00     0.188 C 
BRANCH  26  27
ATOM     27  O   UNL     1       3.116   9.491   0.960  1.00  0.00    -0.376 OA
BRANCH  27  28
ATOM     28  C   UNL     1       4.174   9.761   1.866  1.00  0.00     0.202 C 
BRANCH  28  29
ATOM     29  C   UNL     1       4.460   8.734   2.975  1.00  0.00     0.261 C 
BRANCH  29  30
ATOM     30  O   UNL     1       3.372   8.438   3.866  1.00  0.00    -0.460 OA
BRANCH  30  31
ATOM     31  C   UNL     1       2.858   9.454   4.584  1.00  0.00     0.338 C 
ATOM     32  O   UNL     1       3.229  10.619   4.600  1.00  0.00    -0.246 OA
BRANCH  31  33
ATOM     33  C   UNL     1       1.632   8.963   5.237  1.00  0.00     0.060 A 
ATOM     34  C   UNL     1       0.397   9.526   4.887  1.00  0.00     0.016 A 
ATOM     35  C   UNL     1       1.708   7.957   6.202  1.00  0.00     0.016 A 
ATOM     36  C   UNL     1      -0.765   9.109   5.533  1.00  0.00     0.010 A 
ATOM     37  C   UNL     1       0.546   7.557   6.864  1.00  0.00     0.010 A 
ATOM     38  C   UNL     1      -0.687   8.160   6.559  1.00  0.00    -0.014 A 
BRANCH  38  39
ATOM     39  C   UNL     1      -1.850   7.960   7.454  1.00  0.00     0.031 A 
ATOM     40  C   UNL     1      -1.865   8.681   8.773  1.00  0.00     0.074 A 
ATOM     41  C   UNL     1      -2.879   7.173   7.100  1.00  0.00     0.049 A 
ATOM     42  N   UNL     1      -2.744   8.632   9.739  1.00  0.00    -0.248 NA
ATOM     43  C   UNL     1      -0.726   9.574   9.037  1.00  0.00     0.031 C 
ATOM     44  C   UNL     1      -2.995   6.452   5.836  1.00  0.00     0.029 A 
ATOM     45  N   UNL     1      -4.018   6.840   7.789  1.00  0.00    -0.354 N 
ATOM     46  C   UNL     1      -2.256   9.473  10.732  1.00  0.00     0.074 A 
ATOM     47  C   UNL     1      -0.990   9.993  10.263  1.00  0.00     0.031 C 
ATOM     48  C   UNL     1      -4.136   5.741   5.846  1.00  0.00     0.029 A 
ATOM     49  C   UNL     1      -4.809   5.933   7.131  1.00  0.00     0.049 A 
ATOM     50  H   UNL     1      -4.245   7.216   8.670  1.00  0.00     0.167 HD
ATOM     51  C   UNL     1      -2.814   9.785  11.925  1.00  0.00     0.037 A 
ATOM     52  C   UNL     1      -5.932   5.307   7.533  1.00  0.00     0.037 A 
ATOM     53  C   UNL     1      -4.072   9.260  12.386  1.00  0.00     0.049 A 
ATOM     54  C   UNL     1      -6.510   5.623   8.887  1.00  0.00     0.074 A 
ATOM     55  C   UNL     1      -4.746   9.541  13.561  1.00  0.00     0.029 A 
ATOM     56  N   UNL     1      -4.837   8.327  11.700  1.00  0.00    -0.354 N 
ATOM     57  N   UNL     1      -6.066   6.447   9.806  1.00  0.00    -0.248 NA
ATOM     58  C   UNL     1      -7.750   4.926   9.258  1.00  0.00     0.031 C 
ATOM     59  C   UNL     1      -5.881   8.726  13.618  1.00  0.00     0.029 A 
ATOM     60  C   UNL     1      -5.955   7.990  12.445  1.00  0.00     0.049 A 
ATOM     61  H   UNL     1      -4.618   7.959  10.813  1.00  0.00     0.167 HD
ATOM     62  C   UNL     1      -6.981   6.388  10.851  1.00  0.00     0.074 A 
ATOM     63  C   UNL     1      -8.012   5.454  10.446  1.00  0.00     0.031 C 
ATOM     64  C   UNL     1      -6.971   7.050  12.035  1.00  0.00     0.037 A 
BRANCH  51  65
ATOM     65  C   UNL     1      -2.033  10.695  12.831  1.00  0.00     0.057 A 
ATOM     66  C   UNL     1      -1.808  12.045  12.529  1.00  0.00     0.134 A 
ATOM     67  C   UNL     1      -1.484  10.203  14.023  1.00  0.00     0.134 A 
ATOM     68  F   UNL     1      -2.290  12.578  11.396  1.00  0.00    -0.206 F 
ATOM     69  C   UNL     1      -1.030  12.859  13.355  1.00  0.00     0.040 A 
ATOM     70  C   UNL     1      -0.735  11.016  14.874  1.00  0.00     0.040 A 
ATOM     71  F   UNL     1      -1.663   8.921  14.378  1.00  0.00    -0.206 F 
ATOM     72  C   UNL     1      -0.495  12.345  14.535  1.00  0.00     0.006 A 
ENDBRANCH  51  65
BRANCH  52  73
ATOM     73  C   UNL     1      -6.567   4.304   6.642  1.00  0.00     0.057 A 
ATOM     74  C   UNL     1      -7.795   4.553   6.018  1.00  0.00     0.134 A 
ATOM     75  C   UNL     1      -5.946   3.077   6.375  1.00  0.00     0.134 A 
ATOM     76  F   UNL     1      -8.451   5.699   6.252  1.00  0.00    -0.206 F 
ATOM     77  C   UNL     1      -8.384   3.617   5.166  1.00  0.00     0.040 A 
ATOM     78  C   UNL     1      -6.510   2.144   5.505  1.00  0.00     0.040 A 
ATOM     79  F   UNL     1      -4.766   2.779   6.941  1.00  0.00    -0.206 F 
ATOM     80  C   UNL     1      -7.735   2.412   4.900  1.00  0.00     0.006 A 
ENDBRANCH  52  73
BRANCH  64  81
ATOM     81  C   UNL     1      -8.123   6.814  12.971  1.00  0.00     0.057 A 
ATOM     82  C   UNL     1      -8.297   5.599  13.648  1.00  0.00     0.134 A 
ATOM     83  C   UNL     1      -9.047   7.835  13.235  1.00  0.00     0.134 A 
ATOM     84  F   UNL     1      -7.455   4.576  13.436  1.00  0.00    -0.206 F 
ATOM     85  C   UNL     1      -9.361   5.401  14.531  1.00  0.00     0.040 A 
ATOM     86  C   UNL     1     -10.095   7.659  14.139  1.00  0.00     0.040 A 
ATOM     87  F   UNL     1      -8.934   9.028  12.631  1.00  0.00    -0.206 F 
ATOM     88  C   UNL     1     -10.258   6.436  14.784  1.00  0.00     0.006 A 
ENDBRANCH  64  81
ENDBRANCH  38  39
ENDBRANCH  31  33
ENDBRANCH  30  31
ENDBRANCH  29  30
ENDBRANCH  28  29
ENDBRANCH  27  28
ENDBRANCH  26  27
ENDBRANCH  25  26
ENDBRANCH  24  25
ENDBRANCH  23  24
ENDBRANCH   1  23
TORSDOF 25
