REMARK SMILES Cc1cc(/C=C2/C(=O)NC(=S)N=C2OCCOCCOCCOCCOC(=O)c2ccc(-c3c4nc(c(-c5c(F)cccc5F)c5ccc([nH]5)c(-c5c(F)cccc5F)c5nc(c(-c6c(F)cccc6F)c6ccc3[nH]6)C=C5)C=C4)cc2)c(C)n1-c1cccc(C(=O)[O-])c1
REMARK SMILES IDX 20 1 19 2 18 3 17 4 16 5 15 6 14 7 13 8 5 9 6 10 7 11 8 12
REMARK SMILES IDX 9 13 12 14 10 15 11 17 4 18 1 19 2 20 3 21 85 22 83 23 84 24
REMARK SMILES IDX 86 25 87 26 94 27 88 28 90 29 89 30 91 31 92 32 93 33 21 34
REMARK SMILES IDX 22 35 23 36 24 37 25 38 26 39 27 40 28 41 29 42 30 43 82 44
REMARK SMILES IDX 31 45 81 46 32 47 33 48 34 49 75 50 35 51 80 52 74 53 76 54
REMARK SMILES IDX 36 55 79 56 73 57 72 58 37 60 63 61 46 62 62 63 47 64 50 65
REMARK SMILES IDX 61 66 77 67 48 68 49 69 60 71 78 72 51 73 38 74 39 75 44 76
REMARK SMILES IDX 40 77 41 78 43 79 45 80 42 81 64 82 65 83 70 84 66 85 67 86
REMARK SMILES IDX 69 87 71 88 68 89 52 90 53 91 58 92 54 93 55 94 57 95 59 96
REMARK SMILES IDX 56 97
REMARK H PARENT 9 16 76 59 50 70
REMARK Flexibility Score: inf
ROOT
ATOM      1  O   UNL     1      -3.742  -0.792   3.758  1.00  0.00    -0.377 OA
ENDROOT
BRANCH   1   2
ATOM      2  C   UNL     1      -2.902  -1.431   4.700  1.00  0.00     0.188 C 
BRANCH   2   3
ATOM      3  C   UNL     1      -2.958  -1.127   6.218  1.00  0.00     0.188 C 
BRANCH   3   4
ATOM      4  O   UNL     1      -2.890   0.168   6.790  1.00  0.00    -0.376 OA
BRANCH   4   5
ATOM      5  C   UNL     1      -1.784   1.061   6.796  1.00  0.00     0.201 C 
BRANCH   5   6
ATOM      6  C   UNL     1      -0.339   0.671   7.190  1.00  0.00     0.260 C 
BRANCH   6   7
ATOM      7  O   UNL     1       0.312  -0.254   6.282  1.00  0.00    -0.475 OA
BRANCH   7   8
ATOM      8  C   UNL     1       0.276  -1.551   6.613  1.00  0.00     0.229 C 
ATOM      9  C   UNL     1       0.571  -2.410   4.138  1.00  0.00     0.029 C 
ATOM     10  C   UNL     1       0.385  -2.508   5.481  1.00  0.00     0.103 C 
ATOM     11  C   UNL     1       0.141  -3.929   5.939  1.00  0.00     0.262 C 
ATOM     12  O   UNL     1       0.151  -4.908   5.199  1.00  0.00    -0.269 OA
ATOM     13  N   UNL     1      -0.161  -4.091   7.263  1.00  0.00    -0.297 N 
ATOM     14  N   UNL     1       0.062  -1.848   7.847  1.00  0.00    -0.184 NA
ATOM     15  C   UNL     1      -0.203  -3.121   8.218  1.00  0.00     0.203 C 
ATOM     16  H   UNL     1      -0.371  -5.007   7.558  1.00  0.00     0.172 HD
ATOM     17  S   UNL     1      -0.658  -3.542   9.772  1.00  0.00    -0.038 S 
BRANCH   9  18
ATOM     18  C   UNL     1       0.726  -1.390   3.119  1.00  0.00    -0.003 A 
ATOM     19  C   UNL     1       1.316  -0.431  -0.474  1.00  0.00     0.065 C 
ATOM     20  C   UNL     1       1.033  -0.576   0.978  1.00  0.00     0.020 A 
ATOM     21  C   UNL     1       1.134  -1.706   1.779  1.00  0.00     0.031 A 
ATOM     22  N   UNL     1       0.681   0.464   1.806  1.00  0.00    -0.318 N 
ATOM     23  C   UNL     1       0.353  -0.062   3.053  1.00  0.00     0.027 A 
ATOM     24  C   UNL     1      -0.416   0.804   3.960  1.00  0.00     0.065 C 
BRANCH  22  25
ATOM     25  C   UNL     1       0.468   1.840   1.496  1.00  0.00     0.046 A 
ATOM     26  C   UNL     1       1.082   2.783   2.340  1.00  0.00     0.026 A 
ATOM     27  C   UNL     1      -0.623   2.206   0.694  1.00  0.00     0.036 A 
ATOM     28  C   UNL     1       0.574   4.074   2.438  1.00  0.00     0.003 A 
ATOM     29  C   UNL     1      -1.123   3.516   0.788  1.00  0.00    -0.001 A 
ATOM     30  C   UNL     1      -0.532   4.435   1.673  1.00  0.00     0.010 A 
BRANCH  29  31
ATOM     31  C   UNL     1      -2.321   3.959   0.049  1.00  0.00     0.072 C 
ATOM     32  O   UNL     1      -2.845   5.076   0.146  1.00  0.00    -0.545 OA
ATOM     33  O   UNL     1      -2.832   3.037  -0.771  1.00  0.00    -0.545 OA
ENDBRANCH  29  31
ENDBRANCH  22  25
ENDBRANCH   9  18
ENDBRANCH   7   8
ENDBRANCH   6   7
ENDBRANCH   5   6
ENDBRANCH   4   5
ENDBRANCH   3   4
ENDBRANCH   2   3
ENDBRANCH   1   2
BRANCH   1  34
ATOM     34  C   UNL     1      -3.882   0.608   3.800  1.00  0.00     0.188 C 
BRANCH  34  35
ATOM     35  C   UNL     1      -5.341   1.046   3.957  1.00  0.00     0.188 C 
BRANCH  35  36
ATOM     36  O   UNL     1      -6.237   0.119   4.548  1.00  0.00    -0.376 OA
BRANCH  36  37
ATOM     37  C   UNL     1      -6.441  -1.141   3.901  1.00  0.00     0.202 C 
BRANCH  37  38
ATOM     38  C   UNL     1      -7.097  -1.205   2.487  1.00  0.00     0.261 C 
BRANCH  38  39
ATOM     39  O   UNL     1      -6.329  -1.154   1.227  1.00  0.00    -0.460 OA
BRANCH  39  40
ATOM     40  C   UNL     1      -6.844  -0.324   0.250  1.00  0.00     0.338 C 
ATOM     41  O   UNL     1      -7.521   0.664   0.519  1.00  0.00    -0.246 OA
BRANCH  40  42
ATOM     42  C   UNL     1      -6.553  -0.636  -1.233  1.00  0.00     0.060 A 
ATOM     43  C   UNL     1      -5.794   0.266  -1.962  1.00  0.00     0.016 A 
ATOM     44  C   UNL     1      -7.261  -1.563  -2.039  1.00  0.00     0.016 A 
ATOM     45  C   UNL     1      -5.730   0.213  -3.403  1.00  0.00     0.010 A 
ATOM     46  C   UNL     1      -7.245  -1.562  -3.530  1.00  0.00     0.010 A 
ATOM     47  C   UNL     1      -6.494  -0.647  -4.289  1.00  0.00    -0.014 A 
BRANCH  47  48
ATOM     48  C   UNL     1      -6.618  -0.187  -5.890  1.00  0.00     0.031 A 
ATOM     49  C   UNL     1      -6.514   1.297  -5.801  1.00  0.00     0.074 A 
ATOM     50  C   UNL     1      -6.893  -0.571  -7.220  1.00  0.00     0.049 A 
ATOM     51  N   UNL     1      -7.347   1.953  -5.045  1.00  0.00    -0.248 NA
ATOM     52  C   UNL     1      -5.320   2.046  -6.196  1.00  0.00     0.031 C 
ATOM     53  C   UNL     1      -7.280  -1.895  -7.744  1.00  0.00     0.029 A 
ATOM     54  N   UNL     1      -6.904   0.167  -8.474  1.00  0.00    -0.354 N 
ATOM     55  C   UNL     1      -6.966   3.264  -5.114  1.00  0.00     0.074 A 
ATOM     56  C   UNL     1      -5.609   3.228  -5.639  1.00  0.00     0.031 C 
ATOM     57  C   UNL     1      -7.353  -1.916  -9.113  1.00  0.00     0.029 A 
ATOM     58  C   UNL     1      -7.093  -0.596  -9.694  1.00  0.00     0.049 A 
ATOM     59  H   UNL     1      -6.788   1.145  -8.493  1.00  0.00     0.167 HD
ATOM     60  C   UNL     1      -7.964   4.164  -5.335  1.00  0.00     0.037 A 
ATOM     61  C   UNL     1      -7.133  -0.224 -11.048  1.00  0.00     0.037 A 
ATOM     62  C   UNL     1      -7.913   4.711  -6.660  1.00  0.00     0.049 A 
ATOM     63  C   UNL     1      -7.522   1.190 -11.102  1.00  0.00     0.074 A 
ATOM     64  C   UNL     1      -6.880   5.133  -7.473  1.00  0.00     0.029 A 
ATOM     65  N   UNL     1      -8.971   4.416  -7.492  1.00  0.00    -0.354 N 
ATOM     66  N   UNL     1      -8.764   1.538 -10.966  1.00  0.00    -0.248 NA
ATOM     67  C   UNL     1      -6.617   2.263 -11.506  1.00  0.00     0.031 C 
ATOM     68  C   UNL     1      -7.158   4.543  -8.726  1.00  0.00     0.029 A 
ATOM     69  C   UNL     1      -8.478   4.108  -8.738  1.00  0.00     0.049 A 
ATOM     70  H   UNL     1      -9.922   4.425  -7.237  1.00  0.00     0.167 HD
ATOM     71  C   UNL     1      -8.696   2.872 -10.753  1.00  0.00     0.074 A 
ATOM     72  C   UNL     1      -7.453   3.296 -11.369  1.00  0.00     0.031 C 
ATOM     73  C   UNL     1      -9.285   3.294  -9.611  1.00  0.00     0.037 A 
BRANCH  60  74
ATOM     74  C   UNL     1      -9.232   3.839  -4.593  1.00  0.00     0.057 A 
ATOM     75  C   UNL     1      -9.562   4.572  -3.454  1.00  0.00     0.134 A 
ATOM     76  C   UNL     1     -10.019   2.705  -4.876  1.00  0.00     0.134 A 
ATOM     77  F   UNL     1      -8.888   5.692  -3.150  1.00  0.00    -0.206 F 
ATOM     78  C   UNL     1     -10.579   4.155  -2.590  1.00  0.00     0.040 A 
ATOM     79  C   UNL     1     -10.995   2.246  -3.993  1.00  0.00     0.040 A 
ATOM     80  F   UNL     1      -9.829   2.001  -6.004  1.00  0.00    -0.206 F 
ATOM     81  C   UNL     1     -11.269   2.968  -2.837  1.00  0.00     0.006 A 
ENDBRANCH  60  74
BRANCH  61  82
ATOM     82  C   UNL     1      -7.146  -0.744 -12.532  1.00  0.00     0.057 A 
ATOM     83  C   UNL     1      -7.886  -0.063 -13.567  1.00  0.00     0.134 A 
ATOM     84  C   UNL     1      -6.152  -1.578 -13.054  1.00  0.00     0.134 A 
ATOM     85  F   UNL     1      -8.924   0.736 -13.287  1.00  0.00    -0.206 F 
ATOM     86  C   UNL     1      -7.578  -0.100 -14.944  1.00  0.00     0.040 A 
ATOM     87  C   UNL     1      -5.864  -1.661 -14.450  1.00  0.00     0.040 A 
ATOM     88  F   UNL     1      -5.363  -2.280 -12.231  1.00  0.00    -0.206 F 
ATOM     89  C   UNL     1      -6.545  -0.892 -15.393  1.00  0.00     0.006 A 
ENDBRANCH  61  82
BRANCH  73  90
ATOM     90  C   UNL     1     -10.631   2.670  -9.264  1.00  0.00     0.057 A 
ATOM     91  C   UNL     1     -10.961   1.294  -9.242  1.00  0.00     0.134 A 
ATOM     92  C   UNL     1     -11.697   3.542  -9.014  1.00  0.00     0.134 A 
ATOM     93  F   UNL     1     -10.038   0.326  -9.335  1.00  0.00    -0.206 F 
ATOM     94  C   UNL     1     -12.278   0.838  -9.092  1.00  0.00     0.040 A 
ATOM     95  C   UNL     1     -13.005   3.095  -8.800  1.00  0.00     0.040 A 
ATOM     96  F   UNL     1     -11.481   4.866  -8.959  1.00  0.00    -0.206 F 
ATOM     97  C   UNL     1     -13.307   1.740  -8.870  1.00  0.00     0.006 A 
ENDBRANCH  73  90
ENDBRANCH  47  48
ENDBRANCH  40  42
ENDBRANCH  39  40
ENDBRANCH  38  39
ENDBRANCH  37  38
ENDBRANCH  36  37
ENDBRANCH  35  36
ENDBRANCH  34  35
ENDBRANCH   1  34
TORSDOF 22
