REMARK SMILES CC(C)C[NH2+][C@@H](CC(=O)Nc1cccc(Cl)c1)C(=O)OCCOCCOCCOCCOC(=O)c1ccc(-c2c3nc(c(-c4c(F)cccc4F)c4ccc([nH]4)c(-c4c(F)cccc4F)c4nc(c(-c5c(F)cccc5F)c5ccc2[nH]5)C=C4)C=C3)cc1
REMARK SMILES IDX 25 1 24 2 23 3 22 4 21 5 20 6 18 7 19 8 6 9 5 10 4 13 2 14
REMARK SMILES IDX 1 15 3 16 7 17 8 18 9 19 10 20 11 22 12 23 17 24 13 25 15 26
REMARK SMILES IDX 14 27 16 28 26 29 27 30 28 31 29 32 30 33 31 34 32 35 33 36
REMARK SMILES IDX 34 37 35 38 36 39 88 40 37 41 87 42 38 43 39 44 40 45 81 46
REMARK SMILES IDX 41 47 86 48 80 49 82 50 42 51 85 52 79 53 78 54 43 56 69 57
REMARK SMILES IDX 52 58 68 59 53 60 56 61 67 62 83 63 54 64 55 65 66 67 84 68
REMARK SMILES IDX 57 69 44 70 45 71 50 72 46 73 47 74 49 75 51 76 48 77 70 78
REMARK SMILES IDX 71 79 76 80 72 81 73 82 75 83 77 84 74 85 58 86 59 87 64 88
REMARK SMILES IDX 60 89 61 90 63 91 65 92 62 93
REMARK H PARENT 5 11 5 12 10 21 82 55 56 66
REMARK Flexibility Score: inf
ROOT
ATOM      1  C   UNL     1      -2.103  -0.134   4.136  1.00  0.00     0.188 C 
ENDROOT
BRANCH   1   2
ATOM      2  C   UNL     1      -3.516   0.286   4.557  1.00  0.00     0.188 C 
BRANCH   2   3
ATOM      3  O   UNL     1      -4.450  -0.676   5.026  1.00  0.00    -0.376 OA
BRANCH   3   4
ATOM      4  C   UNL     1      -4.539  -1.954   4.417  1.00  0.00     0.202 C 
BRANCH   4   5
ATOM      5  C   UNL     1      -4.597  -2.131   2.888  1.00  0.00     0.261 C 
BRANCH   5   6
ATOM      6  O   UNL     1      -3.875  -1.190   2.078  1.00  0.00    -0.459 OA
BRANCH   6   7
ATOM      7  C   UNL     1      -4.624  -0.281   1.387  1.00  0.00     0.365 C 
ATOM      8  O   UNL     1      -5.834  -0.135   1.508  1.00  0.00    -0.245 OA
BRANCH   7   9
ATOM      9  C   UNL     1      -3.766   0.493   0.354  1.00  0.00     0.302 C 
BRANCH   9  10
ATOM     10  N   UNL     1      -2.485   0.916   0.949  1.00  0.00    -0.334 N 
ATOM     11  H   UNL     1      -2.688   1.584   1.693  1.00  0.00     0.347 HD
ATOM     12  H   UNL     1      -2.031   0.065   1.281  1.00  0.00     0.347 HD
BRANCH  10  13
ATOM     13  C   UNL     1      -1.543   1.546   0.015  1.00  0.00     0.264 C 
BRANCH  13  14
ATOM     14  C   UNL     1       0.248   1.342  -0.001  1.00  0.00     0.038 C 
ATOM     15  C   UNL     1       1.497  -0.465  -0.042  1.00  0.00     0.013 C 
ATOM     16  C   UNL     1       0.393   2.784  -1.011  1.00  0.00     0.013 C 
ENDBRANCH  13  14
ENDBRANCH  10  13
ENDBRANCH   9  10
BRANCH   9  17
ATOM     17  C   UNL     1      -3.627  -0.368  -0.899  1.00  0.00     0.177 C 
BRANCH  17  18
ATOM     18  C   UNL     1      -2.799  -1.637  -0.761  1.00  0.00     0.231 C 
ATOM     19  O   UNL     1      -3.369  -2.733  -0.763  1.00  0.00    -0.274 OA
ATOM     20  N   UNL     1      -1.431  -1.638  -0.716  1.00  0.00    -0.326 N 
ATOM     21  H   UNL     1      -1.013  -2.504  -0.924  1.00  0.00     0.169 HD
BRANCH  20  22
ATOM     22  C   UNL     1      -0.528  -0.606  -0.422  1.00  0.00     0.042 A 
ATOM     23  C   UNL     1      -0.046  -0.331   1.306  1.00  0.00     0.026 A 
ATOM     24  C   UNL     1       0.451   0.121  -1.747  1.00  0.00     0.046 A 
ATOM     25  C   UNL     1       1.408   0.654   1.717  1.00  0.00     0.004 A 
ATOM     26  C   UNL     1       1.935   1.056  -1.334  1.00  0.00     0.043 A 
ATOM     27  C   UNL     1       2.372   1.389   0.392  1.00  0.00     0.020 A 
ATOM     28  Cl  UNL     1       3.050   1.484  -2.580  1.00  0.00    -0.084 Cl
ENDBRANCH  20  22
ENDBRANCH  17  18
ENDBRANCH   9  17
ENDBRANCH   7   9
ENDBRANCH   6   7
ENDBRANCH   5   6
ENDBRANCH   4   5
ENDBRANCH   3   4
ENDBRANCH   2   3
ENDBRANCH   1   2
BRANCH   1  29
ATOM     29  O   UNL     1      -1.898  -1.530   4.010  1.00  0.00    -0.377 OA
BRANCH  29  30
ATOM     30  C   UNL     1      -1.156  -2.149   5.054  1.00  0.00     0.188 C 
BRANCH  30  31
ATOM     31  C   UNL     1      -1.446  -1.688   6.497  1.00  0.00     0.188 C 
BRANCH  31  32
ATOM     32  O   UNL     1      -1.404  -0.280   6.671  1.00  0.00    -0.376 OA
BRANCH  32  33
ATOM     33  C   UNL     1      -0.210   0.350   7.108  1.00  0.00     0.202 C 
BRANCH  33  34
ATOM     34  C   UNL     1       1.087   0.210   6.289  1.00  0.00     0.261 C 
BRANCH  34  35
ATOM     35  O   UNL     1       1.502  -1.114   5.923  1.00  0.00    -0.460 OA
BRANCH  35  36
ATOM     36  C   UNL     1       1.807  -1.977   6.914  1.00  0.00     0.338 C 
ATOM     37  O   UNL     1       1.810  -1.748   8.108  1.00  0.00    -0.246 OA
BRANCH  36  38
ATOM     38  C   UNL     1       1.961  -3.322   6.312  1.00  0.00     0.060 A 
ATOM     39  C   UNL     1       1.072  -4.337   6.688  1.00  0.00     0.016 A 
ATOM     40  C   UNL     1       2.976  -3.583   5.389  1.00  0.00     0.016 A 
ATOM     41  C   UNL     1       1.215  -5.625   6.168  1.00  0.00     0.010 A 
ATOM     42  C   UNL     1       3.134  -4.880   4.888  1.00  0.00     0.010 A 
ATOM     43  C   UNL     1       2.272  -5.915   5.297  1.00  0.00    -0.014 A 
BRANCH  43  44
ATOM     44  C   UNL     1       2.573  -7.324   4.943  1.00  0.00     0.031 A 
ATOM     45  C   UNL     1       3.683  -8.033   5.671  1.00  0.00     0.074 A 
ATOM     46  C   UNL     1       1.862  -7.975   4.005  1.00  0.00     0.049 A 
ATOM     47  N   UNL     1       4.164  -9.236   5.488  1.00  0.00    -0.248 NA
ATOM     48  C   UNL     1       4.340  -7.279   6.750  1.00  0.00     0.031 C 
ATOM     49  C   UNL     1       0.732  -7.420   3.265  1.00  0.00     0.029 A 
ATOM     50  N   UNL     1       1.999  -9.248   3.509  1.00  0.00    -0.354 N 
ATOM     51  C   UNL     1       5.184  -9.380   6.420  1.00  0.00     0.074 A 
ATOM     52  C   UNL     1       5.273  -8.131   7.146  1.00  0.00     0.031 C 
ATOM     53  C   UNL     1       0.286  -8.343   2.395  1.00  0.00     0.029 A 
ATOM     54  C   UNL     1       1.124  -9.537   2.490  1.00  0.00     0.049 A 
ATOM     55  H   UNL     1       2.660  -9.892   3.850  1.00  0.00     0.167 HD
ATOM     56  C   UNL     1       5.971 -10.457   6.655  1.00  0.00     0.037 A 
ATOM     57  C   UNL     1       1.032 -10.628   1.704  1.00  0.00     0.037 A 
ATOM     58  C   UNL     1       5.884 -11.696   5.926  1.00  0.00     0.049 A 
ATOM     59  C   UNL     1       1.982 -11.779   1.921  1.00  0.00     0.074 A 
ATOM     60  C   UNL     1       6.623 -12.853   6.102  1.00  0.00     0.029 A 
ATOM     61  N   UNL     1       5.014 -11.935   4.872  1.00  0.00    -0.354 N 
ATOM     62  N   UNL     1       2.924 -11.918   2.822  1.00  0.00    -0.248 NA
ATOM     63  C   UNL     1       1.854 -12.925   1.009  1.00  0.00     0.031 C 
ATOM     64  C   UNL     1       6.249 -13.766   5.111  1.00  0.00     0.029 A 
ATOM     65  C   UNL     1       5.226 -13.206   4.363  1.00  0.00     0.049 A 
ATOM     66  H   UNL     1       4.345 -11.296   4.537  1.00  0.00     0.167 HD
ATOM     67  C   UNL     1       3.480 -13.174   2.604  1.00  0.00     0.074 A 
ATOM     68  C   UNL     1       2.756 -13.764   1.498  1.00  0.00     0.031 C 
ATOM     69  C   UNL     1       4.499 -13.784   3.260  1.00  0.00     0.037 A 
BRANCH  56  70
ATOM     70  C   UNL     1       7.022 -10.331   7.721  1.00  0.00     0.057 A 
ATOM     71  C   UNL     1       6.699 -10.250   9.082  1.00  0.00     0.134 A 
ATOM     72  C   UNL     1       8.382 -10.326   7.381  1.00  0.00     0.134 A 
ATOM     73  F   UNL     1       5.417 -10.236   9.476  1.00  0.00    -0.206 F 
ATOM     74  C   UNL     1       7.687 -10.142  10.062  1.00  0.00     0.040 A 
ATOM     75  C   UNL     1       9.379 -10.250   8.354  1.00  0.00     0.040 A 
ATOM     76  F   UNL     1       8.764 -10.406   6.098  1.00  0.00    -0.206 F 
ATOM     77  C   UNL     1       9.032 -10.150   9.700  1.00  0.00     0.006 A 
ENDBRANCH  56  70
BRANCH  57  78
ATOM     78  C   UNL     1       0.021 -10.682   0.616  1.00  0.00     0.057 A 
ATOM     79  C   UNL     1      -1.038 -11.598   0.650  1.00  0.00     0.134 A 
ATOM     80  C   UNL     1       0.106  -9.841  -0.501  1.00  0.00     0.134 A 
ATOM     81  F   UNL     1      -1.159 -12.449   1.679  1.00  0.00    -0.206 F 
ATOM     82  C   UNL     1      -1.961 -11.690  -0.393  1.00  0.00     0.040 A 
ATOM     83  C   UNL     1      -0.828  -9.900  -1.537  1.00  0.00     0.040 A 
ATOM     84  F   UNL     1       1.096  -8.941  -0.599  1.00  0.00    -0.206 F 
ATOM     85  C   UNL     1      -1.860 -10.835  -1.488  1.00  0.00     0.006 A 
ENDBRANCH  57  78
BRANCH  69  86
ATOM     86  C   UNL     1       4.874 -15.172   2.821  1.00  0.00     0.057 A 
ATOM     87  C   UNL     1       5.495 -15.420   1.590  1.00  0.00     0.134 A 
ATOM     88  C   UNL     1       4.645 -16.273   3.659  1.00  0.00     0.134 A 
ATOM     89  F   UNL     1       5.735 -14.415   0.734  1.00  0.00    -0.206 F 
ATOM     90  C   UNL     1       5.849 -16.713   1.196  1.00  0.00     0.040 A 
ATOM     91  C   UNL     1       5.024 -17.564   3.291  1.00  0.00     0.040 A 
ATOM     92  F   UNL     1       4.065 -16.108   4.857  1.00  0.00    -0.206 F 
ATOM     93  C   UNL     1       5.620 -17.788   2.052  1.00  0.00     0.006 A 
ENDBRANCH  69  86
ENDBRANCH  43  44
ENDBRANCH  36  38
ENDBRANCH  35  36
ENDBRANCH  34  35
ENDBRANCH  33  34
ENDBRANCH  32  33
ENDBRANCH  31  32
ENDBRANCH  30  31
ENDBRANCH  29  30
ENDBRANCH   1  29
TORSDOF 26
