REMARK SMILES CC[C@H](C(=O)OCCOCCOCCOCCOC(=O)c1ccc(-c2c3nc(c(-c4c(F)cccc4F)c4ccc([nH]4)c(-c4c(F)cccc4F)c4nc(c(-c5c(F)cccc5F)c5ccc2[nH]5)C=C4)C=C3)cc1)C1=CCCc2c(C)ccc(C)c21
REMARK SMILES IDX 13 1 12 2 11 3 10 4 9 5 8 6 7 7 6 8 4 9 5 10 3 11 2 12 1 13
REMARK SMILES IDX 75 14 76 15 86 16 77 17 79 18 84 19 78 20 80 21 83 22 85 23
REMARK SMILES IDX 81 24 82 25 14 26 15 27 16 28 17 29 18 30 19 31 20 32 21 33
REMARK SMILES IDX 22 34 74 35 23 36 73 37 24 38 25 39 26 40 67 41 27 42 72 43
REMARK SMILES IDX 66 44 68 45 28 46 71 47 65 48 64 49 29 51 55 52 38 53 54 54
REMARK SMILES IDX 39 55 42 56 53 57 69 58 40 59 41 60 52 62 70 63 43 64 30 65
REMARK SMILES IDX 31 66 36 67 32 68 33 69 35 70 37 71 34 72 56 73 57 74 62 75
REMARK SMILES IDX 58 76 59 77 61 78 63 79 60 80 44 81 45 82 50 83 46 84 47 85
REMARK SMILES IDX 49 86 51 87 48 88
REMARK H PARENT 68 50 42 61
REMARK Flexibility Score: inf
ROOT
ATOM      1  C   UNL     1       2.727   1.507   1.521  1.00  0.00     0.188 C 
ENDROOT
BRANCH   1   2
ATOM      2  O   UNL     1       3.098   0.378   0.735  1.00  0.00    -0.377 OA
BRANCH   2   3
ATOM      3  C   UNL     1       3.039   0.487  -0.684  1.00  0.00     0.188 C 
BRANCH   3   4
ATOM      4  C   UNL     1       1.907   1.287  -1.351  1.00  0.00     0.188 C 
BRANCH   4   5
ATOM      5  O   UNL     1       1.261   2.199  -0.488  1.00  0.00    -0.376 OA
BRANCH   5   6
ATOM      6  C   UNL     1      -0.111   2.485  -0.656  1.00  0.00     0.202 C 
BRANCH   6   7
ATOM      7  C   UNL     1      -1.004   1.310  -0.272  1.00  0.00     0.261 C 
BRANCH   7   8
ATOM      8  O   UNL     1      -0.999   0.146  -1.127  1.00  0.00    -0.463 OA
BRANCH   8   9
ATOM      9  C   UNL     1      -0.805   0.215  -2.470  1.00  0.00     0.313 C 
ATOM     10  O   UNL     1      -0.675   1.258  -3.100  1.00  0.00    -0.252 OA
BRANCH   9  11
ATOM     11  C   UNL     1      -0.756  -1.179  -3.121  1.00  0.00     0.129 C 
BRANCH  11  12
ATOM     12  C   UNL     1       0.117  -2.215  -2.336  1.00  0.00     0.017 C 
ATOM     13  C   UNL     1      -0.047  -2.355  -0.821  1.00  0.00     0.005 C 
ENDBRANCH  11  12
BRANCH  11  14
ATOM     14  C   UNL     1      -2.138  -1.696  -3.607  1.00  0.00    -0.030 C 
ATOM     15  C   UNL     1      -2.951  -2.336  -2.749  1.00  0.00    -0.022 C 
ATOM     16  C   UNL     1      -2.941  -0.735  -4.423  1.00  0.00    -0.015 A 
ATOM     17  C   UNL     1      -3.774  -1.422  -1.844  1.00  0.00     0.032 C 
ATOM     18  C   UNL     1      -3.440   0.354  -3.703  1.00  0.00    -0.037 A 
ATOM     19  C   UNL     1      -3.423  -0.894  -5.721  1.00  0.00    -0.043 A 
ATOM     20  C   UNL     1      -3.854   0.082  -2.268  1.00  0.00     0.040 C 
ATOM     21  C   UNL     1      -3.729   1.546  -4.369  1.00  0.00    -0.047 A 
ATOM     22  C   UNL     1      -4.022   0.213  -6.353  1.00  0.00     0.004 A 
ATOM     23  C   UNL     1      -3.549  -2.243  -6.364  1.00  0.00     0.045 C 
ATOM     24  C   UNL     1      -3.599   2.883  -3.704  1.00  0.00     0.044 C 
ATOM     25  C   UNL     1      -4.064   1.456  -5.717  1.00  0.00     0.004 A 
ENDBRANCH  11  14
ENDBRANCH   9  11
ENDBRANCH   8   9
ENDBRANCH   7   8
ENDBRANCH   6   7
ENDBRANCH   5   6
ENDBRANCH   4   5
ENDBRANCH   3   4
ENDBRANCH   2   3
ENDBRANCH   1   2
BRANCH   1  26
ATOM     26  C   UNL     1       3.266   2.912   1.140  1.00  0.00     0.188 C 
BRANCH  26  27
ATOM     27  O   UNL     1       3.868   2.988  -0.144  1.00  0.00    -0.376 OA
BRANCH  27  28
ATOM     28  C   UNL     1       5.283   3.086  -0.199  1.00  0.00     0.202 C 
BRANCH  28  29
ATOM     29  C   UNL     1       6.118   1.947   0.411  1.00  0.00     0.261 C 
BRANCH  29  30
ATOM     30  O   UNL     1       5.763   1.534   1.739  1.00  0.00    -0.460 OA
BRANCH  30  31
ATOM     31  C   UNL     1       5.994   2.404   2.742  1.00  0.00     0.338 C 
ATOM     32  O   UNL     1       6.500   3.511   2.657  1.00  0.00    -0.246 OA
BRANCH  31  33
ATOM     33  C   UNL     1       5.332   1.872   3.952  1.00  0.00     0.060 A 
ATOM     34  C   UNL     1       4.343   2.643   4.581  1.00  0.00     0.016 A 
ATOM     35  C   UNL     1       5.665   0.608   4.445  1.00  0.00     0.016 A 
ATOM     36  C   UNL     1       3.705   2.163   5.725  1.00  0.00     0.010 A 
ATOM     37  C   UNL     1       5.050   0.143   5.610  1.00  0.00     0.010 A 
ATOM     38  C   UNL     1       4.095   0.934   6.272  1.00  0.00    -0.014 A 
BRANCH  38  39
ATOM     39  C   UNL     1       3.682   0.588   7.652  1.00  0.00     0.031 A 
ATOM     40  C   UNL     1       4.629   0.921   8.772  1.00  0.00     0.074 A 
ATOM     41  C   UNL     1       2.495   0.014   7.914  1.00  0.00     0.049 A 
ATOM     42  N   UNL     1       4.529   0.673  10.051  1.00  0.00    -0.248 NA
ATOM     43  C   UNL     1       5.862   1.632   8.390  1.00  0.00     0.031 C 
ATOM     44  C   UNL     1       1.474  -0.312   6.922  1.00  0.00     0.029 A 
ATOM     45  N   UNL     1       1.958  -0.404   9.106  1.00  0.00    -0.354 N 
ATOM     46  C   UNL     1       5.684   1.189  10.624  1.00  0.00     0.074 A 
ATOM     47  C   UNL     1       6.486   1.736   9.552  1.00  0.00     0.031 C 
ATOM     48  C   UNL     1       0.435  -0.895   7.546  1.00  0.00     0.029 A 
ATOM     49  C   UNL     1       0.734  -1.013   8.973  1.00  0.00     0.049 A 
ATOM     50  H   UNL     1       2.406  -0.280   9.973  1.00  0.00     0.167 HD
ATOM     51  C   UNL     1       6.042   1.213  11.929  1.00  0.00     0.037 A 
ATOM     52  C   UNL     1      -0.038  -1.618   9.897  1.00  0.00     0.037 A 
ATOM     53  C   UNL     1       5.246   0.660  12.992  1.00  0.00     0.049 A 
ATOM     54  C   UNL     1       0.423  -1.658  11.332  1.00  0.00     0.074 A 
ATOM     55  C   UNL     1       5.514   0.639  14.348  1.00  0.00     0.029 A 
ATOM     56  N   UNL     1       4.030   0.018  12.813  1.00  0.00    -0.354 N 
ATOM     57  N   UNL     1       1.506  -1.150  11.871  1.00  0.00    -0.248 NA
ATOM     58  C   UNL     1      -0.449  -2.356  12.289  1.00  0.00     0.031 C 
ATOM     59  C   UNL     1       4.487  -0.065  14.985  1.00  0.00     0.029 A 
ATOM     60  C   UNL     1       3.548  -0.427  14.032  1.00  0.00     0.049 A 
ATOM     61  H   UNL     1       3.576  -0.103  11.947  1.00  0.00     0.167 HD
ATOM     62  C   UNL     1       1.429  -1.436  13.230  1.00  0.00     0.074 A 
ATOM     63  C   UNL     1       0.187  -2.153  13.434  1.00  0.00     0.031 C 
ATOM     64  C   UNL     1       2.304  -1.131  14.220  1.00  0.00     0.037 A 
BRANCH  51  65
ATOM     65  C   UNL     1       7.369   1.827  12.268  1.00  0.00     0.057 A 
ATOM     66  C   UNL     1       7.598   3.206  12.166  1.00  0.00     0.134 A 
ATOM     67  C   UNL     1       8.428   1.029  12.718  1.00  0.00     0.134 A 
ATOM     68  F   UNL     1       6.631   4.025  11.723  1.00  0.00    -0.206 F 
ATOM     69  C   UNL     1       8.839   3.764  12.474  1.00  0.00     0.040 A 
ATOM     70  C   UNL     1       9.665   1.579  13.057  1.00  0.00     0.040 A 
ATOM     71  F   UNL     1       8.277  -0.299  12.840  1.00  0.00    -0.206 F 
ATOM     72  C   UNL     1       9.875   2.950  12.929  1.00  0.00     0.006 A 
ENDBRANCH  51  65
BRANCH  52  73
ATOM     73  C   UNL     1      -1.321  -2.253   9.499  1.00  0.00     0.057 A 
ATOM     74  C   UNL     1      -2.550  -1.741   9.933  1.00  0.00     0.134 A 
ATOM     75  C   UNL     1      -1.349  -3.404   8.703  1.00  0.00     0.134 A 
ATOM     76  F   UNL     1      -2.589  -0.656  10.721  1.00  0.00    -0.206 F 
ATOM     77  C   UNL     1      -3.757  -2.361   9.606  1.00  0.00     0.040 A 
ATOM     78  C   UNL     1      -2.551  -4.018   8.345  1.00  0.00     0.040 A 
ATOM     79  F   UNL     1      -0.207  -3.947   8.256  1.00  0.00    -0.206 F 
ATOM     80  C   UNL     1      -3.760  -3.501   8.804  1.00  0.00     0.006 A 
ENDBRANCH  52  73
BRANCH  64  81
ATOM     81  C   UNL     1       1.932  -1.527  15.620  1.00  0.00     0.057 A 
ATOM     82  C   UNL     1       1.934  -2.863  16.043  1.00  0.00     0.134 A 
ATOM     83  C   UNL     1       1.611  -0.550  16.573  1.00  0.00     0.134 A 
ATOM     84  F   UNL     1       2.222  -3.849  15.179  1.00  0.00    -0.206 F 
ATOM     85  C   UNL     1       1.606  -3.214  17.354  1.00  0.00     0.040 A 
ATOM     86  C   UNL     1       1.312  -0.886  17.894  1.00  0.00     0.040 A 
ATOM     87  F   UNL     1       1.602   0.750  16.239  1.00  0.00    -0.206 F 
ATOM     88  C   UNL     1       1.302  -2.223  18.285  1.00  0.00     0.006 A 
ENDBRANCH  64  81
ENDBRANCH  38  39
ENDBRANCH  31  33
ENDBRANCH  30  31
ENDBRANCH  29  30
ENDBRANCH  28  29
ENDBRANCH  27  28
ENDBRANCH  26  27
ENDBRANCH   1  26
TORSDOF 22
