REMARK SMILES COc1ccccc1NC(=O)N[C@@](C)(C(=O)OCCOCCOCCOCCOC(=O)c1ccc(-c2c3nc(c(-c4c(F)cccc4F)c4ccc([nH]4)c(-c4c(F)cccc4F)c4nc(c(-c5c(F)cccc5F)c5ccc2[nH]5)C=C4)C=C3)cc1)C(F)(F)F
REMARK SMILES IDX 22 1 21 2 20 3 19 4 18 5 17 6 15 7 16 8 13 9 14 10 12 11
REMARK SMILES IDX 9 12 10 13 11 15 8 17 3 18 4 19 5 20 7 21 6 22 2 23 1 24
REMARK SMILES IDX 86 25 87 26 88 27 89 28 23 29 24 30 25 31 26 32 27 33 28 34
REMARK SMILES IDX 29 35 30 36 31 37 32 38 33 39 85 40 34 41 84 42 35 43 36 44
REMARK SMILES IDX 37 45 78 46 38 47 83 48 77 49 79 50 39 51 82 52 76 53 75 54
REMARK SMILES IDX 40 56 66 57 49 58 65 59 50 60 53 61 64 62 80 63 51 64 52 65
REMARK SMILES IDX 63 67 81 68 54 69 41 70 42 71 47 72 43 73 44 74 46 75 48 76
REMARK SMILES IDX 45 77 67 78 68 79 73 80 69 81 70 82 72 83 74 84 71 85 55 86
REMARK SMILES IDX 56 87 61 88 57 89 58 90 60 91 62 92 59 93
REMARK H PARENT 9 14 12 16 79 55 53 66
REMARK Flexibility Score: inf
ROOT
ATOM      1  C   UNL     1       5.433  -2.389  -3.959  1.00  0.00     0.188 C 
ENDROOT
BRANCH   1   2
ATOM      2  C   UNL     1       4.530  -3.009  -5.041  1.00  0.00     0.188 C 
BRANCH   2   3
ATOM      3  O   UNL     1       5.229  -3.671  -6.076  1.00  0.00    -0.376 OA
BRANCH   3   4
ATOM      4  C   UNL     1       5.521  -2.987  -7.280  1.00  0.00     0.202 C 
BRANCH   4   5
ATOM      5  C   UNL     1       5.760  -1.463  -7.360  1.00  0.00     0.261 C 
BRANCH   5   6
ATOM      6  O   UNL     1       5.471  -0.717  -6.165  1.00  0.00    -0.461 OA
BRANCH   6   7
ATOM      7  C   UNL     1       4.993   0.539  -6.366  1.00  0.00     0.341 C 
ATOM      8  O   UNL     1       5.113   1.128  -7.438  1.00  0.00    -0.249 OA
BRANCH   7   9
ATOM      9  C   UNL     1       4.019   0.997  -5.250  1.00  0.00     0.232 C 
ATOM     10  C   UNL     1       3.906   2.516  -5.445  1.00  0.00     0.058 C 
BRANCH   9  11
ATOM     11  N   UNL     1       4.505   0.825  -3.832  1.00  0.00    -0.314 N 
ATOM     12  N   UNL     1       2.809   0.745  -2.106  1.00  0.00    -0.305 N 
ATOM     13  C   UNL     1       4.056   0.881  -2.572  1.00  0.00     0.320 C 
ATOM     14  H   UNL     1       2.808   0.700  -1.122  1.00  0.00     0.172 HD
ATOM     15  O   UNL     1       4.941   0.930  -1.705  1.00  0.00    -0.248 OA
ATOM     16  H   UNL     1       5.463   0.598  -3.834  1.00  0.00     0.166 HD
BRANCH  12  17
ATOM     17  C   UNL     1       1.506   0.649  -2.607  1.00  0.00     0.085 A 
ATOM     18  C   UNL     1       0.665  -0.341  -2.069  1.00  0.00     0.142 A 
ATOM     19  C   UNL     1      -0.490  -0.742  -2.741  1.00  0.00     0.048 A 
ATOM     20  C   UNL     1      -0.903  -0.032  -3.862  1.00  0.00     0.004 A 
ATOM     21  C   UNL     1       0.991   1.467  -3.596  1.00  0.00     0.030 A 
ATOM     22  C   UNL     1      -0.212   1.120  -4.232  1.00  0.00     0.002 A 
BRANCH  18  23
ATOM     23  O   UNL     1       0.992  -0.996  -0.908  1.00  0.00    -0.495 OA
ATOM     24  C   UNL     1       0.667  -0.172   0.221  1.00  0.00     0.278 C 
ENDBRANCH  18  23
ENDBRANCH  12  17
ENDBRANCH   9  11
BRANCH   9  25
ATOM     25  C   UNL     1       2.779   0.183  -5.698  1.00  0.00     0.422 C 
ATOM     26  F   UNL     1       2.372  -0.685  -4.745  1.00  0.00    -0.168 F 
ATOM     27  F   UNL     1       1.753   0.995  -6.031  1.00  0.00    -0.168 F 
ATOM     28  F   UNL     1       2.964  -0.589  -6.800  1.00  0.00    -0.168 F 
ENDBRANCH   9  25
ENDBRANCH   7   9
ENDBRANCH   6   7
ENDBRANCH   5   6
ENDBRANCH   4   5
ENDBRANCH   3   4
ENDBRANCH   2   3
ENDBRANCH   1   2
BRANCH   1  29
ATOM     29  O   UNL     1       6.785  -2.112  -4.288  1.00  0.00    -0.377 OA
BRANCH  29  30
ATOM     30  C   UNL     1       7.627  -3.182  -4.707  1.00  0.00     0.188 C 
BRANCH  30  31
ATOM     31  C   UNL     1       7.254  -4.664  -4.449  1.00  0.00     0.188 C 
BRANCH  31  32
ATOM     32  O   UNL     1       6.189  -4.874  -3.542  1.00  0.00    -0.376 OA
BRANCH  32  33
ATOM     33  C   UNL     1       6.494  -5.223  -2.203  1.00  0.00     0.202 C 
BRANCH  33  34
ATOM     34  C   UNL     1       7.365  -4.272  -1.366  1.00  0.00     0.261 C 
BRANCH  34  35
ATOM     35  O   UNL     1       8.602  -3.846  -1.956  1.00  0.00    -0.460 OA
BRANCH  35  36
ATOM     36  C   UNL     1       9.542  -4.782  -2.198  1.00  0.00     0.338 C 
ATOM     37  O   UNL     1       9.480  -5.976  -1.952  1.00  0.00    -0.246 OA
BRANCH  36  38
ATOM     38  C   UNL     1      10.589  -4.141  -3.020  1.00  0.00     0.060 A 
ATOM     39  C   UNL     1      10.831  -4.622  -4.316  1.00  0.00     0.016 A 
ATOM     40  C   UNL     1      11.282  -3.028  -2.538  1.00  0.00     0.016 A 
ATOM     41  C   UNL     1      11.784  -4.005  -5.124  1.00  0.00     0.010 A 
ATOM     42  C   UNL     1      12.264  -2.434  -3.333  1.00  0.00     0.010 A 
ATOM     43  C   UNL     1      12.540  -2.943  -4.615  1.00  0.00    -0.014 A 
BRANCH  43  44
ATOM     44  C   UNL     1      13.790  -2.547  -5.304  1.00  0.00     0.031 A 
ATOM     45  C   UNL     1      15.066  -3.200  -4.854  1.00  0.00     0.074 A 
ATOM     46  C   UNL     1      13.799  -1.659  -6.311  1.00  0.00     0.049 A 
ATOM     47  N   UNL     1      16.294  -3.001  -5.255  1.00  0.00    -0.248 NA
ATOM     48  C   UNL     1      14.932  -4.220  -3.800  1.00  0.00     0.031 C 
ATOM     49  C   UNL     1      12.622  -1.007  -6.879  1.00  0.00     0.029 A 
ATOM     50  N   UNL     1      14.850  -1.152  -7.032  1.00  0.00    -0.354 N 
ATOM     51  C   UNL     1      17.077  -3.866  -4.501  1.00  0.00     0.074 A 
ATOM     52  C   UNL     1      16.193  -4.559  -3.591  1.00  0.00     0.031 C 
ATOM     53  C   UNL     1      13.019  -0.179  -7.862  1.00  0.00     0.029 A 
ATOM     54  C   UNL     1      14.477  -0.217  -7.965  1.00  0.00     0.049 A 
ATOM     55  H   UNL     1      15.784  -1.432  -6.892  1.00  0.00     0.167 HD
ATOM     56  C   UNL     1      18.413  -4.072  -4.565  1.00  0.00     0.037 A 
ATOM     57  C   UNL     1      15.236   0.531  -8.790  1.00  0.00     0.037 A 
ATOM     58  C   UNL     1      19.292  -3.359  -5.452  1.00  0.00     0.049 A 
ATOM     59  C   UNL     1      16.735   0.374  -8.761  1.00  0.00     0.074 A 
ATOM     60  C   UNL     1      20.662  -3.483  -5.594  1.00  0.00     0.029 A 
ATOM     61  N   UNL     1      18.885  -2.371  -6.337  1.00  0.00    -0.354 N 
ATOM     62  N   UNL     1      17.471  -0.453  -8.058  1.00  0.00    -0.248 NA
ATOM     63  C   UNL     1      17.509   1.261  -9.642  1.00  0.00     0.031 C 
ATOM     64  C   UNL     1      21.091  -2.527  -6.521  1.00  0.00     0.029 A 
ATOM     65  C   UNL     1      19.981  -1.854  -7.007  1.00  0.00     0.049 A 
ATOM     66  H   UNL     1      17.953  -2.081  -6.470  1.00  0.00     0.167 HD
ATOM     67  C   UNL     1      18.787  -0.215  -8.438  1.00  0.00     0.074 A 
ATOM     68  C   UNL     1      18.747   0.832  -9.438  1.00  0.00     0.031 C 
ATOM     69  C   UNL     1      19.925  -0.814  -8.005  1.00  0.00     0.037 A 
BRANCH  56  70
ATOM     70  C   UNL     1      18.991  -5.076  -3.609  1.00  0.00     0.057 A 
ATOM     71  C   UNL     1      18.710  -6.447  -3.709  1.00  0.00     0.134 A 
ATOM     72  C   UNL     1      19.815  -4.663  -2.554  1.00  0.00     0.134 A 
ATOM     73  F   UNL     1      17.912  -6.909  -4.684  1.00  0.00    -0.206 F 
ATOM     74  C   UNL     1      19.189  -7.361  -2.769  1.00  0.00     0.040 A 
ATOM     75  C   UNL     1      20.328  -5.573  -1.629  1.00  0.00     0.040 A 
ATOM     76  F   UNL     1      20.127  -3.368  -2.400  1.00  0.00    -0.206 F 
ATOM     77  C   UNL     1      20.004  -6.925  -1.726  1.00  0.00     0.006 A 
ENDBRANCH  56  70
BRANCH  57  78
ATOM     78  C   UNL     1      14.594   1.492  -9.723  1.00  0.00     0.057 A 
ATOM     79  C   UNL     1      14.620   1.280 -11.106  1.00  0.00     0.134 A 
ATOM     80  C   UNL     1      13.951   2.647  -9.261  1.00  0.00     0.134 A 
ATOM     81  F   UNL     1      15.243   0.206 -11.612  1.00  0.00    -0.206 F 
ATOM     82  C   UNL     1      14.040   2.185 -11.997  1.00  0.00     0.040 A 
ATOM     83  C   UNL     1      13.344   3.548 -10.138  1.00  0.00     0.040 A 
ATOM     84  F   UNL     1      13.893   2.912  -7.947  1.00  0.00    -0.206 F 
ATOM     85  C   UNL     1      13.393   3.320 -11.512  1.00  0.00     0.006 A 
ENDBRANCH  57  78
BRANCH  69  86
ATOM     86  C   UNL     1      21.218  -0.390  -8.643  1.00  0.00     0.057 A 
ATOM     87  C   UNL     1      21.794   0.864  -8.402  1.00  0.00     0.134 A 
ATOM     88  C   UNL     1      21.923  -1.273  -9.472  1.00  0.00     0.134 A 
ATOM     89  F   UNL     1      21.168   1.762  -7.626  1.00  0.00    -0.206 F 
ATOM     90  C   UNL     1      23.009   1.233  -8.982  1.00  0.00     0.040 A 
ATOM     91  C   UNL     1      23.154  -0.928 -10.032  1.00  0.00     0.040 A 
ATOM     92  F   UNL     1      21.436  -2.495  -9.737  1.00  0.00    -0.206 F 
ATOM     93  C   UNL     1      23.697   0.332  -9.793  1.00  0.00     0.006 A 
ENDBRANCH  69  86
ENDBRANCH  43  44
ENDBRANCH  36  38
ENDBRANCH  35  36
ENDBRANCH  34  35
ENDBRANCH  33  34
ENDBRANCH  32  33
ENDBRANCH  31  32
ENDBRANCH  30  31
ENDBRANCH  29  30
ENDBRANCH   1  29
TORSDOF 24
