REMARK SMILES O=C(OCCOCCOCCOCCOC(=O)[C@@H]1C=C[C@H](NS(=O)(=O)c2ccc(Cl)cc2)C1)c1ccc(-c2c3nc(c(-c4c(F)cccc4F)c4ccc([nH]4)c(-c4c(F)cccc4F)c4nc(c(-c5c(F)cccc5F)c5ccc2[nH]5)C=C4)C=C3)cc1
REMARK SMILES IDX 10 1 9 2 8 3 7 4 6 5 5 6 4 7 3 8 2 9 1 10 34 11 35 12 87 13
REMARK SMILES IDX 36 14 86 15 37 16 38 17 39 18 80 19 40 20 85 21 79 22 81 23
REMARK SMILES IDX 41 24 84 25 78 26 77 27 42 29 68 30 51 31 67 32 52 33 55 34
REMARK SMILES IDX 66 35 82 36 53 37 54 38 65 40 83 41 56 42 43 43 44 44 49 45
REMARK SMILES IDX 45 46 46 47 48 48 50 49 47 50 69 51 70 52 75 53 71 54 72 55
REMARK SMILES IDX 74 56 76 57 73 58 57 59 58 60 63 61 59 62 60 63 62 64 64 65
REMARK SMILES IDX 61 66 11 67 12 68 13 69 14 70 15 71 16 72 17 73 18 74 19 75
REMARK SMILES IDX 33 76 20 77 21 78 22 79 23 81 24 82 25 83 26 84 27 85 32 86
REMARK SMILES IDX 28 87 31 88 29 89 30 90
REMARK H PARENT 81 28 55 39 22 80
REMARK Flexibility Score: inf
ROOT
ATOM      1  C   UNL     1       6.528  -3.042   4.231  1.00  0.00     0.188 C 
ENDROOT
BRANCH   1   2
ATOM      2  O   UNL     1       6.672  -4.430   3.947  1.00  0.00    -0.377 OA
BRANCH   2   3
ATOM      3  C   UNL     1       7.918  -4.825   3.377  1.00  0.00     0.188 C 
BRANCH   3   4
ATOM      4  C   UNL     1       8.282  -4.030   2.124  1.00  0.00     0.188 C 
BRANCH   4   5
ATOM      5  O   UNL     1       8.735  -2.729   2.516  1.00  0.00    -0.376 OA
BRANCH   5   6
ATOM      6  C   UNL     1       8.483  -1.686   1.579  1.00  0.00     0.202 C 
BRANCH   6   7
ATOM      7  C   UNL     1       9.642  -1.453   0.612  1.00  0.00     0.261 C 
BRANCH   7   8
ATOM      8  O   UNL     1      10.236  -2.687   0.188  1.00  0.00    -0.460 OA
BRANCH   8   9
ATOM      9  C   UNL     1      11.251  -3.371   0.772  1.00  0.00     0.338 C 
ATOM     10  O   UNL     1      11.585  -4.442   0.263  1.00  0.00    -0.246 OA
BRANCH   9  11
ATOM     11  C   UNL     1      12.019  -2.911   1.977  1.00  0.00     0.060 A 
ATOM     12  C   UNL     1      11.584  -2.001   2.946  1.00  0.00     0.016 A 
ATOM     13  C   UNL     1      13.279  -3.510   2.171  1.00  0.00     0.016 A 
ATOM     14  C   UNL     1      12.378  -1.656   4.037  1.00  0.00     0.010 A 
ATOM     15  C   UNL     1      14.078  -3.183   3.270  1.00  0.00     0.010 A 
ATOM     16  C   UNL     1      13.633  -2.235   4.195  1.00  0.00    -0.014 A 
BRANCH  16  17
ATOM     17  C   UNL     1      14.521  -1.731   5.256  1.00  0.00     0.031 A 
ATOM     18  C   UNL     1      15.588  -0.754   4.872  1.00  0.00     0.074 A 
ATOM     19  C   UNL     1      14.319  -2.089   6.536  1.00  0.00     0.049 A 
ATOM     20  N   UNL     1      16.559  -0.261   5.590  1.00  0.00    -0.248 NA
ATOM     21  C   UNL     1      15.547  -0.254   3.486  1.00  0.00     0.031 C 
ATOM     22  C   UNL     1      13.228  -2.942   7.013  1.00  0.00     0.029 A 
ATOM     23  N   UNL     1      15.020  -1.776   7.670  1.00  0.00    -0.354 N 
ATOM     24  C   UNL     1      17.266   0.575   4.736  1.00  0.00     0.074 A 
ATOM     25  C   UNL     1      16.606   0.540   3.451  1.00  0.00     0.031 C 
ATOM     26  C   UNL     1      13.343  -3.094   8.343  1.00  0.00     0.029 A 
ATOM     27  C   UNL     1      14.546  -2.403   8.797  1.00  0.00     0.049 A 
ATOM     28  H   UNL     1      15.790  -1.161   7.677  1.00  0.00     0.167 HD
ATOM     29  C   UNL     1      18.379   1.291   5.008  1.00  0.00     0.037 A 
ATOM     30  C   UNL     1      15.068  -2.451  10.037  1.00  0.00     0.037 A 
ATOM     31  C   UNL     1      19.008   1.309   6.299  1.00  0.00     0.049 A 
ATOM     32  C   UNL     1      16.362  -1.721  10.288  1.00  0.00     0.074 A 
ATOM     33  C   UNL     1      20.151   1.974   6.697  1.00  0.00     0.029 A 
ATOM     34  N   UNL     1      18.533   0.617   7.405  1.00  0.00    -0.354 N 
ATOM     35  N   UNL     1      17.053  -0.960   9.471  1.00  0.00    -0.248 NA
ATOM     36  C   UNL     1      16.967  -1.879  11.617  1.00  0.00     0.031 C 
ATOM     37  C   UNL     1      20.394   1.647   8.036  1.00  0.00     0.029 A 
ATOM     38  C   UNL     1      19.381   0.809   8.479  1.00  0.00     0.049 A 
ATOM     39  H   UNL     1      17.715   0.070   7.422  1.00  0.00     0.167 HD
ATOM     40  C   UNL     1      18.171  -0.550  10.184  1.00  0.00     0.074 A 
ATOM     41  C   UNL     1      18.050  -1.122  11.510  1.00  0.00     0.031 C 
ATOM     42  C   UNL     1      19.215   0.216   9.782  1.00  0.00     0.037 A 
BRANCH  29  43
ATOM     43  C   UNL     1      19.013   2.033   3.873  1.00  0.00     0.057 A 
ATOM     44  C   UNL     1      18.479   3.223   3.365  1.00  0.00     0.134 A 
ATOM     45  C   UNL     1      20.175   1.534   3.270  1.00  0.00     0.134 A 
ATOM     46  F   UNL     1      17.352   3.736   3.879  1.00  0.00    -0.206 F 
ATOM     47  C   UNL     1      19.072   3.884   2.286  1.00  0.00     0.040 A 
ATOM     48  C   UNL     1      20.786   2.194   2.204  1.00  0.00     0.040 A 
ATOM     49  F   UNL     1      20.730   0.392   3.703  1.00  0.00    -0.206 F 
ATOM     50  C   UNL     1      20.231   3.371   1.706  1.00  0.00     0.006 A 
ENDBRANCH  29  43
BRANCH  30  51
ATOM     51  C   UNL     1      14.434  -3.280  11.097  1.00  0.00     0.057 A 
ATOM     52  C   UNL     1      13.904  -2.706  12.258  1.00  0.00     0.134 A 
ATOM     53  C   UNL     1      14.379  -4.676  10.991  1.00  0.00     0.134 A 
ATOM     54  F   UNL     1      13.948  -1.378  12.436  1.00  0.00    -0.206 F 
ATOM     55  C   UNL     1      13.360  -3.489  13.280  1.00  0.00     0.040 A 
ATOM     56  C   UNL     1      13.812  -5.469  11.991  1.00  0.00     0.040 A 
ATOM     57  F   UNL     1      14.873  -5.295   9.909  1.00  0.00    -0.206 F 
ATOM     58  C   UNL     1      13.309  -4.875  13.145  1.00  0.00     0.006 A 
ENDBRANCH  30  51
BRANCH  42  59
ATOM     59  C   UNL     1      20.295   0.469  10.786  1.00  0.00     0.057 A 
ATOM     60  C   UNL     1      21.239  -0.515  11.101  1.00  0.00     0.134 A 
ATOM     61  C   UNL     1      20.432   1.725  11.389  1.00  0.00     0.134 A 
ATOM     62  F   UNL     1      21.149  -1.741  10.563  1.00  0.00    -0.206 F 
ATOM     63  C   UNL     1      22.282  -0.260  11.990  1.00  0.00     0.040 A 
ATOM     64  C   UNL     1      21.483   1.999  12.261  1.00  0.00     0.040 A 
ATOM     65  F   UNL     1      19.561   2.709  11.117  1.00  0.00    -0.206 F 
ATOM     66  C   UNL     1      22.411   1.004  12.565  1.00  0.00     0.006 A 
ENDBRANCH  42  59
ENDBRANCH  16  17
ENDBRANCH   9  11
ENDBRANCH   8   9
ENDBRANCH   7   8
ENDBRANCH   6   7
ENDBRANCH   5   6
ENDBRANCH   4   5
ENDBRANCH   3   4
ENDBRANCH   2   3
ENDBRANCH   1   2
BRANCH   1  67
ATOM     67  C   UNL     1       7.539  -2.405   5.208  1.00  0.00     0.188 C 
BRANCH  67  68
ATOM     68  O   UNL     1       8.246  -3.368   5.978  1.00  0.00    -0.376 OA
BRANCH  68  69
ATOM     69  C   UNL     1       7.875  -3.444   7.348  1.00  0.00     0.202 C 
BRANCH  69  70
ATOM     70  C   UNL     1       6.489  -4.045   7.614  1.00  0.00     0.261 C 
BRANCH  70  71
ATOM     71  O   UNL     1       5.403  -3.409   6.915  1.00  0.00    -0.463 OA
BRANCH  71  72
ATOM     72  C   UNL     1       4.941  -2.203   7.335  1.00  0.00     0.312 C 
ATOM     73  O   UNL     1       5.324  -1.610   8.334  1.00  0.00    -0.252 OA
BRANCH  72  74
ATOM     74  C   UNL     1       3.923  -1.668   6.314  1.00  0.00     0.123 C 
ATOM     75  C   UNL     1       4.505  -0.568   5.466  1.00  0.00    -0.015 C 
ATOM     76  C   UNL     1       2.752  -0.953   6.991  1.00  0.00     0.043 C 
ATOM     77  C   UNL     1       4.089   0.636   5.861  1.00  0.00    -0.011 C 
ATOM     78  C   UNL     1       3.122   0.537   6.981  1.00  0.00     0.093 C 
BRANCH  78  79
ATOM     79  N   UNL     1       3.771   0.873   8.229  1.00  0.00    -0.204 NA
ATOM     80  H   UNL     1       4.753   0.616   8.124  1.00  0.00     0.142 HD
BRANCH  79  81
ATOM     81  S   UNL     1       3.749   2.433   8.811  1.00  0.00     0.241 S 
ATOM     82  O   UNL     1       4.337   2.419  10.120  1.00  0.00    -0.207 OA
ATOM     83  O   UNL     1       4.239   3.296   7.747  1.00  0.00    -0.207 OA
BRANCH  81  84
ATOM     84  C   UNL     1       2.009   2.760   9.001  1.00  0.00     0.082 A 
ATOM     85  C   UNL     1       1.120   1.711   9.269  1.00  0.00     0.023 A 
ATOM     86  C   UNL     1       1.533   4.037   8.688  1.00  0.00     0.023 A 
ATOM     87  C   UNL     1      -0.254   1.932   9.164  1.00  0.00     0.022 A 
ATOM     88  C   UNL     1       0.157   4.258   8.615  1.00  0.00     0.022 A 
ATOM     89  C   UNL     1      -0.728   3.202   8.832  1.00  0.00     0.041 A 
ATOM     90  Cl  UNL     1      -2.420   3.458   8.659  1.00  0.00    -0.084 Cl
ENDBRANCH  81  84
ENDBRANCH  79  81
ENDBRANCH  78  79
ENDBRANCH  72  74
ENDBRANCH  71  72
ENDBRANCH  70  71
ENDBRANCH  69  70
ENDBRANCH  68  69
ENDBRANCH  67  68
ENDBRANCH   1  67
TORSDOF 23
