REMARK SMILES C[C@H]1CC[C@H]([NH2+]Cc2c(C(=O)OCCOCCOCCOCCOC(=O)c3ccc(-c4c5nc(c(-c6c(F)cccc6F)c6ccc([nH]6)c(-c6c(F)cccc6F)c6nc(c(-c7c(F)cccc7F)c7ccc4[nH]7)C=C6)C=C5)cc3)n(Cc3ccccc3F)c3ccccc23)CC1
REMARK SMILES IDX 17 1 16 2 15 3 14 4 13 5 12 6 10 7 11 8 9 9 8 10 95 11 81 12
REMARK SMILES IDX 90 13 94 14 91 15 93 16 92 17 7 18 6 19 5 22 1 23 2 24 3 25
REMARK SMILES IDX 97 26 4 27 96 28 82 29 83 30 84 31 88 32 85 33 87 34 89 35
REMARK SMILES IDX 86 36 18 37 19 38 20 39 21 40 22 41 23 42 24 43 25 44 26 45
REMARK SMILES IDX 27 46 28 47 80 48 29 49 79 50 30 51 31 52 32 53 73 54 33 55
REMARK SMILES IDX 78 56 72 57 74 58 34 59 77 60 71 61 70 62 35 64 61 65 44 66
REMARK SMILES IDX 60 67 45 68 48 69 59 70 75 71 46 72 47 73 58 75 76 76 49 77
REMARK SMILES IDX 36 78 37 79 42 80 38 81 39 82 41 83 43 84 40 85 62 86 63 87
REMARK SMILES IDX 68 88 64 89 65 90 67 91 69 92 66 93 50 94 51 95 56 96 52 97
REMARK SMILES IDX 53 98 55 99 57 100 54 101
REMARK H PARENT 6 20 6 21 74 63 48 74
REMARK Flexibility Score: inf
ROOT
ATOM      1  C   UNL     1      -2.433  -1.793   4.257  1.00  0.00     0.188 C 
ENDROOT
BRANCH   1   2
ATOM      2  C   UNL     1      -0.929  -1.836   4.566  1.00  0.00     0.188 C 
BRANCH   2   3
ATOM      3  O   UNL     1      -0.281  -0.609   4.790  1.00  0.00    -0.376 OA
BRANCH   3   4
ATOM      4  C   UNL     1       0.204   0.182   3.730  1.00  0.00     0.202 C 
BRANCH   4   5
ATOM      5  C   UNL     1      -0.203   0.081   2.258  1.00  0.00     0.261 C 
BRANCH   5   6
ATOM      6  O   UNL     1      -1.182  -0.873   1.815  1.00  0.00    -0.459 OA
BRANCH   6   7
ATOM      7  C   UNL     1      -0.776  -2.112   1.433  1.00  0.00     0.355 C 
ATOM      8  O   UNL     1       0.390  -2.479   1.489  1.00  0.00    -0.244 OA
BRANCH   7   9
ATOM      9  C   UNL     1      -1.893  -2.958   1.006  1.00  0.00     0.137 A 
ATOM     10  C   UNL     1      -3.069  -2.672   0.278  1.00  0.00     0.047 A 
ATOM     11  C   UNL     1      -3.692  -3.931  -0.033  1.00  0.00     0.009 A 
ATOM     12  N   UNL     1      -1.895  -4.343   1.212  1.00  0.00    -0.330 N 
ATOM     13  C   UNL     1      -2.837  -4.938   0.391  1.00  0.00     0.050 A 
ATOM     14  C   UNL     1      -4.862  -4.286  -0.743  1.00  0.00     0.011 A 
ATOM     15  C   UNL     1      -3.032  -6.275   0.005  1.00  0.00     0.027 A 
ATOM     16  C   UNL     1      -5.108  -5.625  -1.056  1.00  0.00     0.001 A 
ATOM     17  C   UNL     1      -4.186  -6.603  -0.708  1.00  0.00     0.002 A 
BRANCH  10  18
ATOM     18  C   UNL     1      -3.653  -1.407  -0.311  1.00  0.00     0.300 C 
BRANCH  18  19
ATOM     19  N   UNL     1      -2.766  -0.275  -0.326  1.00  0.00    -0.340 N 
ATOM     20  H   UNL     1      -3.348   0.559  -0.243  1.00  0.00     0.346 HD
ATOM     21  H   UNL     1      -2.120  -0.467   0.440  1.00  0.00     0.346 HD
BRANCH  19  22
ATOM     22  C   UNL     1      -1.880  -0.064  -1.478  1.00  0.00     0.182 C 
ATOM     23  C   UNL     1       2.453  -0.344  -0.691  1.00  0.00     0.007 C 
ATOM     24  C   UNL     1       0.951  -0.276  -0.935  1.00  0.00    -0.014 C 
ATOM     25  C   UNL     1       0.459  -1.162  -2.056  1.00  0.00     0.009 C 
ATOM     26  C   UNL     1       0.418   1.126  -1.155  1.00  0.00     0.009 C 
ATOM     27  C   UNL     1      -1.064  -1.286  -1.983  1.00  0.00     0.065 C 
ATOM     28  C   UNL     1      -1.096   1.220  -1.136  1.00  0.00     0.065 C 
ENDBRANCH  19  22
ENDBRANCH  18  19
ENDBRANCH  10  18
BRANCH  12  29
ATOM     29  C   UNL     1      -0.973  -5.110   2.069  1.00  0.00     0.161 C 
BRANCH  29  30
ATOM     30  C   UNL     1      -1.599  -5.662   3.338  1.00  0.00     0.008 A 
ATOM     31  C   UNL     1      -2.610  -6.633   3.332  1.00  0.00     0.008 A 
ATOM     32  C   UNL     1      -1.112  -5.275   4.591  1.00  0.00     0.128 A 
ATOM     33  C   UNL     1      -3.144  -7.143   4.521  1.00  0.00     0.001 A 
ATOM     34  C   UNL     1      -1.665  -5.741   5.785  1.00  0.00     0.039 A 
ATOM     35  F   UNL     1      -0.049  -4.466   4.672  1.00  0.00    -0.207 F 
ATOM     36  C   UNL     1      -2.688  -6.681   5.750  1.00  0.00     0.003 A 
ENDBRANCH  29  30
ENDBRANCH  12  29
ENDBRANCH   7   9
ENDBRANCH   6   7
ENDBRANCH   5   6
ENDBRANCH   4   5
ENDBRANCH   3   4
ENDBRANCH   2   3
ENDBRANCH   1   2
BRANCH   1  37
ATOM     37  O   UNL     1      -2.892  -0.631   3.603  1.00  0.00    -0.377 OA
BRANCH  37  38
ATOM     38  C   UNL     1      -2.967   0.587   4.324  1.00  0.00     0.188 C 
BRANCH  38  39
ATOM     39  C   UNL     1      -2.545   0.677   5.805  1.00  0.00     0.188 C 
BRANCH  39  40
ATOM     40  O   UNL     1      -2.979  -0.428   6.569  1.00  0.00    -0.376 OA
BRANCH  40  41
ATOM     41  C   UNL     1      -4.181  -0.285   7.307  1.00  0.00     0.202 C 
BRANCH  41  42
ATOM     42  C   UNL     1      -5.447   0.271   6.623  1.00  0.00     0.261 C 
BRANCH  42  43
ATOM     43  O   UNL     1      -5.287   1.478   5.849  1.00  0.00    -0.460 OA
BRANCH  43  44
ATOM     44  C   UNL     1      -5.116   2.678   6.454  1.00  0.00     0.338 C 
ATOM     45  O   UNL     1      -5.322   2.931   7.623  1.00  0.00    -0.246 OA
BRANCH  44  46
ATOM     46  C   UNL     1      -4.286   3.509   5.516  1.00  0.00     0.060 A 
ATOM     47  C   UNL     1      -4.459   3.461   4.129  1.00  0.00     0.016 A 
ATOM     48  C   UNL     1      -3.126   4.102   6.043  1.00  0.00     0.016 A 
ATOM     49  C   UNL     1      -3.430   3.907   3.289  1.00  0.00     0.010 A 
ATOM     50  C   UNL     1      -2.094   4.538   5.199  1.00  0.00     0.010 A 
ATOM     51  C   UNL     1      -2.223   4.418   3.815  1.00  0.00    -0.014 A 
BRANCH  51  52
ATOM     52  C   UNL     1      -1.267   5.035   2.868  1.00  0.00     0.031 A 
ATOM     53  C   UNL     1      -1.889   6.132   2.075  1.00  0.00     0.074 A 
ATOM     54  C   UNL     1       0.072   4.866   2.740  1.00  0.00     0.049 A 
ATOM     55  N   UNL     1      -2.003   6.221   0.791  1.00  0.00    -0.248 NA
ATOM     56  C   UNL     1      -2.552   7.212   2.822  1.00  0.00     0.031 C 
ATOM     57  C   UNL     1       0.963   4.093   3.604  1.00  0.00     0.029 A 
ATOM     58  N   UNL     1       0.946   5.448   1.841  1.00  0.00    -0.354 N 
ATOM     59  C   UNL     1      -2.606   7.451   0.555  1.00  0.00     0.074 A 
ATOM     60  C   UNL     1      -3.042   7.956   1.832  1.00  0.00     0.031 C 
ATOM     61  C   UNL     1       2.249   4.401   3.314  1.00  0.00     0.029 A 
ATOM     62  C   UNL     1       2.288   5.331   2.192  1.00  0.00     0.049 A 
ATOM     63  H   UNL     1       0.645   5.906   1.023  1.00  0.00     0.167 HD
ATOM     64  C   UNL     1      -2.508   8.076  -0.646  1.00  0.00     0.037 A 
ATOM     65  C   UNL     1       3.365   5.979   1.670  1.00  0.00     0.037 A 
ATOM     66  C   UNL     1      -2.091   7.186  -1.695  1.00  0.00     0.049 A 
ATOM     67  C   UNL     1       3.016   6.603   0.376  1.00  0.00     0.074 A 
ATOM     68  C   UNL     1      -2.572   6.015  -2.241  1.00  0.00     0.029 A 
ATOM     69  N   UNL     1      -0.819   7.329  -2.184  1.00  0.00    -0.354 N 
ATOM     70  N   UNL     1       2.996   5.992  -0.768  1.00  0.00    -0.248 NA
ATOM     71  C   UNL     1       2.391   7.915   0.375  1.00  0.00     0.031 C 
ATOM     72  C   UNL     1      -1.414   5.290  -2.651  1.00  0.00     0.029 A 
ATOM     73  C   UNL     1      -0.294   6.078  -2.385  1.00  0.00     0.049 A 
ATOM     74  H   UNL     1      -0.361   8.182  -2.361  1.00  0.00     0.167 HD
ATOM     75  C   UNL     1       1.926   6.549  -1.436  1.00  0.00     0.074 A 
ATOM     76  C   UNL     1       1.730   7.838  -0.781  1.00  0.00     0.031 C 
ATOM     77  C   UNL     1       1.117   5.777  -2.227  1.00  0.00     0.037 A 
BRANCH  64  78
ATOM     78  C   UNL     1      -2.409   9.572  -0.787  1.00  0.00     0.057 A 
ATOM     79  C   UNL     1      -1.841  10.403   0.200  1.00  0.00     0.134 A 
ATOM     80  C   UNL     1      -2.571  10.157  -2.054  1.00  0.00     0.134 A 
ATOM     81  F   UNL     1      -1.545   9.954   1.426  1.00  0.00    -0.206 F 
ATOM     82  C   UNL     1      -1.442  11.715  -0.059  1.00  0.00     0.040 A 
ATOM     83  C   UNL     1      -2.126  11.453  -2.337  1.00  0.00     0.040 A 
ATOM     84  F   UNL     1      -3.080   9.451  -3.075  1.00  0.00    -0.206 F 
ATOM     85  C   UNL     1      -1.551  12.233  -1.340  1.00  0.00     0.006 A 
ENDBRANCH  64  78
BRANCH  65  86
ATOM     86  C   UNL     1       4.686   6.262   2.281  1.00  0.00     0.057 A 
ATOM     87  C   UNL     1       4.776   6.640   3.629  1.00  0.00     0.134 A 
ATOM     88  C   UNL     1       5.846   6.438   1.510  1.00  0.00     0.134 A 
ATOM     89  F   UNL     1       3.702   6.585   4.429  1.00  0.00    -0.206 F 
ATOM     90  C   UNL     1       5.945   7.175   4.180  1.00  0.00     0.040 A 
ATOM     91  C   UNL     1       7.022   6.979   2.048  1.00  0.00     0.040 A 
ATOM     92  F   UNL     1       5.854   6.141   0.203  1.00  0.00    -0.206 F 
ATOM     93  C   UNL     1       7.070   7.360   3.385  1.00  0.00     0.006 A 
ENDBRANCH  65  86
BRANCH  77  94
ATOM     94  C   UNL     1       1.657   4.459  -2.764  1.00  0.00     0.057 A 
ATOM     95  C   UNL     1       1.295   4.051  -4.062  1.00  0.00     0.134 A 
ATOM     96  C   UNL     1       2.485   3.559  -2.069  1.00  0.00     0.134 A 
ATOM     97  F   UNL     1       0.483   4.808  -4.819  1.00  0.00    -0.206 F 
ATOM     98  C   UNL     1       1.730   2.846  -4.628  1.00  0.00     0.040 A 
ATOM     99  C   UNL     1       3.036   2.424  -2.676  1.00  0.00     0.040 A 
ATOM    100  F   UNL     1       2.691   3.646  -0.746  1.00  0.00    -0.206 F 
ATOM    101  C   UNL     1       2.633   2.042  -3.948  1.00  0.00     0.006 A 
ENDBRANCH  77  94
ENDBRANCH  51  52
ENDBRANCH  44  46
ENDBRANCH  43  44
ENDBRANCH  42  43
ENDBRANCH  41  42
ENDBRANCH  40  41
ENDBRANCH  39  40
ENDBRANCH  38  39
ENDBRANCH  37  38
ENDBRANCH   1  37
TORSDOF 25
