REMARK SMILES COc1ccc(-c2noc(CC(=O)OCCOCCOCCOCCOC(=O)c3ccc(-c4c5nc(c(-c6c(F)cccc6F)c6ccc([nH]6)c(-c6c(F)cccc6F)c6nc(c(-c7c(F)cccc7F)c7ccc4[nH]7)C=C6)C=C5)cc3)c2-c2ccc(OC)cc2)cc1
REMARK SMILES IDX 19 1 18 2 17 3 16 4 15 5 14 6 12 7 13 8 11 9 10 10 7 11 8 12
REMARK SMILES IDX 83 13 9 14 6 15 3 16 4 17 93 18 5 19 92 20 2 21 1 22 84 23
REMARK SMILES IDX 85 24 91 25 86 26 90 27 87 28 88 29 89 30 20 31 21 32 22 33
REMARK SMILES IDX 23 34 24 35 25 36 26 37 27 38 28 39 29 40 30 41 82 42 31 43
REMARK SMILES IDX 81 44 32 45 33 46 34 47 75 48 35 49 80 50 74 51 76 52 36 53
REMARK SMILES IDX 79 54 73 55 72 56 37 58 63 59 46 60 62 61 47 62 50 63 61 64
REMARK SMILES IDX 77 65 48 66 49 67 60 69 78 70 51 71 38 72 39 73 44 74 40 75
REMARK SMILES IDX 41 76 43 77 45 78 42 79 64 80 65 81 70 82 66 83 67 84 69 85
REMARK SMILES IDX 71 86 68 87 52 88 53 89 58 90 54 91 55 92 57 93 59 94 56 95
REMARK H PARENT 76 57 50 68
REMARK Flexibility Score: inf
ROOT
ATOM      1  C   UNL     1       2.272   9.562  -4.947  1.00  0.00     0.188 C 
ENDROOT
BRANCH   1   2
ATOM      2  C   UNL     1       3.128  10.603  -5.673  1.00  0.00     0.188 C 
BRANCH   2   3
ATOM      3  O   UNL     1       2.787  11.012  -6.984  1.00  0.00    -0.376 OA
BRANCH   3   4
ATOM      4  C   UNL     1       2.522  10.048  -7.994  1.00  0.00     0.202 C 
BRANCH   4   5
ATOM      5  C   UNL     1       3.309   8.723  -8.122  1.00  0.00     0.261 C 
BRANCH   5   6
ATOM      6  O   UNL     1       3.517   7.969  -6.909  1.00  0.00    -0.463 OA
BRANCH   6   7
ATOM      7  C   UNL     1       4.795   7.723  -6.546  1.00  0.00     0.313 C 
ATOM      8  O   UNL     1       5.764   8.031  -7.238  1.00  0.00    -0.252 OA
BRANCH   7   9
ATOM      9  C   UNL     1       5.004   7.179  -5.149  1.00  0.00     0.201 C 
BRANCH   9  10
ATOM     10  C   UNL     1       3.890   6.467  -4.452  1.00  0.00     0.156 A 
ATOM     11  C   UNL     1       2.502   5.132  -3.326  1.00  0.00     0.122 A 
ATOM     12  N   UNL     1       2.402   6.338  -2.755  1.00  0.00    -0.079 NA
ATOM     13  C   UNL     1       3.411   5.173  -4.425  1.00  0.00     0.053 A 
ATOM     14  O   UNL     1       3.317   7.135  -3.405  1.00  0.00    -0.359 OA
BRANCH  11  15
ATOM     15  C   UNL     1       1.897   3.959  -2.719  1.00  0.00     0.005 A 
ATOM     16  C   UNL     1       0.825   1.625  -1.596  1.00  0.00     0.118 A 
ATOM     17  C   UNL     1       0.007   2.510  -2.306  1.00  0.00     0.047 A 
ATOM     18  C   UNL     1       2.183   1.905  -1.453  1.00  0.00     0.047 A 
ATOM     19  C   UNL     1       0.535   3.684  -2.856  1.00  0.00     0.014 A 
ATOM     20  C   UNL     1       2.714   3.070  -2.009  1.00  0.00     0.014 A 
BRANCH  16  21
ATOM     21  O   UNL     1       0.212   0.494  -1.130  1.00  0.00    -0.497 OA
ATOM     22  C   UNL     1       0.755  -0.041   0.073  1.00  0.00     0.278 C 
ENDBRANCH  16  21
ENDBRANCH  11  15
BRANCH  13  23
ATOM     23  C   UNL     1       4.011   4.086  -5.153  1.00  0.00    -0.012 A 
ATOM     24  C   UNL     1       3.267   3.290  -6.022  1.00  0.00     0.013 A 
ATOM     25  C   UNL     1       5.362   3.804  -4.928  1.00  0.00     0.013 A 
ATOM     26  C   UNL     1       3.898   2.244  -6.699  1.00  0.00     0.047 A 
ATOM     27  C   UNL     1       5.989   2.775  -5.615  1.00  0.00     0.047 A 
ATOM     28  C   UNL     1       5.264   1.998  -6.516  1.00  0.00     0.118 A 
BRANCH  28  29
ATOM     29  O   UNL     1       5.784   0.973  -7.257  1.00  0.00    -0.497 OA
ATOM     30  C   UNL     1       7.204   0.867  -7.252  1.00  0.00     0.278 C 
ENDBRANCH  28  29
ENDBRANCH  13  23
ENDBRANCH   9  10
ENDBRANCH   7   9
ENDBRANCH   6   7
ENDBRANCH   5   6
ENDBRANCH   4   5
ENDBRANCH   3   4
ENDBRANCH   2   3
ENDBRANCH   1   2
BRANCH   1  31
ATOM     31  O   UNL     1       1.396   8.806  -5.755  1.00  0.00    -0.377 OA
BRANCH  31  32
ATOM     32  C   UNL     1       0.057   9.249  -5.892  1.00  0.00     0.188 C 
BRANCH  32  33
ATOM     33  C   UNL     1      -0.255  10.739  -5.670  1.00  0.00     0.188 C 
BRANCH  33  34
ATOM     34  O   UNL     1       0.321  11.297  -4.499  1.00  0.00    -0.376 OA
BRANCH  34  35
ATOM     35  C   UNL     1      -0.421  11.291  -3.288  1.00  0.00     0.202 C 
BRANCH  35  36
ATOM     36  C   UNL     1      -0.844   9.942  -2.680  1.00  0.00     0.261 C 
BRANCH  36  37
ATOM     37  O   UNL     1      -1.700   9.107  -3.475  1.00  0.00    -0.460 OA
BRANCH  37  38
ATOM     38  C   UNL     1      -2.843   9.627  -3.971  1.00  0.00     0.338 C 
ATOM     39  O   UNL     1      -3.306  10.728  -3.775  1.00  0.00    -0.246 OA
BRANCH  38  40
ATOM     40  C   UNL     1      -3.353   8.663  -4.972  1.00  0.00     0.060 A 
ATOM     41  C   UNL     1      -3.494   9.069  -6.306  1.00  0.00     0.016 A 
ATOM     42  C   UNL     1      -3.684   7.362  -4.587  1.00  0.00     0.016 A 
ATOM     43  C   UNL     1      -4.010   8.186  -7.255  1.00  0.00     0.010 A 
ATOM     44  C   UNL     1      -4.223   6.487  -5.531  1.00  0.00     0.010 A 
ATOM     45  C   UNL     1      -4.424   6.908  -6.859  1.00  0.00    -0.014 A 
BRANCH  45  46
ATOM     46  C   UNL     1      -5.285   6.093  -7.747  1.00  0.00     0.031 A 
ATOM     47  C   UNL     1      -6.770   6.137  -7.512  1.00  0.00     0.074 A 
ATOM     48  C   UNL     1      -4.775   5.320  -8.720  1.00  0.00     0.049 A 
ATOM     49  N   UNL     1      -7.722   5.419  -8.047  1.00  0.00    -0.248 NA
ATOM     50  C   UNL     1      -7.240   7.125  -6.526  1.00  0.00     0.031 C 
ATOM     51  C   UNL     1      -3.363   5.239  -9.086  1.00  0.00     0.029 A 
ATOM     52  N   UNL     1      -5.397   4.438  -9.567  1.00  0.00    -0.354 N 
ATOM     53  C   UNL     1      -8.899   5.854  -7.450  1.00  0.00     0.074 A 
ATOM     54  C   UNL     1      -8.539   6.876  -6.492  1.00  0.00     0.031 C 
ATOM     55  C   UNL     1      -3.223   4.335 -10.073  1.00  0.00     0.029 A 
ATOM     56  C   UNL     1      -4.528   3.745 -10.374  1.00  0.00     0.049 A 
ATOM     57  H   UNL     1      -6.374   4.313  -9.594  1.00  0.00     0.167 HD
ATOM     58  C   UNL     1     -10.167   5.441  -7.681  1.00  0.00     0.037 A 
ATOM     59  C   UNL     1      -4.760   2.729 -11.228  1.00  0.00     0.037 A 
ATOM     60  C   UNL     1     -10.515   4.416  -8.628  1.00  0.00     0.049 A 
ATOM     61  C   UNL     1      -6.168   2.216 -11.401  1.00  0.00     0.074 A 
ATOM     62  C   UNL     1     -11.768   3.922  -8.941  1.00  0.00     0.029 A 
ATOM     63  N   UNL     1      -9.602   3.721  -9.407  1.00  0.00    -0.354 N 
ATOM     64  N   UNL     1      -7.278   2.632 -10.839  1.00  0.00    -0.248 NA
ATOM     65  C   UNL     1      -6.355   1.087 -12.325  1.00  0.00     0.031 C 
ATOM     66  C   UNL     1     -11.608   2.887  -9.867  1.00  0.00     0.029 A 
ATOM     67  C   UNL     1     -10.263   2.784 -10.183  1.00  0.00     0.049 A 
ATOM     68  H   UNL     1      -8.629   3.871  -9.408  1.00  0.00     0.167 HD
ATOM     69  C   UNL     1      -8.296   1.850 -11.373  1.00  0.00     0.074 A 
ATOM     70  C   UNL     1      -7.672   0.933 -12.303  1.00  0.00     0.031 C 
ATOM     71  C   UNL     1      -9.628   1.894 -11.123  1.00  0.00     0.037 A 
BRANCH  58  72
ATOM     72  C   UNL     1     -11.257   6.072  -6.865  1.00  0.00     0.057 A 
ATOM     73  C   UNL     1     -11.628   7.414  -7.027  1.00  0.00     0.134 A 
ATOM     74  C   UNL     1     -11.950   5.324  -5.904  1.00  0.00     0.134 A 
ATOM     75  F   UNL     1     -10.993   8.192  -7.918  1.00  0.00    -0.206 F 
ATOM     76  C   UNL     1     -12.624   7.997  -6.242  1.00  0.00     0.040 A 
ATOM     77  C   UNL     1     -12.970   5.887  -5.136  1.00  0.00     0.040 A 
ATOM     78  F   UNL     1     -11.649   4.034  -5.698  1.00  0.00    -0.206 F 
ATOM     79  C   UNL     1     -13.303   7.230  -5.297  1.00  0.00     0.006 A 
ENDBRANCH  58  72
BRANCH  59  80
ATOM     80  C   UNL     1      -3.635   2.114 -11.980  1.00  0.00     0.057 A 
ATOM     81  C   UNL     1      -3.538   2.242 -13.370  1.00  0.00     0.134 A 
ATOM     82  C   UNL     1      -2.645   1.363 -11.333  1.00  0.00     0.134 A 
ATOM     83  F   UNL     1      -4.469   2.926 -14.051  1.00  0.00    -0.206 F 
ATOM     84  C   UNL     1      -2.510   1.634 -14.092  1.00  0.00     0.040 A 
ATOM     85  C   UNL     1      -1.595   0.773 -12.039  1.00  0.00     0.040 A 
ATOM     86  F   UNL     1      -2.679   1.200 -10.002  1.00  0.00    -0.206 F 
ATOM     87  C   UNL     1      -1.530   0.901 -13.425  1.00  0.00     0.006 A 
ENDBRANCH  59  80
BRANCH  71  88
ATOM     88  C   UNL     1     -10.519   0.976 -11.911  1.00  0.00     0.057 A 
ATOM     89  C   UNL     1     -10.559  -0.405 -11.686  1.00  0.00     0.134 A 
ATOM     90  C   UNL     1     -11.406   1.500 -12.862  1.00  0.00     0.134 A 
ATOM     91  F   UNL     1      -9.730  -0.974 -10.797  1.00  0.00    -0.206 F 
ATOM     92  C   UNL     1     -11.437  -1.233 -12.388  1.00  0.00     0.040 A 
ATOM     93  C   UNL     1     -12.309   0.688 -13.548  1.00  0.00     0.040 A 
ATOM     94  F   UNL     1     -11.429   2.817 -13.118  1.00  0.00    -0.206 F 
ATOM     95  C   UNL     1     -12.322  -0.685 -13.315  1.00  0.00     0.006 A 
ENDBRANCH  71  88
ENDBRANCH  45  46
ENDBRANCH  38  40
ENDBRANCH  37  38
ENDBRANCH  36  37
ENDBRANCH  35  36
ENDBRANCH  34  35
ENDBRANCH  33  34
ENDBRANCH  32  33
ENDBRANCH  31  32
ENDBRANCH   1  31
TORSDOF 25
