REMARK SMILES Cc1cccc(-c2cc(C(=O)OCCOCCOCCOCCOC(=O)c3ccc(-c4c5nc(c(-c6c(F)cccc6F)c6ccc([nH]6)c(-c6c(F)cccc6F)c6nc(c(-c7c(F)cccc7F)c7ccc4[nH]7)C=C6)C=C5)cc3)ccn2)c1
REMARK SMILES IDX 19 1 18 2 17 3 16 4 15 5 14 6 13 7 12 8 10 9 11 10 9 11 7 12
REMARK SMILES IDX 8 13 83 14 82 15 81 16 6 17 1 18 2 19 3 20 84 21 4 22 5 23
REMARK SMILES IDX 20 24 21 25 22 26 23 27 24 28 25 29 26 30 27 31 28 32 80 33
REMARK SMILES IDX 29 34 79 35 30 36 31 37 32 38 73 39 33 40 78 41 72 42 74 43
REMARK SMILES IDX 34 44 77 45 71 46 70 47 35 49 61 50 44 51 60 52 45 53 48 54
REMARK SMILES IDX 59 55 75 56 46 57 47 58 58 60 76 61 49 62 36 63 37 64 42 65
REMARK SMILES IDX 38 66 39 67 41 68 43 69 40 70 62 71 63 72 68 73 64 74 65 75
REMARK SMILES IDX 67 76 69 77 66 78 50 79 51 80 56 81 52 82 53 83 55 84 57 85
REMARK SMILES IDX 54 86
REMARK H PARENT 74 48 48 59
REMARK Flexibility Score: inf
ROOT
ATOM      1  C   UNL     1      -5.033   2.136  -4.679  1.00  0.00     0.188 C 
ENDROOT
BRANCH   1   2
ATOM      2  O   UNL     1      -4.625   2.587  -3.392  1.00  0.00    -0.377 OA
BRANCH   2   3
ATOM      3  C   UNL     1      -5.598   3.044  -2.466  1.00  0.00     0.188 C 
BRANCH   3   4
ATOM      4  C   UNL     1      -5.987   4.532  -2.442  1.00  0.00     0.188 C 
BRANCH   4   5
ATOM      5  O   UNL     1      -4.964   5.485  -2.270  1.00  0.00    -0.376 OA
BRANCH   5   6
ATOM      6  C   UNL     1      -4.147   5.782  -3.393  1.00  0.00     0.202 C 
BRANCH   6   7
ATOM      7  C   UNL     1      -2.983   4.835  -3.556  1.00  0.00     0.261 C 
BRANCH   7   8
ATOM      8  O   UNL     1      -2.326   4.448  -2.352  1.00  0.00    -0.460 OA
BRANCH   8   9
ATOM      9  C   UNL     1      -2.506   5.148  -1.207  1.00  0.00     0.338 C 
ATOM     10  O   UNL     1      -2.789   6.315  -1.024  1.00  0.00    -0.246 OA
BRANCH   9  11
ATOM     11  C   UNL     1      -2.491   4.166  -0.128  1.00  0.00     0.063 A 
ATOM     12  C   UNL     1      -1.929   2.025   0.714  1.00  0.00     0.071 A 
ATOM     13  C   UNL     1      -1.802   2.975  -0.278  1.00  0.00     0.044 A 
ATOM     14  N   UNL     1      -2.703   2.208   1.811  1.00  0.00    -0.256 NA
ATOM     15  C   UNL     1      -3.340   3.398   1.930  1.00  0.00     0.112 A 
ATOM     16  C   UNL     1      -3.263   4.409   0.998  1.00  0.00     0.036 A 
BRANCH  12  17
ATOM     17  C   UNL     1      -1.180   0.782   0.581  1.00  0.00     0.000 A 
ATOM     18  C   UNL     1       2.466  -0.200   0.071  1.00  0.00     0.044 C 
ATOM     19  C   UNL     1       0.976  -0.300   0.190  1.00  0.00    -0.050 A 
ATOM     20  C   UNL     1       0.315  -1.518   0.016  1.00  0.00     0.003 A 
ATOM     21  C   UNL     1       0.222   0.836   0.488  1.00  0.00     0.013 A 
ATOM     22  C   UNL     1      -1.077  -1.592   0.122  1.00  0.00     0.001 A 
ATOM     23  C   UNL     1      -1.823  -0.447   0.403  1.00  0.00     0.010 A 
ENDBRANCH  12  17
ENDBRANCH   9  11
ENDBRANCH   8   9
ENDBRANCH   7   8
ENDBRANCH   6   7
ENDBRANCH   5   6
ENDBRANCH   4   5
ENDBRANCH   3   4
ENDBRANCH   2   3
ENDBRANCH   1   2
BRANCH   1  24
ATOM     24  C   UNL     1      -5.106   3.210  -5.770  1.00  0.00     0.188 C 
BRANCH  24  25
ATOM     25  O   UNL     1      -5.900   4.319  -5.395  1.00  0.00    -0.376 OA
BRANCH  25  26
ATOM     26  C   UNL     1      -7.271   4.299  -5.762  1.00  0.00     0.202 C 
BRANCH  26  27
ATOM     27  C   UNL     1      -7.465   4.567  -7.255  1.00  0.00     0.261 C 
BRANCH  27  28
ATOM     28  O   UNL     1      -6.724   5.750  -7.611  1.00  0.00    -0.460 OA
BRANCH  28  29
ATOM     29  C   UNL     1      -5.508   5.540  -8.182  1.00  0.00     0.338 C 
ATOM     30  O   UNL     1      -5.206   4.593  -8.898  1.00  0.00    -0.246 OA
BRANCH  29  31
ATOM     31  C   UNL     1      -4.507   6.489  -7.618  1.00  0.00     0.060 A 
ATOM     32  C   UNL     1      -3.140   6.325  -7.905  1.00  0.00     0.016 A 
ATOM     33  C   UNL     1      -4.888   7.381  -6.623  1.00  0.00     0.016 A 
ATOM     34  C   UNL     1      -2.159   6.968  -7.127  1.00  0.00     0.010 A 
ATOM     35  C   UNL     1      -3.916   7.962  -5.824  1.00  0.00     0.010 A 
ATOM     36  C   UNL     1      -2.539   7.747  -6.030  1.00  0.00    -0.014 A 
BRANCH  36  37
ATOM     37  C   UNL     1      -1.646   8.191  -4.928  1.00  0.00     0.031 A 
ATOM     38  C   UNL     1      -1.854   9.503  -4.234  1.00  0.00     0.074 A 
ATOM     39  C   UNL     1      -0.958   7.251  -4.232  1.00  0.00     0.049 A 
ATOM     40  N   UNL     1      -1.227   9.875  -3.168  1.00  0.00    -0.248 NA
ATOM     41  C   UNL     1      -2.779  10.537  -4.686  1.00  0.00     0.031 C 
ATOM     42  C   UNL     1      -0.738   7.260  -2.790  1.00  0.00     0.029 A 
ATOM     43  N   UNL     1      -0.407   6.039  -4.610  1.00  0.00    -0.354 N 
ATOM     44  C   UNL     1      -1.979  10.847  -2.553  1.00  0.00     0.074 A 
ATOM     45  C   UNL     1      -2.796  11.356  -3.626  1.00  0.00     0.031 C 
ATOM     46  C   UNL     1       0.019   6.227  -2.415  1.00  0.00     0.029 A 
ATOM     47  C   UNL     1       0.428   5.547  -3.614  1.00  0.00     0.049 A 
ATOM     48  H   UNL     1      -0.582   5.588  -5.466  1.00  0.00     0.167 HD
ATOM     49  C   UNL     1      -1.905  10.982  -1.191  1.00  0.00     0.037 A 
ATOM     50  C   UNL     1       1.660   5.018  -3.795  1.00  0.00     0.037 A 
ATOM     51  C   UNL     1      -0.847  10.104  -0.610  1.00  0.00     0.049 A 
ATOM     52  C   UNL     1       2.604   5.988  -3.126  1.00  0.00     0.074 A 
ATOM     53  C   UNL     1      -0.827   9.106   0.354  1.00  0.00     0.029 A 
ATOM     54  N   UNL     1       0.423  10.050  -1.212  1.00  0.00    -0.354 N 
ATOM     55  N   UNL     1       2.275   7.255  -2.977  1.00  0.00    -0.248 NA
ATOM     56  C   UNL     1       3.777   5.623  -2.335  1.00  0.00     0.031 C 
ATOM     57  C   UNL     1       0.434   8.427   0.277  1.00  0.00     0.029 A 
ATOM     58  C   UNL     1       1.198   9.005  -0.730  1.00  0.00     0.049 A 
ATOM     59  H   UNL     1       0.728  10.684  -1.900  1.00  0.00     0.167 HD
ATOM     60  C   UNL     1       2.967   7.762  -1.919  1.00  0.00     0.074 A 
ATOM     61  C   UNL     1       3.973   6.749  -1.619  1.00  0.00     0.031 C 
ATOM     62  C   UNL     1       2.591   8.830  -1.152  1.00  0.00     0.037 A 
BRANCH  49  63
ATOM     63  C   UNL     1      -2.882  11.807  -0.329  1.00  0.00     0.057 A 
ATOM     64  C   UNL     1      -2.700  11.933   1.067  1.00  0.00     0.134 A 
ATOM     65  C   UNL     1      -4.038  12.480  -0.788  1.00  0.00     0.134 A 
ATOM     66  F   UNL     1      -1.678  11.342   1.699  1.00  0.00    -0.206 F 
ATOM     67  C   UNL     1      -3.560  12.674   1.905  1.00  0.00     0.040 A 
ATOM     68  C   UNL     1      -4.875  13.266   0.029  1.00  0.00     0.040 A 
ATOM     69  F   UNL     1      -4.477  12.391  -2.044  1.00  0.00    -0.206 F 
ATOM     70  C   UNL     1      -4.641  13.365   1.385  1.00  0.00     0.006 A 
ENDBRANCH  49  63
BRANCH  50  71
ATOM     71  C   UNL     1       1.694   4.092  -4.955  1.00  0.00     0.057 A 
ATOM     72  C   UNL     1       1.068   2.848  -4.704  1.00  0.00     0.134 A 
ATOM     73  C   UNL     1       1.600   4.579  -6.266  1.00  0.00     0.134 A 
ATOM     74  F   UNL     1       1.127   2.307  -3.475  1.00  0.00    -0.206 F 
ATOM     75  C   UNL     1       0.211   2.243  -5.631  1.00  0.00     0.040 A 
ATOM     76  C   UNL     1       0.731   3.984  -7.200  1.00  0.00     0.040 A 
ATOM     77  F   UNL     1       2.101   5.784  -6.574  1.00  0.00    -0.206 F 
ATOM     78  C   UNL     1      -0.003   2.845  -6.866  1.00  0.00     0.006 A 
ENDBRANCH  50  71
BRANCH  62  79
ATOM     79  C   UNL     1       3.623   9.865  -0.796  1.00  0.00     0.057 A 
ATOM     80  C   UNL     1       4.872   9.945  -1.438  1.00  0.00     0.134 A 
ATOM     81  C   UNL     1       3.310  10.940   0.059  1.00  0.00     0.134 A 
ATOM     82  F   UNL     1       5.265   9.033  -2.339  1.00  0.00    -0.206 F 
ATOM     83  C   UNL     1       5.760  10.998  -1.214  1.00  0.00     0.040 A 
ATOM     84  C   UNL     1       4.171  12.020   0.252  1.00  0.00     0.040 A 
ATOM     85  F   UNL     1       2.143  11.011   0.717  1.00  0.00    -0.206 F 
ATOM     86  C   UNL     1       5.406  12.045  -0.376  1.00  0.00     0.006 A 
ENDBRANCH  62  79
ENDBRANCH  36  37
ENDBRANCH  29  31
ENDBRANCH  28  29
ENDBRANCH  27  28
ENDBRANCH  26  27
ENDBRANCH  25  26
ENDBRANCH  24  25
ENDBRANCH   1  24
TORSDOF 21
