REMARK SMILES COc1ccc(C(=O)N[C@H](C(=O)OCCOCCOCCOCCOC(=O)c2ccc(-c3c4nc(c(-c5c(F)cccc5F)c5ccc([nH]5)c(-c5c(F)cccc5F)c5nc(c(-c6c(F)cccc6F)c6ccc3[nH]6)C=C5)C=C4)cc2)C2=C(C)N=N[C@H]2C)c(F)c1F
REMARK SMILES IDX 18 1 17 2 16 3 15 4 14 5 13 6 11 7 12 8 10 9 9 10 7 11 8 12
REMARK SMILES IDX 6 14 3 15 4 16 91 17 5 18 89 19 92 20 90 21 2 22 1 23 82 24
REMARK SMILES IDX 83 25 87 26 84 27 85 28 86 29 88 30 19 31 20 32 21 33 22 34
REMARK SMILES IDX 23 35 24 36 25 37 26 38 27 39 28 40 29 41 81 42 30 43 80 44
REMARK SMILES IDX 31 45 32 46 33 47 74 48 34 49 79 50 73 51 75 52 35 53 78 54
REMARK SMILES IDX 72 55 71 56 36 58 62 59 45 60 61 61 46 62 49 63 60 64 76 65
REMARK SMILES IDX 47 66 48 67 59 69 77 70 50 71 37 72 38 73 43 74 39 75 40 76
REMARK SMILES IDX 42 77 44 78 41 79 63 80 64 81 69 82 65 83 66 84 68 85 70 86
REMARK SMILES IDX 67 87 51 88 52 89 57 90 53 91 54 92 56 93 58 94 55 95
REMARK H PARENT 9 13 75 57 49 68
REMARK Flexibility Score: inf
ROOT
ATOM      1  C   UNL     1       0.448   2.814   9.556  1.00  0.00     0.188 C 
ENDROOT
BRANCH   1   2
ATOM      2  C   UNL     1       1.278   1.529   9.386  1.00  0.00     0.188 C 
BRANCH   2   3
ATOM      3  O   UNL     1       2.668   1.738   9.491  1.00  0.00    -0.376 OA
BRANCH   3   4
ATOM      4  C   UNL     1       3.490   1.691   8.344  1.00  0.00     0.202 C 
BRANCH   4   5
ATOM      5  C   UNL     1       3.108   2.367   7.016  1.00  0.00     0.261 C 
BRANCH   5   6
ATOM      6  O   UNL     1       1.776   2.876   6.891  1.00  0.00    -0.461 OA
BRANCH   6   7
ATOM      7  C   UNL     1       0.892   2.074   6.258  1.00  0.00     0.333 C 
ATOM      8  O   UNL     1       1.155   0.928   5.896  1.00  0.00    -0.249 OA
BRANCH   7   9
ATOM      9  C   UNL     1      -0.502   2.716   6.029  1.00  0.00     0.223 C 
BRANCH   9  10
ATOM     10  N   UNL     1      -1.490   1.738   6.492  1.00  0.00    -0.335 N 
ATOM     11  C   UNL     1      -2.652   1.246   5.975  1.00  0.00     0.255 C 
ATOM     12  O   UNL     1      -3.312   0.500   6.701  1.00  0.00    -0.269 OA
ATOM     13  H   UNL     1      -1.266   1.350   7.369  1.00  0.00     0.165 HD
BRANCH  11  14
ATOM     14  C   UNL     1      -3.109   1.473   4.587  1.00  0.00     0.078 A 
ATOM     15  C   UNL     1      -3.866   1.569   1.895  1.00  0.00     0.157 A 
ATOM     16  C   UNL     1      -4.274   0.497   2.679  1.00  0.00     0.050 A 
ATOM     17  C   UNL     1      -3.123   2.600   2.454  1.00  0.00     0.201 A 
ATOM     18  C   UNL     1      -3.891   0.448   4.021  1.00  0.00     0.021 A 
ATOM     19  C   UNL     1      -2.811   2.582   3.803  1.00  0.00     0.175 A 
ATOM     20  F   UNL     1      -2.724   3.636   1.700  1.00  0.00    -0.200 F 
ATOM     21  F   UNL     1      -2.273   3.694   4.309  1.00  0.00    -0.203 F 
BRANCH  15  22
ATOM     22  O   UNL     1      -4.195   1.586   0.571  1.00  0.00    -0.494 OA
ATOM     23  C   UNL     1      -5.300   2.465   0.361  1.00  0.00     0.278 C 
ENDBRANCH  15  22
ENDBRANCH  11  14
ENDBRANCH   9  10
BRANCH   9  24
ATOM     24  C   UNL     1      -0.886   4.081   6.558  1.00  0.00     0.012 C 
ATOM     25  C   UNL     1      -1.886   4.513   7.355  1.00  0.00     0.064 C 
ATOM     26  C   UNL     1      -0.344   5.341   5.941  1.00  0.00     0.156 C 
ATOM     27  C   UNL     1      -2.897   3.793   8.192  1.00  0.00     0.069 C 
ATOM     28  N   UNL     1      -2.055   5.877   7.294  1.00  0.00    -0.160 NA
ATOM     29  N   UNL     1      -1.272   6.383   6.454  1.00  0.00    -0.181 NA
ATOM     30  C   UNL     1       1.053   5.779   6.357  1.00  0.00     0.040 C 
ENDBRANCH   9  24
ENDBRANCH   7   9
ENDBRANCH   6   7
ENDBRANCH   5   6
ENDBRANCH   4   5
ENDBRANCH   3   4
ENDBRANCH   2   3
ENDBRANCH   1   2
BRANCH   1  31
ATOM     31  O   UNL     1       1.059   4.080   9.364  1.00  0.00    -0.377 OA
BRANCH  31  32
ATOM     32  C   UNL     1       2.281   4.386  10.029  1.00  0.00     0.188 C 
BRANCH  32  33
ATOM     33  C   UNL     1       2.606   3.749  11.398  1.00  0.00     0.188 C 
BRANCH  33  34
ATOM     34  O   UNL     1       1.543   3.017  11.980  1.00  0.00    -0.376 OA
BRANCH  34  35
ATOM     35  C   UNL     1       0.769   3.670  12.975  1.00  0.00     0.202 C 
BRANCH  35  36
ATOM     36  C   UNL     1       0.053   4.974  12.588  1.00  0.00     0.261 C 
BRANCH  36  37
ATOM     37  O   UNL     1       0.882   6.039  12.093  1.00  0.00    -0.460 OA
BRANCH  37  38
ATOM     38  C   UNL     1       1.837   6.529  12.915  1.00  0.00     0.338 C 
ATOM     39  O   UNL     1       2.082   6.186  14.051  1.00  0.00    -0.246 OA
BRANCH  38  40
ATOM     40  C   UNL     1       2.672   7.452  12.117  1.00  0.00     0.060 A 
ATOM     41  C   UNL     1       4.013   7.126  11.873  1.00  0.00     0.016 A 
ATOM     42  C   UNL     1       2.126   8.633  11.612  1.00  0.00     0.016 A 
ATOM     43  C   UNL     1       4.820   7.997  11.141  1.00  0.00     0.010 A 
ATOM     44  C   UNL     1       2.943   9.517  10.901  1.00  0.00     0.010 A 
ATOM     45  C   UNL     1       4.300   9.216  10.687  1.00  0.00    -0.014 A 
BRANCH  45  46
ATOM     46  C   UNL     1       5.212  10.251  10.145  1.00  0.00     0.031 A 
ATOM     47  C   UNL     1       5.677  11.349  11.061  1.00  0.00     0.074 A 
ATOM     48  C   UNL     1       5.633  10.213   8.869  1.00  0.00     0.049 A 
ATOM     49  N   UNL     1       6.423  12.391  10.800  1.00  0.00    -0.248 NA
ATOM     50  C   UNL     1       5.238  11.256  12.463  1.00  0.00     0.031 C 
ATOM     51  C   UNL     1       5.291   9.179   7.896  1.00  0.00     0.029 A 
ATOM     52  N   UNL     1       6.433  11.084   8.171  1.00  0.00    -0.354 N 
ATOM     53  C   UNL     1       6.536  13.082  12.000  1.00  0.00     0.074 A 
ATOM     54  C   UNL     1       5.758  12.358  12.982  1.00  0.00     0.031 C 
ATOM     55  C   UNL     1       5.867   9.482   6.720  1.00  0.00     0.029 A 
ATOM     56  C   UNL     1       6.585  10.750   6.848  1.00  0.00     0.049 A 
ATOM     57  H   UNL     1       6.859  11.871   8.581  1.00  0.00     0.167 HD
ATOM     58  C   UNL     1       7.230  14.215  12.262  1.00  0.00     0.037 A 
ATOM     59  C   UNL     1       7.206  11.410   5.851  1.00  0.00     0.037 A 
ATOM     60  C   UNL     1       7.993  14.940  11.279  1.00  0.00     0.049 A 
ATOM     61  C   UNL     1       7.892  12.720   6.144  1.00  0.00     0.074 A 
ATOM     62  C   UNL     1       8.748  16.087  11.449  1.00  0.00     0.029 A 
ATOM     63  N   UNL     1       8.085  14.595   9.939  1.00  0.00    -0.354 N 
ATOM     64  N   UNL     1       8.021  13.351   7.287  1.00  0.00    -0.248 NA
ATOM     65  C   UNL     1       8.516  13.411   5.006  1.00  0.00     0.031 C 
ATOM     66  C   UNL     1       9.242  16.473  10.199  1.00  0.00     0.029 A 
ATOM     67  C   UNL     1       8.852  15.530   9.262  1.00  0.00     0.049 A 
ATOM     68  H   UNL     1       7.667  13.803   9.529  1.00  0.00     0.167 HD
ATOM     69  C   UNL     1       8.760  14.496   7.011  1.00  0.00     0.074 A 
ATOM     70  C   UNL     1       9.067  14.462   5.596  1.00  0.00     0.031 C 
ATOM     71  C   UNL     1       9.148  15.487   7.852  1.00  0.00     0.037 A 
BRANCH  58  72
ATOM     72  C   UNL     1       7.161  14.760  13.659  1.00  0.00     0.057 A 
ATOM     73  C   UNL     1       7.772  14.114  14.742  1.00  0.00     0.134 A 
ATOM     74  C   UNL     1       6.491  15.962  13.922  1.00  0.00     0.134 A 
ATOM     75  F   UNL     1       8.418  12.951  14.564  1.00  0.00    -0.206 F 
ATOM     76  C   UNL     1       7.696  14.628  16.038  1.00  0.00     0.040 A 
ATOM     77  C   UNL     1       6.433  16.502  15.207  1.00  0.00     0.040 A 
ATOM     78  F   UNL     1       5.887  16.636  12.931  1.00  0.00    -0.206 F 
ATOM     79  C   UNL     1       7.030  15.829  16.272  1.00  0.00     0.006 A 
ENDBRANCH  58  72
BRANCH  59  80
ATOM     80  C   UNL     1       7.191  10.859   4.471  1.00  0.00     0.057 A 
ATOM     81  C   UNL     1       8.364  10.409   3.855  1.00  0.00     0.134 A 
ATOM     82  C   UNL     1       6.007  10.793   3.725  1.00  0.00     0.134 A 
ATOM     83  F   UNL     1       9.535  10.470   4.506  1.00  0.00    -0.206 F 
ATOM     84  C   UNL     1       8.365   9.928   2.544  1.00  0.00     0.040 A 
ATOM     85  C   UNL     1       5.988  10.288   2.424  1.00  0.00     0.040 A 
ATOM     86  F   UNL     1       4.848  11.211   4.254  1.00  0.00    -0.206 F 
ATOM     87  C   UNL     1       7.172   9.861   1.827  1.00  0.00     0.006 A 
ENDBRANCH  59  80
BRANCH  71  88
ATOM     88  C   UNL     1       9.970  16.604   7.272  1.00  0.00     0.057 A 
ATOM     89  C   UNL     1       9.422  17.552   6.399  1.00  0.00     0.134 A 
ATOM     90  C   UNL     1      11.318  16.757   7.626  1.00  0.00     0.134 A 
ATOM     91  F   UNL     1       8.142  17.459   6.010  1.00  0.00    -0.206 F 
ATOM     92  C   UNL     1      10.191  18.595   5.877  1.00  0.00     0.040 A 
ATOM     93  C   UNL     1      12.087  17.814   7.136  1.00  0.00     0.040 A 
ATOM     94  F   UNL     1      11.905  15.892   8.467  1.00  0.00    -0.206 F 
ATOM     95  C   UNL     1      11.526  18.733   6.253  1.00  0.00     0.006 A 
ENDBRANCH  71  88
ENDBRANCH  45  46
ENDBRANCH  38  40
ENDBRANCH  37  38
ENDBRANCH  36  37
ENDBRANCH  35  36
ENDBRANCH  34  35
ENDBRANCH  33  34
ENDBRANCH  32  33
ENDBRANCH  31  32
ENDBRANCH   1  31
TORSDOF 24
