REMARK SMILES CC(C)c1nc(N2C[C@H](C)OC(C)(C)C2)sc1C(=O)OCCOCCOCCOCCOC(=O)c1ccc(-c2c3nc(c(-c4c(F)cccc4F)c4ccc([nH]4)c(-c4c(F)cccc4F)c4nc(c(-c5c(F)cccc5F)c5ccc2[nH]5)C=C4)C=C3)cc1
REMARK SMILES IDX 27 1 26 2 25 3 24 4 23 5 22 6 21 7 20 8 18 9 19 10 17 11
REMARK SMILES IDX 4 12 5 13 6 14 16 15 2 16 1 17 3 18 7 19 8 20 15 21 9 22
REMARK SMILES IDX 12 23 11 24 10 25 13 26 14 27 28 28 29 29 30 30 31 31 32 32
REMARK SMILES IDX 33 33 34 34 35 35 36 36 88 37 37 38 87 39 38 40 39 41 40 42
REMARK SMILES IDX 81 43 41 44 86 45 80 46 82 47 42 48 85 49 79 50 78 51 43 53
REMARK SMILES IDX 69 54 52 55 68 56 53 57 56 58 67 59 83 60 54 61 55 62 66 64
REMARK SMILES IDX 84 65 57 66 44 67 45 68 50 69 46 70 47 71 49 72 51 73 48 74
REMARK SMILES IDX 70 75 71 76 76 77 72 78 73 79 75 80 77 81 74 82 58 83 59 84
REMARK SMILES IDX 64 85 60 86 61 87 63 88 65 89 62 90
REMARK H PARENT 82 52 56 63
REMARK Flexibility Score: inf
ROOT
ATOM      1  C   UNL     1       0.460   4.184  -1.630  1.00  0.00     0.188 C 
ENDROOT
BRANCH   1   2
ATOM      2  O   UNL     1      -0.500   3.135  -1.695  1.00  0.00    -0.377 OA
BRANCH   2   3
ATOM      3  C   UNL     1      -1.345   3.005  -0.558  1.00  0.00     0.188 C 
BRANCH   3   4
ATOM      4  C   UNL     1      -2.023   4.261   0.021  1.00  0.00     0.188 C 
BRANCH   4   5
ATOM      5  O   UNL     1      -1.081   5.237   0.483  1.00  0.00    -0.376 OA
BRANCH   5   6
ATOM      6  C   UNL     1      -1.060   5.472   1.888  1.00  0.00     0.202 C 
BRANCH   6   7
ATOM      7  C   UNL     1      -0.084   4.540   2.606  1.00  0.00     0.261 C 
BRANCH   7   8
ATOM      8  O   UNL     1      -0.383   3.156   2.373  1.00  0.00    -0.459 OA
BRANCH   8   9
ATOM      9  C   UNL     1      -1.421   2.611   3.048  1.00  0.00     0.350 C 
ATOM     10  O   UNL     1      -2.053   3.216   3.908  1.00  0.00    -0.245 OA
BRANCH   9  11
ATOM     11  C   UNL     1      -1.744   1.312   2.497  1.00  0.00     0.137 A 
ATOM     12  C   UNL     1      -1.012   0.267   1.934  1.00  0.00     0.071 A 
ATOM     13  N   UNL     1      -1.809  -0.827   1.575  1.00  0.00    -0.224 NA
ATOM     14  C   UNL     1      -3.085  -0.584   1.719  1.00  0.00     0.186 A 
ATOM     15  S   UNL     1      -3.434   0.941   2.405  1.00  0.00    -0.089 S 
BRANCH  12  16
ATOM     16  C   UNL     1       0.469   0.023   1.677  1.00  0.00     0.034 C 
ATOM     17  C   UNL     1       0.708  -0.400   0.215  1.00  0.00     0.014 C 
ATOM     18  C   UNL     1       1.458   1.126   2.024  1.00  0.00     0.014 C 
ENDBRANCH  12  16
BRANCH  14  19
ATOM     19  N   UNL     1      -4.042  -1.487   1.429  1.00  0.00    -0.343 N 
ATOM     20  C   UNL     1      -5.015  -1.298   0.364  1.00  0.00     0.150 C 
ATOM     21  C   UNL     1      -4.213  -2.661   2.272  1.00  0.00     0.153 C 
ATOM     22  C   UNL     1      -5.124  -2.601  -0.461  1.00  0.00     0.135 C 
ATOM     23  C   UNL     1      -4.393  -3.938   1.415  1.00  0.00     0.081 C 
ATOM     24  O   UNL     1      -5.385  -3.743   0.380  1.00  0.00    -0.369 OA
ATOM     25  C   UNL     1      -6.262  -2.521  -1.471  1.00  0.00     0.040 C 
ATOM     26  C   UNL     1      -3.059  -4.404   0.812  1.00  0.00     0.044 C 
ATOM     27  C   UNL     1      -4.942  -5.058   2.309  1.00  0.00     0.044 C 
ENDBRANCH  14  19
ENDBRANCH   9  11
ENDBRANCH   8   9
ENDBRANCH   7   8
ENDBRANCH   6   7
ENDBRANCH   5   6
ENDBRANCH   4   5
ENDBRANCH   3   4
ENDBRANCH   2   3
ENDBRANCH   1   2
BRANCH   1  28
ATOM     28  C   UNL     1      -0.073   5.474  -2.275  1.00  0.00     0.188 C 
BRANCH  28  29
ATOM     29  O   UNL     1      -1.409   5.336  -2.752  1.00  0.00    -0.376 OA
BRANCH  29  30
ATOM     30  C   UNL     1      -1.574   4.986  -4.123  1.00  0.00     0.202 C 
BRANCH  30  31
ATOM     31  C   UNL     1      -0.946   3.673  -4.626  1.00  0.00     0.261 C 
BRANCH  31  32
ATOM     32  O   UNL     1       0.488   3.584  -4.540  1.00  0.00    -0.460 OA
BRANCH  32  33
ATOM     33  C   UNL     1       1.223   4.517  -5.178  1.00  0.00     0.338 C 
ATOM     34  O   UNL     1       0.825   5.419  -5.891  1.00  0.00    -0.246 OA
BRANCH  33  35
ATOM     35  C   UNL     1       2.619   4.374  -4.713  1.00  0.00     0.060 A 
ATOM     36  C   UNL     1       3.262   5.485  -4.152  1.00  0.00     0.016 A 
ATOM     37  C   UNL     1       3.283   3.150  -4.822  1.00  0.00     0.016 A 
ATOM     38  C   UNL     1       4.588   5.381  -3.730  1.00  0.00     0.010 A 
ATOM     39  C   UNL     1       4.617   3.052  -4.419  1.00  0.00     0.010 A 
ATOM     40  C   UNL     1       5.284   4.176  -3.902  1.00  0.00    -0.014 A 
BRANCH  40  41
ATOM     41  C   UNL     1       6.757   4.148  -3.743  1.00  0.00     0.031 A 
ATOM     42  C   UNL     1       7.604   4.398  -4.961  1.00  0.00     0.074 A 
ATOM     43  C   UNL     1       7.335   3.911  -2.553  1.00  0.00     0.049 A 
ATOM     44  N   UNL     1       8.906   4.398  -5.083  1.00  0.00    -0.248 NA
ATOM     45  C   UNL     1       6.880   4.686  -6.211  1.00  0.00     0.031 C 
ATOM     46  C   UNL     1       6.626   3.681  -1.296  1.00  0.00     0.029 A 
ATOM     47  N   UNL     1       8.662   3.817  -2.215  1.00  0.00    -0.354 N 
ATOM     48  C   UNL     1       9.156   4.688  -6.418  1.00  0.00     0.074 A 
ATOM     49  C   UNL     1       7.875   4.830  -7.073  1.00  0.00     0.031 C 
ATOM     50  C   UNL     1       7.529   3.461  -0.322  1.00  0.00     0.029 A 
ATOM     51  C   UNL     1       8.874   3.511  -0.893  1.00  0.00     0.049 A 
ATOM     52  H   UNL     1       9.393   3.955  -2.860  1.00  0.00     0.167 HD
ATOM     53  C   UNL     1      10.348   4.830  -7.043  1.00  0.00     0.037 A 
ATOM     54  C   UNL     1      10.024   3.283  -0.229  1.00  0.00     0.037 A 
ATOM     55  C   UNL     1      11.623   4.678  -6.399  1.00  0.00     0.049 A 
ATOM     56  C   UNL     1      11.337   3.376  -0.965  1.00  0.00     0.074 A 
ATOM     57  C   UNL     1      12.887   4.819  -6.944  1.00  0.00     0.029 A 
ATOM     58  N   UNL     1      11.795   4.341  -5.066  1.00  0.00    -0.354 N 
ATOM     59  N   UNL     1      11.564   3.689  -2.218  1.00  0.00    -0.248 NA
ATOM     60  C   UNL     1      12.554   3.083  -0.192  1.00  0.00     0.031 C 
ATOM     61  C   UNL     1      13.825   4.527  -5.949  1.00  0.00     0.029 A 
ATOM     62  C   UNL     1      13.145   4.245  -4.775  1.00  0.00     0.049 A 
ATOM     63  H   UNL     1      11.066   4.192  -4.422  1.00  0.00     0.167 HD
ATOM     64  C   UNL     1      12.945   3.660  -2.375  1.00  0.00     0.074 A 
ATOM     65  C   UNL     1      13.505   3.307  -1.087  1.00  0.00     0.031 C 
ATOM     66  C   UNL     1      13.684   3.905  -3.484  1.00  0.00     0.037 A 
BRANCH  53  67
ATOM     67  C   UNL     1      10.320   5.144  -8.507  1.00  0.00     0.057 A 
ATOM     68  C   UNL     1       9.974   6.417  -8.980  1.00  0.00     0.134 A 
ATOM     69  C   UNL     1      10.663   4.171  -9.453  1.00  0.00     0.134 A 
ATOM     70  F   UNL     1       9.617   7.386  -8.124  1.00  0.00    -0.206 F 
ATOM     71  C   UNL     1       9.954   6.705 -10.345  1.00  0.00     0.040 A 
ATOM     72  C   UNL     1      10.667   4.454 -10.820  1.00  0.00     0.040 A 
ATOM     73  F   UNL     1      11.002   2.933  -9.064  1.00  0.00    -0.206 F 
ATOM     74  C   UNL     1      10.307   5.723 -11.269  1.00  0.00     0.006 A 
ENDBRANCH  53  67
BRANCH  54  75
ATOM     75  C   UNL     1      10.001   2.932   1.213  1.00  0.00     0.057 A 
ATOM     76  C   UNL     1      10.482   3.818   2.183  1.00  0.00     0.134 A 
ATOM     77  C   UNL     1       9.538   1.685   1.651  1.00  0.00     0.134 A 
ATOM     78  F   UNL     1      10.964   5.016   1.822  1.00  0.00    -0.206 F 
ATOM     79  C   UNL     1      10.521   3.472   3.535  1.00  0.00     0.040 A 
ATOM     80  C   UNL     1       9.551   1.334   3.002  1.00  0.00     0.040 A 
ATOM     81  F   UNL     1       9.069   0.789   0.770  1.00  0.00    -0.206 F 
ATOM     82  C   UNL     1      10.051   2.227   3.948  1.00  0.00     0.006 A 
ENDBRANCH  54  75
BRANCH  66  83
ATOM     83  C   UNL     1      15.176   3.840  -3.349  1.00  0.00     0.057 A 
ATOM     84  C   UNL     1      15.855   2.620  -3.244  1.00  0.00     0.134 A 
ATOM     85  C   UNL     1      15.945   5.010  -3.376  1.00  0.00     0.134 A 
ATOM     86  F   UNL     1      15.174   1.464  -3.201  1.00  0.00    -0.206 F 
ATOM     87  C   UNL     1      17.247   2.567  -3.153  1.00  0.00     0.040 A 
ATOM     88  C   UNL     1      17.338   4.969  -3.310  1.00  0.00     0.040 A 
ATOM     89  F   UNL     1      15.356   6.210  -3.486  1.00  0.00    -0.206 F 
ATOM     90  C   UNL     1      17.992   3.744  -3.193  1.00  0.00     0.006 A 
ENDBRANCH  66  83
ENDBRANCH  40  41
ENDBRANCH  33  35
ENDBRANCH  32  33
ENDBRANCH  31  32
ENDBRANCH  30  31
ENDBRANCH  29  30
ENDBRANCH  28  29
ENDBRANCH   1  28
TORSDOF 22
