REMARK SMILES Cc1cc(SCC(=O)OCCOCCOCCOCCOC(=O)c2ccc(-c3c4nc(c(-c5c(F)cccc5F)c5ccc([nH]5)c(-c5c(F)cccc5F)c5nc(c(-c6c(F)cccc6F)c6ccc3[nH]6)C=C5)C=C4)cc2)c2cc(I)ccc2n1
REMARK SMILES IDX 15 1 14 2 13 3 12 4 11 5 10 6 9 7 7 8 8 9 6 10 5 11 4 12
REMARK SMILES IDX 1 13 2 14 3 15 85 16 84 17 78 18 83 19 79 20 82 21 80 22
REMARK SMILES IDX 81 23 16 24 17 25 18 26 19 27 20 28 21 29 22 30 23 31 24 32
REMARK SMILES IDX 25 33 77 34 26 35 76 36 27 37 28 38 29 39 70 40 30 41 75 42
REMARK SMILES IDX 69 43 71 44 31 45 74 46 68 47 67 48 32 50 58 51 41 52 57 53
REMARK SMILES IDX 42 54 45 55 56 56 72 57 43 58 44 59 55 61 73 62 46 63 33 64
REMARK SMILES IDX 34 65 39 66 35 67 36 68 38 69 40 70 37 71 59 72 60 73 65 74
REMARK SMILES IDX 61 75 62 76 64 77 66 78 63 79 47 80 48 81 53 82 49 83 50 84
REMARK SMILES IDX 52 85 54 86 51 87
REMARK H PARENT 71 49 45 60
REMARK Flexibility Score: inf
ROOT
ATOM      1  O   UNL     1       0.183   2.592  -3.384  1.00  0.00    -0.377 OA
ENDROOT
BRANCH   1   2
ATOM      2  C   UNL     1      -0.762   1.835  -2.664  1.00  0.00     0.188 C 
BRANCH   2   3
ATOM      3  C   UNL     1      -0.839   0.295  -2.629  1.00  0.00     0.188 C 
BRANCH   3   4
ATOM      4  O   UNL     1      -0.910  -0.408  -3.848  1.00  0.00    -0.376 OA
BRANCH   4   5
ATOM      5  C   UNL     1      -2.000  -0.300  -4.737  1.00  0.00     0.202 C 
BRANCH   5   6
ATOM      6  C   UNL     1      -3.330   0.433  -4.460  1.00  0.00     0.261 C 
BRANCH   6   7
ATOM      7  O   UNL     1      -3.478   1.178  -3.237  1.00  0.00    -0.463 OA
BRANCH   7   8
ATOM      8  C   UNL     1      -4.122   0.576  -2.212  1.00  0.00     0.316 C 
ATOM      9  O   UNL     1      -4.583  -0.561  -2.294  1.00  0.00    -0.251 OA
BRANCH   8  10
ATOM     10  C   UNL     1      -4.268   1.383  -0.926  1.00  0.00     0.197 C 
BRANCH  10  11
ATOM     11  S   UNL     1      -3.460   3.018  -0.758  1.00  0.00    -0.114 SA
BRANCH  11  12
ATOM     12  C   UNL     1      -1.920   2.825   0.220  1.00  0.00     0.019 A 
ATOM     13  C   UNL     1       0.419   0.072   1.341  1.00  0.00     0.067 C 
ATOM     14  C   UNL     1      -0.178   1.432   1.123  1.00  0.00     0.039 A 
ATOM     15  C   UNL     1      -1.487   1.571   0.670  1.00  0.00     0.039 A 
ATOM     16  N   UNL     1       0.665   2.474   1.260  1.00  0.00    -0.253 NA
ATOM     17  C   UNL     1       0.262   3.688   0.881  1.00  0.00     0.072 A 
ATOM     18  C   UNL     1      -1.019   3.945   0.335  1.00  0.00     0.015 A 
ATOM     19  C   UNL     1       1.211   4.700   0.959  1.00  0.00     0.030 A 
ATOM     20  C   UNL     1      -1.270   5.274  -0.110  1.00  0.00     0.026 A 
ATOM     21  C   UNL     1       0.959   5.986   0.489  1.00  0.00     0.017 A 
ATOM     22  C   UNL     1      -0.288   6.270  -0.044  1.00  0.00     0.014 A 
ATOM     23  I   UNL     1      -0.674   8.175  -0.778  1.00  0.00    -0.044 I 
ENDBRANCH  11  12
ENDBRANCH  10  11
ENDBRANCH   8  10
ENDBRANCH   7   8
ENDBRANCH   6   7
ENDBRANCH   5   6
ENDBRANCH   4   5
ENDBRANCH   3   4
ENDBRANCH   2   3
ENDBRANCH   1   2
BRANCH   1  24
ATOM     24  C   UNL     1       0.560   2.093  -4.639  1.00  0.00     0.188 C 
BRANCH  24  25
ATOM     25  C   UNL     1       1.779   1.179  -4.517  1.00  0.00     0.188 C 
BRANCH  25  26
ATOM     26  O   UNL     1       1.911   0.609  -3.225  1.00  0.00    -0.376 OA
BRANCH  26  27
ATOM     27  C   UNL     1       2.717   1.246  -2.239  1.00  0.00     0.202 C 
BRANCH  27  28
ATOM     28  C   UNL     1       2.679   2.755  -1.922  1.00  0.00     0.261 C 
BRANCH  28  29
ATOM     29  O   UNL     1       2.582   3.688  -2.996  1.00  0.00    -0.460 OA
BRANCH  29  30
ATOM     30  C   UNL     1       3.596   3.824  -3.862  1.00  0.00     0.338 C 
ATOM     31  O   UNL     1       4.673   3.256  -3.852  1.00  0.00    -0.246 OA
BRANCH  30  32
ATOM     32  C   UNL     1       3.031   4.624  -4.969  1.00  0.00     0.060 A 
ATOM     33  C   UNL     1       2.396   5.846  -4.712  1.00  0.00     0.016 A 
ATOM     34  C   UNL     1       3.017   4.068  -6.253  1.00  0.00     0.016 A 
ATOM     35  C   UNL     1       1.766   6.528  -5.752  1.00  0.00     0.010 A 
ATOM     36  C   UNL     1       2.355   4.730  -7.283  1.00  0.00     0.010 A 
ATOM     37  C   UNL     1       1.762   5.979  -7.045  1.00  0.00    -0.014 A 
BRANCH  37  38
ATOM     38  C   UNL     1       1.404   6.812  -8.210  1.00  0.00     0.031 A 
ATOM     39  C   UNL     1       0.093   6.692  -8.913  1.00  0.00     0.074 A 
ATOM     40  C   UNL     1       2.376   7.619  -8.672  1.00  0.00     0.049 A 
ATOM     41  N   UNL     1      -0.313   7.307  -9.995  1.00  0.00    -0.248 NA
ATOM     42  C   UNL     1      -0.886   5.758  -8.342  1.00  0.00     0.031 C 
ATOM     43  C   UNL     1       3.701   7.767  -8.059  1.00  0.00     0.029 A 
ATOM     44  N   UNL     1       2.422   8.437  -9.767  1.00  0.00    -0.354 N 
ATOM     45  C   UNL     1      -1.603   6.852 -10.230  1.00  0.00     0.074 A 
ATOM     46  C   UNL     1      -1.895   5.875  -9.199  1.00  0.00     0.031 C 
ATOM     47  C   UNL     1       4.431   8.618  -8.791  1.00  0.00     0.029 A 
ATOM     48  C   UNL     1       3.641   9.045  -9.936  1.00  0.00     0.049 A 
ATOM     49  H   UNL     1       1.658   8.575 -10.372  1.00  0.00     0.167 HD
ATOM     50  C   UNL     1      -2.456   7.231 -11.213  1.00  0.00     0.037 A 
ATOM     51  C   UNL     1       4.078   9.844 -10.924  1.00  0.00     0.037 A 
ATOM     52  C   UNL     1      -2.119   8.176 -12.251  1.00  0.00     0.049 A 
ATOM     53  C   UNL     1       3.137  10.178 -12.041  1.00  0.00     0.074 A 
ATOM     54  C   UNL     1      -2.915   8.660 -13.275  1.00  0.00     0.029 A 
ATOM     55  N   UNL     1      -0.870   8.763 -12.411  1.00  0.00    -0.354 N 
ATOM     56  N   UNL     1       1.889   9.810 -12.208  1.00  0.00    -0.248 NA
ATOM     57  C   UNL     1       3.664  11.036 -13.107  1.00  0.00     0.031 C 
ATOM     58  C   UNL     1      -2.131   9.488 -14.087  1.00  0.00     0.029 A 
ATOM     59  C   UNL     1      -0.861   9.568 -13.540  1.00  0.00     0.049 A 
ATOM     60  H   UNL     1      -0.102   8.626 -11.809  1.00  0.00     0.167 HD
ATOM     61  C   UNL     1       1.475  10.405 -13.390  1.00  0.00     0.074 A 
ATOM     62  C   UNL     1       2.598  11.181 -13.880  1.00  0.00     0.031 C 
ATOM     63  C   UNL     1       0.277  10.315 -14.018  1.00  0.00     0.037 A 
BRANCH  50  64
ATOM     64  C   UNL     1      -3.827   6.613 -11.220  1.00  0.00     0.057 A 
ATOM     65  C   UNL     1      -4.221   5.744 -12.245  1.00  0.00     0.134 A 
ATOM     66  C   UNL     1      -4.774   6.908 -10.230  1.00  0.00     0.134 A 
ATOM     67  F   UNL     1      -3.373   5.425 -13.234  1.00  0.00    -0.206 F 
ATOM     68  C   UNL     1      -5.502   5.187 -12.282  1.00  0.00     0.040 A 
ATOM     69  C   UNL     1      -6.049   6.337 -10.241  1.00  0.00     0.040 A 
ATOM     70  F   UNL     1      -4.465   7.732  -9.217  1.00  0.00    -0.206 F 
ATOM     71  C   UNL     1      -6.418   5.476 -11.272  1.00  0.00     0.006 A 
ENDBRANCH  50  64
BRANCH  51  72
ATOM     72  C   UNL     1       5.460  10.377 -10.890  1.00  0.00     0.057 A 
ATOM     73  C   UNL     1       6.574   9.544 -11.052  1.00  0.00     0.134 A 
ATOM     74  C   UNL     1       5.696  11.742 -10.694  1.00  0.00     0.134 A 
ATOM     75  F   UNL     1       6.415   8.224 -11.225  1.00  0.00    -0.206 F 
ATOM     76  C   UNL     1       7.874  10.050 -11.020  1.00  0.00     0.040 A 
ATOM     77  C   UNL     1       6.989  12.265 -10.690  1.00  0.00     0.040 A 
ATOM     78  F   UNL     1       4.668  12.589 -10.541  1.00  0.00    -0.206 F 
ATOM     79  C   UNL     1       8.083  11.417 -10.850  1.00  0.00     0.006 A 
ENDBRANCH  51  72
BRANCH  63  80
ATOM     80  C   UNL     1       0.135  11.082 -15.301  1.00  0.00     0.057 A 
ATOM     81  C   UNL     1      -0.682  12.217 -15.371  1.00  0.00     0.134 A 
ATOM     82  C   UNL     1       0.806  10.693 -16.468  1.00  0.00     0.134 A 
ATOM     83  F   UNL     1      -1.355  12.642 -14.291  1.00  0.00    -0.206 F 
ATOM     84  C   UNL     1      -0.829  12.936 -16.558  1.00  0.00     0.040 A 
ATOM     85  C   UNL     1       0.692  11.422 -17.652  1.00  0.00     0.040 A 
ATOM     86  F   UNL     1       1.621   9.627 -16.460  1.00  0.00    -0.206 F 
ATOM     87  C   UNL     1      -0.133  12.544 -17.700  1.00  0.00     0.006 A 
ENDBRANCH  63  80
ENDBRANCH  37  38
ENDBRANCH  30  32
ENDBRANCH  29  30
ENDBRANCH  28  29
ENDBRANCH  27  28
ENDBRANCH  26  27
ENDBRANCH  25  26
ENDBRANCH  24  25
ENDBRANCH   1  24
TORSDOF 22
