REMARK SMILES Cc1c(NC(=O)[C@@H]2CC=CC[C@@H]2C(=O)OCCOCCOCCOCCOC(=O)c2ccc(-c3c4nc(c(-c5c(F)cccc5F)c5ccc([nH]5)c(-c5c(F)cccc5F)c5nc(c(-c6c(F)cccc6F)c6ccc3[nH]6)C=C5)C=C4)cc2)cccc1C(=O)N1CCOCC1
REMARK SMILES IDX 20 1 19 2 18 3 17 4 16 5 15 6 13 7 14 8 12 9 7 10 8 11 9 12
REMARK SMILES IDX 11 13 10 14 5 15 4 16 6 18 3 19 1 20 2 21 87 22 84 23 86 24
REMARK SMILES IDX 85 25 88 26 89 27 90 28 91 29 95 30 92 31 94 32 93 33 21 34
REMARK SMILES IDX 22 35 23 36 24 37 25 38 26 39 27 40 28 41 29 42 30 43 31 44
REMARK SMILES IDX 83 45 32 46 82 47 33 48 34 49 35 50 76 51 36 52 81 53 75 54
REMARK SMILES IDX 77 55 37 56 80 57 74 58 73 59 38 61 64 62 47 63 63 64 48 65
REMARK SMILES IDX 51 66 62 67 78 68 49 69 50 70 61 72 79 73 52 74 39 75 40 76
REMARK SMILES IDX 45 77 41 78 42 79 44 80 46 81 43 82 65 83 66 84 71 85 67 86
REMARK SMILES IDX 68 87 70 88 72 89 69 90 53 91 54 92 59 93 55 94 56 95 58 96
REMARK SMILES IDX 60 97 57 98
REMARK H PARENT 4 17 77 60 51 71
REMARK Flexibility Score: inf
ROOT
ATOM      1  C   UNL     1      -3.830   0.428   0.281  1.00  0.00     0.188 C 
ENDROOT
BRANCH   1   2
ATOM      2  C   UNL     1      -5.497   0.573   0.069  1.00  0.00     0.188 C 
BRANCH   2   3
ATOM      3  O   UNL     1      -6.710  -0.353  -0.873  1.00  0.00    -0.376 OA
BRANCH   3   4
ATOM      4  C   UNL     1      -6.929  -2.069  -1.334  1.00  0.00     0.202 C 
BRANCH   4   5
ATOM      5  C   UNL     1      -5.653  -3.453  -1.721  1.00  0.00     0.261 C 
BRANCH   5   6
ATOM      6  O   UNL     1      -3.861  -3.332  -1.992  1.00  0.00    -0.463 OA
BRANCH   6   7
ATOM      7  C   UNL     1      -2.787  -2.596  -2.608  1.00  0.00     0.310 C 
ATOM      8  O   UNL     1      -2.908  -1.760  -3.524  1.00  0.00    -0.252 OA
BRANCH   7   9
ATOM      9  C   UNL     1      -1.227  -2.483  -2.114  1.00  0.00     0.116 C 
ATOM     10  C   UNL     1      -0.245  -3.272  -1.174  1.00  0.00     0.097 C 
ATOM     11  C   UNL     1      -0.182  -2.768   0.295  1.00  0.00     0.041 C 
ATOM     12  C   UNL     1      -0.061  -1.283   0.394  1.00  0.00    -0.030 C 
ATOM     13  C   UNL     1      -0.853  -0.944  -1.965  1.00  0.00     0.043 C 
ATOM     14  C   UNL     1      -0.331  -0.472  -0.633  1.00  0.00    -0.030 C 
BRANCH  10  15
ATOM     15  C   UNL     1      -0.283  -4.748  -1.493  1.00  0.00     0.228 C 
ATOM     16  N   UNL     1       0.324  -5.724  -0.781  1.00  0.00    -0.326 N 
ATOM     17  H   UNL     1       0.028  -6.616  -1.077  1.00  0.00     0.169 HD
ATOM     18  O   UNL     1      -0.878  -5.151  -2.499  1.00  0.00    -0.274 OA
BRANCH  16  19
ATOM     19  C   UNL     1       1.258  -5.822   0.261  1.00  0.00     0.044 A 
ATOM     20  C   UNL     1       0.068  -7.952   0.874  1.00  0.00     0.047 C 
ATOM     21  C   UNL     1       1.238  -7.013   1.034  1.00  0.00    -0.015 A 
ATOM     22  C   UNL     1       2.249  -7.234   1.993  1.00  0.00     0.045 A 
ATOM     23  C   UNL     1       2.220  -4.846   0.523  1.00  0.00     0.026 A 
ATOM     24  C   UNL     1       3.133  -6.187   2.303  1.00  0.00     0.014 A 
ATOM     25  C   UNL     1       3.102  -4.991   1.591  1.00  0.00     0.003 A 
BRANCH  22  26
ATOM     26  C   UNL     1       2.356  -8.445   2.858  1.00  0.00     0.254 C 
ATOM     27  O   UNL     1       2.585  -8.245   4.053  1.00  0.00    -0.269 OA
ATOM     28  N   UNL     1       2.189  -9.734   2.360  1.00  0.00    -0.334 N 
ATOM     29  C   UNL     1       2.307 -10.206   0.972  1.00  0.00     0.148 C 
ATOM     30  C   UNL     1       2.003 -10.822   3.322  1.00  0.00     0.148 C 
ATOM     31  C   UNL     1       1.171 -11.190   0.616  1.00  0.00     0.181 C 
ATOM     32  C   UNL     1       0.799 -11.666   2.905  1.00  0.00     0.181 C 
ATOM     33  O   UNL     1       1.018 -12.227   1.600  1.00  0.00    -0.378 OA
ENDBRANCH  22  26
ENDBRANCH  16  19
ENDBRANCH  10  15
ENDBRANCH   7   9
ENDBRANCH   6   7
ENDBRANCH   5   6
ENDBRANCH   4   5
ENDBRANCH   3   4
ENDBRANCH   2   3
ENDBRANCH   1   2
BRANCH   1  34
ATOM     34  O   UNL     1      -3.090  -0.448   1.160  1.00  0.00    -0.377 OA
BRANCH  34  35
ATOM     35  C   UNL     1      -3.406  -0.793   2.502  1.00  0.00     0.188 C 
BRANCH  35  36
ATOM     36  C   UNL     1      -3.556   0.324   3.491  1.00  0.00     0.188 C 
BRANCH  36  37
ATOM     37  O   UNL     1      -4.414   1.272   2.890  1.00  0.00    -0.376 OA
BRANCH  37  38
ATOM     38  C   UNL     1      -4.463   2.512   3.565  1.00  0.00     0.202 C 
BRANCH  38  39
ATOM     39  C   UNL     1      -5.297   2.408   4.843  1.00  0.00     0.261 C 
BRANCH  39  40
ATOM     40  O   UNL     1      -6.582   1.837   4.505  1.00  0.00    -0.460 OA
BRANCH  40  41
ATOM     41  C   UNL     1      -6.796   0.559   4.943  1.00  0.00     0.338 C 
ATOM     42  O   UNL     1      -6.436   0.101   6.005  1.00  0.00    -0.246 OA
BRANCH  41  43
ATOM     43  C   UNL     1      -7.212  -0.280   3.780  1.00  0.00     0.060 A 
ATOM     44  C   UNL     1      -6.887  -1.623   3.733  1.00  0.00     0.016 A 
ATOM     45  C   UNL     1      -7.714   0.250   2.621  1.00  0.00     0.016 A 
ATOM     46  C   UNL     1      -6.622  -2.227   2.479  1.00  0.00     0.010 A 
ATOM     47  C   UNL     1      -7.499  -0.447   1.408  1.00  0.00     0.010 A 
ATOM     48  C   UNL     1      -6.534  -1.506   1.280  1.00  0.00    -0.014 A 
BRANCH  48  49
ATOM     49  C   UNL     1      -5.179  -1.775   0.056  1.00  0.00     0.031 A 
ATOM     50  C   UNL     1      -4.960  -1.047  -1.783  1.00  0.00     0.074 A 
ATOM     51  C   UNL     1      -4.412  -2.788   0.594  1.00  0.00     0.049 A 
ATOM     52  N   UNL     1      -5.180  -1.781  -2.915  1.00  0.00    -0.248 NA
ATOM     53  C   UNL     1      -5.232   0.369  -2.489  1.00  0.00     0.031 C 
ATOM     54  C   UNL     1      -3.116  -3.194   0.183  1.00  0.00     0.029 A 
ATOM     55  N   UNL     1      -4.695  -3.814   1.507  1.00  0.00    -0.354 N 
ATOM     56  C   UNL     1      -5.384  -1.188  -4.133  1.00  0.00     0.074 A 
ATOM     57  C   UNL     1      -5.622   0.150  -3.757  1.00  0.00     0.031 C 
ATOM     58  C   UNL     1      -2.937  -4.510   0.337  1.00  0.00     0.029 A 
ATOM     59  C   UNL     1      -4.044  -4.973   1.087  1.00  0.00     0.049 A 
ATOM     60  H   UNL     1      -5.259  -3.730   2.309  1.00  0.00     0.167 HD
ATOM     61  C   UNL     1      -5.289  -1.831  -5.349  1.00  0.00     0.037 A 
ATOM     62  C   UNL     1      -4.497  -6.236   1.140  1.00  0.00     0.037 A 
ATOM     63  C   UNL     1      -4.670  -3.182  -5.277  1.00  0.00     0.049 A 
ATOM     64  C   UNL     1      -4.680  -6.805  -0.261  1.00  0.00     0.074 A 
ATOM     65  C   UNL     1      -3.369  -3.621  -5.497  1.00  0.00     0.029 A 
ATOM     66  N   UNL     1      -5.307  -4.281  -4.712  1.00  0.00    -0.354 N 
ATOM     67  N   UNL     1      -4.446  -6.166  -1.394  1.00  0.00    -0.248 NA
ATOM     68  C   UNL     1      -5.194  -8.149  -0.485  1.00  0.00     0.031 C 
ATOM     69  C   UNL     1      -3.195  -4.896  -4.875  1.00  0.00     0.029 A 
ATOM     70  C   UNL     1      -4.412  -5.306  -4.353  1.00  0.00     0.049 A 
ATOM     71  H   UNL     1      -6.280  -4.336  -4.577  1.00  0.00     0.167 HD
ATOM     72  C   UNL     1      -4.851  -6.937  -2.469  1.00  0.00     0.074 A 
ATOM     73  C   UNL     1      -5.294  -8.177  -1.824  1.00  0.00     0.031 C 
ATOM     74  C   UNL     1      -4.877  -6.595  -3.809  1.00  0.00     0.037 A 
BRANCH  61  75
ATOM     75  C   UNL     1      -5.401  -1.005  -6.643  1.00  0.00     0.057 A 
ATOM     76  C   UNL     1      -4.576  -1.227  -7.761  1.00  0.00     0.134 A 
ATOM     77  C   UNL     1      -6.285   0.085  -6.807  1.00  0.00     0.134 A 
ATOM     78  F   UNL     1      -3.810  -2.320  -7.863  1.00  0.00    -0.206 F 
ATOM     79  C   UNL     1      -4.503  -0.337  -8.851  1.00  0.00     0.040 A 
ATOM     80  C   UNL     1      -6.175   1.022  -7.851  1.00  0.00     0.040 A 
ATOM     81  F   UNL     1      -7.322   0.264  -5.974  1.00  0.00    -0.206 F 
ATOM     82  C   UNL     1      -5.258   0.826  -8.870  1.00  0.00     0.006 A 
ENDBRANCH  61  75
BRANCH  62  83
ATOM     83  C   UNL     1      -5.080  -6.470   2.497  1.00  0.00     0.057 A 
ATOM     84  C   UNL     1      -4.126  -6.347   3.546  1.00  0.00     0.134 A 
ATOM     85  C   UNL     1      -6.389  -6.099   2.815  1.00  0.00     0.134 A 
ATOM     86  F   UNL     1      -2.846  -6.695   3.325  1.00  0.00    -0.206 F 
ATOM     87  C   UNL     1      -4.396  -5.642   4.726  1.00  0.00     0.040 A 
ATOM     88  C   UNL     1      -6.683  -5.441   4.027  1.00  0.00     0.040 A 
ATOM     89  F   UNL     1      -7.357  -6.177   1.892  1.00  0.00    -0.206 F 
ATOM     90  C   UNL     1      -5.672  -5.144   4.946  1.00  0.00     0.006 A 
ENDBRANCH  62  83
BRANCH  74  91
ATOM     91  C   UNL     1      -5.374  -7.585  -4.837  1.00  0.00     0.057 A 
ATOM     92  C   UNL     1      -4.958  -8.922  -4.882  1.00  0.00     0.134 A 
ATOM     93  C   UNL     1      -6.240  -7.179  -5.870  1.00  0.00     0.134 A 
ATOM     94  F   UNL     1      -4.038  -9.391  -4.024  1.00  0.00    -0.206 F 
ATOM     95  C   UNL     1      -5.484  -9.831  -5.806  1.00  0.00     0.040 A 
ATOM     96  C   UNL     1      -6.707  -8.057  -6.848  1.00  0.00     0.040 A 
ATOM     97  F   UNL     1      -6.698  -5.923  -5.957  1.00  0.00    -0.206 F 
ATOM     98  C   UNL     1      -6.364  -9.399  -6.793  1.00  0.00     0.006 A 
ENDBRANCH  74  91
ENDBRANCH  48  49
ENDBRANCH  41  43
ENDBRANCH  40  41
ENDBRANCH  39  40
ENDBRANCH  38  39
ENDBRANCH  37  38
ENDBRANCH  36  37
ENDBRANCH  35  36
ENDBRANCH  34  35
ENDBRANCH   1  34
TORSDOF 23
