REMARK SMILES O=C(OCCOCCOCCOCCOC(=O)c1ccc(C[N@H+]2CC[N@H+]3CCCC[C@@H]3C2)c(F)c1)c1ccc(-c2c3nc(c(-c4c(F)cccc4F)c4ccc([nH]4)c(-c4c(F)cccc4F)c4nc(c(-c5c(F)cccc5F)c5ccc2[nH]5)C=C4)C=C3)cc1
REMARK SMILES IDX 9 1 8 2 7 3 6 4 5 5 4 6 3 7 2 8 1 9 36 10 37 11 89 12 38 13
REMARK SMILES IDX 88 14 39 15 40 16 41 17 82 18 42 19 87 20 81 21 83 22 43 23
REMARK SMILES IDX 86 24 80 25 79 26 44 28 70 29 53 30 69 31 54 32 57 33 68 34
REMARK SMILES IDX 84 35 55 36 56 37 67 39 85 40 58 41 45 42 46 43 51 44 47 45
REMARK SMILES IDX 48 46 50 47 52 48 49 49 71 50 72 51 77 52 73 53 74 54 76 55
REMARK SMILES IDX 78 56 75 57 59 58 60 59 65 60 61 61 62 62 64 63 66 64 63 65
REMARK SMILES IDX 10 66 11 67 12 68 13 69 14 70 15 71 16 72 17 73 18 74 19 75
REMARK SMILES IDX 35 76 20 77 33 78 21 79 34 80 22 81 23 82 24 83 32 84 25 86
REMARK SMILES IDX 31 87 26 88 30 89 27 90 29 92 28 93
REMARK H PARENT 83 27 57 38 23 85 26 91
REMARK Flexibility Score: inf
ROOT
ATOM      1  O   UNL     1       2.505   3.540  -1.592  1.00  0.00    -0.377 OA
ENDROOT
BRANCH   1   2
ATOM      2  C   UNL     1       1.829   2.601  -0.767  1.00  0.00     0.188 C 
BRANCH   2   3
ATOM      3  C   UNL     1       2.276   1.153  -0.933  1.00  0.00     0.188 C 
BRANCH   3   4
ATOM      4  O   UNL     1       3.624   0.982  -0.492  1.00  0.00    -0.376 OA
BRANCH   4   5
ATOM      5  C   UNL     1       4.435   0.132  -1.301  1.00  0.00     0.202 C 
BRANCH   5   6
ATOM      6  C   UNL     1       4.241  -1.361  -1.032  1.00  0.00     0.261 C 
BRANCH   6   7
ATOM      7  O   UNL     1       2.891  -1.688  -0.675  1.00  0.00    -0.460 OA
BRANCH   7   8
ATOM      8  C   UNL     1       2.332  -1.702   0.560  1.00  0.00     0.338 C 
ATOM      9  O   UNL     1       1.151  -2.039   0.653  1.00  0.00    -0.246 OA
BRANCH   8  10
ATOM     10  C   UNL     1       3.045  -1.332   1.827  1.00  0.00     0.060 A 
ATOM     11  C   UNL     1       4.190  -0.540   1.926  1.00  0.00     0.016 A 
ATOM     12  C   UNL     1       2.461  -1.779   3.027  1.00  0.00     0.016 A 
ATOM     13  C   UNL     1       4.771  -0.237   3.148  1.00  0.00     0.010 A 
ATOM     14  C   UNL     1       3.034  -1.480   4.267  1.00  0.00     0.010 A 
ATOM     15  C   UNL     1       4.212  -0.731   4.319  1.00  0.00    -0.014 A 
BRANCH  15  16
ATOM     16  C   UNL     1       5.021  -0.632   5.543  1.00  0.00     0.031 A 
ATOM     17  C   UNL     1       5.794  -1.849   5.951  1.00  0.00     0.074 A 
ATOM     18  C   UNL     1       5.190   0.556   6.148  1.00  0.00     0.049 A 
ATOM     19  N   UNL     1       6.540  -2.044   7.001  1.00  0.00    -0.248 NA
ATOM     20  C   UNL     1       5.735  -3.002   5.031  1.00  0.00     0.031 C 
ATOM     21  C   UNL     1       4.609   1.822   5.695  1.00  0.00     0.029 A 
ATOM     22  N   UNL     1       5.931   0.900   7.245  1.00  0.00    -0.354 N 
ATOM     23  C   UNL     1       7.015  -3.344   6.882  1.00  0.00     0.074 A 
ATOM     24  C   UNL     1       6.473  -3.898   5.665  1.00  0.00     0.031 C 
ATOM     25  C   UNL     1       5.034   2.809   6.501  1.00  0.00     0.029 A 
ATOM     26  C   UNL     1       5.851   2.234   7.563  1.00  0.00     0.049 A 
ATOM     27  H   UNL     1       6.469   0.254   7.757  1.00  0.00     0.167 HD
ATOM     28  C   UNL     1       7.833  -4.007   7.728  1.00  0.00     0.037 A 
ATOM     29  C   UNL     1       6.359   2.893   8.621  1.00  0.00     0.037 A 
ATOM     30  C   UNL     1       8.354  -3.415   8.927  1.00  0.00     0.049 A 
ATOM     31  C   UNL     1       7.152   2.097   9.624  1.00  0.00     0.074 A 
ATOM     32  C   UNL     1       9.116  -3.998   9.920  1.00  0.00     0.029 A 
ATOM     33  N   UNL     1       8.162  -2.086   9.285  1.00  0.00    -0.354 N 
ATOM     34  N   UNL     1       7.511   0.834   9.574  1.00  0.00    -0.248 NA
ATOM     35  C   UNL     1       7.588   2.799  10.836  1.00  0.00     0.031 C 
ATOM     36  C   UNL     1       9.346  -3.031  10.903  1.00  0.00     0.029 A 
ATOM     37  C   UNL     1       8.778  -1.831  10.495  1.00  0.00     0.049 A 
ATOM     38  H   UNL     1       7.662  -1.424   8.755  1.00  0.00     0.167 HD
ATOM     39  C   UNL     1       8.229   0.593  10.736  1.00  0.00     0.074 A 
ATOM     40  C   UNL     1       8.267   1.848  11.464  1.00  0.00     0.031 C 
ATOM     41  C   UNL     1       8.800  -0.557  11.171  1.00  0.00     0.037 A 
BRANCH  28  42
ATOM     42  C   UNL     1       8.141  -5.439   7.412  1.00  0.00     0.057 A 
ATOM     43  C   UNL     1       7.567  -6.469   8.168  1.00  0.00     0.134 A 
ATOM     44  C   UNL     1       8.990  -5.806   6.360  1.00  0.00     0.134 A 
ATOM     45  F   UNL     1       6.734  -6.187   9.180  1.00  0.00    -0.206 F 
ATOM     46  C   UNL     1       7.835  -7.812   7.897  1.00  0.00     0.040 A 
ATOM     47  C   UNL     1       9.247  -7.147   6.064  1.00  0.00     0.040 A 
ATOM     48  F   UNL     1       9.545  -4.871   5.574  1.00  0.00    -0.206 F 
ATOM     49  C   UNL     1       8.674  -8.154   6.839  1.00  0.00     0.006 A 
ENDBRANCH  28  42
BRANCH  29  50
ATOM     50  C   UNL     1       6.094   4.344   8.803  1.00  0.00     0.057 A 
ATOM     51  C   UNL     1       4.795   4.830   9.011  1.00  0.00     0.134 A 
ATOM     52  C   UNL     1       7.128   5.287   8.766  1.00  0.00     0.134 A 
ATOM     53  F   UNL     1       3.755   3.984   9.062  1.00  0.00    -0.206 F 
ATOM     54  C   UNL     1       4.531   6.194   9.151  1.00  0.00     0.040 A 
ATOM     55  C   UNL     1       6.882   6.653   8.932  1.00  0.00     0.040 A 
ATOM     56  F   UNL     1       8.397   4.891   8.592  1.00  0.00    -0.206 F 
ATOM     57  C   UNL     1       5.578   7.110   9.117  1.00  0.00     0.006 A 
ENDBRANCH  29  50
BRANCH  41  58
ATOM     58  C   UNL     1       9.540  -0.506  12.472  1.00  0.00     0.057 A 
ATOM     59  C   UNL     1      10.935  -0.623  12.496  1.00  0.00     0.134 A 
ATOM     60  C   UNL     1       8.866  -0.455  13.697  1.00  0.00     0.134 A 
ATOM     61  F   UNL     1      11.634  -0.691  11.352  1.00  0.00    -0.206 F 
ATOM     62  C   UNL     1      11.634  -0.715  13.697  1.00  0.00     0.040 A 
ATOM     63  C   UNL     1       9.557  -0.517  14.905  1.00  0.00     0.040 A 
ATOM     64  F   UNL     1       7.530  -0.335  13.734  1.00  0.00    -0.206 F 
ATOM     65  C   UNL     1      10.944  -0.661  14.907  1.00  0.00     0.006 A 
ENDBRANCH  41  58
ENDBRANCH  15  16
ENDBRANCH   8  10
ENDBRANCH   7   8
ENDBRANCH   6   7
ENDBRANCH   5   6
ENDBRANCH   4   5
ENDBRANCH   3   4
ENDBRANCH   2   3
ENDBRANCH   1   2
BRANCH   1  66
ATOM     66  C   UNL     1       3.928   3.501  -1.602  1.00  0.00     0.188 C 
BRANCH  66  67
ATOM     67  C   UNL     1       4.681   3.641  -0.262  1.00  0.00     0.188 C 
BRANCH  67  68
ATOM     68  O   UNL     1       3.852   3.952   0.845  1.00  0.00    -0.376 OA
BRANCH  68  69
ATOM     69  C   UNL     1       3.817   5.328   1.207  1.00  0.00     0.202 C 
BRANCH  69  70
ATOM     70  C   UNL     1       3.214   6.277   0.161  1.00  0.00     0.261 C 
BRANCH  70  71
ATOM     71  O   UNL     1       3.935   6.397  -1.087  1.00  0.00    -0.460 OA
BRANCH  71  72
ATOM     72  C   UNL     1       5.213   6.844  -1.096  1.00  0.00     0.338 C 
ATOM     73  O   UNL     1       5.873   7.223  -0.148  1.00  0.00    -0.246 OA
BRANCH  72  74
ATOM     74  C   UNL     1       5.721   6.640  -2.475  1.00  0.00     0.063 A 
ATOM     75  C   UNL     1       5.356   7.523  -3.489  1.00  0.00     0.016 A 
ATOM     76  C   UNL     1       6.441   5.483  -2.790  1.00  0.00     0.055 A 
ATOM     77  C   UNL     1       5.652   7.206  -4.823  1.00  0.00     0.013 A 
ATOM     78  C   UNL     1       6.627   5.128  -4.127  1.00  0.00     0.132 A 
ATOM     79  C   UNL     1       6.201   5.954  -5.169  1.00  0.00     0.042 A 
ATOM     80  F   UNL     1       7.192   3.942  -4.397  1.00  0.00    -0.206 F 
BRANCH  79  81
ATOM     81  C   UNL     1       6.331   5.518  -6.616  1.00  0.00     0.302 C 
BRANCH  81  82
ATOM     82  N   UNL     1       5.143   5.067  -7.360  1.00  0.00    -0.322 N 
ATOM     83  C   UNL     1       4.736   3.666  -7.187  1.00  0.00     0.324 C 
ATOM     84  C   UNL     1       3.963   5.938  -7.340  1.00  0.00     0.328 C 
ATOM     85  H   UNL     1       5.545   5.145  -8.294  1.00  0.00     0.348 HD
ATOM     86  C   UNL     1       3.700   3.378  -6.071  1.00  0.00     0.324 C 
ATOM     87  C   UNL     1       3.064   5.713  -6.101  1.00  0.00     0.239 C 
ATOM     88  N   UNL     1       2.560   4.327  -5.998  1.00  0.00    -0.323 N 
ATOM     89  C   UNL     1       1.916   6.724  -6.048  1.00  0.00     0.071 C 
ATOM     90  C   UNL     1       1.869   4.155  -4.705  1.00  0.00     0.262 C 
ATOM     91  H   UNL     1       1.913   4.143  -6.765  1.00  0.00     0.348 HD
ATOM     92  C   UNL     1       1.213   6.609  -4.699  1.00  0.00     0.012 C 
ATOM     93  C   UNL     1       0.751   5.174  -4.463  1.00  0.00     0.062 C 
ENDBRANCH  81  82
ENDBRANCH  79  81
ENDBRANCH  72  74
ENDBRANCH  71  72
ENDBRANCH  70  71
ENDBRANCH  69  70
ENDBRANCH  68  69
ENDBRANCH  67  68
ENDBRANCH  66  67
ENDBRANCH   1  66
TORSDOF 22
