REMARK SMILES COc1ccc2c(c1)c(CC(=O)OCCOCCOCCOCCOC(=O)c1ccc(-c3c4nc(c(-c5c(F)cccc5F)c5ccc([nH]5)c(-c5c(F)cccc5F)c5nc(c(-c6c(F)cccc6F)c6ccc3[nH]6)C=C5)C=C4)cc1)c(C(F)(F)F)n2C(=O)c1ccc(Cl)cc1
REMARK SMILES IDX 18 1 17 2 16 3 15 4 14 5 13 6 11 7 12 8 10 9 9 10 3 11 4 12
REMARK SMILES IDX 8 13 5 14 7 15 6 16 87 17 82 18 2 19 1 20 88 21 89 22 90 23
REMARK SMILES IDX 91 24 96 25 92 26 95 27 93 28 94 29 83 30 84 31 85 32 86 33
REMARK SMILES IDX 19 34 20 35 21 36 22 37 23 38 24 39 25 40 26 41 27 42 28 43
REMARK SMILES IDX 29 44 81 45 30 46 80 47 31 48 32 49 33 50 74 51 34 52 79 53
REMARK SMILES IDX 73 54 75 55 35 56 78 57 72 58 71 59 36 61 62 62 45 63 61 64
REMARK SMILES IDX 46 65 49 66 60 67 76 68 47 69 48 70 59 72 77 73 50 74 37 75
REMARK SMILES IDX 38 76 43 77 39 78 40 79 42 80 44 81 41 82 63 83 64 84 69 85
REMARK SMILES IDX 65 86 66 87 68 88 70 89 67 90 51 91 52 92 57 93 53 94 54 95
REMARK SMILES IDX 56 96 58 97 55 98
REMARK H PARENT 75 60 49 71
REMARK Flexibility Score: inf
ROOT
ATOM      1  C   UNL     1      -1.023   3.643  -1.923  1.00  0.00     0.188 C 
ENDROOT
BRANCH   1   2
ATOM      2  C   UNL     1      -2.405   3.514  -2.550  1.00  0.00     0.188 C 
BRANCH   2   3
ATOM      3  O   UNL     1      -2.497   4.058  -3.852  1.00  0.00    -0.376 OA
BRANCH   3   4
ATOM      4  C   UNL     1      -3.050   5.356  -3.993  1.00  0.00     0.202 C 
BRANCH   4   5
ATOM      5  C   UNL     1      -2.275   6.572  -3.440  1.00  0.00     0.261 C 
BRANCH   5   6
ATOM      6  O   UNL     1      -1.702   6.464  -2.116  1.00  0.00    -0.463 OA
BRANCH   6   7
ATOM      7  C   UNL     1      -2.492   6.731  -1.051  1.00  0.00     0.310 C 
ATOM      8  O   UNL     1      -3.679   7.031  -1.163  1.00  0.00    -0.252 OA
BRANCH   7   9
ATOM      9  C   UNL     1      -1.845   6.534   0.326  1.00  0.00     0.161 C 
BRANCH   9  10
ATOM     10  C   UNL     1      -0.344   6.285   0.477  1.00  0.00     0.002 A 
ATOM     11  C   UNL     1       0.590   2.638   1.247  1.00  0.00     0.119 A 
ATOM     12  C   UNL     1       1.957   2.820   1.238  1.00  0.00     0.048 A 
ATOM     13  C   UNL     1      -0.253   3.754   1.153  1.00  0.00     0.057 A 
ATOM     14  C   UNL     1       2.497   4.096   1.066  1.00  0.00     0.031 A 
ATOM     15  C   UNL     1       0.267   5.041   0.856  1.00  0.00     0.008 A 
ATOM     16  C   UNL     1       1.655   5.209   0.840  1.00  0.00     0.057 A 
ATOM     17  N   UNL     1       1.927   6.558   0.550  1.00  0.00    -0.271 N 
ATOM     18  C   UNL     1       0.694   7.219   0.406  1.00  0.00     0.135 A 
BRANCH  11  19
ATOM     19  O   UNL     1      -0.040   1.424   1.302  1.00  0.00    -0.497 OA
ATOM     20  C   UNL     1       0.727   0.293   0.885  1.00  0.00     0.278 C 
ENDBRANCH  11  19
BRANCH  17  21
ATOM     21  C   UNL     1       3.232   7.121   0.397  1.00  0.00     0.262 C 
ATOM     22  O   UNL     1       3.332   8.268  -0.026  1.00  0.00    -0.268 OA
BRANCH  21  23
ATOM     23  C   UNL     1       4.506   6.409   0.638  1.00  0.00     0.040 A 
ATOM     24  C   UNL     1       5.103   5.720  -0.425  1.00  0.00     0.015 A 
ATOM     25  C   UNL     1       5.084   6.385   1.915  1.00  0.00     0.015 A 
ATOM     26  C   UNL     1       6.248   4.950  -0.196  1.00  0.00     0.021 A 
ATOM     27  C   UNL     1       6.237   5.621   2.135  1.00  0.00     0.021 A 
ATOM     28  C   UNL     1       6.804   4.896   1.083  1.00  0.00     0.041 A 
ATOM     29  Cl  UNL     1       8.186   3.912   1.369  1.00  0.00    -0.084 Cl
ENDBRANCH  21  23
ENDBRANCH  17  21
BRANCH  18  30
ATOM     30  C   UNL     1       0.553   8.694   0.200  1.00  0.00     0.432 C 
ATOM     31  F   UNL     1       0.505   9.013  -1.115  1.00  0.00    -0.165 F 
ATOM     32  F   UNL     1      -0.633   9.119   0.727  1.00  0.00    -0.165 F 
ATOM     33  F   UNL     1       1.483   9.462   0.806  1.00  0.00    -0.165 F 
ENDBRANCH  18  30
ENDBRANCH   9  10
ENDBRANCH   7   9
ENDBRANCH   6   7
ENDBRANCH   5   6
ENDBRANCH   4   5
ENDBRANCH   3   4
ENDBRANCH   2   3
ENDBRANCH   1   2
BRANCH   1  34
ATOM     34  O   UNL     1       0.177   3.537  -2.645  1.00  0.00    -0.377 OA
BRANCH  34  35
ATOM     35  C   UNL     1       0.129   3.474  -4.044  1.00  0.00     0.188 C 
BRANCH  35  36
ATOM     36  C   UNL     1      -0.249   2.107  -4.625  1.00  0.00     0.188 C 
BRANCH  36  37
ATOM     37  O   UNL     1       0.122   0.879  -3.996  1.00  0.00    -0.376 OA
BRANCH  37  38
ATOM     38  C   UNL     1       0.997   0.870  -2.880  1.00  0.00     0.202 C 
BRANCH  38  39
ATOM     39  C   UNL     1       2.493   1.121  -3.143  1.00  0.00     0.261 C 
BRANCH  39  40
ATOM     40  O   UNL     1       2.744   2.195  -4.053  1.00  0.00    -0.460 OA
BRANCH  40  41
ATOM     41  C   UNL     1       3.361   1.892  -5.230  1.00  0.00     0.338 C 
ATOM     42  O   UNL     1       3.975   0.895  -5.512  1.00  0.00    -0.246 OA
BRANCH  41  43
ATOM     43  C   UNL     1       2.857   2.891  -6.206  1.00  0.00     0.060 A 
ATOM     44  C   UNL     1       2.874   4.255  -5.906  1.00  0.00     0.016 A 
ATOM     45  C   UNL     1       2.067   2.396  -7.254  1.00  0.00     0.016 A 
ATOM     46  C   UNL     1       1.956   5.086  -6.542  1.00  0.00     0.010 A 
ATOM     47  C   UNL     1       1.151   3.236  -7.890  1.00  0.00     0.010 A 
ATOM     48  C   UNL     1       1.050   4.568  -7.491  1.00  0.00    -0.014 A 
BRANCH  48  49
ATOM     49  C   UNL     1       0.177   5.533  -8.170  1.00  0.00     0.031 A 
ATOM     50  C   UNL     1       0.952   6.591  -8.870  1.00  0.00     0.074 A 
ATOM     51  C   UNL     1      -1.161   5.510  -8.343  1.00  0.00     0.049 A 
ATOM     52  N   UNL     1       0.949   7.864  -8.648  1.00  0.00    -0.248 NA
ATOM     53  C   UNL     1       1.949   6.140  -9.852  1.00  0.00     0.031 C 
ATOM     54  C   UNL     1      -2.115   4.447  -8.032  1.00  0.00     0.029 A 
ATOM     55  N   UNL     1      -1.944   6.459  -8.950  1.00  0.00    -0.354 N 
ATOM     56  C   UNL     1       1.849   8.403  -9.562  1.00  0.00     0.074 A 
ATOM     57  C   UNL     1       2.527   7.293 -10.180  1.00  0.00     0.031 C 
ATOM     58  C   UNL     1      -3.296   4.723  -8.638  1.00  0.00     0.029 A 
ATOM     59  C   UNL     1      -3.217   6.023  -9.291  1.00  0.00     0.049 A 
ATOM     60  H   UNL     1      -1.629   7.375  -9.128  1.00  0.00     0.167 HD
ATOM     61  C   UNL     1       1.853   9.722  -9.885  1.00  0.00     0.037 A 
ATOM     62  C   UNL     1      -4.107   6.653 -10.103  1.00  0.00     0.037 A 
ATOM     63  C   UNL     1       1.163  10.525  -8.912  1.00  0.00     0.049 A 
ATOM     64  C   UNL     1      -3.714   8.081 -10.207  1.00  0.00     0.074 A 
ATOM     65  C   UNL     1       1.303  10.749  -7.555  1.00  0.00     0.029 A 
ATOM     66  N   UNL     1      -0.066  11.041  -9.240  1.00  0.00    -0.354 N 
ATOM     67  N   UNL     1      -3.880   8.965  -9.266  1.00  0.00    -0.248 NA
ATOM     68  C   UNL     1      -2.787   8.463 -11.262  1.00  0.00     0.031 C 
ATOM     69  C   UNL     1      -0.025  10.927  -7.067  1.00  0.00     0.029 A 
ATOM     70  C   UNL     1      -0.881  10.817  -8.161  1.00  0.00     0.049 A 
ATOM     71  H   UNL     1      -0.313  11.485 -10.083  1.00  0.00     0.167 HD
ATOM     72  C   UNL     1      -2.777   9.797  -9.368  1.00  0.00     0.074 A 
ATOM     73  C   UNL     1      -2.204   9.513 -10.679  1.00  0.00     0.031 C 
ATOM     74  C   UNL     1      -2.266  10.432  -8.273  1.00  0.00     0.037 A 
BRANCH  61  75
ATOM     75  C   UNL     1       2.206  10.231 -11.255  1.00  0.00     0.057 A 
ATOM     76  C   UNL     1       2.074   9.465 -12.432  1.00  0.00     0.134 A 
ATOM     77  C   UNL     1       2.407  11.607 -11.452  1.00  0.00     0.134 A 
ATOM     78  F   UNL     1       1.781   8.159 -12.407  1.00  0.00    -0.206 F 
ATOM     79  C   UNL     1       2.131  10.025 -13.709  1.00  0.00     0.040 A 
ATOM     80  C   UNL     1       2.408  12.187 -12.725  1.00  0.00     0.040 A 
ATOM     81  F   UNL     1       2.525  12.441 -10.408  1.00  0.00    -0.206 F 
ATOM     82  C   UNL     1       2.265  11.396 -13.859  1.00  0.00     0.006 A 
ENDBRANCH  61  75
BRANCH  62  83
ATOM     83  C   UNL     1      -5.183   6.093 -10.959  1.00  0.00     0.057 A 
ATOM     84  C   UNL     1      -5.117   4.785 -11.468  1.00  0.00     0.134 A 
ATOM     85  C   UNL     1      -6.182   6.911 -11.514  1.00  0.00     0.134 A 
ATOM     86  F   UNL     1      -4.152   3.938 -11.084  1.00  0.00    -0.206 F 
ATOM     87  C   UNL     1      -5.985   4.318 -12.462  1.00  0.00     0.040 A 
ATOM     88  C   UNL     1      -7.048   6.461 -12.521  1.00  0.00     0.040 A 
ATOM     89  F   UNL     1      -6.306   8.192 -11.137  1.00  0.00    -0.206 F 
ATOM     90  C   UNL     1      -6.946   5.161 -13.003  1.00  0.00     0.006 A 
ENDBRANCH  62  83
BRANCH  74  91
ATOM     91  C   UNL     1      -3.100  10.474  -7.024  1.00  0.00     0.057 A 
ATOM     92  C   UNL     1      -3.340  11.714  -6.417  1.00  0.00     0.134 A 
ATOM     93  C   UNL     1      -3.575   9.338  -6.353  1.00  0.00     0.134 A 
ATOM     94  F   UNL     1      -2.869  12.843  -6.970  1.00  0.00    -0.206 F 
ATOM     95  C   UNL     1      -4.038  11.823  -5.212  1.00  0.00     0.040 A 
ATOM     96  C   UNL     1      -4.321   9.439  -5.176  1.00  0.00     0.040 A 
ATOM     97  F   UNL     1      -3.285   8.100  -6.780  1.00  0.00    -0.206 F 
ATOM     98  C   UNL     1      -4.546  10.683  -4.596  1.00  0.00     0.006 A 
ENDBRANCH  74  91
ENDBRANCH  48  49
ENDBRANCH  41  43
ENDBRANCH  40  41
ENDBRANCH  39  40
ENDBRANCH  38  39
ENDBRANCH  37  38
ENDBRANCH  36  37
ENDBRANCH  35  36
ENDBRANCH  34  35
ENDBRANCH   1  34
TORSDOF 25
