REMARK SMILES O=C(OCCOCCOCCOCCOC(=O)[C@H](Cc1ccccn1)c1ccc(F)cc1)c1ccc(-c2c3nc(c(-c4c(F)cccc4F)c4ccc([nH]4)c(-c4c(F)cccc4F)c4nc(c(-c5c(F)cccc5F)c5ccc2[nH]5)C=C4)C=C3)cc1
REMARK SMILES IDX 9 1 8 2 7 3 6 4 5 5 4 6 3 7 2 8 1 9 33 10 34 11 86 12 35 13
REMARK SMILES IDX 85 14 36 15 37 16 38 17 79 18 39 19 84 20 78 21 80 22 40 23
REMARK SMILES IDX 83 24 77 25 76 26 41 28 67 29 50 30 66 31 51 32 54 33 65 34
REMARK SMILES IDX 81 35 52 36 53 37 64 39 82 40 55 41 42 42 43 43 48 44 44 45
REMARK SMILES IDX 45 46 47 47 49 48 46 49 68 50 69 51 74 52 70 53 71 54 73 55
REMARK SMILES IDX 75 56 72 57 56 58 57 59 62 60 58 61 59 62 61 63 63 64 60 65
REMARK SMILES IDX 10 66 11 67 12 68 13 69 14 70 15 71 16 72 17 73 18 74 26 75
REMARK SMILES IDX 27 76 32 77 28 78 31 79 29 80 30 81 19 82 20 83 21 84 25 85
REMARK SMILES IDX 22 86 24 87 23 88
REMARK H PARENT 80 27 54 38
REMARK Flexibility Score: inf
ROOT
ATOM      1  O   UNL     1       5.950  -2.367   1.534  1.00  0.00    -0.377 OA
ENDROOT
BRANCH   1   2
ATOM      2  C   UNL     1       5.718  -0.981   1.784  1.00  0.00     0.188 C 
BRANCH   2   3
ATOM      3  C   UNL     1       5.105  -0.202   0.613  1.00  0.00     0.188 C 
BRANCH   3   4
ATOM      4  O   UNL     1       3.766  -0.632   0.353  1.00  0.00    -0.376 OA
BRANCH   4   5
ATOM      5  C   UNL     1       3.353  -0.835  -1.002  1.00  0.00     0.202 C 
BRANCH   5   6
ATOM      6  C   UNL     1       3.317   0.404  -1.880  1.00  0.00     0.261 C 
BRANCH   6   7
ATOM      7  O   UNL     1       3.977   1.554  -1.333  1.00  0.00    -0.460 OA
BRANCH   7   8
ATOM      8  C   UNL     1       3.597   2.401  -0.354  1.00  0.00     0.338 C 
ATOM      9  O   UNL     1       4.368   3.318  -0.053  1.00  0.00    -0.246 OA
BRANCH   8  10
ATOM     10  C   UNL     1       2.309   2.325   0.391  1.00  0.00     0.060 A 
ATOM     11  C   UNL     1       1.586   1.163   0.645  1.00  0.00     0.016 A 
ATOM     12  C   UNL     1       1.835   3.516   0.961  1.00  0.00     0.016 A 
ATOM     13  C   UNL     1       0.418   1.157   1.372  1.00  0.00     0.010 A 
ATOM     14  C   UNL     1       0.657   3.533   1.711  1.00  0.00     0.010 A 
ATOM     15  C   UNL     1      -0.060   2.346   1.887  1.00  0.00    -0.014 A 
BRANCH  15  16
ATOM     16  C   UNL     1      -1.437   2.313   2.372  1.00  0.00     0.031 A 
ATOM     17  C   UNL     1      -2.483   2.828   1.441  1.00  0.00     0.074 A 
ATOM     18  C   UNL     1      -1.731   1.637   3.494  1.00  0.00     0.049 A 
ATOM     19  N   UNL     1      -3.750   3.026   1.653  1.00  0.00    -0.248 NA
ATOM     20  C   UNL     1      -2.040   3.149   0.070  1.00  0.00     0.031 C 
ATOM     21  C   UNL     1      -0.764   0.896   4.311  1.00  0.00     0.029 A 
ATOM     22  N   UNL     1      -2.926   1.429   4.117  1.00  0.00    -0.354 N 
ATOM     23  C   UNL     1      -4.238   3.564   0.471  1.00  0.00     0.074 A 
ATOM     24  C   UNL     1      -3.147   3.630  -0.469  1.00  0.00     0.031 C 
ATOM     25  C   UNL     1      -1.413   0.311   5.330  1.00  0.00     0.029 A 
ATOM     26  C   UNL     1      -2.809   0.724   5.288  1.00  0.00     0.049 A 
ATOM     27  H   UNL     1      -3.786   1.752   3.762  1.00  0.00     0.167 HD
ATOM     28  C   UNL     1      -5.495   3.990   0.230  1.00  0.00     0.037 A 
ATOM     29  C   UNL     1      -3.728   0.512   6.245  1.00  0.00     0.037 A 
ATOM     30  C   UNL     1      -6.534   3.877   1.213  1.00  0.00     0.049 A 
ATOM     31  C   UNL     1      -5.091   1.103   6.019  1.00  0.00     0.074 A 
ATOM     32  C   UNL     1      -7.834   4.332   1.159  1.00  0.00     0.029 A 
ATOM     33  N   UNL     1      -6.369   3.249   2.445  1.00  0.00    -0.354 N 
ATOM     34  N   UNL     1      -5.541   1.743   4.962  1.00  0.00    -0.248 NA
ATOM     35  C   UNL     1      -6.062   0.982   7.110  1.00  0.00     0.031 C 
ATOM     36  C   UNL     1      -8.439   4.028   2.383  1.00  0.00     0.029 A 
ATOM     37  C   UNL     1      -7.536   3.328   3.175  1.00  0.00     0.049 A 
ATOM     38  H   UNL     1      -5.540   2.812   2.749  1.00  0.00     0.167 HD
ATOM     39  C   UNL     1      -6.848   2.098   5.253  1.00  0.00     0.074 A 
ATOM     40  C   UNL     1      -7.121   1.587   6.586  1.00  0.00     0.031 C 
ATOM     41  C   UNL     1      -7.742   2.785   4.499  1.00  0.00     0.037 A 
BRANCH  28  42
ATOM     42  C   UNL     1      -5.736   4.708  -1.062  1.00  0.00     0.057 A 
ATOM     43  C   UNL     1      -5.897   6.100  -1.063  1.00  0.00     0.134 A 
ATOM     44  C   UNL     1      -5.742   4.058  -2.303  1.00  0.00     0.134 A 
ATOM     45  F   UNL     1      -5.879   6.788   0.088  1.00  0.00    -0.206 F 
ATOM     46  C   UNL     1      -6.057   6.819  -2.248  1.00  0.00     0.040 A 
ATOM     47  C   UNL     1      -5.876   4.770  -3.498  1.00  0.00     0.040 A 
ATOM     48  F   UNL     1      -5.547   2.733  -2.377  1.00  0.00    -0.206 F 
ATOM     49  C   UNL     1      -6.039   6.154  -3.472  1.00  0.00     0.006 A 
ENDBRANCH  28  42
BRANCH  29  50
ATOM     50  C   UNL     1      -3.345  -0.198   7.492  1.00  0.00     0.057 A 
ATOM     51  C   UNL     1      -2.394   0.340   8.373  1.00  0.00     0.134 A 
ATOM     52  C   UNL     1      -3.859  -1.460   7.802  1.00  0.00     0.134 A 
ATOM     53  F   UNL     1      -1.855   1.546   8.134  1.00  0.00    -0.206 F 
ATOM     54  C   UNL     1      -1.944  -0.363   9.491  1.00  0.00     0.040 A 
ATOM     55  C   UNL     1      -3.436  -2.165   8.932  1.00  0.00     0.040 A 
ATOM     56  F   UNL     1      -4.781  -2.026   7.010  1.00  0.00    -0.206 F 
ATOM     57  C   UNL     1      -2.466  -1.621   9.774  1.00  0.00     0.006 A 
ENDBRANCH  29  50
BRANCH  41  58
ATOM     58  C   UNL     1      -9.100   3.002   5.085  1.00  0.00     0.057 A 
ATOM     59  C   UNL     1     -10.207   2.325   4.559  1.00  0.00     0.134 A 
ATOM     60  C   UNL     1      -9.326   3.978   6.061  1.00  0.00     0.134 A 
ATOM     61  F   UNL     1     -10.046   1.391   3.610  1.00  0.00    -0.206 F 
ATOM     62  C   UNL     1     -11.503   2.638   4.961  1.00  0.00     0.040 A 
ATOM     63  C   UNL     1     -10.617   4.280   6.491  1.00  0.00     0.040 A 
ATOM     64  F   UNL     1      -8.300   4.650   6.603  1.00  0.00    -0.206 F 
ATOM     65  C   UNL     1     -11.709   3.621   5.928  1.00  0.00     0.006 A 
ENDBRANCH  41  58
ENDBRANCH  15  16
ENDBRANCH   8  10
ENDBRANCH   7   8
ENDBRANCH   6   7
ENDBRANCH   5   6
ENDBRANCH   4   5
ENDBRANCH   3   4
ENDBRANCH   2   3
ENDBRANCH   1   2
BRANCH   1  66
ATOM     66  C   UNL     1       4.914  -3.008   0.808  1.00  0.00     0.188 C 
BRANCH  66  67
ATOM     67  C   UNL     1       3.566  -3.264   1.514  1.00  0.00     0.188 C 
BRANCH  67  68
ATOM     68  O   UNL     1       3.337  -2.410   2.623  1.00  0.00    -0.376 OA
BRANCH  68  69
ATOM     69  C   UNL     1       3.598  -2.978   3.905  1.00  0.00     0.202 C 
BRANCH  69  70
ATOM     70  C   UNL     1       4.960  -3.663   4.155  1.00  0.00     0.261 C 
BRANCH  70  71
ATOM     71  O   UNL     1       5.370  -4.644   3.167  1.00  0.00    -0.463 OA
BRANCH  71  72
ATOM     72  C   UNL     1       4.942  -5.919   3.305  1.00  0.00     0.313 C 
ATOM     73  O   UNL     1       4.237  -6.274   4.261  1.00  0.00    -0.252 OA
BRANCH  72  74
ATOM     74  C   UNL     1       5.456  -6.864   2.172  1.00  0.00     0.135 C 
BRANCH  74  75
ATOM     75  C   UNL     1       4.734  -8.191   2.201  1.00  0.00    -0.033 A 
ATOM     76  C   UNL     1       5.489  -9.367   2.095  1.00  0.00     0.007 A 
ATOM     77  C   UNL     1       3.333  -8.266   2.298  1.00  0.00     0.007 A 
ATOM     78  C   UNL     1       4.854 -10.602   2.118  1.00  0.00     0.039 A 
ATOM     79  C   UNL     1       2.706  -9.505   2.354  1.00  0.00     0.039 A 
ATOM     80  C   UNL     1       3.473 -10.660   2.265  1.00  0.00     0.123 A 
ATOM     81  F   UNL     1       2.869 -11.853   2.318  1.00  0.00    -0.207 F 
ENDBRANCH  74  75
BRANCH  74  82
ATOM     82  C   UNL     1       5.380  -6.223   0.778  1.00  0.00     0.076 C 
BRANCH  82  83
ATOM     83  C   UNL     1       5.741  -6.822  -0.565  1.00  0.00     0.042 A 
ATOM     84  C   UNL     1       5.299  -8.055  -1.023  1.00  0.00     0.024 A 
ATOM     85  N   UNL     1       6.393  -5.966  -1.403  1.00  0.00    -0.261 NA
ATOM     86  C   UNL     1       5.619  -8.461  -2.322  1.00  0.00     0.003 A 
ATOM     87  C   UNL     1       6.662  -6.366  -2.667  1.00  0.00     0.111 A 
ATOM     88  C   UNL     1       6.317  -7.606  -3.162  1.00  0.00     0.020 A 
ENDBRANCH  82  83
ENDBRANCH  74  82
ENDBRANCH  72  74
ENDBRANCH  71  72
ENDBRANCH  70  71
ENDBRANCH  69  70
ENDBRANCH  68  69
ENDBRANCH  67  68
ENDBRANCH  66  67
ENDBRANCH   1  66
TORSDOF 23
