REMARK SMILES CC(C)(O)C#Cc1ccc(C(=O)N[C@@H](CC2=c3ccccc3=NC2)C(=O)OCCOCCOCCOCCOC(=O)c2ccc(-c3c4nc(c(-c5c(F)cccc5F)c5ccc([nH]5)c(-c5c(F)cccc5F)c5nc(c(-c6c(F)cccc6F)c6ccc3[nH]6)C=C5)C=C4)cc2)s1
REMARK SMILES IDX 31 1 30 2 29 3 28 4 27 5 25 6 26 7 14 8 13 9 11 10 12 11
REMARK SMILES IDX 10 13 7 14 8 15 96 16 9 17 6 18 5 19 2 20 1 21 3 22 4 23
REMARK SMILES IDX 15 25 16 26 17 27 24 28 18 29 22 30 23 31 19 32 21 33 20 34
REMARK SMILES IDX 32 35 33 36 34 37 35 38 36 39 37 40 38 41 39 42 40 43 41 44
REMARK SMILES IDX 42 45 43 46 95 47 44 48 94 49 45 50 46 51 47 52 88 53 48 54
REMARK SMILES IDX 93 55 87 56 89 57 49 58 92 59 86 60 85 61 50 63 76 64 59 65
REMARK SMILES IDX 75 66 60 67 63 68 74 69 90 70 61 71 62 72 73 74 91 75 64 76
REMARK SMILES IDX 51 77 52 78 57 79 53 80 54 81 56 82 58 83 55 84 77 85 78 86
REMARK SMILES IDX 83 87 79 88 80 89 82 90 84 91 81 92 65 93 66 94 71 95 67 96
REMARK SMILES IDX 68 97 70 98 72 99 69 100
REMARK H PARENT 13 12 4 24 89 62 63 73
REMARK Flexibility Score: inf
ROOT
ATOM      1  C   UNL     1      -1.812  -4.578   4.656  1.00  0.00     0.188 C 
ENDROOT
BRANCH   1   2
ATOM      2  O   UNL     1      -3.071  -5.012   4.176  1.00  0.00    -0.376 OA
BRANCH   2   3
ATOM      3  C   UNL     1      -3.303  -6.280   3.584  1.00  0.00     0.202 C 
BRANCH   3   4
ATOM      4  C   UNL     1      -2.269  -7.119   2.834  1.00  0.00     0.261 C 
BRANCH   4   5
ATOM      5  O   UNL     1      -0.940  -7.025   3.341  1.00  0.00    -0.462 OA
BRANCH   5   6
ATOM      6  C   UNL     1      -0.080  -6.310   2.597  1.00  0.00     0.329 C 
ATOM      7  O   UNL     1      -0.348  -5.856   1.487  1.00  0.00    -0.250 OA
BRANCH   6   8
ATOM      8  C   UNL     1       1.339  -6.218   3.187  1.00  0.00     0.196 C 
BRANCH   8   9
ATOM      9  N   UNL     1       1.748  -6.319   4.607  1.00  0.00    -0.338 N 
ATOM     10  C   UNL     1       2.348  -5.445   5.506  1.00  0.00     0.262 C 
ATOM     11  O   UNL     1       2.677  -5.947   6.586  1.00  0.00    -0.268 OA
ATOM     12  H   UNL     1       1.552  -7.200   5.002  1.00  0.00     0.164 HD
BRANCH  10  13
ATOM     13  C   UNL     1       2.463  -3.999   5.295  1.00  0.00     0.093 A 
ATOM     14  C   UNL     1       2.142  -1.700   4.451  1.00  0.00     0.078 A 
ATOM     15  C   UNL     1       2.463  -1.688   5.785  1.00  0.00     0.030 A 
ATOM     16  S   UNL     1       2.384  -3.234   3.782  1.00  0.00    -0.121 S 
ATOM     17  C   UNL     1       2.668  -3.028   6.273  1.00  0.00     0.027 A 
BRANCH  14  18
ATOM     18  C   UNL     1       1.665  -0.651   3.612  1.00  0.00    -0.053 C 
ATOM     19  C   UNL     1       1.196   0.005   2.733  1.00  0.00    -0.063 C 
BRANCH  19  20
ATOM     20  C   UNL     1       0.616   0.672   1.554  1.00  0.00     0.120 C 
ATOM     21  C   UNL     1       1.074  -0.026   0.269  1.00  0.00     0.056 C 
ATOM     22  C   UNL     1       1.009   2.143   1.553  1.00  0.00     0.056 C 
BRANCH  20  23
ATOM     23  O   UNL     1      -0.804   0.579   1.633  1.00  0.00    -0.378 OA
ATOM     24  H   UNL     1      -1.200   1.015   0.862  1.00  0.00     0.212 HD
ENDBRANCH  20  23
ENDBRANCH  19  20
ENDBRANCH  14  18
ENDBRANCH  10  13
ENDBRANCH   8   9
BRANCH   8  25
ATOM     25  C   UNL     1       2.185  -7.180   2.368  1.00  0.00     0.070 C 
BRANCH  25  26
ATOM     26  C   UNL     1       2.035  -8.646   2.626  1.00  0.00    -0.037 C 
ATOM     27  C   UNL     1       2.883  -9.527   2.113  1.00  0.00     0.001 A 
ATOM     28  C   UNL     1       0.943  -9.360   3.372  1.00  0.00     0.174 C 
ATOM     29  C   UNL     1       4.031  -9.400   1.282  1.00  0.00     0.010 A 
ATOM     30  C   UNL     1       2.346 -10.817   2.546  1.00  0.00     0.065 A 
ATOM     31  N   UNL     1       1.282 -10.806   3.287  1.00  0.00    -0.280 NA
ATOM     32  C   UNL     1       4.637 -10.521   0.870  1.00  0.00     0.001 A 
ATOM     33  C   UNL     1       3.077 -12.006   2.068  1.00  0.00     0.028 A 
ATOM     34  C   UNL     1       4.146 -11.831   1.269  1.00  0.00     0.002 A 
ENDBRANCH  25  26
ENDBRANCH   8  25
ENDBRANCH   6   8
ENDBRANCH   5   6
ENDBRANCH   4   5
ENDBRANCH   3   4
ENDBRANCH   2   3
ENDBRANCH   1   2
BRANCH   1  35
ATOM     35  C   UNL     1      -1.052  -5.336   5.746  1.00  0.00     0.188 C 
BRANCH  35  36
ATOM     36  O   UNL     1      -1.194  -6.729   5.742  1.00  0.00    -0.377 OA
BRANCH  36  37
ATOM     37  C   UNL     1      -2.299  -7.263   6.441  1.00  0.00     0.188 C 
BRANCH  37  38
ATOM     38  C   UNL     1      -3.453  -6.353   6.935  1.00  0.00     0.188 C 
BRANCH  38  39
ATOM     39  O   UNL     1      -3.066  -5.097   7.440  1.00  0.00    -0.376 OA
BRANCH  39  40
ATOM     40  C   UNL     1      -2.693  -4.975   8.802  1.00  0.00     0.202 C 
BRANCH  40  41
ATOM     41  C   UNL     1      -1.981  -6.102   9.590  1.00  0.00     0.261 C 
BRANCH  41  42
ATOM     42  O   UNL     1      -2.334  -7.462   9.260  1.00  0.00    -0.460 OA
BRANCH  42  43
ATOM     43  C   UNL     1      -3.411  -8.067   9.815  1.00  0.00     0.338 C 
ATOM     44  O   UNL     1      -4.024  -7.676  10.791  1.00  0.00    -0.246 OA
BRANCH  43  45
ATOM     45  C   UNL     1      -3.950  -9.036   8.793  1.00  0.00     0.060 A 
ATOM     46  C   UNL     1      -3.138  -9.870   8.015  1.00  0.00     0.016 A 
ATOM     47  C   UNL     1      -5.275  -8.806   8.386  1.00  0.00     0.016 A 
ATOM     48  C   UNL     1      -3.607 -10.311   6.762  1.00  0.00     0.010 A 
ATOM     49  C   UNL     1      -5.724  -9.218   7.124  1.00  0.00     0.010 A 
ATOM     50  C   UNL     1      -4.873  -9.915   6.268  1.00  0.00    -0.014 A 
BRANCH  50  51
ATOM     51  C   UNL     1      -5.370 -10.481   4.986  1.00  0.00     0.031 A 
ATOM     52  C   UNL     1      -5.426 -11.974   5.076  1.00  0.00     0.074 A 
ATOM     53  C   UNL     1      -5.885  -9.841   3.898  1.00  0.00     0.049 A 
ATOM     54  N   UNL     1      -4.781 -12.843   4.372  1.00  0.00    -0.248 NA
ATOM     55  C   UNL     1      -6.154 -12.556   6.220  1.00  0.00     0.031 C 
ATOM     56  C   UNL     1      -6.177  -8.415   3.724  1.00  0.00     0.029 A 
ATOM     57  N   UNL     1      -6.315 -10.358   2.690  1.00  0.00    -0.354 N 
ATOM     58  C   UNL     1      -5.150 -14.092   4.872  1.00  0.00     0.074 A 
ATOM     59  C   UNL     1      -5.868 -13.851   6.093  1.00  0.00     0.031 C 
ATOM     60  C   UNL     1      -6.892  -8.213   2.589  1.00  0.00     0.029 A 
ATOM     61  C   UNL     1      -7.048  -9.470   1.883  1.00  0.00     0.049 A 
ATOM     62  H   UNL     1      -6.122 -11.283   2.414  1.00  0.00     0.167 HD
ATOM     63  C   UNL     1      -5.010 -15.223   4.130  1.00  0.00     0.037 A 
ATOM     64  C   UNL     1      -7.754  -9.735   0.740  1.00  0.00     0.037 A 
ATOM     65  C   UNL     1      -4.068 -15.022   3.062  1.00  0.00     0.049 A 
ATOM     66  C   UNL     1      -7.272 -11.028   0.200  1.00  0.00     0.074 A 
ATOM     67  C   UNL     1      -2.711 -14.780   2.997  1.00  0.00     0.029 A 
ATOM     68  N   UNL     1      -4.570 -14.681   1.832  1.00  0.00    -0.354 N 
ATOM     69  N   UNL     1      -6.079 -11.193  -0.293  1.00  0.00    -0.248 NA
ATOM     70  C   UNL     1      -7.927 -12.223   0.707  1.00  0.00     0.031 C 
ATOM     71  C   UNL     1      -2.556 -13.850   1.928  1.00  0.00     0.029 A 
ATOM     72  C   UNL     1      -3.805 -13.656   1.338  1.00  0.00     0.049 A 
ATOM     73  H   UNL     1      -5.341 -15.098   1.384  1.00  0.00     0.167 HD
ATOM     74  C   UNL     1      -5.645 -12.383   0.267  1.00  0.00     0.074 A 
ATOM     75  C   UNL     1      -6.840 -12.982   0.864  1.00  0.00     0.031 C 
ATOM     76  C   UNL     1      -4.318 -12.634   0.459  1.00  0.00     0.037 A 
BRANCH  63  77
ATOM     77  C   UNL     1      -6.001 -16.360   4.126  1.00  0.00     0.057 A 
ATOM     78  C   UNL     1      -7.336 -16.247   4.567  1.00  0.00     0.134 A 
ATOM     79  C   UNL     1      -5.721 -17.506   3.359  1.00  0.00     0.134 A 
ATOM     80  F   UNL     1      -7.777 -15.196   5.268  1.00  0.00    -0.206 F 
ATOM     81  C   UNL     1      -8.328 -17.167   4.220  1.00  0.00     0.040 A 
ATOM     82  C   UNL     1      -6.718 -18.410   2.970  1.00  0.00     0.040 A 
ATOM     83  F   UNL     1      -4.486 -17.737   2.890  1.00  0.00    -0.206 F 
ATOM     84  C   UNL     1      -8.031 -18.231   3.386  1.00  0.00     0.006 A 
ENDBRANCH  63  77
BRANCH  64  85
ATOM     85  C   UNL     1      -9.038  -9.144   0.252  1.00  0.00     0.057 A 
ATOM     86  C   UNL     1      -9.994  -8.672   1.167  1.00  0.00     0.134 A 
ATOM     87  C   UNL     1      -9.498  -9.287  -1.073  1.00  0.00     0.134 A 
ATOM     88  F   UNL     1      -9.705  -8.588   2.473  1.00  0.00    -0.206 F 
ATOM     89  C   UNL     1     -11.311  -8.358   0.801  1.00  0.00     0.040 A 
ATOM     90  C   UNL     1     -10.817  -8.974  -1.455  1.00  0.00     0.040 A 
ATOM     91  F   UNL     1      -8.697  -9.792  -2.023  1.00  0.00    -0.206 F 
ATOM     92  C   UNL     1     -11.732  -8.514  -0.513  1.00  0.00     0.006 A 
ENDBRANCH  64  85
BRANCH  76  93
ATOM     93  C   UNL     1      -3.320 -11.673  -0.133  1.00  0.00     0.057 A 
ATOM     94  C   UNL     1      -2.340 -12.183  -0.991  1.00  0.00     0.134 A 
ATOM     95  C   UNL     1      -3.204 -10.320   0.225  1.00  0.00     0.134 A 
ATOM     96  F   UNL     1      -2.357 -13.479  -1.341  1.00  0.00    -0.206 F 
ATOM     97  C   UNL     1      -1.292 -11.394  -1.471  1.00  0.00     0.040 A 
ATOM     98  C   UNL     1      -2.181  -9.509  -0.282  1.00  0.00     0.040 A 
ATOM     99  F   UNL     1      -4.035  -9.759   1.114  1.00  0.00    -0.206 F 
ATOM    100  C   UNL     1      -1.215 -10.050  -1.125  1.00  0.00     0.006 A 
ENDBRANCH  76  93
ENDBRANCH  50  51
ENDBRANCH  43  45
ENDBRANCH  42  43
ENDBRANCH  41  42
ENDBRANCH  40  41
ENDBRANCH  39  40
ENDBRANCH  38  39
ENDBRANCH  37  38
ENDBRANCH  36  37
ENDBRANCH  35  36
ENDBRANCH   1  35
TORSDOF 27
