REMARK SMILES C[C@@H](C(=O)OCCOCCOCCOCCOC(=O)c1ccc(-c2c3nc(c(-c4c(F)cccc4F)c4ccc([nH]4)c(-c4c(F)cccc4F)c4nc(c(-c5c(F)cccc5F)c5ccc2[nH]5)C=C4)C=C3)cc1)c1ccc(=O)n(C(F)F)c1
REMARK SMILES IDX 11 1 10 2 9 3 8 4 7 5 6 6 5 7 3 8 4 9 2 10 1 11 74 12 75 13
REMARK SMILES IDX 83 14 76 15 79 16 77 17 78 18 80 19 81 20 82 21 12 22 13 23
REMARK SMILES IDX 14 24 15 25 16 26 17 27 18 28 19 29 20 30 21 31 73 32 22 33
REMARK SMILES IDX 72 34 23 35 24 36 25 37 66 38 26 39 71 40 65 41 67 42 27 43
REMARK SMILES IDX 70 44 64 45 63 46 28 48 54 49 37 50 53 51 38 52 41 53 52 54
REMARK SMILES IDX 68 55 39 56 40 57 51 59 69 60 42 61 29 62 30 63 35 64 31 65
REMARK SMILES IDX 32 66 34 67 36 68 33 69 55 70 56 71 61 72 57 73 58 74 60 75
REMARK SMILES IDX 62 76 59 77 43 78 44 79 49 80 45 81 46 82 48 83 50 84 47 85
REMARK H PARENT 67 47 41 58
REMARK Flexibility Score: inf
ROOT
ATOM      1  O   UNL     1       2.423  -2.820  -0.462  1.00  0.00    -0.377 OA
ENDROOT
BRANCH   1   2
ATOM      2  C   UNL     1       1.012  -2.814  -0.574  1.00  0.00     0.188 C 
BRANCH   2   3
ATOM      3  C   UNL     1       0.463  -3.475  -1.850  1.00  0.00     0.188 C 
BRANCH   3   4
ATOM      4  O   UNL     1       1.428  -4.230  -2.544  1.00  0.00    -0.376 OA
BRANCH   4   5
ATOM      5  C   UNL     1       2.233  -3.595  -3.519  1.00  0.00     0.202 C 
BRANCH   5   6
ATOM      6  C   UNL     1       2.582  -2.088  -3.566  1.00  0.00     0.261 C 
BRANCH   6   7
ATOM      7  O   UNL     1       1.966  -1.175  -2.644  1.00  0.00    -0.463 OA
BRANCH   7   8
ATOM      8  C   UNL     1       0.912  -0.437  -3.074  1.00  0.00     0.313 C 
ATOM      9  O   UNL     1       0.402  -0.565  -4.182  1.00  0.00    -0.252 OA
BRANCH   8  10
ATOM     10  C   UNL     1       0.429   0.601  -2.032  1.00  0.00     0.127 C 
ATOM     11  C   UNL     1       1.173   0.683  -0.690  1.00  0.00     0.025 C 
BRANCH  10  12
ATOM     12  C   UNL     1      -1.088   0.563  -1.838  1.00  0.00    -0.017 A 
ATOM     13  C   UNL     1      -1.803  -0.682  -1.628  1.00  0.00     0.012 A 
ATOM     14  C   UNL     1      -1.823   1.688  -1.892  1.00  0.00     0.099 A 
ATOM     15  C   UNL     1      -3.139  -0.746  -1.617  1.00  0.00     0.072 A 
ATOM     16  N   UNL     1      -3.206   1.665  -1.817  1.00  0.00    -0.258 N 
ATOM     17  C   UNL     1      -3.941   0.492  -1.753  1.00  0.00     0.254 A 
ATOM     18  O   UNL     1      -5.163   0.399  -1.774  1.00  0.00    -0.269 OA
BRANCH  16  19
ATOM     19  C   UNL     1      -3.955   2.887  -1.914  1.00  0.00     0.451 C 
ATOM     20  F   UNL     1      -4.597   2.962  -3.104  1.00  0.00    -0.185 F 
ATOM     21  F   UNL     1      -4.879   2.983  -0.927  1.00  0.00    -0.185 F 
ENDBRANCH  16  19
ENDBRANCH  10  12
ENDBRANCH   8  10
ENDBRANCH   7   8
ENDBRANCH   6   7
ENDBRANCH   5   6
ENDBRANCH   4   5
ENDBRANCH   3   4
ENDBRANCH   2   3
ENDBRANCH   1   2
BRANCH   1  22
ATOM     22  C   UNL     1       3.057  -4.049  -0.120  1.00  0.00     0.188 C 
BRANCH  22  23
ATOM     23  C   UNL     1       2.261  -5.375  -0.040  1.00  0.00     0.188 C 
BRANCH  23  24
ATOM     24  O   UNL     1       0.930  -5.249   0.439  1.00  0.00    -0.376 OA
BRANCH  24  25
ATOM     25  C   UNL     1       0.656  -5.555   1.796  1.00  0.00     0.202 C 
BRANCH  25  26
ATOM     26  C   UNL     1       1.319  -4.679   2.869  1.00  0.00     0.261 C 
BRANCH  26  27
ATOM     27  O   UNL     1       2.752  -4.617   2.843  1.00  0.00    -0.460 OA
BRANCH  27  28
ATOM     28  C   UNL     1       3.436  -5.778   2.964  1.00  0.00     0.338 C 
ATOM     29  O   UNL     1       2.983  -6.884   3.156  1.00  0.00    -0.246 OA
BRANCH  28  30
ATOM     30  C   UNL     1       4.844  -5.492   2.606  1.00  0.00     0.060 A 
ATOM     31  C   UNL     1       5.420  -6.167   1.521  1.00  0.00     0.016 A 
ATOM     32  C   UNL     1       5.578  -4.544   3.321  1.00  0.00     0.016 A 
ATOM     33  C   UNL     1       6.745  -5.920   1.169  1.00  0.00     0.010 A 
ATOM     34  C   UNL     1       6.915  -4.319   2.987  1.00  0.00     0.010 A 
ATOM     35  C   UNL     1       7.512  -5.032   1.933  1.00  0.00    -0.014 A 
BRANCH  35  36
ATOM     36  C   UNL     1       8.986  -5.025   1.780  1.00  0.00     0.031 A 
ATOM     37  C   UNL     1       9.796  -5.855   2.737  1.00  0.00     0.074 A 
ATOM     38  C   UNL     1       9.591  -4.322   0.808  1.00  0.00     0.049 A 
ATOM     39  N   UNL     1      11.094  -5.972   2.847  1.00  0.00    -0.248 NA
ATOM     40  C   UNL     1       9.034  -6.662   3.706  1.00  0.00     0.031 C 
ATOM     41  C   UNL     1       8.912  -3.525  -0.210  1.00  0.00     0.029 A 
ATOM     42  N   UNL     1      10.925  -4.165   0.528  1.00  0.00    -0.354 N 
ATOM     43  C   UNL     1      11.303  -6.852   3.902  1.00  0.00     0.074 A 
ATOM     44  C   UNL     1      10.002  -7.216   4.418  1.00  0.00     0.031 C 
ATOM     45  C   UNL     1       9.837  -2.951  -1.000  1.00  0.00     0.029 A 
ATOM     46  C   UNL     1      11.170  -3.312  -0.519  1.00  0.00     0.049 A 
ATOM     47  H   UNL     1      11.639  -4.621   1.030  1.00  0.00     0.167 HD
ATOM     48  C   UNL     1      12.474  -7.319   4.392  1.00  0.00     0.037 A 
ATOM     49  C   UNL     1      12.339  -2.857  -1.012  1.00  0.00     0.037 A 
ATOM     50  C   UNL     1      13.765  -6.951   3.876  1.00  0.00     0.049 A 
ATOM     51  C   UNL     1      13.632  -3.325  -0.392  1.00  0.00     0.074 A 
ATOM     52  C   UNL     1      15.013  -7.382   4.290  1.00  0.00     0.029 A 
ATOM     53  N   UNL     1      13.974  -6.052   2.841  1.00  0.00    -0.354 N 
ATOM     54  N   UNL     1      13.823  -4.176   0.588  1.00  0.00    -0.248 NA
ATOM     55  C   UNL     1      14.874  -2.768  -0.950  1.00  0.00     0.031 C 
ATOM     56  C   UNL     1      15.979  -6.696   3.547  1.00  0.00     0.029 A 
ATOM     57  C   UNL     1      15.332  -5.890   2.624  1.00  0.00     0.049 A 
ATOM     58  H   UNL     1      13.262  -5.597   2.335  1.00  0.00     0.167 HD
ATOM     59  C   UNL     1      15.201  -4.283   0.739  1.00  0.00     0.074 A 
ATOM     60  C   UNL     1      15.798  -3.419  -0.258  1.00  0.00     0.031 C 
ATOM     61  C   UNL     1      15.910  -5.032   1.620  1.00  0.00     0.037 A 
BRANCH  48  62
ATOM     62  C   UNL     1      12.410  -8.246   5.571  1.00  0.00     0.057 A 
ATOM     63  C   UNL     1      11.917  -9.553   5.467  1.00  0.00     0.134 A 
ATOM     64  C   UNL     1      12.871  -7.828   6.827  1.00  0.00     0.134 A 
ATOM     65  F   UNL     1      11.443 -10.011   4.298  1.00  0.00    -0.206 F 
ATOM     66  C   UNL     1      11.861 -10.402   6.574  1.00  0.00     0.040 A 
ATOM     67  C   UNL     1      12.849  -8.678   7.933  1.00  0.00     0.040 A 
ATOM     68  F   UNL     1      13.357  -6.589   6.997  1.00  0.00    -0.206 F 
ATOM     69  C   UNL     1      12.336  -9.967   7.810  1.00  0.00     0.006 A 
ENDBRANCH  48  62
BRANCH  49  70
ATOM     70  C   UNL     1      12.352  -1.895  -2.144  1.00  0.00     0.057 A 
ATOM     71  C   UNL     1      12.866  -2.253  -3.396  1.00  0.00     0.134 A 
ATOM     72  C   UNL     1      11.883  -0.584  -1.994  1.00  0.00     0.134 A 
ATOM     73  F   UNL     1      13.353  -3.486  -3.598  1.00  0.00    -0.206 F 
ATOM     74  C   UNL     1      12.933  -1.339  -4.450  1.00  0.00     0.040 A 
ATOM     75  C   UNL     1      11.918   0.332  -3.047  1.00  0.00     0.040 A 
ATOM     76  F   UNL     1      11.380  -0.174  -0.820  1.00  0.00    -0.206 F 
ATOM     77  C   UNL     1      12.453  -0.043  -4.277  1.00  0.00     0.006 A 
ENDBRANCH  49  70
BRANCH  61  78
ATOM     78  C   UNL     1      17.409  -4.992   1.517  1.00  0.00     0.057 A 
ATOM     79  C   UNL     1      18.152  -3.862   1.882  1.00  0.00     0.134 A 
ATOM     80  C   UNL     1      18.121  -6.121   1.089  1.00  0.00     0.134 A 
ATOM     81  F   UNL     1      17.533  -2.744   2.291  1.00  0.00    -0.206 F 
ATOM     82  C   UNL     1      19.546  -3.848   1.800  1.00  0.00     0.040 A 
ATOM     83  C   UNL     1      19.516  -6.129   1.034  1.00  0.00     0.040 A 
ATOM     84  F   UNL     1      17.474  -7.242   0.736  1.00  0.00    -0.206 F 
ATOM     85  C   UNL     1      20.232  -4.987   1.383  1.00  0.00     0.006 A 
ENDBRANCH  61  78
ENDBRANCH  35  36
ENDBRANCH  28  30
ENDBRANCH  27  28
ENDBRANCH  26  27
ENDBRANCH  25  26
ENDBRANCH  24  25
ENDBRANCH  23  24
ENDBRANCH  22  23
ENDBRANCH   1  22
TORSDOF 22
