REMARK SMILES C[C@H](CNS(=O)(=O)c1ccc(C(=O)OCCOCCOCCOCCOC(=O)c2ccc(-c3c4nc(c(-c5c(F)cccc5F)c5ccc([nH]5)c(-c5c(F)cccc5F)c5nc(c(-c6c(F)cccc6F)c6ccc3[nH]6)C=C5)C=C4)cc2)cc1F)[NH+](C)C
REMARK SMILES IDX 18 1 17 2 16 3 15 4 14 5 12 6 13 7 11 8 8 9 9 10 84 11 10 12
REMARK SMILES IDX 83 13 85 14 5 15 6 16 7 17 4 18 3 20 2 21 1 22 86 23 87 24
REMARK SMILES IDX 88 25 19 27 20 28 21 29 22 30 23 31 24 32 25 33 26 34 27 35
REMARK SMILES IDX 28 36 29 37 30 38 82 39 31 40 81 41 32 42 33 43 34 44 75 45
REMARK SMILES IDX 35 46 80 47 74 48 76 49 36 50 79 51 73 52 72 53 37 55 63 56
REMARK SMILES IDX 46 57 62 58 47 59 50 60 61 61 77 62 48 63 49 64 60 66 78 67
REMARK SMILES IDX 51 68 38 69 39 70 44 71 40 72 41 73 43 74 45 75 42 76 64 77
REMARK SMILES IDX 65 78 70 79 66 80 67 81 69 82 71 83 68 84 52 85 53 86 58 87
REMARK SMILES IDX 54 88 55 89 57 90 59 91 56 92
REMARK H PARENT 4 19 86 26 76 54 50 65
REMARK Flexibility Score: inf
ROOT
ATOM      1  C   UNL     1       6.453   4.637  -2.983  1.00  0.00     0.188 C 
ENDROOT
BRANCH   1   2
ATOM      2  O   UNL     1       7.531   4.510  -3.905  1.00  0.00    -0.376 OA
BRANCH   2   3
ATOM      3  C   UNL     1       8.689   3.836  -3.433  1.00  0.00     0.202 C 
BRANCH   3   4
ATOM      4  C   UNL     1       8.542   2.313  -3.307  1.00  0.00     0.261 C 
BRANCH   4   5
ATOM      5  O   UNL     1       7.530   1.878  -2.384  1.00  0.00    -0.460 OA
BRANCH   5   6
ATOM      6  C   UNL     1       7.713   2.190  -1.083  1.00  0.00     0.338 C 
ATOM      7  O   UNL     1       8.672   2.757  -0.590  1.00  0.00    -0.246 OA
BRANCH   6   8
ATOM      8  C   UNL     1       6.449   1.916  -0.365  1.00  0.00     0.063 A 
ATOM      9  C   UNL     1       4.006   1.508   0.928  1.00  0.00     0.118 A 
ATOM     10  C   UNL     1       4.714   2.705   1.121  1.00  0.00     0.026 A 
ATOM     11  C   UNL     1       4.523   0.528   0.090  1.00  0.00     0.144 A 
ATOM     12  C   UNL     1       5.942   2.902   0.488  1.00  0.00     0.017 A 
ATOM     13  C   UNL     1       5.734   0.733  -0.573  1.00  0.00     0.056 A 
ATOM     14  F   UNL     1       3.896  -0.634  -0.121  1.00  0.00    -0.205 F 
BRANCH   9  15
ATOM     15  S   UNL     1       2.471   1.350   1.780  1.00  0.00     0.243 S 
ATOM     16  O   UNL     1       1.649   2.474   1.390  1.00  0.00    -0.207 OA
ATOM     17  O   UNL     1       2.807   1.113   3.167  1.00  0.00    -0.207 OA
BRANCH  15  18
ATOM     18  N   UNL     1       1.706  -0.042   1.266  1.00  0.00    -0.205 NA
ATOM     19  H   UNL     1       2.417  -0.771   1.216  1.00  0.00     0.141 HD
BRANCH  18  20
ATOM     20  C   UNL     1       1.000  -0.042  -0.025  1.00  0.00     0.163 C 
BRANCH  20  21
ATOM     21  C   UNL     1       0.421  -1.445  -0.398  1.00  0.00     0.195 C 
ATOM     22  C   UNL     1       1.141  -2.618   0.289  1.00  0.00     0.076 C 
BRANCH  21  23
ATOM     23  N   UNL     1      -1.059  -1.484  -0.288  1.00  0.00    -0.337 N 
ATOM     24  C   UNL     1      -1.641  -2.664  -0.928  1.00  0.00     0.332 C 
ATOM     25  C   UNL     1      -1.577  -1.331   1.069  1.00  0.00     0.332 C 
ATOM     26  H   UNL     1      -1.359  -0.654  -0.801  1.00  0.00     0.347 HD
ENDBRANCH  21  23
ENDBRANCH  20  21
ENDBRANCH  18  20
ENDBRANCH  15  18
ENDBRANCH   9  15
ENDBRANCH   6   8
ENDBRANCH   5   6
ENDBRANCH   4   5
ENDBRANCH   3   4
ENDBRANCH   2   3
ENDBRANCH   1   2
BRANCH   1  27
ATOM     27  C   UNL     1       5.237   3.759  -3.328  1.00  0.00     0.188 C 
BRANCH  27  28
ATOM     28  O   UNL     1       5.389   2.858  -4.411  1.00  0.00    -0.377 OA
BRANCH  28  29
ATOM     29  C   UNL     1       5.694   3.365  -5.709  1.00  0.00     0.188 C 
BRANCH  29  30
ATOM     30  C   UNL     1       5.667   4.874  -6.045  1.00  0.00     0.188 C 
BRANCH  30  31
ATOM     31  O   UNL     1       4.794   5.651  -5.237  1.00  0.00    -0.376 OA
BRANCH  31  32
ATOM     32  C   UNL     1       3.642   6.178  -5.878  1.00  0.00     0.202 C 
BRANCH  32  33
ATOM     33  C   UNL     1       2.536   5.138  -6.082  1.00  0.00     0.261 C 
BRANCH  33  34
ATOM     34  O   UNL     1       2.888   4.052  -6.955  1.00  0.00    -0.460 OA
BRANCH  34  35
ATOM     35  C   UNL     1       3.195   4.368  -8.232  1.00  0.00     0.338 C 
ATOM     36  O   UNL     1       3.177   5.470  -8.751  1.00  0.00    -0.246 OA
BRANCH  35  37
ATOM     37  C   UNL     1       3.735   3.156  -8.874  1.00  0.00     0.060 A 
ATOM     38  C   UNL     1       5.017   3.197  -9.436  1.00  0.00     0.016 A 
ATOM     39  C   UNL     1       2.974   1.986  -8.916  1.00  0.00     0.016 A 
ATOM     40  C   UNL     1       5.528   2.069 -10.077  1.00  0.00     0.010 A 
ATOM     41  C   UNL     1       3.479   0.865  -9.573  1.00  0.00     0.010 A 
ATOM     42  C   UNL     1       4.744   0.912 -10.184  1.00  0.00    -0.014 A 
BRANCH  42  43
ATOM     43  C   UNL     1       5.152  -0.181 -11.095  1.00  0.00     0.031 A 
ATOM     44  C   UNL     1       4.587  -0.193 -12.488  1.00  0.00     0.074 A 
ATOM     45  C   UNL     1       6.005  -1.141 -10.700  1.00  0.00     0.049 A 
ATOM     46  N   UNL     1       4.741  -1.078 -13.438  1.00  0.00    -0.248 NA
ATOM     47  C   UNL     1       3.729   0.946 -12.857  1.00  0.00     0.031 C 
ATOM     48  C   UNL     1       6.652  -1.213  -9.392  1.00  0.00     0.029 A 
ATOM     49  N   UNL     1       6.466  -2.248 -11.368  1.00  0.00    -0.354 N 
ATOM     50  C   UNL     1       4.004  -0.602 -14.515  1.00  0.00     0.074 A 
ATOM     51  C   UNL     1       3.377   0.631 -14.094  1.00  0.00     0.031 C 
ATOM     52  C   UNL     1       7.423  -2.314  -9.350  1.00  0.00     0.029 A 
ATOM     53  C   UNL     1       7.297  -3.039 -10.614  1.00  0.00     0.049 A 
ATOM     54  H   UNL     1       6.224  -2.455 -12.300  1.00  0.00     0.167 HD
ATOM     55  C   UNL     1       3.871  -1.141 -15.748  1.00  0.00     0.037 A 
ATOM     56  C   UNL     1       7.872  -4.223 -10.906  1.00  0.00     0.037 A 
ATOM     57  C   UNL     1       4.491  -2.369 -16.164  1.00  0.00     0.049 A 
ATOM     58  C   UNL     1       7.638  -4.848 -12.258  1.00  0.00     0.074 A 
ATOM     59  C   UNL     1       4.419  -2.993 -17.397  1.00  0.00     0.029 A 
ATOM     60  N   UNL     1       5.291  -3.162 -15.357  1.00  0.00    -0.354 N 
ATOM     61  N   UNL     1       6.949  -4.387 -13.274  1.00  0.00    -0.248 NA
ATOM     62  C   UNL     1       8.260  -6.158 -12.503  1.00  0.00     0.031 C 
ATOM     63  C   UNL     1       5.138  -4.188 -17.322  1.00  0.00     0.029 A 
ATOM     64  C   UNL     1       5.700  -4.283 -16.059  1.00  0.00     0.049 A 
ATOM     65  H   UNL     1       5.532  -2.959 -14.425  1.00  0.00     0.167 HD
ATOM     66  C   UNL     1       7.074  -5.334 -14.283  1.00  0.00     0.074 A 
ATOM     67  C   UNL     1       7.912  -6.393 -13.762  1.00  0.00     0.031 C 
ATOM     68  C   UNL     1       6.544  -5.324 -15.530  1.00  0.00     0.037 A 
BRANCH  55  69
ATOM     69  C   UNL     1       3.011  -0.413 -16.736  1.00  0.00     0.057 A 
ATOM     70  C   UNL     1       1.772  -0.935 -17.126  1.00  0.00     0.134 A 
ATOM     71  C   UNL     1       3.436   0.774 -17.346  1.00  0.00     0.134 A 
ATOM     72  F   UNL     1       1.309  -2.070 -16.580  1.00  0.00    -0.206 F 
ATOM     73  C   UNL     1       0.993  -0.311 -18.101  1.00  0.00     0.040 A 
ATOM     74  C   UNL     1       2.655   1.420 -18.304  1.00  0.00     0.040 A 
ATOM     75  F   UNL     1       4.606   1.335 -17.002  1.00  0.00    -0.206 F 
ATOM     76  C   UNL     1       1.434   0.871 -18.692  1.00  0.00     0.006 A 
ENDBRANCH  55  69
BRANCH  56  77
ATOM     77  C   UNL     1       8.723  -4.901  -9.897  1.00  0.00     0.057 A 
ATOM     78  C   UNL     1       8.176  -5.457  -8.734  1.00  0.00     0.134 A 
ATOM     79  C   UNL     1      10.107  -5.011 -10.073  1.00  0.00     0.134 A 
ATOM     80  F   UNL     1       6.856  -5.388  -8.506  1.00  0.00    -0.206 F 
ATOM     81  C   UNL     1       8.975  -6.081  -7.775  1.00  0.00     0.040 A 
ATOM     82  C   UNL     1      10.915  -5.653  -9.134  1.00  0.00     0.040 A 
ATOM     83  F   UNL     1      10.686  -4.521 -11.179  1.00  0.00    -0.206 F 
ATOM     84  C   UNL     1      10.350  -6.184  -7.976  1.00  0.00     0.006 A 
ENDBRANCH  56  77
BRANCH  68  85
ATOM     85  C   UNL     1       6.867  -6.473 -16.440  1.00  0.00     0.057 A 
ATOM     86  C   UNL     1       7.699  -6.288 -17.552  1.00  0.00     0.134 A 
ATOM     87  C   UNL     1       6.278  -7.732 -16.274  1.00  0.00     0.134 A 
ATOM     88  F   UNL     1       8.283  -5.101 -17.776  1.00  0.00    -0.206 F 
ATOM     89  C   UNL     1       7.920  -7.309 -18.477  1.00  0.00     0.040 A 
ATOM     90  C   UNL     1       6.511  -8.770 -17.180  1.00  0.00     0.040 A 
ATOM     91  F   UNL     1       5.478  -7.976 -15.226  1.00  0.00    -0.206 F 
ATOM     92  C   UNL     1       7.325  -8.555 -18.291  1.00  0.00     0.006 A 
ENDBRANCH  68  85
ENDBRANCH  42  43
ENDBRANCH  35  37
ENDBRANCH  34  35
ENDBRANCH  33  34
ENDBRANCH  32  33
ENDBRANCH  31  32
ENDBRANCH  30  31
ENDBRANCH  29  30
ENDBRANCH  28  29
ENDBRANCH  27  28
ENDBRANCH   1  27
TORSDOF 25
