REMARK SMILES O=Cc1ccc2c(c1)C=C(C(=O)OCCOCCOCCOCCOC(=O)c1ccc(-c3c4nc(c(-c5c(F)cccc5F)c5ccc([nH]5)c(-c5c(F)cccc5F)c5nc(c(-c6c(F)cccc6F)c6ccc3[nH]6)C=C5)C=C4)cc1)[C@H](C(F)(F)F)O2
REMARK SMILES IDX 20 1 19 2 18 3 17 4 16 5 15 6 14 7 13 8 11 9 12 10 10 11
REMARK SMILES IDX 3 12 4 13 8 14 5 15 7 16 6 17 9 18 87 19 82 20 2 21 1 22
REMARK SMILES IDX 83 23 84 24 85 25 86 26 21 27 22 28 23 29 24 30 25 31 26 32
REMARK SMILES IDX 27 33 28 34 29 35 81 36 30 37 80 38 31 39 32 40 33 41 74 42
REMARK SMILES IDX 34 43 79 44 73 45 75 46 35 47 78 48 72 49 71 50 36 52 62 53
REMARK SMILES IDX 45 54 61 55 46 56 49 57 60 58 76 59 47 60 48 61 59 63 77 64
REMARK SMILES IDX 50 65 37 66 38 67 43 68 39 69 40 70 42 71 44 72 41 73 63 74
REMARK SMILES IDX 64 75 69 76 65 77 66 78 68 79 70 80 67 81 51 82 52 83 57 84
REMARK SMILES IDX 53 85 54 86 56 87 58 88 55 89
REMARK H PARENT 75 51 49 62
REMARK Flexibility Score: inf
ROOT
ATOM      1  C   UNL     1       8.459   2.702   6.179  1.00  0.00     0.188 C 
ENDROOT
BRANCH   1   2
ATOM      2  O   UNL     1       7.579   1.864   5.431  1.00  0.00    -0.377 OA
BRANCH   2   3
ATOM      3  C   UNL     1       7.297   0.558   5.904  1.00  0.00     0.188 C 
BRANCH   3   4
ATOM      4  C   UNL     1       8.492  -0.362   6.222  1.00  0.00     0.188 C 
BRANCH   4   5
ATOM      5  O   UNL     1       9.746   0.302   6.208  1.00  0.00    -0.376 OA
BRANCH   5   6
ATOM      6  C   UNL     1      10.646  -0.001   5.157  1.00  0.00     0.202 C 
BRANCH   6   7
ATOM      7  C   UNL     1      10.213   0.387   3.736  1.00  0.00     0.261 C 
BRANCH   7   8
ATOM      8  O   UNL     1       8.890  -0.027   3.363  1.00  0.00    -0.460 OA
BRANCH   8   9
ATOM      9  C   UNL     1       8.691  -1.345   3.142  1.00  0.00     0.338 C 
ATOM     10  O   UNL     1       9.538  -2.217   3.187  1.00  0.00    -0.246 OA
BRANCH   9  11
ATOM     11  C   UNL     1       7.243  -1.596   2.981  1.00  0.00     0.087 C 
ATOM     12  C   UNL     1       2.976  -0.690   0.939  1.00  0.00     0.015 A 
ATOM     13  C   UNL     1       2.515  -1.944   1.353  1.00  0.00     0.015 A 
ATOM     14  C   UNL     1       4.271  -0.263   1.257  1.00  0.00     0.023 A 
ATOM     15  C   UNL     1       3.352  -2.779   2.091  1.00  0.00     0.048 A 
ATOM     16  C   UNL     1       5.118  -1.113   1.975  1.00  0.00     0.018 A 
ATOM     17  C   UNL     1       4.643  -2.361   2.403  1.00  0.00     0.128 A 
ATOM     18  C   UNL     1       6.528  -0.791   2.175  1.00  0.00     0.027 C 
ATOM     19  O   UNL     1       5.434  -3.263   3.062  1.00  0.00    -0.475 OA
ATOM     20  C   UNL     1       6.562  -2.689   3.779  1.00  0.00     0.316 C 
BRANCH  12  21
ATOM     21  C   UNL     1       2.109   0.173   0.111  1.00  0.00     0.260 C 
ATOM     22  O   UNL     1       0.966  -0.149  -0.187  1.00  0.00    -0.298 OA
ENDBRANCH  12  21
BRANCH  20  23
ATOM     23  C   UNL     1       7.412  -3.848   4.329  1.00  0.00     0.430 C 
ATOM     24  F   UNL     1       8.310  -3.420   5.246  1.00  0.00    -0.167 F 
ATOM     25  F   UNL     1       6.617  -4.736   4.985  1.00  0.00    -0.167 F 
ATOM     26  F   UNL     1       8.064  -4.529   3.368  1.00  0.00    -0.167 F 
ENDBRANCH  20  23
ENDBRANCH   9  11
ENDBRANCH   8   9
ENDBRANCH   7   8
ENDBRANCH   6   7
ENDBRANCH   5   6
ENDBRANCH   4   5
ENDBRANCH   3   4
ENDBRANCH   2   3
ENDBRANCH   1   2
BRANCH   1  27
ATOM     27  C   UNL     1       8.803   2.430   7.666  1.00  0.00     0.188 C 
BRANCH  27  28
ATOM     28  O   UNL     1       7.982   1.465   8.302  1.00  0.00    -0.376 OA
BRANCH  28  29
ATOM     29  C   UNL     1       7.083   1.914   9.299  1.00  0.00     0.202 C 
BRANCH  29  30
ATOM     30  C   UNL     1       5.919   2.779   8.806  1.00  0.00     0.261 C 
BRANCH  30  31
ATOM     31  O   UNL     1       6.282   3.931   8.032  1.00  0.00    -0.460 OA
BRANCH  31  32
ATOM     32  C   UNL     1       6.989   4.901   8.652  1.00  0.00     0.338 C 
ATOM     33  O   UNL     1       7.369   4.920   9.809  1.00  0.00    -0.246 OA
BRANCH  32  34
ATOM     34  C   UNL     1       7.379   5.875   7.615  1.00  0.00     0.060 A 
ATOM     35  C   UNL     1       8.737   6.117   7.360  1.00  0.00     0.016 A 
ATOM     36  C   UNL     1       6.387   6.516   6.872  1.00  0.00     0.016 A 
ATOM     37  C   UNL     1       9.106   7.027   6.368  1.00  0.00     0.010 A 
ATOM     38  C   UNL     1       6.756   7.442   5.900  1.00  0.00     0.010 A 
ATOM     39  C   UNL     1       8.114   7.724   5.666  1.00  0.00    -0.014 A 
BRANCH  39  40
ATOM     40  C   UNL     1       8.452   8.912   4.851  1.00  0.00     0.031 A 
ATOM     41  C   UNL     1       8.296  10.262   5.489  1.00  0.00     0.074 A 
ATOM     42  C   UNL     1       8.823   8.803   3.565  1.00  0.00     0.049 A 
ATOM     43  N   UNL     1       8.358  11.451   4.952  1.00  0.00    -0.248 NA
ATOM     44  C   UNL     1       8.010  10.263   6.933  1.00  0.00     0.031 C 
ATOM     45  C   UNL     1       9.057   7.551   2.852  1.00  0.00     0.029 A 
ATOM     46  N   UNL     1       9.043   9.778   2.625  1.00  0.00    -0.354 N 
ATOM     47  C   UNL     1       8.095  12.341   5.986  1.00  0.00     0.074 A 
ATOM     48  C   UNL     1       7.849  11.553   7.174  1.00  0.00     0.031 C 
ATOM     49  C   UNL     1       9.374   7.833   1.575  1.00  0.00     0.029 A 
ATOM     50  C   UNL     1       9.317   9.281   1.376  1.00  0.00     0.049 A 
ATOM     51  H   UNL     1       9.008  10.741   2.828  1.00  0.00     0.167 HD
ATOM     52  C   UNL     1       8.059  13.693   5.947  1.00  0.00     0.037 A 
ATOM     53  C   UNL     1       9.470   9.926   0.203  1.00  0.00     0.037 A 
ATOM     54  C   UNL     1       8.293  14.467   4.757  1.00  0.00     0.049 A 
ATOM     55  C   UNL     1       9.337  11.427   0.161  1.00  0.00     0.074 A 
ATOM     56  C   UNL     1       8.303  15.842   4.609  1.00  0.00     0.029 A 
ATOM     57  N   UNL     1       8.542  13.926   3.503  1.00  0.00    -0.354 N 
ATOM     58  N   UNL     1       9.107  12.267   1.142  1.00  0.00    -0.248 NA
ATOM     59  C   UNL     1       9.481  12.068  -1.154  1.00  0.00     0.031 C 
ATOM     60  C   UNL     1       8.495  16.132   3.255  1.00  0.00     0.029 A 
ATOM     61  C   UNL     1       8.675  14.940   2.570  1.00  0.00     0.049 A 
ATOM     62  H   UNL     1       8.613  12.964   3.307  1.00  0.00     0.167 HD
ATOM     63  C   UNL     1       9.120  13.535   0.572  1.00  0.00     0.074 A 
ATOM     64  C   UNL     1       9.378  13.352  -0.842  1.00  0.00     0.031 C 
ATOM     65  C   UNL     1       8.944  14.742   1.166  1.00  0.00     0.037 A 
BRANCH  52  66
ATOM     66  C   UNL     1       7.700  14.405   7.220  1.00  0.00     0.057 A 
ATOM     67  C   UNL     1       8.544  14.409   8.338  1.00  0.00     0.134 A 
ATOM     68  C   UNL     1       6.477  15.079   7.333  1.00  0.00     0.134 A 
ATOM     69  F   UNL     1       9.722  13.766   8.305  1.00  0.00    -0.206 F 
ATOM     70  C   UNL     1       8.168  15.023   9.535  1.00  0.00     0.040 A 
ATOM     71  C   UNL     1       6.105  15.725   8.513  1.00  0.00     0.040 A 
ATOM     72  F   UNL     1       5.621  15.117   6.301  1.00  0.00    -0.206 F 
ATOM     73  C   UNL     1       6.946  15.687   9.623  1.00  0.00     0.006 A 
ENDBRANCH  52  66
BRANCH  53  74
ATOM     74  C   UNL     1       9.770   9.157  -1.031  1.00  0.00     0.057 A 
ATOM     75  C   UNL     1      11.025   9.249  -1.644  1.00  0.00     0.134 A 
ATOM     76  C   UNL     1       8.822   8.317  -1.627  1.00  0.00     0.134 A 
ATOM     77  F   UNL     1      11.967  10.056  -1.135  1.00  0.00    -0.206 F 
ATOM     78  C   UNL     1      11.325   8.539  -2.808  1.00  0.00     0.040 A 
ATOM     79  C   UNL     1       9.116   7.582  -2.777  1.00  0.00     0.040 A 
ATOM     80  F   UNL     1       7.600   8.185  -1.089  1.00  0.00    -0.206 F 
ATOM     81  C   UNL     1      10.370   7.696  -3.373  1.00  0.00     0.006 A 
ENDBRANCH  53  74
BRANCH  65  82
ATOM     82  C   UNL     1       9.085  15.967   0.308  1.00  0.00     0.057 A 
ATOM     83  C   UNL     1       8.126  16.327  -0.647  1.00  0.00     0.134 A 
ATOM     84  C   UNL     1      10.174  16.832   0.485  1.00  0.00     0.134 A 
ATOM     85  F   UNL     1       7.064  15.539  -0.875  1.00  0.00    -0.206 F 
ATOM     86  C   UNL     1       8.255  17.491  -1.408  1.00  0.00     0.040 A 
ATOM     87  C   UNL     1      10.298  18.013  -0.247  1.00  0.00     0.040 A 
ATOM     88  F   UNL     1      11.124  16.554   1.391  1.00  0.00    -0.206 F 
ATOM     89  C   UNL     1       9.339  18.342  -1.202  1.00  0.00     0.006 A 
ENDBRANCH  65  82
ENDBRANCH  39  40
ENDBRANCH  32  34
ENDBRANCH  31  32
ENDBRANCH  30  31
ENDBRANCH  29  30
ENDBRANCH  28  29
ENDBRANCH  27  28
ENDBRANCH   1  27
TORSDOF 22
