REMARK SMILES Cc1ccc(N2CC[C@H]([NH+]3CCOCC3)[C@H](CCC(=O)OCCOCCOCCOCCOC(=O)c3ccc(-c4c5nc(c(-c6c(F)cccc6F)c6ccc([nH]6)c(-c6c(F)cccc6F)c6nc(c(-c7c(F)cccc7F)c7ccc4[nH]7)C=C6)C=C5)cc3)C2)nc1
REMARK SMILES IDX 26 1 25 2 24 3 23 4 22 5 21 6 19 7 20 8 18 9 17 10 16 11
REMARK SMILES IDX 6 12 7 13 90 14 8 15 9 16 5 17 1 18 2 19 3 20 92 21 4 22
REMARK SMILES IDX 91 23 10 24 11 25 15 26 12 28 14 29 13 30 27 31 28 32 29 33
REMARK SMILES IDX 30 34 31 35 32 36 33 37 34 38 35 39 36 40 37 41 89 42 38 43
REMARK SMILES IDX 88 44 39 45 40 46 41 47 82 48 42 49 87 50 81 51 83 52 43 53
REMARK SMILES IDX 86 54 80 55 79 56 44 58 70 59 53 60 69 61 54 62 57 63 68 64
REMARK SMILES IDX 84 65 55 66 56 67 67 69 85 70 58 71 45 72 46 73 51 74 47 75
REMARK SMILES IDX 48 76 50 77 52 78 49 79 71 80 72 81 77 82 73 83 74 84 76 85
REMARK SMILES IDX 78 86 75 87 59 88 60 89 65 90 61 91 62 92 64 93 66 94 63 95
REMARK H PARENT 10 27 83 57 57 68
REMARK Flexibility Score: inf
ROOT
ATOM      1  C   UNL     1      -3.980  -0.001  -5.420  1.00  0.00     0.188 C 
ENDROOT
BRANCH   1   2
ATOM      2  C   UNL     1      -4.713  -0.757  -6.544  1.00  0.00     0.188 C 
BRANCH   2   3
ATOM      3  O   UNL     1      -5.891  -0.142  -7.020  1.00  0.00    -0.376 OA
BRANCH   3   4
ATOM      4  C   UNL     1      -7.149  -0.364  -6.405  1.00  0.00     0.202 C 
BRANCH   4   5
ATOM      5  C   UNL     1      -7.364  -0.961  -5.002  1.00  0.00     0.261 C 
BRANCH   5   6
ATOM      6  O   UNL     1      -6.189  -1.237  -4.241  1.00  0.00    -0.463 OA
BRANCH   6   7
ATOM      7  C   UNL     1      -5.774  -2.518  -4.167  1.00  0.00     0.305 C 
ATOM      8  O   UNL     1      -6.337  -3.459  -4.716  1.00  0.00    -0.252 OA
BRANCH   7   9
ATOM      9  C   UNL     1      -4.433  -2.680  -3.448  1.00  0.00     0.123 C 
BRANCH   9  10
ATOM     10  C   UNL     1      -4.005  -1.778  -2.266  1.00  0.00     0.023 C 
BRANCH  10  11
ATOM     11  C   UNL     1      -4.988  -0.829  -1.531  1.00  0.00     0.067 C 
ATOM     12  N   UNL     1      -3.361   0.170   0.084  1.00  0.00    -0.356 N 
ATOM     13  C   UNL     1      -3.989  -0.403   1.251  1.00  0.00     0.124 C 
ATOM     14  C   UNL     1      -4.196   0.449  -1.075  1.00  0.00     0.127 C 
ATOM     15  C   UNL     1      -4.799  -1.643   0.896  1.00  0.00     0.087 C 
ATOM     16  C   UNL     1      -5.764  -1.411  -0.287  1.00  0.00     0.190 C 
BRANCH  12  17
ATOM     17  C   UNL     1      -1.988   0.103  -0.009  1.00  0.00     0.128 A 
ATOM     18  C   UNL     1       2.280  -0.141  -0.013  1.00  0.00     0.046 C 
ATOM     19  C   UNL     1       0.790  -0.012  -0.014  1.00  0.00    -0.033 A 
ATOM     20  C   UNL     1       0.153   1.215  -0.169  1.00  0.00     0.009 A 
ATOM     21  C   UNL     1      -0.026  -1.126   0.131  1.00  0.00     0.117 A 
ATOM     22  C   UNL     1      -1.243   1.269  -0.179  1.00  0.00     0.047 A 
ATOM     23  N   UNL     1      -1.381  -1.091   0.156  1.00  0.00    -0.239 NA
ENDBRANCH  12  17
BRANCH  16  24
ATOM     24  N   UNL     1      -6.810  -2.451  -0.511  1.00  0.00    -0.328 N 
ATOM     25  C   UNL     1      -7.549  -2.870   0.701  1.00  0.00     0.291 C 
ATOM     26  C   UNL     1      -6.517  -3.693  -1.221  1.00  0.00     0.291 C 
ATOM     27  H   UNL     1      -7.346  -1.870  -1.156  1.00  0.00     0.348 HD
ATOM     28  C   UNL     1      -6.921  -4.055   1.488  1.00  0.00     0.221 C 
ATOM     29  C   UNL     1      -5.721  -4.722  -0.434  1.00  0.00     0.221 C 
ATOM     30  O   UNL     1      -6.512  -5.161   0.671  1.00  0.00    -0.370 OA
ENDBRANCH  16  24
ENDBRANCH  10  11
ENDBRANCH   9  10
ENDBRANCH   7   9
ENDBRANCH   6   7
ENDBRANCH   5   6
ENDBRANCH   4   5
ENDBRANCH   3   4
ENDBRANCH   2   3
ENDBRANCH   1   2
BRANCH   1  31
ATOM     31  O   UNL     1      -4.696   0.975  -4.688  1.00  0.00    -0.377 OA
BRANCH  31  32
ATOM     32  C   UNL     1      -5.133   2.149  -5.357  1.00  0.00     0.188 C 
BRANCH  32  33
ATOM     33  C   UNL     1      -4.646   2.485  -6.784  1.00  0.00     0.188 C 
BRANCH  33  34
ATOM     34  O   UNL     1      -3.447   1.856  -7.203  1.00  0.00    -0.376 OA
BRANCH  34  35
ATOM     35  C   UNL     1      -2.210   2.529  -7.013  1.00  0.00     0.202 C 
BRANCH  35  36
ATOM     36  C   UNL     1      -1.797   2.913  -5.580  1.00  0.00     0.261 C 
BRANCH  36  37
ATOM     37  O   UNL     1      -2.693   3.791  -4.882  1.00  0.00    -0.460 OA
BRANCH  37  38
ATOM     38  C   UNL     1      -2.952   4.985  -5.451  1.00  0.00     0.338 C 
ATOM     39  O   UNL     1      -2.459   5.445  -6.470  1.00  0.00    -0.246 OA
BRANCH  38  40
ATOM     40  C   UNL     1      -4.096   5.586  -4.744  1.00  0.00     0.060 A 
ATOM     41  C   UNL     1      -5.285   5.801  -5.453  1.00  0.00     0.016 A 
ATOM     42  C   UNL     1      -3.997   5.939  -3.397  1.00  0.00     0.016 A 
ATOM     43  C   UNL     1      -6.369   6.404  -4.826  1.00  0.00     0.010 A 
ATOM     44  C   UNL     1      -5.075   6.576  -2.777  1.00  0.00     0.010 A 
ATOM     45  C   UNL     1      -6.250   6.843  -3.502  1.00  0.00    -0.014 A 
BRANCH  45  46
ATOM     46  C   UNL     1      -7.282   7.759  -2.966  1.00  0.00     0.031 A 
ATOM     47  C   UNL     1      -7.020   9.239  -3.017  1.00  0.00     0.074 A 
ATOM     48  C   UNL     1      -8.457   7.291  -2.510  1.00  0.00     0.049 A 
ATOM     49  N   UNL     1      -7.776  10.231  -2.625  1.00  0.00    -0.248 NA
ATOM     50  C   UNL     1      -5.730   9.655  -3.592  1.00  0.00     0.031 C 
ATOM     51  C   UNL     1      -8.844   5.883  -2.460  1.00  0.00     0.029 A 
ATOM     52  N   UNL     1      -9.542   7.960  -2.004  1.00  0.00    -0.354 N 
ATOM     53  C   UNL     1      -7.053  11.385  -2.900  1.00  0.00     0.074 A 
ATOM     54  C   UNL     1      -5.787  10.971  -3.463  1.00  0.00     0.031 C 
ATOM     55  C   UNL     1     -10.081   5.792  -1.940  1.00  0.00     0.029 A 
ATOM     56  C   UNL     1     -10.556   7.131  -1.594  1.00  0.00     0.049 A 
ATOM     57  H   UNL     1      -9.589   8.942  -1.941  1.00  0.00     0.167 HD
ATOM     58  C   UNL     1      -7.416  12.675  -2.706  1.00  0.00     0.037 A 
ATOM     59  C   UNL     1     -11.724   7.422  -0.989  1.00  0.00     0.037 A 
ATOM     60  C   UNL     1      -8.678  13.081  -2.145  1.00  0.00     0.049 A 
ATOM     61  C   UNL     1     -12.072   8.863  -0.715  1.00  0.00     0.074 A 
ATOM     62  C   UNL     1      -9.151  14.363  -1.929  1.00  0.00     0.029 A 
ATOM     63  N   UNL     1      -9.661  12.211  -1.698  1.00  0.00    -0.354 N 
ATOM     64  N   UNL     1     -11.397   9.949  -1.006  1.00  0.00    -0.248 NA
ATOM     65  C   UNL     1     -13.349   9.117  -0.033  1.00  0.00     0.031 C 
ATOM     66  C   UNL     1     -10.391  14.269  -1.291  1.00  0.00     0.029 A 
ATOM     67  C   UNL     1     -10.723  12.928  -1.172  1.00  0.00     0.049 A 
ATOM     68  H   UNL     1      -9.611  11.229  -1.747  1.00  0.00     0.167 HD
ATOM     69  C   UNL     1     -12.178  11.013  -0.568  1.00  0.00     0.074 A 
ATOM     70  C   UNL     1     -13.386  10.441  -0.012  1.00  0.00     0.031 C 
ATOM     71  C   UNL     1     -11.919  12.344  -0.619  1.00  0.00     0.037 A 
BRANCH  58  72
ATOM     72  C   UNL     1      -6.421  13.739  -3.069  1.00  0.00     0.057 A 
ATOM     73  C   UNL     1      -6.089  14.030  -4.399  1.00  0.00     0.134 A 
ATOM     74  C   UNL     1      -5.810  14.507  -2.069  1.00  0.00     0.134 A 
ATOM     75  F   UNL     1      -6.624  13.321  -5.404  1.00  0.00    -0.206 F 
ATOM     76  C   UNL     1      -5.171  15.032  -4.720  1.00  0.00     0.040 A 
ATOM     77  C   UNL     1      -4.914  15.530  -2.378  1.00  0.00     0.040 A 
ATOM     78  F   UNL     1      -6.083  14.282  -0.775  1.00  0.00    -0.206 F 
ATOM     79  C   UNL     1      -4.587  15.791  -3.707  1.00  0.00     0.006 A 
ENDBRANCH  58  72
BRANCH  59  80
ATOM     80  C   UNL     1     -12.642   6.330  -0.574  1.00  0.00     0.057 A 
ATOM     81  C   UNL     1     -13.901   6.170  -1.162  1.00  0.00     0.134 A 
ATOM     82  C   UNL     1     -12.291   5.438   0.448  1.00  0.00     0.134 A 
ATOM     83  F   UNL     1     -14.306   7.006  -2.128  1.00  0.00    -0.206 F 
ATOM     84  C   UNL     1     -14.788   5.178  -0.735  1.00  0.00     0.040 A 
ATOM     85  C   UNL     1     -13.155   4.423   0.864  1.00  0.00     0.040 A 
ATOM     86  F   UNL     1     -11.099   5.536   1.054  1.00  0.00    -0.206 F 
ATOM     87  C   UNL     1     -14.412   4.298   0.278  1.00  0.00     0.006 A 
ENDBRANCH  59  80
BRANCH  71  88
ATOM     88  C   UNL     1     -12.976  13.272  -0.088  1.00  0.00     0.057 A 
ATOM     89  C   UNL     1     -13.271  13.359   1.279  1.00  0.00     0.134 A 
ATOM     90  C   UNL     1     -13.689  14.111  -0.955  1.00  0.00     0.134 A 
ATOM     91  F   UNL     1     -12.632  12.577   2.163  1.00  0.00    -0.206 F 
ATOM     92  C   UNL     1     -14.260  14.219   1.760  1.00  0.00     0.040 A 
ATOM     93  C   UNL     1     -14.656  14.999  -0.482  1.00  0.00     0.040 A 
ATOM     94  F   UNL     1     -13.449  14.091  -2.275  1.00  0.00    -0.206 F 
ATOM     95  C   UNL     1     -14.951  15.047   0.878  1.00  0.00     0.006 A 
ENDBRANCH  71  88
ENDBRANCH  45  46
ENDBRANCH  38  40
ENDBRANCH  37  38
ENDBRANCH  36  37
ENDBRANCH  35  36
ENDBRANCH  34  35
ENDBRANCH  33  34
ENDBRANCH  32  33
ENDBRANCH  31  32
ENDBRANCH   1  31
TORSDOF 24
