REMARK SMILES Cc1c(F)cc(C(=O)OCCOCCOCCOCCOC(=O)c2ccc(-c3c4nc(c(-c5c(F)cccc5F)c5ccc([nH]5)c(-c5c(F)cccc5F)c5nc(c(-c6c(F)cccc6F)c6ccc3[nH]6)C=C5)C=C4)cc2)cc1S(=O)(=O)NC#N
REMARK SMILES IDX 14 1 13 2 12 3 11 4 10 5 9 6 7 7 8 8 6 9 1 10 2 11 3 12
REMARK SMILES IDX 79 13 4 14 5 15 78 16 80 17 81 18 82 19 83 20 84 22 85 23
REMARK SMILES IDX 15 24 16 25 17 26 18 27 19 28 20 29 21 30 22 31 23 32 24 33
REMARK SMILES IDX 25 34 77 35 26 36 76 37 27 38 28 39 29 40 70 41 30 42 75 43
REMARK SMILES IDX 69 44 71 45 31 46 74 47 68 48 67 49 32 51 58 52 41 53 57 54
REMARK SMILES IDX 42 55 45 56 56 57 72 58 43 59 44 60 55 62 73 63 46 64 33 65
REMARK SMILES IDX 34 66 39 67 35 68 36 69 38 70 40 71 37 72 59 73 60 74 65 75
REMARK SMILES IDX 61 76 62 77 64 78 66 79 63 80 47 81 48 82 53 83 49 84 50 85
REMARK SMILES IDX 52 86 54 87 51 88
REMARK H PARENT 83 21 71 50 45 61
REMARK Flexibility Score: inf
ROOT
ATOM      1  C   UNL     1      -3.050  -1.876  -1.842  1.00  0.00     0.188 C 
ENDROOT
BRANCH   1   2
ATOM      2  C   UNL     1      -2.967  -3.159  -0.984  1.00  0.00     0.188 C 
BRANCH   2   3
ATOM      3  O   UNL     1      -4.196  -3.819  -0.765  1.00  0.00    -0.376 OA
BRANCH   3   4
ATOM      4  C   UNL     1      -4.947  -3.603   0.411  1.00  0.00     0.202 C 
BRANCH   4   5
ATOM      5  C   UNL     1      -5.039  -2.235   1.118  1.00  0.00     0.261 C 
BRANCH   5   6
ATOM      6  O   UNL     1      -3.960  -1.309   0.924  1.00  0.00    -0.460 OA
BRANCH   6   7
ATOM      7  C   UNL     1      -2.898  -1.452   1.747  1.00  0.00     0.338 C 
ATOM      8  O   UNL     1      -2.779  -2.271   2.642  1.00  0.00    -0.246 OA
BRANCH   7   9
ATOM      9  C   UNL     1      -1.764  -0.645   1.233  1.00  0.00     0.064 A 
ATOM     10  C   UNL     1       1.699   1.279  -0.481  1.00  0.00     0.049 C 
ATOM     11  C   UNL     1       0.439   0.724   0.106  1.00  0.00     0.005 A 
ATOM     12  C   UNL     1       0.483  -0.650   0.407  1.00  0.00     0.128 A 
ATOM     13  C   UNL     1      -0.739   1.435   0.418  1.00  0.00     0.095 A 
ATOM     14  F   UNL     1       1.584  -1.360   0.114  1.00  0.00    -0.207 F 
ATOM     15  C   UNL     1      -0.582  -1.327   0.974  1.00  0.00     0.055 A 
ATOM     16  C   UNL     1      -1.855   0.722   0.939  1.00  0.00     0.038 A 
BRANCH  13  17
ATOM     17  S   UNL     1      -1.054   3.149  -0.024  1.00  0.00     0.270 S 
ATOM     18  O   UNL     1      -0.980   3.257  -1.462  1.00  0.00    -0.201 OA
ATOM     19  O   UNL     1      -2.290   3.503   0.654  1.00  0.00    -0.201 OA
BRANCH  17  20
ATOM     20  N   UNL     1       0.021   4.232   0.651  1.00  0.00    -0.215 NA
ATOM     21  H   UNL     1      -0.310   4.942   1.247  1.00  0.00     0.193 HD
BRANCH  20  22
ATOM     22  C   UNL     1       1.317   4.142   0.392  1.00  0.00     0.191 C 
ATOM     23  N   UNL     1       2.459   4.158   0.238  1.00  0.00    -0.172 NA
ENDBRANCH  20  22
ENDBRANCH  17  20
ENDBRANCH  13  17
ENDBRANCH   7   9
ENDBRANCH   6   7
ENDBRANCH   5   6
ENDBRANCH   4   5
ENDBRANCH   3   4
ENDBRANCH   2   3
ENDBRANCH   1   2
BRANCH   1  24
ATOM     24  O   UNL     1      -4.305  -1.250  -2.045  1.00  0.00    -0.377 OA
BRANCH  24  25
ATOM     25  C   UNL     1      -5.422  -2.038  -2.436  1.00  0.00     0.188 C 
BRANCH  25  26
ATOM     26  C   UNL     1      -5.278  -3.366  -3.243  1.00  0.00     0.188 C 
BRANCH  26  27
ATOM     27  O   UNL     1      -3.969  -3.880  -3.387  1.00  0.00    -0.376 OA
BRANCH  27  28
ATOM     28  C   UNL     1      -3.205  -3.837  -4.577  1.00  0.00     0.202 C 
BRANCH  28  29
ATOM     29  C   UNL     1      -3.026  -2.549  -5.391  1.00  0.00     0.261 C 
BRANCH  29  30
ATOM     30  O   UNL     1      -4.013  -1.574  -5.136  1.00  0.00    -0.460 OA
BRANCH  30  31
ATOM     31  C   UNL     1      -5.159  -1.875  -5.765  1.00  0.00     0.338 C 
ATOM     32  O   UNL     1      -5.366  -2.804  -6.527  1.00  0.00    -0.246 OA
BRANCH  31  33
ATOM     33  C   UNL     1      -6.180  -0.902  -5.339  1.00  0.00     0.060 A 
ATOM     34  C   UNL     1      -7.474  -1.463  -5.328  1.00  0.00     0.016 A 
ATOM     35  C   UNL     1      -5.885   0.328  -5.905  1.00  0.00     0.016 A 
ATOM     36  C   UNL     1      -8.317  -1.100  -6.336  1.00  0.00     0.010 A 
ATOM     37  C   UNL     1      -6.681   0.650  -6.953  1.00  0.00     0.010 A 
ATOM     38  C   UNL     1      -7.818  -0.145  -7.201  1.00  0.00    -0.014 A 
BRANCH  38  39
ATOM     39  C   UNL     1      -8.474   0.184  -8.423  1.00  0.00     0.031 A 
ATOM     40  C   UNL     1      -9.435   1.273  -8.279  1.00  0.00     0.074 A 
ATOM     41  C   UNL     1      -7.898  -0.349  -9.519  1.00  0.00     0.049 A 
ATOM     42  N   UNL     1     -10.323   1.566  -9.145  1.00  0.00    -0.248 NA
ATOM     43  C   UNL     1      -9.541   2.086  -7.057  1.00  0.00     0.031 C 
ATOM     44  C   UNL     1      -7.875   0.134 -10.885  1.00  0.00     0.029 A 
ATOM     45  N   UNL     1      -7.317  -1.623  -9.599  1.00  0.00    -0.354 N 
ATOM     46  C   UNL     1     -10.761   2.830  -8.817  1.00  0.00     0.074 A 
ATOM     47  C   UNL     1     -10.424   3.014  -7.432  1.00  0.00     0.031 C 
ATOM     48  C   UNL     1      -7.589  -0.896 -11.705  1.00  0.00     0.029 A 
ATOM     49  C   UNL     1      -7.577  -2.108 -10.897  1.00  0.00     0.049 A 
ATOM     50  H   UNL     1      -6.824  -2.089  -8.886  1.00  0.00     0.167 HD
ATOM     51  C   UNL     1     -11.142   3.636  -9.842  1.00  0.00     0.037 A 
ATOM     52  C   UNL     1      -8.461  -3.146 -11.040  1.00  0.00     0.037 A 
ATOM     53  C   UNL     1     -10.996   2.906 -11.101  1.00  0.00     0.049 A 
ATOM     54  C   UNL     1      -9.790  -2.714 -11.630  1.00  0.00     0.074 A 
ATOM     55  C   UNL     1      -9.976   2.792 -12.030  1.00  0.00     0.029 A 
ATOM     56  N   UNL     1     -11.819   1.823 -11.305  1.00  0.00    -0.354 N 
ATOM     57  N   UNL     1     -10.163  -1.471 -11.767  1.00  0.00    -0.248 NA
ATOM     58  C   UNL     1     -10.825  -3.653 -12.058  1.00  0.00     0.031 C 
ATOM     59  C   UNL     1     -10.205   1.598 -12.781  1.00  0.00     0.029 A 
ATOM     60  C   UNL     1     -11.353   0.994 -12.297  1.00  0.00     0.049 A 
ATOM     61  H   UNL     1     -12.647   1.661 -10.799  1.00  0.00     0.167 HD
ATOM     62  C   UNL     1     -11.431  -1.419 -12.271  1.00  0.00     0.074 A 
ATOM     63  C   UNL     1     -11.820  -2.814 -12.398  1.00  0.00     0.031 C 
ATOM     64  C   UNL     1     -12.076  -0.243 -12.536  1.00  0.00     0.037 A 
BRANCH  51  65
ATOM     65  C   UNL     1     -11.418   5.110  -9.791  1.00  0.00     0.057 A 
ATOM     66  C   UNL     1     -11.435   5.841 -10.996  1.00  0.00     0.134 A 
ATOM     67  C   UNL     1     -11.698   5.869  -8.643  1.00  0.00     0.134 A 
ATOM     68  F   UNL     1     -11.230   5.254 -12.183  1.00  0.00    -0.206 F 
ATOM     69  C   UNL     1     -11.674   7.215 -11.054  1.00  0.00     0.040 A 
ATOM     70  C   UNL     1     -11.918   7.254  -8.685  1.00  0.00     0.040 A 
ATOM     71  F   UNL     1     -11.823   5.319  -7.432  1.00  0.00    -0.206 F 
ATOM     72  C   UNL     1     -11.909   7.931  -9.895  1.00  0.00     0.006 A 
ENDBRANCH  51  65
BRANCH  52  73
ATOM     73  C   UNL     1      -8.307  -4.151  -9.944  1.00  0.00     0.057 A 
ATOM     74  C   UNL     1      -7.073  -4.821  -9.835  1.00  0.00     0.134 A 
ATOM     75  C   UNL     1      -9.107  -4.094  -8.797  1.00  0.00     0.134 A 
ATOM     76  F   UNL     1      -6.266  -4.927 -10.903  1.00  0.00    -0.206 F 
ATOM     77  C   UNL     1      -6.582  -5.256  -8.603  1.00  0.00     0.040 A 
ATOM     78  C   UNL     1      -8.629  -4.540  -7.561  1.00  0.00     0.040 A 
ATOM     79  F   UNL     1     -10.301  -3.486  -8.825  1.00  0.00    -0.206 F 
ATOM     80  C   UNL     1      -7.346  -5.076  -7.454  1.00  0.00     0.006 A 
ENDBRANCH  52  73
BRANCH  64  81
ATOM     81  C   UNL     1     -13.495  -0.186 -13.024  1.00  0.00     0.057 A 
ATOM     82  C   UNL     1     -13.953  -1.013 -14.053  1.00  0.00     0.134 A 
ATOM     83  C   UNL     1     -14.431   0.751 -12.536  1.00  0.00     0.134 A 
ATOM     84  F   UNL     1     -13.123  -1.861 -14.679  1.00  0.00    -0.206 F 
ATOM     85  C   UNL     1     -15.281  -0.991 -14.486  1.00  0.00     0.040 A 
ATOM     86  C   UNL     1     -15.737   0.836 -13.013  1.00  0.00     0.040 A 
ATOM     87  F   UNL     1     -14.146   1.610 -11.547  1.00  0.00    -0.206 F 
ATOM     88  C   UNL     1     -16.178  -0.063 -13.967  1.00  0.00     0.006 A 
ENDBRANCH  64  81
ENDBRANCH  38  39
ENDBRANCH  31  33
ENDBRANCH  30  31
ENDBRANCH  29  30
ENDBRANCH  28  29
ENDBRANCH  27  28
ENDBRANCH  26  27
ENDBRANCH  25  26
ENDBRANCH  24  25
ENDBRANCH   1  24
TORSDOF 23
