REMARK SMILES Cc1ccc(S(=O)(=O)N2CCN(C(=O)[C@H]3CCCC[C@H]3C(=O)OCCOCCOCCOCCOC(=O)c3ccc(-c4c5nc(c(-c6c(F)cccc6F)c6ccc([nH]6)c(-c6c(F)cccc6F)c6nc(c(-c7c(F)cccc7F)c7ccc4[nH]7)C=C6)C=C5)cc3)CC2)cc1C
REMARK SMILES IDX 28 1 27 2 26 3 25 4 24 5 23 6 21 7 22 8 20 9 15 10 16 11
REMARK SMILES IDX 17 12 19 13 18 14 13 15 9 16 10 17 93 18 11 19 92 20 12 21
REMARK SMILES IDX 14 22 6 23 7 24 8 25 5 26 1 27 2 28 3 29 95 30 4 31 94 32
REMARK SMILES IDX 96 33 29 34 30 35 31 36 32 37 33 38 34 39 35 40 36 41 37 42
REMARK SMILES IDX 38 43 39 44 91 45 40 46 90 47 41 48 42 49 43 50 84 51 44 52
REMARK SMILES IDX 89 53 83 54 85 55 45 56 88 57 82 58 81 59 46 61 72 62 55 63
REMARK SMILES IDX 71 64 56 65 59 66 70 67 86 68 57 69 58 70 69 72 87 73 60 74
REMARK SMILES IDX 47 75 48 76 53 77 49 78 50 79 52 80 54 81 51 82 73 83 74 84
REMARK SMILES IDX 79 85 75 86 76 87 78 88 80 89 77 90 61 91 62 92 67 93 63 94
REMARK SMILES IDX 64 95 66 96 68 97 65 98
REMARK H PARENT 85 60 59 71
REMARK Flexibility Score: inf
ROOT
ATOM      1  C   UNL     1      -2.945   4.191   1.681  1.00  0.00     0.188 C 
ENDROOT
BRANCH   1   2
ATOM      2  C   UNL     1      -1.789   4.845   0.910  1.00  0.00     0.188 C 
BRANCH   2   3
ATOM      3  O   UNL     1      -1.095   5.894   1.543  1.00  0.00    -0.376 OA
BRANCH   3   4
ATOM      4  C   UNL     1      -1.553   7.235   1.500  1.00  0.00     0.202 C 
BRANCH   4   5
ATOM      5  C   UNL     1      -2.816   7.746   0.784  1.00  0.00     0.261 C 
BRANCH   5   6
ATOM      6  O   UNL     1      -3.918   6.847   0.627  1.00  0.00    -0.463 OA
BRANCH   6   7
ATOM      7  C   UNL     1      -4.135   6.453  -0.646  1.00  0.00     0.309 C 
ATOM      8  O   UNL     1      -3.359   6.695  -1.571  1.00  0.00    -0.252 OA
BRANCH   7   9
ATOM      9  C   UNL     1      -5.392   5.638  -0.895  1.00  0.00     0.111 C 
ATOM     10  C   UNL     1      -6.293   5.131   0.263  1.00  0.00     0.093 C 
ATOM     11  C   UNL     1      -7.472   4.330  -0.341  1.00  0.00     0.014 C 
ATOM     12  C   UNL     1      -8.232   5.081  -1.430  1.00  0.00     0.001 C 
ATOM     13  C   UNL     1      -6.174   6.380  -1.993  1.00  0.00     0.016 C 
ATOM     14  C   UNL     1      -7.308   5.537  -2.544  1.00  0.00     0.001 C 
BRANCH  10  15
ATOM     15  C   UNL     1      -6.777   6.211   1.242  1.00  0.00     0.226 C 
ATOM     16  N   UNL     1      -9.430   5.451   4.290  1.00  0.00    -0.194 NA
ATOM     17  C   UNL     1      -9.026   6.821   3.896  1.00  0.00     0.124 C 
ATOM     18  C   UNL     1      -9.060   4.374   3.343  1.00  0.00     0.124 C 
ATOM     19  C   UNL     1      -7.544   6.853   3.497  1.00  0.00     0.136 C 
ATOM     20  C   UNL     1      -7.563   4.467   2.964  1.00  0.00     0.136 C 
ATOM     21  N   UNL     1      -7.235   5.823   2.498  1.00  0.00    -0.340 N 
ATOM     22  O   UNL     1      -6.763   7.398   0.911  1.00  0.00    -0.275 OA
BRANCH  16  23
ATOM     23  S   UNL     1     -10.254   5.155   5.719  1.00  0.00     0.243 S 
ATOM     24  O   UNL     1     -11.035   3.939   5.547  1.00  0.00    -0.207 OA
ATOM     25  O   UNL     1     -10.861   6.386   6.149  1.00  0.00    -0.207 OA
BRANCH  23  26
ATOM     26  C   UNL     1      -8.971   4.751   6.892  1.00  0.00     0.082 A 
ATOM     27  C   UNL     1      -5.912   3.645   9.727  1.00  0.00     0.044 C 
ATOM     28  C   UNL     1      -7.017   4.037   8.782  1.00  0.00    -0.048 A 
ATOM     29  C   UNL     1      -7.111   3.365   7.552  1.00  0.00     0.005 A 
ATOM     30  C   UNL     1      -7.946   5.054   9.084  1.00  0.00    -0.047 A 
ATOM     31  C   UNL     1      -8.088   3.710   6.619  1.00  0.00     0.022 A 
ATOM     32  C   UNL     1      -8.912   5.414   8.123  1.00  0.00     0.025 A 
ATOM     33  C   UNL     1      -7.990   5.748  10.420  1.00  0.00     0.044 C 
ENDBRANCH  23  26
ENDBRANCH  16  23
ENDBRANCH  10  15
ENDBRANCH   7   9
ENDBRANCH   6   7
ENDBRANCH   5   6
ENDBRANCH   4   5
ENDBRANCH   3   4
ENDBRANCH   2   3
ENDBRANCH   1   2
BRANCH   1  34
ATOM     34  O   UNL     1      -3.725   5.001   2.540  1.00  0.00    -0.377 OA
BRANCH  34  35
ATOM     35  C   UNL     1      -3.174   5.488   3.761  1.00  0.00     0.188 C 
BRANCH  35  36
ATOM     36  C   UNL     1      -1.809   4.990   4.281  1.00  0.00     0.188 C 
BRANCH  36  37
ATOM     37  O   UNL     1      -1.548   3.622   4.009  1.00  0.00    -0.376 OA
BRANCH  37  38
ATOM     38  C   UNL     1      -1.813   2.672   5.030  1.00  0.00     0.202 C 
BRANCH  38  39
ATOM     39  C   UNL     1      -3.269   2.596   5.503  1.00  0.00     0.261 C 
BRANCH  39  40
ATOM     40  O   UNL     1      -3.735   3.770   6.188  1.00  0.00    -0.460 OA
BRANCH  40  41
ATOM     41  C   UNL     1      -3.021   4.200   7.250  1.00  0.00     0.338 C 
ATOM     42  O   UNL     1      -2.108   3.611   7.801  1.00  0.00    -0.246 OA
BRANCH  41  43
ATOM     43  C   UNL     1      -3.440   5.578   7.597  1.00  0.00     0.060 A 
ATOM     44  C   UNL     1      -2.522   6.411   8.244  1.00  0.00     0.016 A 
ATOM     45  C   UNL     1      -4.743   6.023   7.358  1.00  0.00     0.016 A 
ATOM     46  C   UNL     1      -2.947   7.628   8.773  1.00  0.00     0.010 A 
ATOM     47  C   UNL     1      -5.184   7.211   7.929  1.00  0.00     0.010 A 
ATOM     48  C   UNL     1      -4.298   7.986   8.686  1.00  0.00    -0.014 A 
BRANCH  48  49
ATOM     49  C   UNL     1      -4.819   9.096   9.506  1.00  0.00     0.031 A 
ATOM     50  C   UNL     1      -5.087   8.862  10.966  1.00  0.00     0.074 A 
ATOM     51  C   UNL     1      -5.112  10.271   8.930  1.00  0.00     0.049 A 
ATOM     52  N   UNL     1      -5.461   9.708  11.890  1.00  0.00    -0.248 NA
ATOM     53  C   UNL     1      -4.946   7.478  11.443  1.00  0.00     0.031 C 
ATOM     54  C   UNL     1      -4.977  10.568   7.505  1.00  0.00     0.029 A 
ATOM     55  N   UNL     1      -5.591  11.428   9.478  1.00  0.00    -0.354 N 
ATOM     56  C   UNL     1      -5.597   8.961  13.055  1.00  0.00     0.074 A 
ATOM     57  C   UNL     1      -5.312   7.586  12.712  1.00  0.00     0.031 C 
ATOM     58  C   UNL     1      -5.367  11.835   7.289  1.00  0.00     0.029 A 
ATOM     59  C   UNL     1      -5.748  12.437   8.564  1.00  0.00     0.049 A 
ATOM     60  H   UNL     1      -5.803  11.527  10.434  1.00  0.00     0.167 HD
ATOM     61  C   UNL     1      -5.914   9.396  14.298  1.00  0.00     0.037 A 
ATOM     62  C   UNL     1      -6.116  13.716   8.751  1.00  0.00     0.037 A 
ATOM     63  C   UNL     1      -6.178  10.777  14.611  1.00  0.00     0.049 A 
ATOM     64  C   UNL     1      -6.344  14.205  10.153  1.00  0.00     0.074 A 
ATOM     65  C   UNL     1      -6.412  11.358  15.845  1.00  0.00     0.029 A 
ATOM     66  N   UNL     1      -6.247  11.795  13.670  1.00  0.00    -0.354 N 
ATOM     67  N   UNL     1      -6.340  13.528  11.276  1.00  0.00    -0.248 NA
ATOM     68  C   UNL     1      -6.573  15.646  10.317  1.00  0.00     0.031 C 
ATOM     69  C   UNL     1      -6.654  12.723  15.646  1.00  0.00     0.029 A 
ATOM     70  C   UNL     1      -6.522  13.000  14.294  1.00  0.00     0.049 A 
ATOM     71  H   UNL     1      -6.120  11.678  12.701  1.00  0.00     0.167 HD
ATOM     72  C   UNL     1      -6.534  14.462  12.285  1.00  0.00     0.074 A 
ATOM     73  C   UNL     1      -6.633  15.755  11.637  1.00  0.00     0.031 C 
ATOM     74  C   UNL     1      -6.619  14.273  13.625  1.00  0.00     0.037 A 
BRANCH  61  75
ATOM     75  C   UNL     1      -5.974   8.384  15.409  1.00  0.00     0.057 A 
ATOM     76  C   UNL     1      -4.827   7.728  15.878  1.00  0.00     0.134 A 
ATOM     77  C   UNL     1      -7.182   8.107  16.064  1.00  0.00     0.134 A 
ATOM     78  F   UNL     1      -3.638   7.937  15.294  1.00  0.00    -0.206 F 
ATOM     79  C   UNL     1      -4.882   6.822  16.940  1.00  0.00     0.040 A 
ATOM     80  C   UNL     1      -7.244   7.226  17.147  1.00  0.00     0.040 A 
ATOM     81  F   UNL     1      -8.320   8.701  15.675  1.00  0.00    -0.206 F 
ATOM     82  C   UNL     1      -6.092   6.576  17.584  1.00  0.00     0.006 A 
ENDBRANCH  61  75
BRANCH  62  83
ATOM     83  C   UNL     1      -6.161  14.634   7.589  1.00  0.00     0.057 A 
ATOM     84  C   UNL     1      -5.153  15.582   7.385  1.00  0.00     0.134 A 
ATOM     85  C   UNL     1      -7.177  14.550   6.631  1.00  0.00     0.134 A 
ATOM     86  F   UNL     1      -4.155  15.707   8.273  1.00  0.00    -0.206 F 
ATOM     87  C   UNL     1      -5.160  16.429   6.277  1.00  0.00     0.040 A 
ATOM     88  C   UNL     1      -7.186  15.377   5.506  1.00  0.00     0.040 A 
ATOM     89  F   UNL     1      -8.157  13.644   6.760  1.00  0.00    -0.206 F 
ATOM     90  C   UNL     1      -6.177  16.323   5.331  1.00  0.00     0.006 A 
ENDBRANCH  62  83
BRANCH  74  91
ATOM     91  C   UNL     1      -6.798  15.498  14.472  1.00  0.00     0.057 A 
ATOM     92  C   UNL     1      -7.998  16.221  14.485  1.00  0.00     0.134 A 
ATOM     93  C   UNL     1      -5.756  15.957  15.288  1.00  0.00     0.134 A 
ATOM     94  F   UNL     1      -9.030  15.839  13.718  1.00  0.00    -0.206 F 
ATOM     95  C   UNL     1      -8.141  17.380  15.248  1.00  0.00     0.040 A 
ATOM     96  C   UNL     1      -5.897  17.098  16.078  1.00  0.00     0.040 A 
ATOM     97  F   UNL     1      -4.585  15.303  15.332  1.00  0.00    -0.206 F 
ATOM     98  C   UNL     1      -7.089  17.820  16.050  1.00  0.00     0.006 A 
ENDBRANCH  74  91
ENDBRANCH  48  49
ENDBRANCH  41  43
ENDBRANCH  40  41
ENDBRANCH  39  40
ENDBRANCH  38  39
ENDBRANCH  37  38
ENDBRANCH  36  37
ENDBRANCH  35  36
ENDBRANCH  34  35
ENDBRANCH   1  34
TORSDOF 23
