REMARK SMILES CC[C@H]1CCC[C@H]([N@H+]2[C@@H](C(=O)OCCOCCOCCOCCOC(=O)c3ccc(-c4c5nc(c(-c6c(F)cccc6F)c6ccc([nH]6)c(-c6c(F)cccc6F)c6nc(c(-c7c(F)cccc7F)c7ccc4[nH]7)C=C6)C=C5)cc3)CC[C@@H]3CCCC[C@H]32)C1
REMARK SMILES IDX 18 1 17 2 16 3 15 4 14 5 13 6 12 7 10 8 11 9 9 10 8 11 88 12
REMARK SMILES IDX 81 14 83 15 87 16 82 17 84 18 86 19 85 20 7 21 3 22 4 23
REMARK SMILES IDX 89 24 5 25 6 26 2 27 1 28 19 29 20 30 21 31 22 32 23 33
REMARK SMILES IDX 24 34 25 35 26 36 27 37 28 38 80 39 29 40 79 41 30 42 31 43
REMARK SMILES IDX 32 44 73 45 33 46 78 47 72 48 74 49 34 50 77 51 71 52 70 53
REMARK SMILES IDX 35 55 61 56 44 57 60 58 45 59 48 60 59 61 75 62 46 63 47 64
REMARK SMILES IDX 58 66 76 67 49 68 36 69 37 70 42 71 38 72 39 73 41 74 43 75
REMARK SMILES IDX 40 76 62 77 63 78 68 79 64 80 65 81 67 82 69 83 66 84 50 85
REMARK SMILES IDX 51 86 56 87 52 88 53 89 55 90 57 91 54 92
REMARK H PARENT 8 13 74 54 48 65
REMARK Flexibility Score: inf
ROOT
ATOM      1  O   UNL     1       0.047   0.610   0.542  1.00  0.00    -0.377 OA
ENDROOT
BRANCH   1   2
ATOM      2  C   UNL     1      -1.011  -0.298   0.818  1.00  0.00     0.188 C 
BRANCH   2   3
ATOM      3  C   UNL     1      -2.378   0.355   0.640  1.00  0.00     0.188 C 
BRANCH   3   4
ATOM      4  O   UNL     1      -2.777   0.670  -0.691  1.00  0.00    -0.376 OA
BRANCH   4   5
ATOM      5  C   UNL     1      -1.999   1.601  -1.430  1.00  0.00     0.202 C 
BRANCH   5   6
ATOM      6  C   UNL     1      -2.026   3.080  -1.031  1.00  0.00     0.261 C 
BRANCH   6   7
ATOM      7  O   UNL     1      -1.532   3.428   0.274  1.00  0.00    -0.459 OA
BRANCH   7   8
ATOM      8  C   UNL     1      -2.468   3.616   1.242  1.00  0.00     0.365 C 
ATOM      9  O   UNL     1      -3.619   3.183   1.163  1.00  0.00    -0.245 OA
BRANCH   8  10
ATOM     10  C   UNL     1      -2.107   4.657   2.301  1.00  0.00     0.295 C 
ATOM     11  N   UNL     1      -0.769   5.338   2.303  1.00  0.00    -0.318 N 
ATOM     12  C   UNL     1      -1.166   6.689   2.857  1.00  0.00     0.188 C 
ATOM     13  H   UNL     1      -0.318   5.385   1.389  1.00  0.00     0.349 HD
ATOM     14  C   UNL     1      -2.742   4.564   3.716  1.00  0.00     0.078 C 
ATOM     15  C   UNL     1      -1.166   6.686   4.370  1.00  0.00     0.048 C 
ATOM     16  C   UNL     1      -0.847   7.954   2.063  1.00  0.00     0.065 C 
ATOM     17  C   UNL     1      -2.303   5.675   4.780  1.00  0.00     0.016 C 
ATOM     18  C   UNL     1      -1.235   8.054   5.068  1.00  0.00     0.010 C 
ATOM     19  C   UNL     1      -1.442   9.152   2.820  1.00  0.00     0.006 C 
ATOM     20  C   UNL     1      -0.791   9.226   4.190  1.00  0.00     0.001 C 
BRANCH  11  21
ATOM     21  C   UNL     1       0.403   4.585   3.008  1.00  0.00     0.185 C 
ATOM     22  C   UNL     1       1.842   2.338   2.604  1.00  0.00    -0.006 C 
ATOM     23  C   UNL     1       1.107   1.768   3.811  1.00  0.00     0.004 C 
ATOM     24  C   UNL     1       1.138   3.600   2.038  1.00  0.00     0.068 C 
ATOM     25  C   UNL     1       1.085   2.808   4.895  1.00  0.00     0.006 C 
ATOM     26  C   UNL     1       0.222   3.968   4.444  1.00  0.00     0.065 C 
BRANCH  22  27
ATOM     27  C   UNL     1       3.352   2.431   2.903  1.00  0.00     0.000 C 
ATOM     28  C   UNL     1       4.210   2.575   1.659  1.00  0.00     0.004 C 
ENDBRANCH  22  27
ENDBRANCH  11  21
ENDBRANCH   8  10
ENDBRANCH   7   8
ENDBRANCH   6   7
ENDBRANCH   5   6
ENDBRANCH   4   5
ENDBRANCH   3   4
ENDBRANCH   2   3
ENDBRANCH   1   2
BRANCH   1  29
ATOM     29  C   UNL     1       0.998   0.132  -0.393  1.00  0.00     0.188 C 
BRANCH  29  30
ATOM     30  C   UNL     1       1.745  -1.159  -0.063  1.00  0.00     0.188 C 
BRANCH  30  31
ATOM     31  O   UNL     1       1.393  -1.889   1.104  1.00  0.00    -0.376 OA
BRANCH  31  32
ATOM     32  C   UNL     1       2.034  -1.457   2.305  1.00  0.00     0.202 C 
BRANCH  32  33
ATOM     33  C   UNL     1       3.475  -1.956   2.491  1.00  0.00     0.261 C 
BRANCH  33  34
ATOM     34  O   UNL     1       4.371  -1.304   1.568  1.00  0.00    -0.460 OA
BRANCH  34  35
ATOM     35  C   UNL     1       4.825  -2.102   0.559  1.00  0.00     0.338 C 
ATOM     36  O   UNL     1       4.733  -3.294   0.470  1.00  0.00    -0.246 OA
BRANCH  35  37
ATOM     37  C   UNL     1       5.239  -1.238  -0.580  1.00  0.00     0.060 A 
ATOM     38  C   UNL     1       4.728  -1.575  -1.842  1.00  0.00     0.016 A 
ATOM     39  C   UNL     1       6.098  -0.148  -0.432  1.00  0.00     0.016 A 
ATOM     40  C   UNL     1       5.134  -0.874  -2.973  1.00  0.00     0.010 A 
ATOM     41  C   UNL     1       6.529   0.541  -1.573  1.00  0.00     0.010 A 
ATOM     42  C   UNL     1       6.093   0.138  -2.849  1.00  0.00    -0.014 A 
BRANCH  42  43
ATOM     43  C   UNL     1       6.857   0.517  -4.062  1.00  0.00     0.031 A 
ATOM     44  C   UNL     1       8.112  -0.264  -4.357  1.00  0.00     0.074 A 
ATOM     45  C   UNL     1       6.416   1.445  -4.928  1.00  0.00     0.049 A 
ATOM     46  N   UNL     1       8.934  -0.172  -5.370  1.00  0.00    -0.248 NA
ATOM     47  C   UNL     1       8.481  -1.299  -3.376  1.00  0.00     0.031 C 
ATOM     48  C   UNL     1       5.185   2.218  -4.792  1.00  0.00     0.029 A 
ATOM     49  N   UNL     1       6.962   1.881  -6.110  1.00  0.00    -0.354 N 
ATOM     50  C   UNL     1       9.906  -1.140  -5.150  1.00  0.00     0.074 A 
ATOM     51  C   UNL     1       9.598  -1.782  -3.893  1.00  0.00     0.031 C 
ATOM     52  C   UNL     1       5.069   3.040  -5.851  1.00  0.00     0.029 A 
ATOM     53  C   UNL     1       6.228   2.864  -6.726  1.00  0.00     0.049 A 
ATOM     54  H   UNL     1       7.800   1.523  -6.480  1.00  0.00     0.167 HD
ATOM     55  C   UNL     1      10.957  -1.479  -5.932  1.00  0.00     0.037 A 
ATOM     56  C   UNL     1       6.476   3.546  -7.862  1.00  0.00     0.037 A 
ATOM     57  C   UNL     1      11.276  -0.836  -7.174  1.00  0.00     0.049 A 
ATOM     58  C   UNL     1       7.713   3.226  -8.663  1.00  0.00     0.074 A 
ATOM     59  C   UNL     1      12.327  -1.092  -8.035  1.00  0.00     0.029 A 
ATOM     60  N   UNL     1      10.545   0.204  -7.729  1.00  0.00    -0.354 N 
ATOM     61  N   UNL     1       8.620   2.302  -8.453  1.00  0.00    -0.248 NA
ATOM     62  C   UNL     1       7.960   4.045  -9.859  1.00  0.00     0.031 C 
ATOM     63  C   UNL     1      12.258  -0.176  -9.089  1.00  0.00     0.029 A 
ATOM     64  C   UNL     1      11.136   0.618  -8.908  1.00  0.00     0.049 A 
ATOM     65  H   UNL     1       9.726   0.591  -7.341  1.00  0.00     0.167 HD
ATOM     66  C   UNL     1       9.524   2.407  -9.504  1.00  0.00     0.074 A 
ATOM     67  C   UNL     1       9.053   3.480 -10.354  1.00  0.00     0.031 C 
ATOM     68  C   UNL     1      10.643   1.681  -9.747  1.00  0.00     0.037 A 
BRANCH  55  69
ATOM     69  C   UNL     1      11.849  -2.577  -5.435  1.00  0.00     0.057 A 
ATOM     70  C   UNL     1      11.439  -3.916  -5.429  1.00  0.00     0.134 A 
ATOM     71  C   UNL     1      13.130  -2.289  -4.950  1.00  0.00     0.134 A 
ATOM     72  F   UNL     1      10.213  -4.255  -5.858  1.00  0.00    -0.206 F 
ATOM     73  C   UNL     1      12.264  -4.928  -4.935  1.00  0.00     0.040 A 
ATOM     74  C   UNL     1      13.973  -3.295  -4.477  1.00  0.00     0.040 A 
ATOM     75  F   UNL     1      13.581  -1.026  -4.924  1.00  0.00    -0.206 F 
ATOM     76  C   UNL     1      13.537  -4.619  -4.462  1.00  0.00     0.006 A 
ENDBRANCH  55  69
BRANCH  56  77
ATOM     77  C   UNL     1       5.545   4.612  -8.314  1.00  0.00     0.057 A 
ATOM     78  C   UNL     1       4.778   4.464  -9.475  1.00  0.00     0.134 A 
ATOM     79  C   UNL     1       5.430   5.820  -7.615  1.00  0.00     0.134 A 
ATOM     80  F   UNL     1       4.865   3.341 -10.203  1.00  0.00    -0.206 F 
ATOM     81  C   UNL     1       3.942   5.484  -9.935  1.00  0.00     0.040 A 
ATOM     82  C   UNL     1       4.580   6.839  -8.050  1.00  0.00     0.040 A 
ATOM     83  F   UNL     1       6.142   6.027  -6.498  1.00  0.00    -0.206 F 
ATOM     84  C   UNL     1       3.838   6.675  -9.218  1.00  0.00     0.006 A 
ENDBRANCH  56  77
BRANCH  68  85
ATOM     85  C   UNL     1      11.415   1.992 -10.995  1.00  0.00     0.057 A 
ATOM     86  C   UNL     1      12.199   3.147 -11.111  1.00  0.00     0.134 A 
ATOM     87  C   UNL     1      11.422   1.093 -12.069  1.00  0.00     0.134 A 
ATOM     88  F   UNL     1      12.228   4.051 -10.120  1.00  0.00    -0.206 F 
ATOM     89  C   UNL     1      12.948   3.405 -12.259  1.00  0.00     0.040 A 
ATOM     90  C   UNL     1      12.187   1.328 -13.212  1.00  0.00     0.040 A 
ATOM     91  F   UNL     1      10.703  -0.038 -12.016  1.00  0.00    -0.206 F 
ATOM     92  C   UNL     1      12.950   2.490 -13.311  1.00  0.00     0.006 A 
ENDBRANCH  68  85
ENDBRANCH  42  43
ENDBRANCH  35  37
ENDBRANCH  34  35
ENDBRANCH  33  34
ENDBRANCH  32  33
ENDBRANCH  31  32
ENDBRANCH  30  31
ENDBRANCH  29  30
ENDBRANCH   1  29
TORSDOF 22
