REMARK SMILES CCc1ccc2c(CC(=O)OCCOCCOCCOCCOC(=O)c3ccc(-c4c5nc(c(-c6c(F)cccc6F)c6ccc([nH]6)c(-c6c(F)cccc6F)c6nc(c(-c7c(F)cccc7F)c7ccc4[nH]7)C=C6)C=C5)cc3)c(C(=O)c3cc(C)ccn3)[nH]c2c1
REMARK SMILES IDX 16 1 15 2 14 3 13 4 12 5 11 6 9 7 10 8 8 9 7 10 3 11 4 12
REMARK SMILES IDX 92 13 5 14 91 15 6 16 90 17 80 18 2 20 1 21 81 22 82 23
REMARK SMILES IDX 83 24 84 25 89 26 85 27 88 28 86 29 87 30 17 31 18 32 19 33
REMARK SMILES IDX 20 34 21 35 22 36 23 37 24 38 25 39 26 40 27 41 79 42 28 43
REMARK SMILES IDX 78 44 29 45 30 46 31 47 72 48 32 49 77 50 71 51 73 52 33 53
REMARK SMILES IDX 76 54 70 55 69 56 34 58 60 59 43 60 59 61 44 62 47 63 58 64
REMARK SMILES IDX 74 65 45 66 46 67 57 69 75 70 48 71 35 72 36 73 41 74 37 75
REMARK SMILES IDX 38 76 40 77 42 78 39 79 61 80 62 81 67 82 63 83 64 84 66 85
REMARK SMILES IDX 68 86 65 87 49 88 50 89 55 90 51 91 52 92 54 93 56 94 53 95
REMARK H PARENT 90 19 73 57 47 68
REMARK Flexibility Score: inf
ROOT
ATOM      1  C   UNL     1       3.142  -6.535  -4.087  1.00  0.00     0.188 C 
ENDROOT
BRANCH   1   2
ATOM      2  C   UNL     1       3.388  -7.353  -5.376  1.00  0.00     0.188 C 
BRANCH   2   3
ATOM      3  O   UNL     1       4.714  -7.670  -5.736  1.00  0.00    -0.376 OA
BRANCH   3   4
ATOM      4  C   UNL     1       5.663  -6.696  -6.110  1.00  0.00     0.202 C 
BRANCH   4   5
ATOM      5  C   UNL     1       5.374  -5.195  -6.326  1.00  0.00     0.261 C 
BRANCH   5   6
ATOM      6  O   UNL     1       4.065  -4.700  -5.990  1.00  0.00    -0.463 OA
BRANCH   6   7
ATOM      7  C   UNL     1       3.216  -4.418  -7.005  1.00  0.00     0.310 C 
ATOM      8  O   UNL     1       3.564  -4.464  -8.184  1.00  0.00    -0.252 OA
BRANCH   7   9
ATOM      9  C   UNL     1       1.782  -4.052  -6.626  1.00  0.00     0.161 C 
BRANCH   9  10
ATOM     10  C   UNL     1       1.285  -3.992  -5.184  1.00  0.00     0.000 A 
ATOM     11  C   UNL     1       0.969  -0.861  -2.336  1.00  0.00    -0.046 A 
ATOM     12  C   UNL     1       1.689  -0.564  -3.500  1.00  0.00     0.004 A 
ATOM     13  C   UNL     1       0.522  -2.172  -2.122  1.00  0.00     0.030 A 
ATOM     14  C   UNL     1       1.927  -1.537  -4.486  1.00  0.00     0.011 A 
ATOM     15  C   UNL     1       0.728  -3.114  -3.141  1.00  0.00     0.046 A 
ATOM     16  C   UNL     1       1.392  -2.832  -4.329  1.00  0.00     0.004 A 
ATOM     17  N   UNL     1       0.334  -4.424  -3.212  1.00  0.00    -0.352 N 
ATOM     18  C   UNL     1       0.444  -4.903  -4.502  1.00  0.00     0.093 A 
ATOM     19  H   UNL     1       0.016  -4.953  -2.445  1.00  0.00     0.167 HD
BRANCH  11  20
ATOM     20  C   UNL     1       0.593   0.242  -1.371  1.00  0.00     0.032 C 
ATOM     21  C   UNL     1       1.132   0.056   0.039  1.00  0.00     0.009 C 
ENDBRANCH  11  20
BRANCH  18  22
ATOM     22  C   UNL     1      -0.152  -6.167  -4.972  1.00  0.00     0.227 C 
ATOM     23  O   UNL     1      -0.085  -6.510  -6.151  1.00  0.00    -0.285 OA
BRANCH  22  24
ATOM     24  C   UNL     1      -0.783  -7.147  -4.004  1.00  0.00     0.113 A 
ATOM     25  C   UNL     1      -1.778  -6.799  -3.090  1.00  0.00     0.036 A 
ATOM     26  N   UNL     1      -0.308  -8.418  -4.105  1.00  0.00    -0.253 NA
ATOM     27  C   UNL     1      -2.275  -7.787  -2.221  1.00  0.00    -0.047 A 
ATOM     28  C   UNL     1      -0.818  -9.352  -3.274  1.00  0.00     0.112 A 
ATOM     29  C   UNL     1      -3.351  -7.506  -1.212  1.00  0.00     0.044 C 
ATOM     30  C   UNL     1      -1.764  -9.083  -2.307  1.00  0.00     0.023 A 
ENDBRANCH  22  24
ENDBRANCH  18  22
ENDBRANCH   9  10
ENDBRANCH   7   9
ENDBRANCH   6   7
ENDBRANCH   5   6
ENDBRANCH   4   5
ENDBRANCH   3   4
ENDBRANCH   2   3
ENDBRANCH   1   2
BRANCH   1  31
ATOM     31  O   UNL     1       3.695  -6.786  -2.811  1.00  0.00    -0.377 OA
BRANCH  31  32
ATOM     32  C   UNL     1       4.999  -7.303  -2.762  1.00  0.00     0.188 C 
BRANCH  32  33
ATOM     33  C   UNL     1       4.988  -8.830  -2.811  1.00  0.00     0.188 C 
BRANCH  33  34
ATOM     34  O   UNL     1       3.836  -9.355  -3.441  1.00  0.00    -0.376 OA
BRANCH  34  35
ATOM     35  C   UNL     1       2.687  -9.675  -2.664  1.00  0.00     0.202 C 
BRANCH  35  36
ATOM     36  C   UNL     1       2.065  -8.738  -1.602  1.00  0.00     0.261 C 
BRANCH  36  37
ATOM     37  O   UNL     1       2.941  -8.125  -0.656  1.00  0.00    -0.460 OA
BRANCH  37  38
ATOM     38  C   UNL     1       3.579  -8.916   0.216  1.00  0.00     0.338 C 
ATOM     39  O   UNL     1       3.450 -10.118   0.373  1.00  0.00    -0.246 OA
BRANCH  38  40
ATOM     40  C   UNL     1       4.642  -8.079   0.794  1.00  0.00     0.060 A 
ATOM     41  C   UNL     1       5.968  -8.464   0.570  1.00  0.00     0.016 A 
ATOM     42  C   UNL     1       4.337  -6.894   1.474  1.00  0.00     0.016 A 
ATOM     43  C   UNL     1       7.002  -7.671   1.040  1.00  0.00     0.010 A 
ATOM     44  C   UNL     1       5.375  -6.121   1.989  1.00  0.00     0.010 A 
ATOM     45  C   UNL     1       6.704  -6.536   1.803  1.00  0.00    -0.014 A 
BRANCH  45  46
ATOM     46  C   UNL     1       7.785  -5.982   2.634  1.00  0.00     0.031 A 
ATOM     47  C   UNL     1       7.918  -6.519   4.028  1.00  0.00     0.074 A 
ATOM     48  C   UNL     1       8.668  -5.112   2.124  1.00  0.00     0.049 A 
ATOM     49  N   UNL     1       8.807  -6.246   4.944  1.00  0.00    -0.248 NA
ATOM     50  C   UNL     1       6.905  -7.505   4.443  1.00  0.00     0.031 C 
ATOM     51  C   UNL     1       8.640  -4.582   0.763  1.00  0.00     0.029 A 
ATOM     52  N   UNL     1       9.764  -4.528   2.698  1.00  0.00    -0.354 N 
ATOM     53  C   UNL     1       8.456  -7.021   6.042  1.00  0.00     0.074 A 
ATOM     54  C   UNL     1       7.256  -7.745   5.694  1.00  0.00     0.031 C 
ATOM     55  C   UNL     1       9.671  -3.734   0.609  1.00  0.00     0.029 A 
ATOM     56  C   UNL     1      10.407  -3.646   1.869  1.00  0.00     0.049 A 
ATOM     57  H   UNL     1      10.061  -4.722   3.616  1.00  0.00     0.167 HD
ATOM     58  C   UNL     1       9.088  -7.120   7.234  1.00  0.00     0.037 A 
ATOM     59  C   UNL     1      11.458  -2.845   2.120  1.00  0.00     0.037 A 
ATOM     60  C   UNL     1      10.272  -6.372   7.559  1.00  0.00     0.049 A 
ATOM     61  C   UNL     1      12.111  -2.919   3.473  1.00  0.00     0.074 A 
ATOM     62  C   UNL     1      11.011  -6.387   8.726  1.00  0.00     0.029 A 
ATOM     63  N   UNL     1      10.878  -5.455   6.708  1.00  0.00    -0.354 N 
ATOM     64  N   UNL     1      11.794  -3.668   4.504  1.00  0.00    -0.248 NA
ATOM     65  C   UNL     1      13.272  -2.050   3.696  1.00  0.00     0.031 C 
ATOM     66  C   UNL     1      12.023  -5.428   8.607  1.00  0.00     0.029 A 
ATOM     67  C   UNL     1      11.962  -4.870   7.338  1.00  0.00     0.049 A 
ATOM     68  H   UNL     1      10.579  -5.252   5.792  1.00  0.00     0.167 HD
ATOM     69  C   UNL     1      12.726  -3.378   5.492  1.00  0.00     0.074 A 
ATOM     70  C   UNL     1      13.629  -2.394   4.926  1.00  0.00     0.031 C 
ATOM     71  C   UNL     1      12.834  -3.881   6.748  1.00  0.00     0.037 A 
BRANCH  58  72
ATOM     72  C   UNL     1       8.458  -8.010   8.268  1.00  0.00     0.057 A 
ATOM     73  C   UNL     1       8.380  -9.402   8.117  1.00  0.00     0.134 A 
ATOM     74  C   UNL     1       7.872  -7.455   9.412  1.00  0.00     0.134 A 
ATOM     75  F   UNL     1       8.898 -10.000   7.032  1.00  0.00    -0.206 F 
ATOM     76  C   UNL     1       7.703 -10.202   9.041  1.00  0.00     0.040 A 
ATOM     77  C   UNL     1       7.223  -8.248  10.361  1.00  0.00     0.040 A 
ATOM     78  F   UNL     1       7.904  -6.131   9.621  1.00  0.00    -0.206 F 
ATOM     79  C   UNL     1       7.125  -9.624  10.169  1.00  0.00     0.006 A 
ENDBRANCH  58  72
BRANCH  59  80
ATOM     80  C   UNL     1      11.928  -1.910   1.068  1.00  0.00     0.057 A 
ATOM     81  C   UNL     1      13.146  -2.098   0.408  1.00  0.00     0.134 A 
ATOM     82  C   UNL     1      11.136  -0.827   0.663  1.00  0.00     0.134 A 
ATOM     83  F   UNL     1      13.957  -3.107   0.760  1.00  0.00    -0.206 F 
ATOM     84  C   UNL     1      13.562  -1.243  -0.615  1.00  0.00     0.040 A 
ATOM     85  C   UNL     1      11.527   0.020  -0.374  1.00  0.00     0.040 A 
ATOM     86  F   UNL     1       9.954  -0.596   1.252  1.00  0.00    -0.206 F 
ATOM     87  C   UNL     1      12.746  -0.186  -1.015  1.00  0.00     0.006 A 
ENDBRANCH  59  80
BRANCH  71  88
ATOM     88  C   UNL     1      13.984  -3.393   7.581  1.00  0.00     0.057 A 
ATOM     89  C   UNL     1      14.035  -2.088   8.087  1.00  0.00     0.134 A 
ATOM     90  C   UNL     1      15.034  -4.258   7.916  1.00  0.00     0.134 A 
ATOM     91  F   UNL     1      13.066  -1.206   7.796  1.00  0.00    -0.206 F 
ATOM     92  C   UNL     1      15.105  -1.652   8.870  1.00  0.00     0.040 A 
ATOM     93  C   UNL     1      16.091  -3.845   8.726  1.00  0.00     0.040 A 
ATOM     94  F   UNL     1      15.039  -5.526   7.477  1.00  0.00    -0.206 F 
ATOM     95  C   UNL     1      16.133  -2.534   9.198  1.00  0.00     0.006 A 
ENDBRANCH  71  88
ENDBRANCH  45  46
ENDBRANCH  38  40
ENDBRANCH  37  38
ENDBRANCH  36  37
ENDBRANCH  35  36
ENDBRANCH  34  35
ENDBRANCH  33  34
ENDBRANCH  32  33
ENDBRANCH  31  32
ENDBRANCH   1  31
TORSDOF 24
