REMARK SMILES Cc1ccc(-c2nc(C)c(C(=O)N3CCC(C(=O)OCCOCCOCCOCCOC(=O)c4ccc(-c5c6nc(c(-c7c(F)cccc7F)c7ccc([nH]7)c(-c7c(F)cccc7F)c7nc(c(-c8c(F)cccc8F)c8ccc5[nH]8)C=C7)C=C6)cc4)CC3)s2)o1
REMARK SMILES IDX 25 1 24 2 23 3 22 4 21 5 20 6 19 7 17 8 18 9 16 10 11 11
REMARK SMILES IDX 12 12 13 13 14 14 89 15 15 16 88 17 10 18 6 19 7 20 90 21
REMARK SMILES IDX 8 22 9 23 5 24 1 25 2 26 3 27 91 28 4 29 26 30 27 31 28 32
REMARK SMILES IDX 29 33 30 34 31 35 32 36 33 37 34 38 35 39 87 40 36 41 86 42
REMARK SMILES IDX 37 43 38 44 39 45 80 46 40 47 85 48 79 49 81 50 41 51 84 52
REMARK SMILES IDX 78 53 77 54 42 56 68 57 51 58 67 59 52 60 55 61 66 62 82 63
REMARK SMILES IDX 53 64 54 65 65 67 83 68 56 69 43 70 44 71 49 72 45 73 46 74
REMARK SMILES IDX 48 75 50 76 47 77 69 78 70 79 75 80 71 81 72 82 74 83 76 84
REMARK SMILES IDX 73 85 57 86 58 87 63 88 59 89 60 90 62 91 64 92 61 93
REMARK H PARENT 81 55 55 66
REMARK Flexibility Score: inf
ROOT
ATOM      1  O   UNL     1     -10.812   7.580   1.633  1.00  0.00    -0.377 OA
ENDROOT
BRANCH   1   2
ATOM      2  C   UNL     1     -10.229   8.548   0.788  1.00  0.00     0.188 C 
BRANCH   2   3
ATOM      3  C   UNL     1     -10.979   8.852  -0.511  1.00  0.00     0.188 C 
BRANCH   3   4
ATOM      4  O   UNL     1     -12.323   8.444  -0.699  1.00  0.00    -0.376 OA
BRANCH   4   5
ATOM      5  C   UNL     1     -12.772   7.165  -0.278  1.00  0.00     0.202 C 
BRANCH   5   6
ATOM      6  C   UNL     1     -12.033   5.873  -0.661  1.00  0.00     0.261 C 
BRANCH   6   7
ATOM      7  O   UNL     1     -10.634   5.806  -0.336  1.00  0.00    -0.463 OA
BRANCH   7   8
ATOM      8  C   UNL     1      -9.786   5.930  -1.379  1.00  0.00     0.309 C 
ATOM      9  O   UNL     1     -10.133   6.123  -2.541  1.00  0.00    -0.252 OA
BRANCH   8  10
ATOM     10  C   UNL     1      -8.327   5.738  -1.021  1.00  0.00     0.103 C 
ATOM     11  C   UNL     1      -5.247   3.635   0.837  1.00  0.00     0.265 C 
ATOM     12  O   UNL     1      -5.483   3.587   2.045  1.00  0.00    -0.268 OA
ATOM     13  N   UNL     1      -5.979   4.479   0.019  1.00  0.00    -0.338 N 
ATOM     14  C   UNL     1      -6.375   5.759   0.554  1.00  0.00     0.120 C 
ATOM     15  C   UNL     1      -6.432   4.145  -1.328  1.00  0.00     0.120 C 
ATOM     16  C   UNL     1      -7.868   5.983   0.422  1.00  0.00     0.037 C 
ATOM     17  C   UNL     1      -7.939   4.316  -1.436  1.00  0.00     0.037 C 
BRANCH  11  18
ATOM     18  C   UNL     1      -4.141   2.935   0.226  1.00  0.00     0.115 A 
ATOM     19  C   UNL     1      -2.285   1.442  -0.138  1.00  0.00     0.159 A 
ATOM     20  N   UNL     1      -2.228   2.428  -1.003  1.00  0.00    -0.237 NA
ATOM     21  S   UNL     1      -3.631   1.445   0.909  1.00  0.00    -0.105 S 
ATOM     22  C   UNL     1      -3.277   3.303  -0.799  1.00  0.00     0.062 A 
ATOM     23  C   UNL     1      -3.282   4.522  -1.652  1.00  0.00     0.068 C 
BRANCH  19  24
ATOM     24  C   UNL     1      -1.251   0.461  -0.051  1.00  0.00     0.162 A 
ATOM     25  C   UNL     1       2.269  -0.153  -0.018  1.00  0.00     0.087 C 
ATOM     26  C   UNL     1       0.806  -0.333   0.002  1.00  0.00     0.101 A 
ATOM     27  C   UNL     1      -0.027  -1.423   0.115  1.00  0.00     0.046 A 
ATOM     28  O   UNL     1       0.074   0.803  -0.114  1.00  0.00    -0.459 OA
ATOM     29  C   UNL     1      -1.348  -0.912   0.096  1.00  0.00     0.054 A 
ENDBRANCH  19  24
ENDBRANCH  11  18
ENDBRANCH   8  10
ENDBRANCH   7   8
ENDBRANCH   6   7
ENDBRANCH   5   6
ENDBRANCH   4   5
ENDBRANCH   3   4
ENDBRANCH   2   3
ENDBRANCH   1   2
BRANCH   1  30
ATOM     30  C   UNL     1     -11.558   8.062   2.746  1.00  0.00     0.188 C 
BRANCH  30  31
ATOM     31  C   UNL     1     -12.317   9.394   2.579  1.00  0.00     0.188 C 
BRANCH  31  32
ATOM     32  O   UNL     1     -11.518  10.466   2.095  1.00  0.00    -0.376 OA
BRANCH  32  33
ATOM     33  C   UNL     1     -10.894  11.340   3.026  1.00  0.00     0.202 C 
BRANCH  33  34
ATOM     34  C   UNL     1      -9.830  10.754   3.973  1.00  0.00     0.261 C 
BRANCH  34  35
ATOM     35  O   UNL     1     -10.274   9.729   4.876  1.00  0.00    -0.460 OA
BRANCH  35  36
ATOM     36  C   UNL     1     -11.321  10.008   5.671  1.00  0.00     0.338 C 
ATOM     37  O   UNL     1     -11.884  11.087   5.799  1.00  0.00    -0.246 OA
BRANCH  36  38
ATOM     38  C   UNL     1     -11.835   8.744   6.230  1.00  0.00     0.060 A 
ATOM     39  C   UNL     1     -13.185   8.433   6.027  1.00  0.00     0.016 A 
ATOM     40  C   UNL     1     -11.017   7.901   6.988  1.00  0.00     0.016 A 
ATOM     41  C   UNL     1     -13.745   7.325   6.653  1.00  0.00     0.010 A 
ATOM     42  C   UNL     1     -11.586   6.800   7.636  1.00  0.00     0.010 A 
ATOM     43  C   UNL     1     -12.965   6.551   7.521  1.00  0.00    -0.014 A 
BRANCH  43  44
ATOM     44  C   UNL     1     -13.666   5.698   8.509  1.00  0.00     0.031 A 
ATOM     45  C   UNL     1     -13.913   6.268   9.881  1.00  0.00     0.074 A 
ATOM     46  C   UNL     1     -14.160   4.494   8.177  1.00  0.00     0.049 A 
ATOM     47  N   UNL     1     -14.545   5.746  10.901  1.00  0.00    -0.248 NA
ATOM     48  C   UNL     1     -13.373   7.614  10.134  1.00  0.00     0.031 C 
ATOM     49  C   UNL     1     -14.025   3.856   6.870  1.00  0.00     0.029 A 
ATOM     50  N   UNL     1     -14.881   3.597   8.922  1.00  0.00    -0.354 N 
ATOM     51  C   UNL     1     -14.480   6.700  11.910  1.00  0.00     0.074 A 
ATOM     52  C   UNL     1     -13.703   7.807  11.400  1.00  0.00     0.031 C 
ATOM     53  C   UNL     1     -14.638   2.660   6.908  1.00  0.00     0.029 A 
ATOM     54  C   UNL     1     -15.186   2.443   8.246  1.00  0.00     0.049 A 
ATOM     55  H   UNL     1     -15.154   3.766   9.853  1.00  0.00     0.167 HD
ATOM     56  C   UNL     1     -15.033   6.669  13.146  1.00  0.00     0.037 A 
ATOM     57  C   UNL     1     -15.824   1.334   8.669  1.00  0.00     0.037 A 
ATOM     58  C   UNL     1     -15.791   5.559  13.657  1.00  0.00     0.049 A 
ATOM     59  C   UNL     1     -16.372   1.287  10.071  1.00  0.00     0.074 A 
ATOM     60  C   UNL     1     -16.385   5.417  14.898  1.00  0.00     0.029 A 
ATOM     61  N   UNL     1     -16.051   4.392  12.953  1.00  0.00    -0.354 N 
ATOM     62  N   UNL     1     -16.320   2.198  11.014  1.00  0.00    -0.248 NA
ATOM     63  C   UNL     1     -17.084   0.062  10.461  1.00  0.00     0.031 C 
ATOM     64  C   UNL     1     -16.959   4.142  14.963  1.00  0.00     0.029 A 
ATOM     65  C   UNL     1     -16.781   3.517  13.739  1.00  0.00     0.049 A 
ATOM     66  H   UNL     1     -15.760   4.213  12.029  1.00  0.00     0.167 HD
ATOM     67  C   UNL     1     -17.017   1.671  12.096  1.00  0.00     0.074 A 
ATOM     68  C   UNL     1     -17.493   0.366  11.685  1.00  0.00     0.031 C 
ATOM     69  C   UNL     1     -17.249   2.220  13.315  1.00  0.00     0.037 A 
BRANCH  56  70
ATOM     70  C   UNL     1     -14.796   7.861  14.028  1.00  0.00     0.057 A 
ATOM     71  C   UNL     1     -15.357   9.116  13.750  1.00  0.00     0.134 A 
ATOM     72  C   UNL     1     -13.977   7.760  15.160  1.00  0.00     0.134 A 
ATOM     73  F   UNL     1     -16.135   9.290  12.671  1.00  0.00    -0.206 F 
ATOM     74  C   UNL     1     -15.079  10.233  14.541  1.00  0.00     0.040 A 
ATOM     75  C   UNL     1     -13.718   8.862  15.976  1.00  0.00     0.040 A 
ATOM     76  F   UNL     1     -13.408   6.590  15.487  1.00  0.00    -0.206 F 
ATOM     77  C   UNL     1     -14.260  10.106  15.661  1.00  0.00     0.006 A 
ENDBRANCH  56  70
BRANCH  57  78
ATOM     78  C   UNL     1     -15.970   0.176   7.751  1.00  0.00     0.057 A 
ATOM     79  C   UNL     1     -17.215  -0.202   7.239  1.00  0.00     0.134 A 
ATOM     80  C   UNL     1     -14.857  -0.582   7.365  1.00  0.00     0.134 A 
ATOM     81  F   UNL     1     -18.322   0.469   7.588  1.00  0.00    -0.206 F 
ATOM     82  C   UNL     1     -17.352  -1.300   6.386  1.00  0.00     0.040 A 
ATOM     83  C   UNL     1     -14.974  -1.664   6.492  1.00  0.00     0.040 A 
ATOM     84  F   UNL     1     -13.634  -0.269   7.820  1.00  0.00    -0.206 F 
ATOM     85  C   UNL     1     -16.227  -2.029   6.005  1.00  0.00     0.006 A 
ENDBRANCH  57  78
BRANCH  69  86
ATOM     86  C   UNL     1     -18.095   1.431  14.276  1.00  0.00     0.057 A 
ATOM     87  C   UNL     1     -17.642   0.250  14.877  1.00  0.00     0.134 A 
ATOM     88  C   UNL     1     -19.376   1.881  14.626  1.00  0.00     0.134 A 
ATOM     89  F   UNL     1     -16.429  -0.242  14.581  1.00  0.00    -0.206 F 
ATOM     90  C   UNL     1     -18.445  -0.475  15.760  1.00  0.00     0.040 A 
ATOM     91  C   UNL     1     -20.175   1.183  15.532  1.00  0.00     0.040 A 
ATOM     92  F   UNL     1     -19.868   3.013  14.100  1.00  0.00    -0.206 F 
ATOM     93  C   UNL     1     -19.714  -0.005  16.094  1.00  0.00     0.006 A 
ENDBRANCH  69  86
ENDBRANCH  43  44
ENDBRANCH  36  38
ENDBRANCH  35  36
ENDBRANCH  34  35
ENDBRANCH  33  34
ENDBRANCH  32  33
ENDBRANCH  31  32
ENDBRANCH  30  31
ENDBRANCH   1  30
TORSDOF 22
