REMARK SMILES CCCCCCNC(=O)Nc1cccc(-c2ccc([C@@H](C)C(=O)OCCOCCOCCOCCOC(=O)c3ccc(-c4c5nc(c(-c6c(F)cccc6F)c6ccc([nH]6)c(-c6c(F)cccc6F)c6nc(c(-c7c(F)cccc7F)c7ccc4[nH]7)C=C6)C=C5)cc3)cc2F)c1
REMARK SMILES IDX 27 1 26 2 25 3 24 4 22 5 23 6 20 7 21 8 19 9 16 10 17 11
REMARK SMILES IDX 94 12 18 13 93 14 95 15 15 16 11 17 12 18 96 19 13 20 14 21
REMARK SMILES IDX 10 22 7 23 8 24 9 26 6 28 5 29 4 30 3 31 2 32 1 33 28 34
REMARK SMILES IDX 29 35 30 36 31 37 32 38 33 39 34 40 35 41 36 42 37 43 38 44
REMARK SMILES IDX 39 45 40 46 92 47 41 48 91 49 42 50 43 51 44 52 85 53 45 54
REMARK SMILES IDX 90 55 84 56 86 57 46 58 89 59 83 60 82 61 47 63 73 64 56 65
REMARK SMILES IDX 72 66 57 67 60 68 71 69 87 70 58 71 59 72 70 74 88 75 61 76
REMARK SMILES IDX 48 77 49 78 54 79 50 80 51 81 53 82 55 83 52 84 74 85 75 86
REMARK SMILES IDX 80 87 76 88 77 89 79 90 81 91 78 92 62 93 63 94 68 95 64 96
REMARK SMILES IDX 65 97 67 98 69 99 66 100
REMARK H PARENT 7 25 10 27 86 62 60 73
REMARK Flexibility Score: inf
ROOT
ATOM      1  O   UNL     1       2.262   1.806   5.504  1.00  0.00    -0.376 OA
ENDROOT
BRANCH   1   2
ATOM      2  C   UNL     1       1.948   0.808   6.474  1.00  0.00     0.202 C 
BRANCH   2   3
ATOM      3  C   UNL     1       0.687  -0.054   6.234  1.00  0.00     0.261 C 
BRANCH   3   4
ATOM      4  O   UNL     1      -0.518   0.655   5.879  1.00  0.00    -0.463 OA
BRANCH   4   5
ATOM      5  C   UNL     1      -1.176   1.258   6.890  1.00  0.00     0.313 C 
ATOM      6  O   UNL     1      -0.780   1.226   8.054  1.00  0.00    -0.252 OA
BRANCH   5   7
ATOM      7  C   UNL     1      -2.468   1.969   6.505  1.00  0.00     0.126 C 
ATOM      8  C   UNL     1      -3.635   1.211   7.138  1.00  0.00     0.025 C 
BRANCH   7   9
ATOM      9  C   UNL     1      -2.804   2.320   5.055  1.00  0.00    -0.031 A 
ATOM     10  C   UNL     1      -3.808   3.081   2.459  1.00  0.00     0.018 A 
ATOM     11  C   UNL     1      -3.452   1.751   2.762  1.00  0.00     0.012 A 
ATOM     12  C   UNL     1      -3.593   4.021   3.473  1.00  0.00     0.131 A 
ATOM     13  C   UNL     1      -2.960   1.376   4.033  1.00  0.00     0.005 A 
ATOM     14  C   UNL     1      -3.117   3.656   4.739  1.00  0.00     0.044 A 
ATOM     15  F   UNL     1      -3.900   5.313   3.275  1.00  0.00    -0.206 F 
BRANCH  10  16
ATOM     16  C   UNL     1      -4.456   3.460   1.177  1.00  0.00    -0.013 A 
ATOM     17  C   UNL     1      -4.716   4.955  -0.754  1.00  0.00     0.043 A 
ATOM     18  C   UNL     1      -5.850   4.261  -1.168  1.00  0.00     0.026 A 
ATOM     19  C   UNL     1      -4.049   4.583   0.429  1.00  0.00     0.035 A 
ATOM     20  C   UNL     1      -6.232   3.113  -0.479  1.00  0.00     0.003 A 
ATOM     21  C   UNL     1      -5.538   2.715   0.672  1.00  0.00     0.009 A 
BRANCH  17  22
ATOM     22  N   UNL     1      -4.205   5.947  -1.608  1.00  0.00    -0.308 N 
ATOM     23  N   UNL     1      -2.181   4.950  -2.299  1.00  0.00    -0.338 N 
ATOM     24  C   UNL     1      -2.933   6.068  -2.091  1.00  0.00     0.319 C 
ATOM     25  H   UNL     1      -1.225   5.086  -2.490  1.00  0.00     0.165 HD
ATOM     26  O   UNL     1      -2.507   7.157  -2.475  1.00  0.00    -0.249 OA
ATOM     27  H   UNL     1      -4.842   6.641  -1.892  1.00  0.00     0.171 HD
BRANCH  23  28
ATOM     28  C   UNL     1      -2.652   3.582  -2.264  1.00  0.00     0.117 C 
BRANCH  28  29
ATOM     29  C   UNL     1      -1.810   2.549  -2.981  1.00  0.00     0.021 C 
BRANCH  29  30
ATOM     30  C   UNL     1      -0.392   2.374  -2.463  1.00  0.00     0.002 C 
BRANCH  30  31
ATOM     31  C   UNL     1      -0.176   2.474  -0.952  1.00  0.00    -0.000 C 
BRANCH  31  32
ATOM     32  C   UNL     1      -0.984   1.573  -0.022  1.00  0.00    -0.003 C 
ATOM     33  C   UNL     1      -0.747   0.086  -0.195  1.00  0.00     0.004 C 
ENDBRANCH  31  32
ENDBRANCH  30  31
ENDBRANCH  29  30
ENDBRANCH  28  29
ENDBRANCH  23  28
ENDBRANCH  17  22
ENDBRANCH  10  16
ENDBRANCH   7   9
ENDBRANCH   5   7
ENDBRANCH   4   5
ENDBRANCH   3   4
ENDBRANCH   2   3
ENDBRANCH   1   2
BRANCH   1  34
ATOM     34  C   UNL     1       1.351   2.895   5.437  1.00  0.00     0.188 C 
BRANCH  34  35
ATOM     35  C   UNL     1       0.535   2.970   4.133  1.00  0.00     0.188 C 
BRANCH  35  36
ATOM     36  O   UNL     1       0.265   1.758   3.431  1.00  0.00    -0.377 OA
BRANCH  36  37
ATOM     37  C   UNL     1       1.382   0.969   3.036  1.00  0.00     0.188 C 
BRANCH  37  38
ATOM     38  C   UNL     1       2.479   1.665   2.241  1.00  0.00     0.188 C 
BRANCH  38  39
ATOM     39  O   UNL     1       2.823   2.960   2.702  1.00  0.00    -0.376 OA
BRANCH  39  40
ATOM     40  C   UNL     1       3.579   3.779   1.810  1.00  0.00     0.202 C 
BRANCH  40  41
ATOM     41  C   UNL     1       3.023   3.897   0.384  1.00  0.00     0.261 C 
BRANCH  41  42
ATOM     42  O   UNL     1       3.148   2.756  -0.509  1.00  0.00    -0.460 OA
BRANCH  42  43
ATOM     43  C   UNL     1       4.064   1.764  -0.346  1.00  0.00     0.338 C 
ATOM     44  O   UNL     1       5.083   1.806   0.293  1.00  0.00    -0.246 OA
BRANCH  43  45
ATOM     45  C   UNL     1       3.451   0.500  -0.880  1.00  0.00     0.060 A 
ATOM     46  C   UNL     1       3.686  -0.724  -0.236  1.00  0.00     0.016 A 
ATOM     47  C   UNL     1       2.551   0.531  -1.940  1.00  0.00     0.016 A 
ATOM     48  C   UNL     1       3.045  -1.905  -0.671  1.00  0.00     0.010 A 
ATOM     49  C   UNL     1       1.853  -0.626  -2.311  1.00  0.00     0.010 A 
ATOM     50  C   UNL     1       2.126  -1.878  -1.731  1.00  0.00    -0.014 A 
BRANCH  50  51
ATOM     51  C   UNL     1       1.558  -3.119  -2.369  1.00  0.00     0.031 A 
ATOM     52  C   UNL     1       1.760  -3.323  -3.863  1.00  0.00     0.074 A 
ATOM     53  C   UNL     1       0.823  -4.041  -1.707  1.00  0.00     0.049 A 
ATOM     54  N   UNL     1       1.254  -4.232  -4.662  1.00  0.00    -0.248 NA
ATOM     55  C   UNL     1       2.587  -2.325  -4.562  1.00  0.00     0.031 C 
ATOM     56  C   UNL     1       0.442  -3.997  -0.296  1.00  0.00     0.029 A 
ATOM     57  N   UNL     1       0.243  -5.210  -2.162  1.00  0.00    -0.354 N 
ATOM     58  C   UNL     1       1.645  -3.864  -5.946  1.00  0.00     0.074 A 
ATOM     59  C   UNL     1       2.342  -2.606  -5.830  1.00  0.00     0.031 C 
ATOM     60  C   UNL     1      -0.283  -5.094   0.002  1.00  0.00     0.029 A 
ATOM     61  C   UNL     1      -0.438  -5.919  -1.197  1.00  0.00     0.049 A 
ATOM     62  H   UNL     1       0.311  -5.511  -3.097  1.00  0.00     0.167 HD
ATOM     63  C   UNL     1       1.511  -4.528  -7.118  1.00  0.00     0.037 A 
ATOM     64  C   UNL     1      -1.100  -7.096  -1.266  1.00  0.00     0.037 A 
ATOM     65  C   UNL     1       0.956  -5.844  -7.252  1.00  0.00     0.049 A 
ATOM     66  C   UNL     1      -1.163  -7.870  -2.564  1.00  0.00     0.074 A 
ATOM     67  C   UNL     1       0.909  -6.644  -8.380  1.00  0.00     0.029 A 
ATOM     68  N   UNL     1       0.383  -6.564  -6.221  1.00  0.00    -0.354 N 
ATOM     69  N   UNL     1      -0.681  -7.558  -3.741  1.00  0.00    -0.248 NA
ATOM     70  C   UNL     1      -1.848  -9.177  -2.537  1.00  0.00     0.031 C 
ATOM     71  C   UNL     1       0.285  -7.846  -8.037  1.00  0.00     0.029 A 
ATOM     72  C   UNL     1      -0.021  -7.802  -6.688  1.00  0.00     0.049 A 
ATOM     73  H   UNL     1       0.278  -6.245  -5.295  1.00  0.00     0.167 HD
ATOM     74  C   UNL     1      -0.951  -8.646  -4.568  1.00  0.00     0.074 A 
ATOM     75  C   UNL     1      -1.645  -9.627  -3.768  1.00  0.00     0.031 C 
ATOM     76  C   UNL     1      -0.644  -8.812  -5.877  1.00  0.00     0.037 A 
BRANCH  63  77
ATOM     77  C   UNL     1       2.039  -3.865  -8.356  1.00  0.00     0.057 A 
ATOM     78  C   UNL     1       3.413  -3.688  -8.569  1.00  0.00     0.134 A 
ATOM     79  C   UNL     1       1.166  -3.435  -9.363  1.00  0.00     0.134 A 
ATOM     80  F   UNL     1       4.300  -4.071  -7.638  1.00  0.00    -0.206 F 
ATOM     81  C   UNL     1       3.898  -3.070  -9.720  1.00  0.00     0.040 A 
ATOM     82  C   UNL     1       1.643  -2.848 -10.536  1.00  0.00     0.040 A 
ATOM     83  F   UNL     1      -0.160  -3.589  -9.229  1.00  0.00    -0.206 F 
ATOM     84  C   UNL     1       3.012  -2.655 -10.712  1.00  0.00     0.006 A 
ENDBRANCH  63  77
BRANCH  64  85
ATOM     85  C   UNL     1      -1.742  -7.682  -0.056  1.00  0.00     0.057 A 
ATOM     86  C   UNL     1      -1.222  -8.838   0.545  1.00  0.00     0.134 A 
ATOM     87  C   UNL     1      -2.937  -7.172   0.463  1.00  0.00     0.134 A 
ATOM     88  F   UNL     1      -0.098  -9.396   0.071  1.00  0.00    -0.206 F 
ATOM     89  C   UNL     1      -1.887  -9.487   1.588  1.00  0.00     0.040 A 
ATOM     90  C   UNL     1      -3.599  -7.797   1.523  1.00  0.00     0.040 A 
ATOM     91  F   UNL     1      -3.490  -6.072  -0.068  1.00  0.00    -0.206 F 
ATOM     92  C   UNL     1      -3.081  -8.966   2.079  1.00  0.00     0.006 A 
ENDBRANCH  64  85
BRANCH  76  93
ATOM     93  C   UNL     1      -0.952 -10.126  -6.532  1.00  0.00     0.057 A 
ATOM     94  C   UNL     1      -2.251 -10.489  -6.904  1.00  0.00     0.134 A 
ATOM     95  C   UNL     1       0.091 -10.988  -6.902  1.00  0.00     0.134 A 
ATOM     96  F   UNL     1      -3.294  -9.711  -6.577  1.00  0.00    -0.206 F 
ATOM     97  C   UNL     1      -2.503 -11.662  -7.619  1.00  0.00     0.040 A 
ATOM     98  C   UNL     1      -0.145 -12.151  -7.635  1.00  0.00     0.040 A 
ATOM     99  F   UNL     1       1.362 -10.692  -6.587  1.00  0.00    -0.206 F 
ATOM    100  C   UNL     1      -1.447 -12.490  -7.997  1.00  0.00     0.006 A 
ENDBRANCH  76  93
ENDBRANCH  50  51
ENDBRANCH  43  45
ENDBRANCH  42  43
ENDBRANCH  41  42
ENDBRANCH  40  41
ENDBRANCH  39  40
ENDBRANCH  38  39
ENDBRANCH  37  38
ENDBRANCH  36  37
ENDBRANCH  35  36
ENDBRANCH  34  35
ENDBRANCH   1  34
TORSDOF 28
