REMARK SMILES CC(C)c1nc(OCC(=O)OCCOCCOCCOCCOC(=O)c2ccc(-c3c4nc(c(-c5c(F)cccc5F)c5ccc([nH]5)c(-c5c(F)cccc5F)c5nc(c(-c6c(F)cccc6F)c6ccc3[nH]6)C=C5)C=C4)cc2)cc(-c2ccccn2)n1
REMARK SMILES IDX 16 1 15 2 14 3 13 4 12 5 11 6 9 7 10 8 8 9 7 10 6 11 4 12
REMARK SMILES IDX 5 13 88 14 81 15 80 16 2 17 1 18 3 19 82 20 83 21 87 22
REMARK SMILES IDX 84 23 86 24 85 25 17 26 18 27 19 28 20 29 21 30 22 31 23 32
REMARK SMILES IDX 24 33 25 34 26 35 27 36 79 37 28 38 78 39 29 40 30 41 31 42
REMARK SMILES IDX 72 43 32 44 77 45 71 46 73 47 33 48 76 49 70 50 69 51 34 53
REMARK SMILES IDX 60 54 43 55 59 56 44 57 47 58 58 59 74 60 45 61 46 62 57 64
REMARK SMILES IDX 75 65 48 66 35 67 36 68 41 69 37 70 38 71 40 72 42 73 39 74
REMARK SMILES IDX 61 75 62 76 67 77 63 78 64 79 66 80 68 81 65 82 49 83 50 84
REMARK SMILES IDX 55 85 51 86 52 87 54 88 56 89 53 90
REMARK H PARENT 73 52 47 63
REMARK Flexibility Score: inf
ROOT
ATOM      1  C   UNL     1      -3.614   0.178   3.695  1.00  0.00     0.188 C 
ENDROOT
BRANCH   1   2
ATOM      2  C   UNL     1      -4.835   0.899   3.096  1.00  0.00     0.188 C 
BRANCH   2   3
ATOM      3  O   UNL     1      -6.002   1.141   3.860  1.00  0.00    -0.376 OA
BRANCH   3   4
ATOM      4  C   UNL     1      -6.470   0.115   4.716  1.00  0.00     0.202 C 
BRANCH   4   5
ATOM      5  C   UNL     1      -6.454  -1.363   4.263  1.00  0.00     0.261 C 
BRANCH   5   6
ATOM      6  O   UNL     1      -5.701  -1.685   3.073  1.00  0.00    -0.461 OA
BRANCH   6   7
ATOM      7  C   UNL     1      -6.348  -1.614   1.880  1.00  0.00     0.344 C 
ATOM      8  O   UNL     1      -7.557  -1.449   1.763  1.00  0.00    -0.248 OA
BRANCH   7   9
ATOM      9  C   UNL     1      -5.396  -1.757   0.662  1.00  0.00     0.353 C 
BRANCH   9  10
ATOM     10  O   UNL     1      -4.013  -1.449   0.740  1.00  0.00    -0.466 OA
BRANCH  10  11
ATOM     11  C   UNL     1      -3.470  -0.271   0.301  1.00  0.00     0.217 A 
ATOM     12  C   UNL     1      -1.458   0.873   0.215  1.00  0.00     0.135 A 
ATOM     13  N   UNL     1      -2.128  -0.278   0.416  1.00  0.00    -0.198 NA
ATOM     14  N   UNL     1      -2.071   2.042  -0.015  1.00  0.00    -0.231 NA
ATOM     15  C   UNL     1      -3.425   2.051  -0.112  1.00  0.00     0.096 A 
ATOM     16  C   UNL     1      -4.165   0.875  -0.029  1.00  0.00     0.099 A 
BRANCH  12  17
ATOM     17  C   UNL     1       0.040   0.872   0.500  1.00  0.00     0.051 C 
ATOM     18  C   UNL     1       0.772  -0.220  -0.283  1.00  0.00     0.016 C 
ATOM     19  C   UNL     1       0.742   2.214   0.247  1.00  0.00     0.016 C 
ENDBRANCH  12  17
BRANCH  15  20
ATOM     20  C   UNL     1      -4.044   3.410  -0.087  1.00  0.00     0.089 A 
ATOM     21  C   UNL     1      -5.101   3.737   0.771  1.00  0.00     0.030 A 
ATOM     22  N   UNL     1      -3.431   4.376  -0.823  1.00  0.00    -0.255 NA
ATOM     23  C   UNL     1      -5.470   5.070   0.952  1.00  0.00     0.004 A 
ATOM     24  C   UNL     1      -3.839   5.658  -0.662  1.00  0.00     0.112 A 
ATOM     25  C   UNL     1      -4.825   6.055   0.223  1.00  0.00     0.020 A 
ENDBRANCH  15  20
ENDBRANCH  10  11
ENDBRANCH   9  10
ENDBRANCH   7   9
ENDBRANCH   6   7
ENDBRANCH   5   6
ENDBRANCH   4   5
ENDBRANCH   3   4
ENDBRANCH   2   3
ENDBRANCH   1   2
BRANCH   1  26
ATOM     26  O   UNL     1      -3.718   0.039   5.101  1.00  0.00    -0.377 OA
BRANCH  26  27
ATOM     27  C   UNL     1      -3.067   1.062   5.844  1.00  0.00     0.188 C 
BRANCH  27  28
ATOM     28  C   UNL     1      -3.396   2.533   5.505  1.00  0.00     0.188 C 
BRANCH  28  29
ATOM     29  O   UNL     1      -3.298   2.835   4.122  1.00  0.00    -0.376 OA
BRANCH  29  30
ATOM     30  C   UNL     1      -2.392   3.831   3.682  1.00  0.00     0.202 C 
BRANCH  30  31
ATOM     31  C   UNL     1      -1.039   3.231   3.307  1.00  0.00     0.261 C 
BRANCH  31  32
ATOM     32  O   UNL     1      -0.421   2.509   4.374  1.00  0.00    -0.460 OA
BRANCH  32  33
ATOM     33  C   UNL     1      -0.067   3.255   5.436  1.00  0.00     0.338 C 
ATOM     34  O   UNL     1      -0.118   4.471   5.548  1.00  0.00    -0.246 OA
BRANCH  33  35
ATOM     35  C   UNL     1       0.151   2.324   6.545  1.00  0.00     0.060 A 
ATOM     36  C   UNL     1      -0.582   2.538   7.718  1.00  0.00     0.016 A 
ATOM     37  C   UNL     1       0.994   1.216   6.404  1.00  0.00     0.016 A 
ATOM     38  C   UNL     1      -0.448   1.655   8.774  1.00  0.00     0.010 A 
ATOM     39  C   UNL     1       1.154   0.346   7.477  1.00  0.00     0.010 A 
ATOM     40  C   UNL     1       0.465   0.596   8.674  1.00  0.00    -0.014 A 
BRANCH  40  41
ATOM     41  C   UNL     1       0.883  -0.046   9.931  1.00  0.00     0.031 A 
ATOM     42  C   UNL     1       2.074   0.538  10.633  1.00  0.00     0.074 A 
ATOM     43  C   UNL     1       0.143  -1.022  10.477  1.00  0.00     0.049 A 
ATOM     44  N   UNL     1       2.574   0.246  11.803  1.00  0.00    -0.248 NA
ATOM     45  C   UNL     1       2.791   1.613   9.922  1.00  0.00     0.031 C 
ATOM     46  C   UNL     1      -1.057  -1.609   9.883  1.00  0.00     0.029 A 
ATOM     47  N   UNL     1       0.287  -1.674  11.671  1.00  0.00    -0.354 N 
ATOM     48  C   UNL     1       3.652   1.106  11.970  1.00  0.00     0.074 A 
ATOM     49  C   UNL     1       3.763   1.901  10.770  1.00  0.00     0.031 C 
ATOM     50  C   UNL     1      -1.548  -2.534  10.725  1.00  0.00     0.029 A 
ATOM     51  C   UNL     1      -0.684  -2.616  11.900  1.00  0.00     0.049 A 
ATOM     52  H   UNL     1       1.016  -1.486  12.305  1.00  0.00     0.167 HD
ATOM     53  C   UNL     1       4.467   1.228  13.041  1.00  0.00     0.037 A 
ATOM     54  C   UNL     1      -0.840  -3.447  12.946  1.00  0.00     0.037 A 
ATOM     55  C   UNL     1       4.348   0.412  14.218  1.00  0.00     0.049 A 
ATOM     56  C   UNL     1       0.131  -3.345  14.093  1.00  0.00     0.074 A 
ATOM     57  C   UNL     1       5.122   0.428  15.363  1.00  0.00     0.029 A 
ATOM     58  N   UNL     1       3.392  -0.580  14.390  1.00  0.00    -0.354 N 
ATOM     59  N   UNL     1       1.139  -2.520  14.256  1.00  0.00    -0.248 NA
ATOM     60  C   UNL     1      -0.065  -4.282  15.206  1.00  0.00     0.031 C 
ATOM     61  C   UNL     1       4.670  -0.595  16.203  1.00  0.00     0.029 A 
ATOM     62  C   UNL     1       3.571  -1.202  15.613  1.00  0.00     0.049 A 
ATOM     63  H   UNL     1       2.690  -0.807  13.739  1.00  0.00     0.167 HD
ATOM     64  C   UNL     1       1.681  -2.818  15.500  1.00  0.00     0.074 A 
ATOM     65  C   UNL     1       0.871  -3.885  16.055  1.00  0.00     0.031 C 
ATOM     66  C   UNL     1       2.747  -2.265  16.132  1.00  0.00     0.037 A 
BRANCH  53  67
ATOM     67  C   UNL     1       5.569   2.243  12.957  1.00  0.00     0.057 A 
ATOM     68  C   UNL     1       5.316   3.622  12.963  1.00  0.00     0.134 A 
ATOM     69  C   UNL     1       6.905   1.834  12.861  1.00  0.00     0.134 A 
ATOM     70  F   UNL     1       4.057   4.083  13.024  1.00  0.00    -0.206 F 
ATOM     71  C   UNL     1       6.349   4.555  12.854  1.00  0.00     0.040 A 
ATOM     72  C   UNL     1       7.948   2.758  12.782  1.00  0.00     0.040 A 
ATOM     73  F   UNL     1       7.218   0.530  12.840  1.00  0.00    -0.206 F 
ATOM     74  C   UNL     1       7.671   4.123  12.771  1.00  0.00     0.006 A 
ENDBRANCH  53  67
BRANCH  54  75
ATOM     75  C   UNL     1      -1.945  -4.439  12.955  1.00  0.00     0.057 A 
ATOM     76  C   UNL     1      -2.995  -4.359  13.877  1.00  0.00     0.134 A 
ATOM     77  C   UNL     1      -1.968  -5.505  12.046  1.00  0.00     0.134 A 
ATOM     78  F   UNL     1      -3.023  -3.373  14.785  1.00  0.00    -0.206 F 
ATOM     79  C   UNL     1      -4.014  -5.314  13.911  1.00  0.00     0.040 A 
ATOM     80  C   UNL     1      -2.995  -6.450  12.049  1.00  0.00     0.040 A 
ATOM     81  F   UNL     1      -0.995  -5.638  11.133  1.00  0.00    -0.206 F 
ATOM     82  C   UNL     1      -4.018  -6.361  12.991  1.00  0.00     0.006 A 
ENDBRANCH  54  75
BRANCH  66  83
ATOM     83  C   UNL     1       3.066  -2.785  17.504  1.00  0.00     0.057 A 
ATOM     84  C   UNL     1       3.572  -4.075  17.711  1.00  0.00     0.134 A 
ATOM     85  C   UNL     1       2.880  -1.975  18.631  1.00  0.00     0.134 A 
ATOM     86  F   UNL     1       3.766  -4.905  16.674  1.00  0.00    -0.206 F 
ATOM     87  C   UNL     1       3.839  -4.555  18.993  1.00  0.00     0.040 A 
ATOM     88  C   UNL     1       3.177  -2.431  19.915  1.00  0.00     0.040 A 
ATOM     89  F   UNL     1       2.414  -0.723  18.502  1.00  0.00    -0.206 F 
ATOM     90  C   UNL     1       3.646  -3.730  20.099  1.00  0.00     0.006 A 
ENDBRANCH  66  83
ENDBRANCH  40  41
ENDBRANCH  33  35
ENDBRANCH  32  33
ENDBRANCH  31  32
ENDBRANCH  30  31
ENDBRANCH  29  30
ENDBRANCH  28  29
ENDBRANCH  27  28
ENDBRANCH  26  27
ENDBRANCH   1  26
TORSDOF 24
