REMARK SMILES Cc1ccccc1[C@@H](CC(=O)OCCOCCOCCOCCOC(=O)c1ccc(-c2c3nc(c(-c4c(F)cccc4F)c4ccc([nH]4)c(-c4c(F)cccc4F)c4nc(c(-c5c(F)cccc5F)c5ccc2[nH]5)C=C4)C=C3)cc1)NC(=O)C(F)(F)F
REMARK SMILES IDX 17 1 16 2 15 3 14 4 13 5 12 6 10 7 11 8 9 9 8 10 7 11 1 12
REMARK SMILES IDX 2 13 3 14 4 15 6 16 5 17 81 18 82 19 83 21 84 22 85 23 86 24
REMARK SMILES IDX 87 25 18 26 19 27 20 28 21 29 22 30 23 31 24 32 25 33 26 34
REMARK SMILES IDX 27 35 28 36 80 37 29 38 79 39 30 40 31 41 32 42 73 43 33 44
REMARK SMILES IDX 78 45 72 46 74 47 34 48 77 49 71 50 70 51 35 53 61 54 44 55
REMARK SMILES IDX 60 56 45 57 48 58 59 59 75 60 46 61 47 62 58 64 76 65 49 66
REMARK SMILES IDX 36 67 37 68 42 69 38 70 39 71 41 72 43 73 40 74 62 75 63 76
REMARK SMILES IDX 68 77 64 78 65 79 67 80 69 81 66 82 50 83 51 84 56 85 52 86
REMARK SMILES IDX 53 87 55 88 57 89 54 90
REMARK H PARENT 81 20 74 52 48 63
REMARK Flexibility Score: inf
ROOT
ATOM      1  C   UNL     1       0.379   5.300   1.427  1.00  0.00     0.188 C 
ENDROOT
BRANCH   1   2
ATOM      2  C   UNL     1      -0.043   6.625   0.783  1.00  0.00     0.188 C 
BRANCH   2   3
ATOM      3  O   UNL     1      -1.401   6.766   0.406  1.00  0.00    -0.376 OA
BRANCH   3   4
ATOM      4  C   UNL     1      -1.798   5.943  -0.678  1.00  0.00     0.202 C 
BRANCH   4   5
ATOM      5  C   UNL     1      -0.811   5.773  -1.826  1.00  0.00     0.261 C 
BRANCH   5   6
ATOM      6  O   UNL     1      -0.139   4.490  -1.641  1.00  0.00    -0.463 OA
BRANCH   6   7
ATOM      7  C   UNL     1       1.140   4.313  -1.294  1.00  0.00     0.308 C 
ATOM      8  O   UNL     1       1.953   5.233  -1.282  1.00  0.00    -0.252 OA
BRANCH   7   9
ATOM      9  C   UNL     1       1.521   2.830  -1.004  1.00  0.00     0.152 C 
BRANCH   9  10
ATOM     10  C   UNL     1       1.153   1.855   0.226  1.00  0.00     0.124 C 
BRANCH  10  11
ATOM     11  C   UNL     1       0.108   0.611   0.112  1.00  0.00    -0.022 A 
ATOM     12  C   UNL     1       2.361  -0.863  -0.824  1.00  0.00     0.045 C 
ATOM     13  C   UNL     1       0.826  -0.797  -0.716  1.00  0.00    -0.046 A 
ATOM     14  C   UNL     1       0.112  -2.425  -0.697  1.00  0.00     0.004 A 
ATOM     15  C   UNL     1      -1.334  -2.869   0.157  1.00  0.00     0.000 A 
ATOM     16  C   UNL     1      -1.500   0.301   0.972  1.00  0.00     0.006 A 
ATOM     17  C   UNL     1      -2.204  -1.597   1.035  1.00  0.00     0.000 A 
ENDBRANCH  10  11
BRANCH  10  18
ATOM     18  N   UNL     1       1.344   2.309   1.602  1.00  0.00    -0.341 N 
ATOM     19  C   UNL     1       2.368   2.889   2.305  1.00  0.00     0.326 C 
ATOM     20  H   UNL     1       0.544   2.164   2.158  1.00  0.00     0.164 HD
ATOM     21  O   UNL     1       2.057   3.318   3.428  1.00  0.00    -0.265 OA
BRANCH  19  22
ATOM     22  C   UNL     1       3.812   2.982   1.773  1.00  0.00     0.471 C 
ATOM     23  F   UNL     1       4.316   1.753   1.472  1.00  0.00    -0.162 F 
ATOM     24  F   UNL     1       3.929   3.735   0.649  1.00  0.00    -0.162 F 
ATOM     25  F   UNL     1       4.667   3.532   2.683  1.00  0.00    -0.162 F 
ENDBRANCH  19  22
ENDBRANCH  10  18
ENDBRANCH   9  10
ENDBRANCH   7   9
ENDBRANCH   6   7
ENDBRANCH   5   6
ENDBRANCH   4   5
ENDBRANCH   3   4
ENDBRANCH   2   3
ENDBRANCH   1   2
BRANCH   1  26
ATOM     26  O   UNL     1      -0.350   4.164   0.979  1.00  0.00    -0.377 OA
BRANCH  26  27
ATOM     27  C   UNL     1      -1.311   3.669   1.869  1.00  0.00     0.188 C 
BRANCH  27  28
ATOM     28  C   UNL     1      -2.164   4.657   2.550  1.00  0.00     0.188 C 
BRANCH  28  29
ATOM     29  O   UNL     1      -1.621   5.630   3.387  1.00  0.00    -0.376 OA
BRANCH  29  30
ATOM     30  C   UNL     1      -1.397   5.266   4.734  1.00  0.00     0.202 C 
BRANCH  30  31
ATOM     31  C   UNL     1      -2.399   4.257   5.344  1.00  0.00     0.261 C 
BRANCH  31  32
ATOM     32  O   UNL     1      -3.775   4.578   4.926  1.00  0.00    -0.460 OA
BRANCH  32  33
ATOM     33  C   UNL     1      -4.593   3.532   4.552  1.00  0.00     0.338 C 
ATOM     34  O   UNL     1      -4.585   2.439   5.101  1.00  0.00    -0.246 OA
BRANCH  33  35
ATOM     35  C   UNL     1      -5.216   3.746   3.160  1.00  0.00     0.060 A 
ATOM     36  C   UNL     1      -5.570   2.633   2.377  1.00  0.00     0.016 A 
ATOM     37  C   UNL     1      -5.050   4.936   2.470  1.00  0.00     0.016 A 
ATOM     38  C   UNL     1      -5.414   2.630   0.950  1.00  0.00     0.010 A 
ATOM     39  C   UNL     1      -4.822   4.893   1.069  1.00  0.00     0.010 A 
ATOM     40  C   UNL     1      -4.845   3.713   0.291  1.00  0.00    -0.014 A 
BRANCH  40  41
ATOM     41  C   UNL     1      -4.228   3.723  -1.113  1.00  0.00     0.031 A 
ATOM     42  C   UNL     1      -4.608   4.888  -2.014  1.00  0.00     0.074 A 
ATOM     43  C   UNL     1      -3.101   3.010  -1.496  1.00  0.00     0.049 A 
ATOM     44  N   UNL     1      -4.062   5.141  -3.153  1.00  0.00    -0.248 NA
ATOM     45  C   UNL     1      -5.501   5.979  -1.640  1.00  0.00     0.031 C 
ATOM     46  C   UNL     1      -2.184   3.247  -2.615  1.00  0.00     0.029 A 
ATOM     47  N   UNL     1      -2.379   1.985  -0.897  1.00  0.00    -0.354 N 
ATOM     48  C   UNL     1      -4.157   6.488  -3.443  1.00  0.00     0.074 A 
ATOM     49  C   UNL     1      -5.129   6.954  -2.485  1.00  0.00     0.031 C 
ATOM     50  C   UNL     1      -1.179   2.354  -2.736  1.00  0.00     0.029 A 
ATOM     51  C   UNL     1      -1.497   1.321  -1.814  1.00  0.00     0.049 A 
ATOM     52  H   UNL     1      -2.463   1.741   0.053  1.00  0.00     0.167 HD
ATOM     53  C   UNL     1      -3.300   7.012  -4.387  1.00  0.00     0.037 A 
ATOM     54  C   UNL     1      -1.474  -0.020  -2.096  1.00  0.00     0.037 A 
ATOM     55  C   UNL     1      -2.516   5.921  -5.053  1.00  0.00     0.049 A 
ATOM     56  C   UNL     1      -2.430   0.054  -3.484  1.00  0.00     0.074 A 
ATOM     57  C   UNL     1      -1.185   5.608  -5.285  1.00  0.00     0.029 A 
ATOM     58  N   UNL     1      -3.200   4.762  -5.417  1.00  0.00    -0.354 N 
ATOM     59  N   UNL     1      -2.765   1.235  -3.992  1.00  0.00    -0.248 NA
ATOM     60  C   UNL     1      -2.903  -0.938  -4.463  1.00  0.00     0.031 C 
ATOM     61  C   UNL     1      -1.109   4.214  -5.677  1.00  0.00     0.029 A 
ATOM     62  C   UNL     1      -2.394   3.672  -5.699  1.00  0.00     0.049 A 
ATOM     63  H   UNL     1      -4.182   4.721  -5.468  1.00  0.00     0.167 HD
ATOM     64  C   UNL     1      -3.105   1.256  -5.295  1.00  0.00     0.074 A 
ATOM     65  C   UNL     1      -3.395  -0.163  -5.479  1.00  0.00     0.031 C 
ATOM     66  C   UNL     1      -3.046   2.395  -6.097  1.00  0.00     0.037 A 
BRANCH  53  67
ATOM     67  C   UNL     1      -3.063   8.504  -4.699  1.00  0.00     0.057 A 
ATOM     68  C   UNL     1      -2.193   8.889  -5.747  1.00  0.00     0.134 A 
ATOM     69  C   UNL     1      -3.620   9.612  -4.022  1.00  0.00     0.134 A 
ATOM     70  F   UNL     1      -1.566   7.982  -6.506  1.00  0.00    -0.206 F 
ATOM     71  C   UNL     1      -1.916  10.226  -6.093  1.00  0.00     0.040 A 
ATOM     72  C   UNL     1      -3.377  10.957  -4.379  1.00  0.00     0.040 A 
ATOM     73  F   UNL     1      -4.417   9.475  -2.960  1.00  0.00    -0.206 F 
ATOM     74  C   UNL     1      -2.521  11.271  -5.420  1.00  0.00     0.006 A 
ENDBRANCH  53  67
BRANCH  54  75
ATOM     75  C   UNL     1      -1.536  -0.814  -0.572  1.00  0.00     0.057 A 
ATOM     76  C   UNL     1      -0.407  -1.177   1.086  1.00  0.00     0.134 A 
ATOM     77  C   UNL     1      -3.255  -0.347  -0.241  1.00  0.00     0.134 A 
ATOM     78  F   UNL     1       0.891  -1.549   1.314  1.00  0.00    -0.206 F 
ATOM     79  C   UNL     1      -1.135  -0.860   2.723  1.00  0.00     0.040 A 
ATOM     80  C   UNL     1      -3.795  -0.079   1.388  1.00  0.00     0.040 A 
ATOM     81  F   UNL     1      -4.153  -0.270  -1.238  1.00  0.00    -0.206 F 
ATOM     82  C   UNL     1      -2.786  -0.293   2.806  1.00  0.00     0.006 A 
ENDBRANCH  54  75
BRANCH  66  83
ATOM     83  C   UNL     1      -3.651   2.431  -7.469  1.00  0.00     0.057 A 
ATOM     84  C   UNL     1      -3.522   1.368  -8.351  1.00  0.00     0.134 A 
ATOM     85  C   UNL     1      -4.361   3.557  -7.962  1.00  0.00     0.134 A 
ATOM     86  F   UNL     1      -2.694   0.347  -8.087  1.00  0.00    -0.206 F 
ATOM     87  C   UNL     1      -4.237   1.328  -9.546  1.00  0.00     0.040 A 
ATOM     88  C   UNL     1      -5.000   3.567  -9.192  1.00  0.00     0.040 A 
ATOM     89  F   UNL     1      -4.519   4.696  -7.277  1.00  0.00    -0.206 F 
ATOM     90  C   UNL     1      -4.996   2.420  -9.959  1.00  0.00     0.006 A 
ENDBRANCH  66  83
ENDBRANCH  40  41
ENDBRANCH  33  35
ENDBRANCH  32  33
ENDBRANCH  31  32
ENDBRANCH  30  31
ENDBRANCH  29  30
ENDBRANCH  28  29
ENDBRANCH  27  28
ENDBRANCH  26  27
ENDBRANCH   1  26
TORSDOF 24
