REMARK SMILES C[C@@H](C(=O)OCCOCCOCCOCCOC(=O)c1ccc(-c2c3nc(c(-c4c(F)cccc4F)c4ccc([nH]4)c(-c4c(F)cccc4F)c4nc(c(-c5c(F)cccc5F)c5ccc2[nH]5)C=C4)C=C3)cc1)c1ccc(C[C@H]2CCC[C@@H]2O)cc1F
REMARK SMILES IDX 10 1 9 2 8 3 7 4 6 5 5 6 3 7 4 8 2 9 1 10 74 11 75 12 86 13
REMARK SMILES IDX 76 14 85 15 87 16 77 17 78 18 79 19 80 20 83 21 81 22 82 23
REMARK SMILES IDX 84 24 11 26 12 27 13 28 14 29 15 30 16 31 17 32 18 33 19 34
REMARK SMILES IDX 20 35 21 36 73 37 22 38 72 39 23 40 24 41 25 42 66 43 26 44
REMARK SMILES IDX 71 45 65 46 67 47 27 48 70 49 64 50 63 51 28 53 54 54 37 55
REMARK SMILES IDX 53 56 38 57 41 58 52 59 68 60 39 61 40 62 51 64 69 65 42 66
REMARK SMILES IDX 29 67 30 68 35 69 31 70 32 71 34 72 36 73 33 74 55 75 56 76
REMARK SMILES IDX 61 77 57 78 58 79 60 80 62 81 59 82 43 83 44 84 49 85 45 86
REMARK SMILES IDX 46 87 48 88 50 89 47 90
REMARK H PARENT 84 25 67 52 41 63
REMARK Flexibility Score: inf
ROOT
ATOM      1  C   UNL     1       1.175   1.813   2.145  1.00  0.00     0.188 C 
ENDROOT
BRANCH   1   2
ATOM      2  C   UNL     1       0.255   1.400   3.309  1.00  0.00     0.188 C 
BRANCH   2   3
ATOM      3  O   UNL     1       0.782   1.237   4.617  1.00  0.00    -0.376 OA
BRANCH   3   4
ATOM      4  C   UNL     1       2.034   0.598   4.814  1.00  0.00     0.202 C 
BRANCH   4   5
ATOM      5  C   UNL     1       2.433  -0.691   4.066  1.00  0.00     0.261 C 
BRANCH   5   6
ATOM      6  O   UNL     1       2.031  -0.814   2.689  1.00  0.00    -0.463 OA
BRANCH   6   7
ATOM      7  C   UNL     1       1.008  -1.670   2.437  1.00  0.00     0.313 C 
ATOM      8  O   UNL     1       0.457  -2.330   3.314  1.00  0.00    -0.252 OA
BRANCH   7   9
ATOM      9  C   UNL     1       0.567  -1.714   0.955  1.00  0.00     0.129 C 
ATOM     10  C   UNL     1       1.426  -0.970  -0.079  1.00  0.00     0.025 C 
BRANCH   9  11
ATOM     11  C   UNL     1      -0.935  -1.445   0.859  1.00  0.00     0.002 A 
ATOM     12  C   UNL     1      -1.504  -0.185   0.612  1.00  0.00     0.008 A 
ATOM     13  C   UNL     1      -1.809  -2.491   1.176  1.00  0.00     0.127 A 
ATOM     14  C   UNL     1      -2.885   0.022   0.740  1.00  0.00     0.004 A 
ATOM     15  C   UNL     1      -3.180  -2.292   1.311  1.00  0.00     0.043 A 
ATOM     16  F   UNL     1      -1.322  -3.722   1.389  1.00  0.00    -0.207 F 
ATOM     17  C   UNL     1      -3.733  -1.021   1.128  1.00  0.00    -0.045 A 
BRANCH  17  18
ATOM     18  C   UNL     1      -5.210  -0.796   1.350  1.00  0.00     0.041 C 
BRANCH  18  19
ATOM     19  C   UNL     1      -5.627  -0.167   2.691  1.00  0.00     0.022 C 
ATOM     20  C   UNL     1      -5.109  -0.853   3.965  1.00  0.00     0.007 C 
ATOM     21  C   UNL     1      -5.254   1.305   2.879  1.00  0.00     0.117 C 
ATOM     22  C   UNL     1      -4.889   0.268   4.990  1.00  0.00     0.003 C 
ATOM     23  C   UNL     1      -5.489   1.520   4.368  1.00  0.00     0.032 C 
BRANCH  21  24
ATOM     24  O   UNL     1      -6.057   2.161   2.087  1.00  0.00    -0.393 OA
ATOM     25  H   UNL     1      -6.992   2.019   2.304  1.00  0.00     0.210 HD
ENDBRANCH  21  24
ENDBRANCH  18  19
ENDBRANCH  17  18
ENDBRANCH   9  11
ENDBRANCH   7   9
ENDBRANCH   6   7
ENDBRANCH   5   6
ENDBRANCH   4   5
ENDBRANCH   3   4
ENDBRANCH   2   3
ENDBRANCH   1   2
BRANCH   1  26
ATOM     26  O   UNL     1       2.552   1.868   2.462  1.00  0.00    -0.377 OA
BRANCH  26  27
ATOM     27  C   UNL     1       3.074   3.146   2.788  1.00  0.00     0.188 C 
BRANCH  27  28
ATOM     28  C   UNL     1       2.188   4.099   3.613  1.00  0.00     0.188 C 
BRANCH  28  29
ATOM     29  O   UNL     1       0.881   4.278   3.079  1.00  0.00    -0.376 OA
BRANCH  29  30
ATOM     30  C   UNL     1       0.612   5.436   2.303  1.00  0.00     0.202 C 
BRANCH  30  31
ATOM     31  C   UNL     1       1.264   5.518   0.912  1.00  0.00     0.261 C 
BRANCH  31  32
ATOM     32  O   UNL     1       2.697   5.450   0.872  1.00  0.00    -0.460 OA
BRANCH  32  33
ATOM     33  C   UNL     1       3.392   6.386   1.550  1.00  0.00     0.338 C 
ATOM     34  O   UNL     1       2.941   7.345   2.153  1.00  0.00    -0.246 OA
BRANCH  33  35
ATOM     35  C   UNL     1       4.801   5.944   1.615  1.00  0.00     0.060 A 
ATOM     36  C   UNL     1       5.389   5.746   2.872  1.00  0.00     0.016 A 
ATOM     37  C   UNL     1       5.533   5.708   0.448  1.00  0.00     0.016 A 
ATOM     38  C   UNL     1       6.723   5.348   2.966  1.00  0.00     0.010 A 
ATOM     39  C   UNL     1       6.877   5.335   0.544  1.00  0.00     0.010 A 
ATOM     40  C   UNL     1       7.487   5.189   1.803  1.00  0.00    -0.014 A 
BRANCH  40  41
ATOM     41  C   UNL     1       8.963   5.085   1.905  1.00  0.00     0.031 A 
ATOM     42  C   UNL     1       9.776   6.337   1.713  1.00  0.00     0.074 A 
ATOM     43  C   UNL     1       9.572   3.920   2.187  1.00  0.00     0.049 A 
ATOM     44  N   UNL     1      11.074   6.495   1.704  1.00  0.00    -0.248 NA
ATOM     45  C   UNL     1       9.016   7.580   1.500  1.00  0.00     0.031 C 
ATOM     46  C   UNL     1       8.896   2.651   2.443  1.00  0.00     0.029 A 
ATOM     47  N   UNL     1      10.907   3.620   2.295  1.00  0.00    -0.354 N 
ATOM     48  C   UNL     1      11.285   7.849   1.475  1.00  0.00     0.074 A 
ATOM     49  C   UNL     1       9.985   8.463   1.320  1.00  0.00     0.031 C 
ATOM     50  C   UNL     1       9.823   1.702   2.668  1.00  0.00     0.029 A 
ATOM     51  C   UNL     1      11.155   2.291   2.535  1.00  0.00     0.049 A 
ATOM     52  H   UNL     1      11.620   4.294   2.209  1.00  0.00     0.167 HD
ATOM     53  C   UNL     1      12.458   8.522   1.407  1.00  0.00     0.037 A 
ATOM     54  C   UNL     1      12.325   1.625   2.611  1.00  0.00     0.037 A 
ATOM     55  C   UNL     1      13.750   7.908   1.557  1.00  0.00     0.049 A 
ATOM     56  C   UNL     1      13.618   2.382   2.446  1.00  0.00     0.074 A 
ATOM     57  C   UNL     1      14.997   8.505   1.521  1.00  0.00     0.029 A 
ATOM     58  N   UNL     1      13.960   6.552   1.761  1.00  0.00    -0.354 N 
ATOM     59  N   UNL     1      13.810   3.666   2.254  1.00  0.00    -0.248 NA
ATOM     60  C   UNL     1      14.860   1.596   2.509  1.00  0.00     0.031 C 
ATOM     61  C   UNL     1      15.964   7.502   1.639  1.00  0.00     0.029 A 
ATOM     62  C   UNL     1      15.319   6.289   1.820  1.00  0.00     0.049 A 
ATOM     63  H   UNL     1      13.249   5.877   1.850  1.00  0.00     0.167 HD
ATOM     64  C   UNL     1      15.189   3.845   2.210  1.00  0.00     0.074 A 
ATOM     65  C   UNL     1      15.785   2.540   2.406  1.00  0.00     0.031 C 
ATOM     66  C   UNL     1      15.898   4.986   2.027  1.00  0.00     0.037 A 
BRANCH  53  67
ATOM     67  C   UNL     1      12.395   9.995   1.122  1.00  0.00     0.057 A 
ATOM     68  C   UNL     1      11.905  10.915   2.058  1.00  0.00     0.134 A 
ATOM     69  C   UNL     1      12.854  10.502  -0.100  1.00  0.00     0.134 A 
ATOM     70  F   UNL     1      11.433  10.495   3.242  1.00  0.00    -0.206 F 
ATOM     71  C   UNL     1      11.851  12.282   1.780  1.00  0.00     0.040 A 
ATOM     72  C   UNL     1      12.835  11.869  -0.379  1.00  0.00     0.040 A 
ATOM     73  F   UNL     1      13.338   9.677  -1.042  1.00  0.00    -0.206 F 
ATOM     74  C   UNL     1      12.325  12.763   0.561  1.00  0.00     0.006 A 
ENDBRANCH  53  67
BRANCH  54  75
ATOM     75  C   UNL     1      12.337   0.156   2.838  1.00  0.00     0.057 A 
ATOM     76  C   UNL     1      12.853  -0.394   4.018  1.00  0.00     0.134 A 
ATOM     77  C   UNL     1      11.868  -0.736   1.865  1.00  0.00     0.134 A 
ATOM     78  F   UNL     1      13.343   0.405   4.977  1.00  0.00    -0.206 F 
ATOM     79  C   UNL     1      12.923  -1.775   4.213  1.00  0.00     0.040 A 
ATOM     80  C   UNL     1      11.904  -2.118   2.060  1.00  0.00     0.040 A 
ATOM     81  F   UNL     1      11.363  -0.276   0.711  1.00  0.00    -0.206 F 
ATOM     82  C   UNL     1      12.442  -2.641   3.233  1.00  0.00     0.006 A 
ENDBRANCH  54  75
BRANCH  66  83
ATOM     83  C   UNL     1      17.397   4.888   2.079  1.00  0.00     0.057 A 
ATOM     84  C   UNL     1      18.140   4.266   1.068  1.00  0.00     0.134 A 
ATOM     85  C   UNL     1      18.110   5.469   3.137  1.00  0.00     0.134 A 
ATOM     86  F   UNL     1      17.522   3.682   0.030  1.00  0.00    -0.206 F 
ATOM     87  C   UNL     1      19.534   4.202   1.121  1.00  0.00     0.040 A 
ATOM     88  C   UNL     1      19.504   5.439   3.185  1.00  0.00     0.040 A 
ATOM     89  F   UNL     1      17.463   6.093   4.134  1.00  0.00    -0.206 F 
ATOM     90  C   UNL     1      20.220   4.796   2.178  1.00  0.00     0.006 A 
ENDBRANCH  66  83
ENDBRANCH  40  41
ENDBRANCH  33  35
ENDBRANCH  32  33
ENDBRANCH  31  32
ENDBRANCH  30  31
ENDBRANCH  29  30
ENDBRANCH  28  29
ENDBRANCH  27  28
ENDBRANCH  26  27
ENDBRANCH   1  26
TORSDOF 24
