REMARK SMILES O=C(C[C@H](NC(=O)[C@]12C[C@H]3C[C@H](C[C@H](C3)C1)C2)c1cccc([N+](=O)[O-])c1)OCCOCCOCCOCCOC(=O)c1ccc(-c2c3nc(c(-c4c(F)cccc4F)c4ccc([nH]4)c(-c4c(F)cccc4F)c4nc(c(-c5c(F)cccc5F)c5ccc2[nH]5)C=C4)C=C3)cc1
REMARK SMILES IDX 32 1 31 2 30 3 29 4 28 5 27 6 2 7 1 8 3 9 4 10 18 11 19 12
REMARK SMILES IDX 26 13 20 14 22 15 21 16 23 17 24 18 25 19 5 20 6 21 7 23
REMARK SMILES IDX 8 24 9 25 16 26 17 27 10 28 14 29 12 30 11 31 15 32 13 33
REMARK SMILES IDX 33 34 34 35 35 36 36 37 37 38 38 39 39 40 40 41 41 42 42 43
REMARK SMILES IDX 43 44 95 45 44 46 94 47 45 48 46 49 47 50 88 51 48 52 93 53
REMARK SMILES IDX 87 54 89 55 49 56 92 57 86 58 85 59 50 61 76 62 59 63 75 64
REMARK SMILES IDX 60 65 63 66 74 67 90 68 61 69 62 70 73 72 91 73 64 74 51 75
REMARK SMILES IDX 52 76 57 77 53 78 54 79 56 80 58 81 55 82 77 83 78 84 83 85
REMARK SMILES IDX 79 86 80 87 82 88 84 89 81 90 65 91 66 92 71 93 67 94 68 95
REMARK SMILES IDX 70 96 72 97 69 98
REMARK H PARENT 5 22 89 60 63 71
REMARK Flexibility Score: inf
ROOT
ATOM      1  C   UNL     1       5.236   1.740   2.716  1.00  0.00     0.188 C 
ENDROOT
BRANCH   1   2
ATOM      2  C   UNL     1       5.234   1.962   1.199  1.00  0.00     0.188 C 
BRANCH   2   3
ATOM      3  O   UNL     1       4.029   2.376   0.592  1.00  0.00    -0.376 OA
BRANCH   3   4
ATOM      4  C   UNL     1       3.067   1.552  -0.019  1.00  0.00     0.202 C 
BRANCH   4   5
ATOM      5  C   UNL     1       2.704   0.199   0.567  1.00  0.00     0.261 C 
BRANCH   5   6
ATOM      6  O   UNL     1       3.783  -0.647   0.986  1.00  0.00    -0.463 OA
BRANCH   6   7
ATOM      7  C   UNL     1       4.742  -1.237   0.261  1.00  0.00     0.308 C 
ATOM      8  O   UNL     1       5.313  -2.222   0.729  1.00  0.00    -0.252 OA
BRANCH   7   9
ATOM      9  C   UNL     1       5.259  -0.629  -1.011  1.00  0.00     0.152 C 
BRANCH   9  10
ATOM     10  C   UNL     1       4.420  -0.588  -2.274  1.00  0.00     0.123 C 
BRANCH  10  11
ATOM     11  C   UNL     1       5.387  -0.885  -3.407  1.00  0.00    -0.018 A 
ATOM     12  C   UNL     1       5.600  -2.187  -3.864  1.00  0.00     0.006 A 
ATOM     13  C   UNL     1       6.075   0.190  -4.015  1.00  0.00     0.091 A 
ATOM     14  C   UNL     1       6.413  -2.410  -4.973  1.00  0.00     0.007 A 
ATOM     15  C   UNL     1       6.852  -0.038  -5.152  1.00  0.00     0.269 A 
ATOM     16  C   UNL     1       7.021  -1.339  -5.636  1.00  0.00     0.085 A 
BRANCH  15  17
ATOM     17  N   UNL     1       7.432   1.102  -5.872  1.00  0.00     0.062 N 
ATOM     18  O   UNL     1       8.058   0.867  -6.915  1.00  0.00    -0.258 OA
ATOM     19  O   UNL     1       7.247   2.234  -5.402  1.00  0.00    -0.258 OA
ENDBRANCH  15  17
ENDBRANCH  10  11
BRANCH  10  20
ATOM     20  N   UNL     1       3.200  -1.378  -2.252  1.00  0.00    -0.348 N 
ATOM     21  C   UNL     1       1.991  -1.220  -2.866  1.00  0.00     0.226 C 
ATOM     22  H   UNL     1       3.256  -2.182  -1.686  1.00  0.00     0.164 HD
ATOM     23  O   UNL     1       1.058  -1.831  -2.330  1.00  0.00    -0.274 OA
BRANCH  21  24
ATOM     24  C   UNL     1       1.733  -0.340  -4.115  1.00  0.00     0.050 C 
ATOM     25  C   UNL     1       0.597  -1.016  -4.936  1.00  0.00     0.020 C 
ATOM     26  C   UNL     1       2.957  -0.229  -5.027  1.00  0.00     0.020 C 
ATOM     27  C   UNL     1       1.256   1.092  -3.777  1.00  0.00     0.020 C 
ATOM     28  C   UNL     1       0.324  -0.256  -6.245  1.00  0.00    -0.010 C 
ATOM     29  C   UNL     1       2.696   0.525  -6.322  1.00  0.00    -0.010 C 
ATOM     30  C   UNL     1       0.982   1.886  -5.083  1.00  0.00    -0.010 C 
ATOM     31  C   UNL     1      -0.109   1.180  -5.908  1.00  0.00     0.007 C 
ATOM     32  C   UNL     1       1.605  -0.215  -7.090  1.00  0.00     0.007 C 
ATOM     33  C   UNL     1       2.256   1.948  -5.944  1.00  0.00     0.007 C 
ENDBRANCH  21  24
ENDBRANCH  10  20
ENDBRANCH   9  10
ENDBRANCH   7   9
ENDBRANCH   6   7
ENDBRANCH   5   6
ENDBRANCH   4   5
ENDBRANCH   3   4
ENDBRANCH   2   3
ENDBRANCH   1   2
BRANCH   1  34
ATOM     34  O   UNL     1       4.449   2.563   3.554  1.00  0.00    -0.377 OA
BRANCH  34  35
ATOM     35  C   UNL     1       3.179   2.940   3.065  1.00  0.00     0.188 C 
BRANCH  35  36
ATOM     36  C   UNL     1       3.166   4.316   2.370  1.00  0.00     0.188 C 
BRANCH  36  37
ATOM     37  O   UNL     1       4.363   4.785   1.782  1.00  0.00    -0.376 OA
BRANCH  37  38
ATOM     38  C   UNL     1       5.499   5.167   2.539  1.00  0.00     0.202 C 
BRANCH  38  39
ATOM     39  C   UNL     1       5.627   5.275   4.075  1.00  0.00     0.261 C 
BRANCH  39  40
ATOM     40  O   UNL     1       4.578   4.776   4.899  1.00  0.00    -0.460 OA
BRANCH  40  41
ATOM     41  C   UNL     1       3.589   5.634   5.207  1.00  0.00     0.338 C 
ATOM     42  O   UNL     1       3.513   6.814   4.900  1.00  0.00    -0.246 OA
BRANCH  41  43
ATOM     43  C   UNL     1       2.472   4.851   5.776  1.00  0.00     0.060 A 
ATOM     44  C   UNL     1       1.209   4.984   5.179  1.00  0.00     0.016 A 
ATOM     45  C   UNL     1       2.662   3.967   6.843  1.00  0.00     0.016 A 
ATOM     46  C   UNL     1       0.122   4.276   5.678  1.00  0.00     0.010 A 
ATOM     47  C   UNL     1       1.560   3.294   7.377  1.00  0.00     0.010 A 
ATOM     48  C   UNL     1       0.281   3.491   6.826  1.00  0.00    -0.014 A 
BRANCH  48  49
ATOM     49  C   UNL     1      -0.931   3.178   7.616  1.00  0.00     0.031 A 
ATOM     50  C   UNL     1      -1.322   4.161   8.688  1.00  0.00     0.074 A 
ATOM     51  C   UNL     1      -1.708   2.118   7.342  1.00  0.00     0.049 A 
ATOM     52  N   UNL     1      -2.347   4.149   9.499  1.00  0.00    -0.248 NA
ATOM     53  C   UNL     1      -0.430   5.321   8.863  1.00  0.00     0.031 C 
ATOM     54  C   UNL     1      -1.468   1.138   6.286  1.00  0.00     0.029 A 
ATOM     55  N   UNL     1      -2.871   1.700   7.936  1.00  0.00    -0.354 N 
ATOM     56  C   UNL     1      -2.216   5.290  10.281  1.00  0.00     0.074 A 
ATOM     57  C   UNL     1      -0.999   5.954   9.874  1.00  0.00     0.031 C 
ATOM     58  C   UNL     1      -2.457   0.226   6.309  1.00  0.00     0.029 A 
ATOM     59  C   UNL     1      -3.381   0.545   7.397  1.00  0.00     0.049 A 
ATOM     60  H   UNL     1      -3.300   2.183   8.680  1.00  0.00     0.167 HD
ATOM     61  C   UNL     1      -3.040   5.750  11.250  1.00  0.00     0.037 A 
ATOM     62  C   UNL     1      -4.463  -0.171   7.757  1.00  0.00     0.037 A 
ATOM     63  C   UNL     1      -4.247   5.083  11.655  1.00  0.00     0.049 A 
ATOM     64  C   UNL     1      -5.319   0.315   8.900  1.00  0.00     0.074 A 
ATOM     65  C   UNL     1      -5.162   5.466  12.618  1.00  0.00     0.029 A 
ATOM     66  N   UNL     1      -4.698   3.883  11.125  1.00  0.00    -0.354 N 
ATOM     67  N   UNL     1      -5.204   1.405   9.621  1.00  0.00    -0.248 NA
ATOM     68  C   UNL     1      -6.461  -0.532   9.275  1.00  0.00     0.031 C 
ATOM     69  C   UNL     1      -6.134   4.465  12.715  1.00  0.00     0.029 A 
ATOM     70  C   UNL     1      -5.863   3.494  11.764  1.00  0.00     0.049 A 
ATOM     71  H   UNL     1      -4.255   3.382  10.402  1.00  0.00     0.167 HD
ATOM     72  C   UNL     1      -6.278   1.396  10.505  1.00  0.00     0.074 A 
ATOM     73  C   UNL     1      -7.037   0.195  10.222  1.00  0.00     0.031 C 
ATOM     74  C   UNL     1      -6.611   2.300  11.461  1.00  0.00     0.037 A 
BRANCH  61  75
ATOM     75  C   UNL     1      -2.629   7.005  11.964  1.00  0.00     0.057 A 
ATOM     76  C   UNL     1      -2.628   8.258  11.336  1.00  0.00     0.134 A 
ATOM     77  C   UNL     1      -2.223   6.955  13.303  1.00  0.00     0.134 A 
ATOM     78  F   UNL     1      -2.983   8.373  10.047  1.00  0.00    -0.206 F 
ATOM     79  C   UNL     1      -2.209   9.409  12.005  1.00  0.00     0.040 A 
ATOM     80  C   UNL     1      -1.832   8.104  13.992  1.00  0.00     0.040 A 
ATOM     81  F   UNL     1      -2.197   5.788  13.965  1.00  0.00    -0.206 F 
ATOM     82  C   UNL     1      -1.816   9.334  13.340  1.00  0.00     0.006 A 
ENDBRANCH  61  75
BRANCH  62  83
ATOM     83  C   UNL     1      -4.807  -1.424   7.037  1.00  0.00     0.057 A 
ATOM     84  C   UNL     1      -5.970  -1.522   6.264  1.00  0.00     0.134 A 
ATOM     85  C   UNL     1      -4.001  -2.565   7.132  1.00  0.00     0.134 A 
ATOM     86  F   UNL     1      -6.798  -0.472   6.154  1.00  0.00    -0.206 F 
ATOM     87  C   UNL     1      -6.331  -2.713   5.630  1.00  0.00     0.040 A 
ATOM     88  C   UNL     1      -4.334  -3.754   6.481  1.00  0.00     0.040 A 
ATOM     89  F   UNL     1      -2.874  -2.540   7.859  1.00  0.00    -0.206 F 
ATOM     90  C   UNL     1      -5.508  -3.832   5.734  1.00  0.00     0.006 A 
ENDBRANCH  62  83
BRANCH  74  91
ATOM     91  C   UNL     1      -7.878   2.055  12.231  1.00  0.00     0.057 A 
ATOM     92  C   UNL     1      -7.999   1.012  13.159  1.00  0.00     0.134 A 
ATOM     93  C   UNL     1      -8.983   2.900  12.063  1.00  0.00     0.134 A 
ATOM     94  F   UNL     1      -6.982   0.161  13.362  1.00  0.00    -0.206 F 
ATOM     95  C   UNL     1      -9.184   0.798  13.865  1.00  0.00     0.040 A 
ATOM     96  C   UNL     1     -10.161   2.717  12.788  1.00  0.00     0.040 A 
ATOM     97  F   UNL     1      -8.931   3.928  11.202  1.00  0.00    -0.206 F 
ATOM     98  C   UNL     1     -10.267   1.657  13.685  1.00  0.00     0.006 A 
ENDBRANCH  74  91
ENDBRANCH  48  49
ENDBRANCH  41  43
ENDBRANCH  40  41
ENDBRANCH  39  40
ENDBRANCH  38  39
ENDBRANCH  37  38
ENDBRANCH  36  37
ENDBRANCH  35  36
ENDBRANCH  34  35
ENDBRANCH   1  34
TORSDOF 25
