REMARK SMILES CC(=O)Nc1sc(-c2ccccc2)cc1C(=O)OCCOCCOCCOCCOC(=O)c1ccc(-c2c3nc(c(-c4c(F)cccc4F)c4ccc([nH]4)c(-c4c(F)cccc4F)c4nc(c(-c5c(F)cccc5F)c5ccc2[nH]5)C=C4)C=C3)cc1
REMARK SMILES IDX 25 1 24 2 23 3 22 4 21 5 20 6 19 7 18 8 16 9 17 10 15 11
REMARK SMILES IDX 5 12 6 13 7 14 14 15 4 16 1 17 2 18 3 19 8 21 9 22 13 23
REMARK SMILES IDX 10 24 12 25 11 26 26 27 27 28 28 29 29 30 30 31 31 32 32 33
REMARK SMILES IDX 33 34 34 35 86 36 35 37 85 38 36 39 37 40 38 41 79 42 39 43
REMARK SMILES IDX 84 44 78 45 80 46 40 47 83 48 77 49 76 50 41 52 67 53 50 54
REMARK SMILES IDX 66 55 51 56 54 57 65 58 81 59 52 60 53 61 64 63 82 64 55 65
REMARK SMILES IDX 42 66 43 67 48 68 44 69 45 70 47 71 49 72 46 73 68 74 69 75
REMARK SMILES IDX 74 76 70 77 71 78 73 79 75 80 72 81 56 82 57 83 62 84 58 85
REMARK SMILES IDX 59 86 61 87 63 88 60 89
REMARK H PARENT 4 20 80 51 54 62
REMARK Flexibility Score: inf
ROOT
ATOM      1  C   UNL     1       4.827   2.194   2.890  1.00  0.00     0.188 C 
ENDROOT
BRANCH   1   2
ATOM      2  O   UNL     1       4.106   1.097   2.337  1.00  0.00    -0.377 OA
BRANCH   2   3
ATOM      3  C   UNL     1       4.785  -0.145   2.242  1.00  0.00     0.188 C 
BRANCH   3   4
ATOM      4  C   UNL     1       5.553  -0.296   0.917  1.00  0.00     0.188 C 
BRANCH   4   5
ATOM      5  O   UNL     1       5.588   0.903   0.142  1.00  0.00    -0.376 OA
BRANCH   5   6
ATOM      6  C   UNL     1       4.713   0.952  -0.981  1.00  0.00     0.202 C 
BRANCH   6   7
ATOM      7  C   UNL     1       3.227   1.140  -0.656  1.00  0.00     0.261 C 
BRANCH   7   8
ATOM      8  O   UNL     1       2.646   0.081   0.118  1.00  0.00    -0.460 OA
BRANCH   8   9
ATOM      9  C   UNL     1       2.556  -1.154  -0.432  1.00  0.00     0.341 C 
ATOM     10  O   UNL     1       2.876  -1.429  -1.582  1.00  0.00    -0.246 OA
BRANCH   9  11
ATOM     11  C   UNL     1       2.180  -2.152   0.561  1.00  0.00     0.095 A 
ATOM     12  C   UNL     1       1.350  -1.965   1.652  1.00  0.00     0.110 A 
ATOM     13  S   UNL     1       1.457  -3.242   2.782  1.00  0.00    -0.117 S 
ATOM     14  C   UNL     1       2.465  -4.159   1.757  1.00  0.00     0.037 A 
ATOM     15  C   UNL     1       2.769  -3.467   0.604  1.00  0.00     0.038 A 
BRANCH  12  16
ATOM     16  N   UNL     1       0.500  -0.977   2.091  1.00  0.00    -0.317 N 
ATOM     17  C   UNL     1      -0.386  -0.188  -0.105  1.00  0.00     0.114 C 
ATOM     18  C   UNL     1      -0.187  -0.039   1.380  1.00  0.00     0.221 C 
ATOM     19  O   UNL     1      -0.732   0.890   1.984  1.00  0.00    -0.275 OA
ATOM     20  H   UNL     1       0.369  -0.942   3.066  1.00  0.00     0.170 HD
ENDBRANCH  12  16
BRANCH  14  21
ATOM     21  C   UNL     1       2.914  -5.485   2.167  1.00  0.00    -0.008 A 
ATOM     22  C   UNL     1       2.102  -6.602   1.936  1.00  0.00     0.009 A 
ATOM     23  C   UNL     1       4.173  -5.663   2.757  1.00  0.00     0.009 A 
ATOM     24  C   UNL     1       2.545  -7.880   2.282  1.00  0.00     0.001 A 
ATOM     25  C   UNL     1       4.613  -6.942   3.105  1.00  0.00     0.001 A 
ATOM     26  C   UNL     1       3.800  -8.050   2.864  1.00  0.00     0.000 A 
ENDBRANCH  14  21
ENDBRANCH   9  11
ENDBRANCH   8   9
ENDBRANCH   7   8
ENDBRANCH   6   7
ENDBRANCH   5   6
ENDBRANCH   4   5
ENDBRANCH   3   4
ENDBRANCH   2   3
ENDBRANCH   1   2
BRANCH   1  27
ATOM     27  C   UNL     1       6.352   2.303   2.687  1.00  0.00     0.188 C 
BRANCH  27  28
ATOM     28  O   UNL     1       7.072   1.162   3.158  1.00  0.00    -0.376 OA
BRANCH  28  29
ATOM     29  C   UNL     1       7.816   1.339   4.359  1.00  0.00     0.202 C 
BRANCH  29  30
ATOM     30  C   UNL     1       6.955   1.252   5.626  1.00  0.00     0.261 C 
BRANCH  30  31
ATOM     31  O   UNL     1       6.016   2.328   5.780  1.00  0.00    -0.460 OA
BRANCH  31  32
ATOM     32  C   UNL     1       6.527   3.575   5.860  1.00  0.00     0.338 C 
ATOM     33  O   UNL     1       7.700   3.894   5.897  1.00  0.00    -0.246 OA
BRANCH  32  34
ATOM     34  C   UNL     1       5.412   4.529   5.720  1.00  0.00     0.060 A 
ATOM     35  C   UNL     1       5.496   5.517   4.732  1.00  0.00     0.016 A 
ATOM     36  C   UNL     1       4.308   4.462   6.573  1.00  0.00     0.016 A 
ATOM     37  C   UNL     1       4.489   6.476   4.626  1.00  0.00     0.010 A 
ATOM     38  C   UNL     1       3.310   5.431   6.477  1.00  0.00     0.010 A 
ATOM     39  C   UNL     1       3.417   6.462   5.528  1.00  0.00    -0.014 A 
BRANCH  39  40
ATOM     40  C   UNL     1       2.511   7.628   5.615  1.00  0.00     0.031 A 
ATOM     41  C   UNL     1       2.840   8.713   6.601  1.00  0.00     0.074 A 
ATOM     42  C   UNL     1       1.414   7.716   4.846  1.00  0.00     0.049 A 
ATOM     43  N   UNL     1       2.184   9.809   6.880  1.00  0.00    -0.248 NA
ATOM     44  C   UNL     1       4.074   8.532   7.384  1.00  0.00     0.031 C 
ATOM     45  C   UNL     1       0.997   6.733   3.850  1.00  0.00     0.029 A 
ATOM     46  N   UNL     1       0.441   8.681   4.802  1.00  0.00    -0.354 N 
ATOM     47  C   UNL     1       2.923  10.448   7.866  1.00  0.00     0.074 A 
ATOM     48  C   UNL     1       4.062   9.605   8.159  1.00  0.00     0.031 C 
ATOM     49  C   UNL     1      -0.163   7.138   3.301  1.00  0.00     0.029 A 
ATOM     50  C   UNL     1      -0.574   8.396   3.922  1.00  0.00     0.049 A 
ATOM     51  H   UNL     1       0.467   9.500   5.348  1.00  0.00     0.167 HD
ATOM     52  C   UNL     1       2.680  11.634   8.470  1.00  0.00     0.037 A 
ATOM     53  C   UNL     1      -1.712   9.069   3.666  1.00  0.00     0.037 A 
ATOM     54  C   UNL     1       1.542  12.466   8.190  1.00  0.00     0.049 A 
ATOM     55  C   UNL     1      -1.990  10.359   4.390  1.00  0.00     0.074 A 
ATOM     56  C   UNL     1       1.221  13.700   8.726  1.00  0.00     0.029 A 
ATOM     57  N   UNL     1       0.528  12.136   7.303  1.00  0.00    -0.354 N 
ATOM     58  N   UNL     1      -1.259  10.982   5.284  1.00  0.00    -0.248 NA
ATOM     59  C   UNL     1      -3.253  11.041   4.068  1.00  0.00     0.031 C 
ATOM     60  C   UNL     1      -0.009  14.099   8.193  1.00  0.00     0.029 A 
ATOM     61  C   UNL     1      -0.434  13.132   7.296  1.00  0.00     0.049 A 
ATOM     62  H   UNL     1       0.497  11.317   6.759  1.00  0.00     0.167 HD
ATOM     63  C   UNL     1      -1.960  12.135   5.614  1.00  0.00     0.074 A 
ATOM     64  C   UNL     1      -3.170  12.132   4.818  1.00  0.00     0.031 C 
ATOM     65  C   UNL     1      -1.631  13.111   6.496  1.00  0.00     0.037 A 
BRANCH  52  66
ATOM     66  C   UNL     1       3.660  12.082   9.510  1.00  0.00     0.057 A 
ATOM     67  C   UNL     1       4.934  12.554   9.168  1.00  0.00     0.134 A 
ATOM     68  C   UNL     1       3.327  12.040  10.869  1.00  0.00     0.134 A 
ATOM     69  F   UNL     1       5.319  12.599   7.883  1.00  0.00    -0.206 F 
ATOM     70  C   UNL     1       5.851  12.949  10.143  1.00  0.00     0.040 A 
ATOM     71  C   UNL     1       4.228  12.452  11.852  1.00  0.00     0.040 A 
ATOM     72  F   UNL     1       2.124  11.596  11.263  1.00  0.00    -0.206 F 
ATOM     73  C   UNL     1       5.497  12.902  11.490  1.00  0.00     0.006 A 
ENDBRANCH  52  66
BRANCH  53  74
ATOM     74  C   UNL     1      -2.680   8.532   2.681  1.00  0.00     0.057 A 
ATOM     75  C   UNL     1      -2.853   9.137   1.431  1.00  0.00     0.134 A 
ATOM     76  C   UNL     1      -3.462   7.407   2.970  1.00  0.00     0.134 A 
ATOM     77  F   UNL     1      -2.150  10.233   1.109  1.00  0.00    -0.206 F 
ATOM     78  C   UNL     1      -3.777   8.649   0.506  1.00  0.00     0.040 A 
ATOM     79  C   UNL     1      -4.374   6.896   2.046  1.00  0.00     0.040 A 
ATOM     80  F   UNL     1      -3.345   6.788   4.153  1.00  0.00    -0.206 F 
ATOM     81  C   UNL     1      -4.537   7.521   0.811  1.00  0.00     0.006 A 
ENDBRANCH  53  74
BRANCH  65  82
ATOM     82  C   UNL     1      -2.580  14.264   6.631  1.00  0.00     0.057 A 
ATOM     83  C   UNL     1      -3.792  14.143   7.320  1.00  0.00     0.134 A 
ATOM     84  C   UNL     1      -2.252  15.522   6.109  1.00  0.00     0.134 A 
ATOM     85  F   UNL     1      -4.168  12.962   7.834  1.00  0.00    -0.206 F 
ATOM     86  C   UNL     1      -4.655  15.230   7.471  1.00  0.00     0.040 A 
ATOM     87  C   UNL     1      -3.096  16.621   6.272  1.00  0.00     0.040 A 
ATOM     88  F   UNL     1      -1.100  15.705   5.446  1.00  0.00    -0.206 F 
ATOM     89  C   UNL     1      -4.304  16.475   6.952  1.00  0.00     0.006 A 
ENDBRANCH  65  82
ENDBRANCH  39  40
ENDBRANCH  32  34
ENDBRANCH  31  32
ENDBRANCH  30  31
ENDBRANCH  29  30
ENDBRANCH  28  29
ENDBRANCH  27  28
ENDBRANCH   1  27
TORSDOF 22
