REMARK SMILES CC1CCN(S(=O)(=O)N2CCC[C@H](c3cccc(C(=O)OCCOCCOCCOCCOC(=O)c4ccc(-c5c6nc(c(-c7c(F)cccc7F)c7ccc([nH]7)c(-c7c(F)cccc7F)c7nc(c(-c8c(F)cccc8F)c8ccc5[nH]8)C=C7)C=C6)cc4)c3)C2)CC1
REMARK SMILES IDX 26 1 25 2 24 3 23 4 22 5 21 6 19 7 20 8 18 9 14 10 15 11
REMARK SMILES IDX 90 12 16 13 17 14 13 15 9 16 10 17 91 18 11 19 12 20 6 21
REMARK SMILES IDX 7 22 8 23 5 24 1 25 2 26 3 27 93 28 4 29 92 30 27 31 28 32
REMARK SMILES IDX 29 33 30 34 31 35 32 36 33 37 34 38 35 39 36 40 37 41 89 42
REMARK SMILES IDX 38 43 88 44 39 45 40 46 41 47 82 48 42 49 87 50 81 51 83 52
REMARK SMILES IDX 43 53 86 54 80 55 79 56 44 58 70 59 53 60 69 61 54 62 57 63
REMARK SMILES IDX 68 64 84 65 55 66 56 67 67 69 85 70 58 71 45 72 46 73 51 74
REMARK SMILES IDX 47 75 48 76 50 77 52 78 49 79 71 80 72 81 77 82 73 83 74 84
REMARK SMILES IDX 76 85 78 86 75 87 59 88 60 89 65 90 61 91 62 92 64 93 66 94
REMARK SMILES IDX 63 95
REMARK H PARENT 83 57 57 68
REMARK Flexibility Score: inf
ROOT
ATOM      1  C   UNL     1       1.136  -7.259  -6.655  1.00  0.00     0.188 C 
ENDROOT
BRANCH   1   2
ATOM      2  C   UNL     1       1.713  -7.234  -8.086  1.00  0.00     0.188 C 
BRANCH   2   3
ATOM      3  O   UNL     1       2.436  -8.406  -8.424  1.00  0.00    -0.376 OA
BRANCH   3   4
ATOM      4  C   UNL     1       3.844  -8.337  -8.546  1.00  0.00     0.202 C 
BRANCH   4   5
ATOM      5  C   UNL     1       4.665  -7.923  -7.318  1.00  0.00     0.261 C 
BRANCH   5   6
ATOM      6  O   UNL     1       4.198  -6.762  -6.626  1.00  0.00    -0.460 OA
BRANCH   6   7
ATOM      7  C   UNL     1       4.332  -5.563  -7.239  1.00  0.00     0.338 C 
ATOM      8  O   UNL     1       4.873  -5.345  -8.307  1.00  0.00    -0.246 OA
BRANCH   7   9
ATOM      9  C   UNL     1       3.495  -4.599  -6.482  1.00  0.00     0.060 A 
ATOM     10  C   UNL     1       2.567  -3.831  -4.354  1.00  0.00    -0.043 A 
ATOM     11  C   UNL     1       1.737  -2.959  -5.076  1.00  0.00     0.004 A 
ATOM     12  C   UNL     1       3.412  -4.680  -5.087  1.00  0.00     0.019 A 
ATOM     13  C   UNL     1       1.795  -2.894  -6.473  1.00  0.00     0.001 A 
ATOM     14  C   UNL     1       2.691  -3.696  -7.177  1.00  0.00     0.016 A 
BRANCH  10  15
ATOM     15  C   UNL     1       2.570  -3.923  -2.831  1.00  0.00     0.034 C 
ATOM     16  N   UNL     1       2.571  -1.505  -2.196  1.00  0.00    -0.188 NA
ATOM     17  C   UNL     1       3.984  -1.522  -1.775  1.00  0.00     0.103 C 
ATOM     18  C   UNL     1       1.839  -2.792  -2.086  1.00  0.00     0.111 C 
ATOM     19  C   UNL     1       4.730  -2.677  -2.439  1.00  0.00     0.017 C 
ATOM     20  C   UNL     1       3.993  -3.998  -2.231  1.00  0.00     0.011 C 
BRANCH  16  21
ATOM     21  S   UNL     1       1.726  -0.071  -2.007  1.00  0.00     0.281 S 
ATOM     22  O   UNL     1       0.412  -0.250  -2.570  1.00  0.00    -0.195 OA
ATOM     23  O   UNL     1       2.573   1.010  -2.470  1.00  0.00    -0.195 OA
BRANCH  21  24
ATOM     24  N   UNL     1       1.596   0.110  -0.320  1.00  0.00    -0.189 NA
ATOM     25  C   UNL     1      -2.652   0.078  -0.009  1.00  0.00     0.008 C 
ATOM     26  C   UNL     1      -1.219   0.184   0.513  1.00  0.00    -0.012 C 
ATOM     27  C   UNL     1      -0.516   1.416  -0.093  1.00  0.00     0.020 C 
ATOM     28  C   UNL     1      -0.465  -1.129   0.255  1.00  0.00     0.020 C 
ATOM     29  C   UNL     1       1.003   1.416   0.097  1.00  0.00     0.104 C 
ATOM     30  C   UNL     1       1.020  -0.957   0.522  1.00  0.00     0.104 C 
ENDBRANCH  21  24
ENDBRANCH  16  21
ENDBRANCH  10  15
ENDBRANCH   7   9
ENDBRANCH   6   7
ENDBRANCH   5   6
ENDBRANCH   4   5
ENDBRANCH   3   4
ENDBRANCH   2   3
ENDBRANCH   1   2
BRANCH   1  31
ATOM     31  O   UNL     1       1.573  -8.291  -5.782  1.00  0.00    -0.377 OA
BRANCH  31  32
ATOM     32  C   UNL     1       1.461  -9.655  -6.186  1.00  0.00     0.188 C 
BRANCH  32  33
ATOM     33  C   UNL     1       0.569 -10.105  -7.371  1.00  0.00     0.188 C 
BRANCH  33  34
ATOM     34  O   UNL     1      -0.353  -9.133  -7.833  1.00  0.00    -0.376 OA
BRANCH  34  35
ATOM     35  C   UNL     1      -1.725  -9.330  -7.552  1.00  0.00     0.202 C 
BRANCH  35  36
ATOM     36  C   UNL     1      -2.127  -9.280  -6.072  1.00  0.00     0.261 C 
BRANCH  36  37
ATOM     37  O   UNL     1      -1.427 -10.190  -5.208  1.00  0.00    -0.460 OA
BRANCH  37  38
ATOM     38  C   UNL     1      -1.640 -11.508  -5.418  1.00  0.00     0.338 C 
ATOM     39  O   UNL     1      -2.381 -12.012  -6.241  1.00  0.00    -0.246 OA
BRANCH  38  40
ATOM     40  C   UNL     1      -0.665 -12.263  -4.605  1.00  0.00     0.060 A 
ATOM     41  C   UNL     1       0.234 -13.116  -5.257  1.00  0.00     0.016 A 
ATOM     42  C   UNL     1      -0.641 -12.136  -3.214  1.00  0.00     0.016 A 
ATOM     43  C   UNL     1       1.130 -13.880  -4.513  1.00  0.00     0.010 A 
ATOM     44  C   UNL     1       0.247 -12.918  -2.468  1.00  0.00     0.010 A 
ATOM     45  C   UNL     1       1.109 -13.821  -3.112  1.00  0.00    -0.014 A 
BRANCH  45  46
ATOM     46  C   UNL     1       1.873 -14.835  -2.345  1.00  0.00     0.031 A 
ATOM     47  C   UNL     1       1.146 -16.038  -1.808  1.00  0.00     0.074 A 
ATOM     48  C   UNL     1       3.205 -14.730  -2.198  1.00  0.00     0.049 A 
ATOM     49  N   UNL     1       1.618 -17.082  -1.177  1.00  0.00    -0.248 NA
ATOM     50  C   UNL     1      -0.311 -16.068  -2.014  1.00  0.00     0.031 C 
ATOM     51  C   UNL     1       4.026 -13.629  -2.697  1.00  0.00     0.029 A 
ATOM     52  N   UNL     1       4.103 -15.575  -1.594  1.00  0.00    -0.354 N 
ATOM     53  C   UNL     1       0.521 -17.894  -0.916  1.00  0.00     0.074 A 
ATOM     54  C   UNL     1      -0.646 -17.201  -1.417  1.00  0.00     0.031 C 
ATOM     55  C   UNL     1       5.312 -13.869  -2.385  1.00  0.00     0.029 A 
ATOM     56  C   UNL     1       5.400 -15.127  -1.645  1.00  0.00     0.049 A 
ATOM     57  H   UNL     1       3.842 -16.421  -1.165  1.00  0.00     0.167 HD
ATOM     58  C   UNL     1       0.490 -19.113  -0.328  1.00  0.00     0.037 A 
ATOM     59  C   UNL     1       6.527 -15.669  -1.145  1.00  0.00     0.037 A 
ATOM     60  C   UNL     1       1.652 -19.798   0.176  1.00  0.00     0.049 A 
ATOM     61  C   UNL     1       6.456 -16.996  -0.435  1.00  0.00     0.074 A 
ATOM     62  C   UNL     1       1.727 -21.044   0.774  1.00  0.00     0.029 A 
ATOM     63  N   UNL     1       2.942 -19.289   0.153  1.00  0.00    -0.354 N 
ATOM     64  N   UNL     1       5.420 -17.773  -0.229  1.00  0.00    -0.248 NA
ATOM     65  C   UNL     1       7.717 -17.525   0.103  1.00  0.00     0.031 C 
ATOM     66  C   UNL     1       3.051 -21.262   1.168  1.00  0.00     0.029 A 
ATOM     67  C   UNL     1       3.814 -20.182   0.756  1.00  0.00     0.049 A 
ATOM     68  H   UNL     1       3.200 -18.422  -0.234  1.00  0.00     0.167 HD
ATOM     69  C   UNL     1       5.907 -18.891   0.438  1.00  0.00     0.074 A 
ATOM     70  C   UNL     1       7.336 -18.702   0.577  1.00  0.00     0.031 C 
ATOM     71  C   UNL     1       5.234 -19.976   0.898  1.00  0.00     0.037 A 
BRANCH  58  72
ATOM     72  C   UNL     1      -0.852 -19.771  -0.171  1.00  0.00     0.057 A 
ATOM     73  C   UNL     1      -1.573 -20.263  -1.268  1.00  0.00     0.134 A 
ATOM     74  C   UNL     1      -1.418 -19.940   1.099  1.00  0.00     0.134 A 
ATOM     75  F   UNL     1      -1.096 -20.121  -2.514  1.00  0.00    -0.206 F 
ATOM     76  C   UNL     1      -2.817 -20.876  -1.109  1.00  0.00     0.040 A 
ATOM     77  C   UNL     1      -2.647 -20.578   1.273  1.00  0.00     0.040 A 
ATOM     78  F   UNL     1      -0.782 -19.496   2.193  1.00  0.00    -0.206 F 
ATOM     79  C   UNL     1      -3.354 -21.042   0.166  1.00  0.00     0.006 A 
ENDBRANCH  58  72
BRANCH  59  80
ATOM     80  C   UNL     1       7.825 -14.959  -1.290  1.00  0.00     0.057 A 
ATOM     81  C   UNL     1       8.859 -15.480  -2.077  1.00  0.00     0.134 A 
ATOM     82  C   UNL     1       8.072 -13.755  -0.618  1.00  0.00     0.134 A 
ATOM     83  F   UNL     1       8.694 -16.642  -2.726  1.00  0.00    -0.206 F 
ATOM     84  C   UNL     1      10.098 -14.844  -2.172  1.00  0.00     0.040 A 
ATOM     85  C   UNL     1       9.295 -13.093  -0.728  1.00  0.00     0.040 A 
ATOM     86  F   UNL     1       7.124 -13.202   0.152  1.00  0.00    -0.206 F 
ATOM     87  C   UNL     1      10.317 -13.642  -1.500  1.00  0.00     0.006 A 
ENDBRANCH  59  80
BRANCH  71  88
ATOM     88  C   UNL     1       6.045 -21.049   1.571  1.00  0.00     0.057 A 
ATOM     89  C   UNL     1       6.662 -20.847   2.813  1.00  0.00     0.134 A 
ATOM     90  C   UNL     1       6.209 -22.305   0.970  1.00  0.00     0.134 A 
ATOM     91  F   UNL     1       6.554 -19.666   3.441  1.00  0.00    -0.206 F 
ATOM     92  C   UNL     1       7.448 -21.835   3.410  1.00  0.00     0.040 A 
ATOM     93  C   UNL     1       6.963 -23.313   1.573  1.00  0.00     0.040 A 
ATOM     94  F   UNL     1       5.635 -22.575  -0.212  1.00  0.00    -0.206 F 
ATOM     95  C   UNL     1       7.596 -23.074   2.791  1.00  0.00     0.006 A 
ENDBRANCH  71  88
ENDBRANCH  45  46
ENDBRANCH  38  40
ENDBRANCH  37  38
ENDBRANCH  36  37
ENDBRANCH  35  36
ENDBRANCH  34  35
ENDBRANCH  33  34
ENDBRANCH  32  33
ENDBRANCH  31  32
ENDBRANCH   1  31
TORSDOF 23
