REMARK SMILES N#C/C(=C\c1ccc(-c2cc(C(F)(F)F)ccc2Cl)o1)C(=O)OCCOCCOCCOCCOC(=O)c1ccc(-c2c3nc(c(-c4c(F)cccc4F)c4ccc([nH]4)c(-c4c(F)cccc4F)c4nc(c(-c5c(F)cccc5F)c5ccc2[nH]5)C=C4)C=C3)cc1
REMARK SMILES IDX 28 1 27 2 26 3 25 4 24 5 23 6 21 7 22 8 3 9 4 10 2 11 1 12
REMARK SMILES IDX 5 13 6 14 20 15 7 16 8 17 9 18 10 19 18 20 11 21 17 22 19 23
REMARK SMILES IDX 16 24 12 25 13 26 14 27 15 28 29 29 30 30 31 31 32 32 33 33
REMARK SMILES IDX 34 34 35 35 36 36 37 37 38 38 39 39 91 40 40 41 90 42 41 43
REMARK SMILES IDX 42 44 43 45 84 46 44 47 89 48 83 49 85 50 45 51 88 52 82 53
REMARK SMILES IDX 81 54 46 56 72 57 55 58 71 59 56 60 59 61 70 62 86 63 57 64
REMARK SMILES IDX 58 65 69 67 87 68 60 69 47 70 48 71 53 72 49 73 50 74 52 75
REMARK SMILES IDX 54 76 51 77 73 78 74 79 79 80 75 81 76 82 78 83 80 84 77 85
REMARK SMILES IDX 61 86 62 87 67 88 63 89 64 90 66 91 68 92 65 93
REMARK H PARENT 85 55 59 66
REMARK Flexibility Score: inf
ROOT
ATOM      1  C   UNL     1       4.414   1.986   2.180  1.00  0.00     0.188 C 
ENDROOT
BRANCH   1   2
ATOM      2  C   UNL     1       3.807   0.949   3.148  1.00  0.00     0.188 C 
BRANCH   2   3
ATOM      3  O   UNL     1       4.625   0.294   4.099  1.00  0.00    -0.376 OA
BRANCH   3   4
ATOM      4  C   UNL     1       5.727  -0.554   3.812  1.00  0.00     0.202 C 
BRANCH   4   5
ATOM      5  C   UNL     1       6.046  -1.259   2.482  1.00  0.00     0.261 C 
BRANCH   5   6
ATOM      6  O   UNL     1       5.560  -0.620   1.313  1.00  0.00    -0.459 OA
BRANCH   6   7
ATOM      7  C   UNL     1       4.343  -1.049   0.932  1.00  0.00     0.349 C 
ATOM      8  O   UNL     1       3.764  -2.041   1.347  1.00  0.00    -0.245 OA
BRANCH   7   9
ATOM      9  C   UNL     1       3.711  -0.057   0.043  1.00  0.00     0.141 C 
ATOM     10  C   UNL     1       4.348   0.172  -1.135  1.00  0.00     0.074 C 
BRANCH   9  11
ATOM     11  C   UNL     1       2.191  -0.057   0.043  1.00  0.00     0.107 C 
ATOM     12  N   UNL     1       0.930  -0.057   0.043  1.00  0.00    -0.192 NA
ENDBRANCH   9  11
BRANCH  10  13
ATOM     13  C   UNL     1       3.645   0.550  -2.332  1.00  0.00     0.129 A 
ATOM     14  C   UNL     1       2.625   1.479  -2.519  1.00  0.00     0.051 A 
ATOM     15  O   UNL     1       3.864  -0.060  -3.564  1.00  0.00    -0.457 OA
ATOM     16  C   UNL     1       2.170   1.380  -3.850  1.00  0.00     0.051 A 
ATOM     17  C   UNL     1       2.974   0.451  -4.469  1.00  0.00     0.136 A 
BRANCH  17  18
ATOM     18  C   UNL     1       3.030  -0.021  -5.853  1.00  0.00     0.036 A 
ATOM     19  C   UNL     1       2.830  -1.383  -6.152  1.00  0.00     0.026 A 
ATOM     20  C   UNL     1       3.163   0.881  -6.927  1.00  0.00     0.052 A 
ATOM     21  C   UNL     1       2.729  -1.835  -7.489  1.00  0.00     0.056 A 
ATOM     22  C   UNL     1       3.072   0.440  -8.252  1.00  0.00     0.022 A 
ATOM     23  Cl  UNL     1       3.447   2.574  -6.693  1.00  0.00    -0.084 Cl
ATOM     24  C   UNL     1       2.849  -0.906  -8.532  1.00  0.00     0.014 A 
BRANCH  21  25
ATOM     25  C   UNL     1       2.470  -3.294  -7.798  1.00  0.00     0.416 C 
ATOM     26  F   UNL     1       3.462  -4.108  -7.348  1.00  0.00    -0.166 F 
ATOM     27  F   UNL     1       1.318  -3.750  -7.235  1.00  0.00    -0.166 F 
ATOM     28  F   UNL     1       2.355  -3.550  -9.133  1.00  0.00    -0.166 F 
ENDBRANCH  21  25
ENDBRANCH  17  18
ENDBRANCH  10  13
ENDBRANCH   7   9
ENDBRANCH   6   7
ENDBRANCH   5   6
ENDBRANCH   4   5
ENDBRANCH   3   4
ENDBRANCH   2   3
ENDBRANCH   1   2
BRANCH   1  29
ATOM     29  O   UNL     1       5.806   1.869   2.001  1.00  0.00    -0.377 OA
BRANCH  29  30
ATOM     30  C   UNL     1       6.633   2.555   2.931  1.00  0.00     0.188 C 
BRANCH  30  31
ATOM     31  C   UNL     1       6.081   2.976   4.315  1.00  0.00     0.188 C 
BRANCH  31  32
ATOM     32  O   UNL     1       4.729   3.405   4.341  1.00  0.00    -0.376 OA
BRANCH  32  33
ATOM     33  C   UNL     1       4.416   4.788   4.275  1.00  0.00     0.202 C 
BRANCH  33  34
ATOM     34  C   UNL     1       4.829   5.578   3.020  1.00  0.00     0.261 C 
BRANCH  34  35
ATOM     35  O   UNL     1       6.219   5.530   2.677  1.00  0.00    -0.460 OA
BRANCH  35  36
ATOM     36  C   UNL     1       7.093   5.998   3.592  1.00  0.00     0.338 C 
ATOM     37  O   UNL     1       6.834   6.508   4.669  1.00  0.00    -0.246 OA
BRANCH  36  38
ATOM     38  C   UNL     1       8.447   5.603   3.160  1.00  0.00     0.060 A 
ATOM     39  C   UNL     1       9.214   4.788   4.004  1.00  0.00     0.016 A 
ATOM     40  C   UNL     1       8.951   6.023   1.927  1.00  0.00     0.016 A 
ATOM     41  C   UNL     1      10.506   4.424   3.635  1.00  0.00     0.010 A 
ATOM     42  C   UNL     1      10.256   5.682   1.571  1.00  0.00     0.010 A 
ATOM     43  C   UNL     1      11.051   4.914   2.442  1.00  0.00    -0.014 A 
BRANCH  43  44
ATOM     44  C   UNL     1      12.511   4.816   2.216  1.00  0.00     0.031 A 
ATOM     45  C   UNL     1      13.360   6.007   2.563  1.00  0.00     0.074 A 
ATOM     46  C   UNL     1      13.075   3.693   1.742  1.00  0.00     0.049 A 
ATOM     47  N   UNL     1      14.645   6.189   2.402  1.00  0.00    -0.248 NA
ATOM     48  C   UNL     1      12.660   7.151   3.170  1.00  0.00     0.031 C 
ATOM     49  C   UNL     1      12.363   2.461   1.415  1.00  0.00     0.029 A 
ATOM     50  N   UNL     1      14.386   3.420   1.443  1.00  0.00    -0.354 N 
ATOM     51  C   UNL     1      14.905   7.466   2.884  1.00  0.00     0.074 A 
ATOM     52  C   UNL     1      13.641   8.028   3.305  1.00  0.00     0.031 C 
ATOM     53  C   UNL     1      13.245   1.565   0.936  1.00  0.00     0.029 A 
ATOM     54  C   UNL     1      14.574   2.175   0.894  1.00  0.00     0.049 A 
ATOM     55  H   UNL     1      15.121   4.054   1.606  1.00  0.00     0.167 HD
ATOM     56  C   UNL     1      16.093   8.108   2.978  1.00  0.00     0.037 A 
ATOM     57  C   UNL     1      15.687   1.610   0.388  1.00  0.00     0.037 A 
ATOM     58  C   UNL     1      17.346   7.550   2.544  1.00  0.00     0.049 A 
ATOM     59  C   UNL     1      16.985   2.377   0.420  1.00  0.00     0.074 A 
ATOM     60  C   UNL     1      18.606   8.117   2.594  1.00  0.00     0.029 A 
ATOM     61  N   UNL     1      17.492   6.297   1.966  1.00  0.00    -0.354 N 
ATOM     62  N   UNL     1      17.228   3.576   0.893  1.00  0.00    -0.248 NA
ATOM     63  C   UNL     1      18.165   1.708  -0.148  1.00  0.00     0.031 C 
ATOM     64  C   UNL     1      19.507   7.231   1.994  1.00  0.00     0.029 A 
ATOM     65  C   UNL     1      18.819   6.084   1.631  1.00  0.00     0.049 A 
ATOM     66  H   UNL     1      16.761   5.654   1.817  1.00  0.00     0.167 HD
ATOM     67  C   UNL     1      18.589   3.792   0.708  1.00  0.00     0.074 A 
ATOM     68  C   UNL     1      19.120   2.595   0.091  1.00  0.00     0.031 C 
ATOM     69  C   UNL     1      19.333   4.882   1.022  1.00  0.00     0.037 A 
BRANCH  56  70
ATOM     70  C   UNL     1      16.078   9.499   3.542  1.00  0.00     0.057 A 
ATOM     71  C   UNL     1      15.796   9.751   4.892  1.00  0.00     0.134 A 
ATOM     72  C   UNL     1      16.356  10.603   2.726  1.00  0.00     0.134 A 
ATOM     73  F   UNL     1      15.504   8.741   5.726  1.00  0.00    -0.206 F 
ATOM     74  C   UNL     1      15.760  11.050   5.402  1.00  0.00     0.040 A 
ATOM     75  C   UNL     1      16.354  11.904   3.231  1.00  0.00     0.040 A 
ATOM     76  F   UNL     1      16.635  10.435   1.425  1.00  0.00    -0.206 F 
ATOM     77  C   UNL     1      16.046  12.131   4.570  1.00  0.00     0.006 A 
ENDBRANCH  56  70
BRANCH  57  78
ATOM     78  C   UNL     1      15.621   0.256  -0.218  1.00  0.00     0.057 A 
ATOM     79  C   UNL     1      16.261  -0.840   0.371  1.00  0.00     0.134 A 
ATOM     80  C   UNL     1      14.929   0.029  -1.415  1.00  0.00     0.134 A 
ATOM     81  F   UNL     1      16.961  -0.684   1.504  1.00  0.00    -0.206 F 
ATOM     82  C   UNL     1      16.231  -2.107  -0.215  1.00  0.00     0.040 A 
ATOM     83  C   UNL     1      14.866  -1.238  -1.997  1.00  0.00     0.040 A 
ATOM     84  F   UNL     1      14.293   1.037  -2.031  1.00  0.00    -0.206 F 
ATOM     85  C   UNL     1      15.526  -2.309  -1.400  1.00  0.00     0.006 A 
ENDBRANCH  57  78
BRANCH  69  86
ATOM     86  C   UNL     1      20.809   4.818   0.744  1.00  0.00     0.057 A 
ATOM     87  C   UNL     1      21.325   4.844  -0.558  1.00  0.00     0.134 A 
ATOM     88  C   UNL     1      21.729   4.775   1.801  1.00  0.00     0.134 A 
ATOM     89  F   UNL     1      20.500   4.875  -1.616  1.00  0.00    -0.206 F 
ATOM     90  C   UNL     1      22.699   4.804  -0.800  1.00  0.00     0.040 A 
ATOM     91  C   UNL     1      23.106   4.766   1.573  1.00  0.00     0.040 A 
ATOM     92  F   UNL     1      21.305   4.760   3.074  1.00  0.00    -0.206 F 
ATOM     93  C   UNL     1      23.594   4.773   0.268  1.00  0.00     0.006 A 
ENDBRANCH  69  86
ENDBRANCH  43  44
ENDBRANCH  36  38
ENDBRANCH  35  36
ENDBRANCH  34  35
ENDBRANCH  33  34
ENDBRANCH  32  33
ENDBRANCH  31  32
ENDBRANCH  30  31
ENDBRANCH  29  30
ENDBRANCH   1  29
TORSDOF 24
