REMARK SMILES O=C(OCCOCCOCCOCCOC(=O)[C@H]1CC[C@@H]2CCCC[C@@H]2N1C(=O)NC1CC1)c1ccc(-c2c3nc(c(-c4c(F)cccc4F)c4ccc([nH]4)c(-c4c(F)cccc4F)c4nc(c(-c5c(F)cccc5F)c5ccc2[nH]5)C=C4)C=C3)cc1
REMARK SMILES IDX 9 1 8 2 7 3 6 4 5 5 4 6 3 7 2 8 1 9 34 10 35 11 87 12 36 13
REMARK SMILES IDX 86 14 37 15 38 16 39 17 80 18 40 19 85 20 79 21 81 22 41 23
REMARK SMILES IDX 84 24 78 25 77 26 42 28 68 29 51 30 67 31 52 32 55 33 66 34
REMARK SMILES IDX 82 35 53 36 54 37 65 39 83 40 56 41 43 42 44 43 49 44 45 45
REMARK SMILES IDX 46 46 48 47 50 48 47 49 69 50 70 51 75 52 71 53 72 54 74 55
REMARK SMILES IDX 76 56 73 57 57 58 58 59 63 60 59 61 60 62 62 63 64 64 61 65
REMARK SMILES IDX 10 66 11 67 12 68 13 69 14 70 15 71 16 72 17 73 18 74 19 75
REMARK SMILES IDX 27 76 20 77 26 78 21 79 25 80 22 81 24 82 23 83 28 84 29 85
REMARK SMILES IDX 30 86 31 88 32 89 33 90
REMARK H PARENT 81 27 55 38 30 87
REMARK Flexibility Score: inf
ROOT
ATOM      1  O   UNL     1       4.412   7.979  -1.244  1.00  0.00    -0.377 OA
ENDROOT
BRANCH   1   2
ATOM      2  C   UNL     1       5.405   8.685  -1.978  1.00  0.00     0.188 C 
BRANCH   2   3
ATOM      3  C   UNL     1       4.954   9.950  -2.667  1.00  0.00     0.188 C 
BRANCH   3   4
ATOM      4  O   UNL     1       3.739  10.381  -2.118  1.00  0.00    -0.376 OA
BRANCH   4   5
ATOM      5  C   UNL     1       2.550  10.481  -2.849  1.00  0.00     0.202 C 
BRANCH   5   6
ATOM      6  C   UNL     1       2.714  11.163  -4.190  1.00  0.00     0.261 C 
BRANCH   6   7
ATOM      7  O   UNL     1       3.238  12.520  -4.136  1.00  0.00    -0.460 OA
BRANCH   7   8
ATOM      8  C   UNL     1       4.461  12.841  -3.617  1.00  0.00     0.338 C 
ATOM      9  O   UNL     1       5.521  12.810  -4.206  1.00  0.00    -0.246 OA
BRANCH   8  10
ATOM     10  C   UNL     1       4.241  13.606  -2.365  1.00  0.00     0.060 A 
ATOM     11  C   UNL     1       3.847  12.940  -1.219  1.00  0.00     0.016 A 
ATOM     12  C   UNL     1       4.339  14.989  -2.320  1.00  0.00     0.016 A 
ATOM     13  C   UNL     1       3.189  13.572  -0.208  1.00  0.00     0.010 A 
ATOM     14  C   UNL     1       3.888  15.663  -1.174  1.00  0.00     0.010 A 
ATOM     15  C   UNL     1       3.223  14.949  -0.161  1.00  0.00    -0.014 A 
BRANCH  15  16
ATOM     16  C   UNL     1       2.369  15.556   0.869  1.00  0.00     0.031 A 
ATOM     17  C   UNL     1       1.151  16.283   0.394  1.00  0.00     0.074 A 
ATOM     18  C   UNL     1       2.540  15.223   2.164  1.00  0.00     0.049 A 
ATOM     19  N   UNL     1       0.283  16.974   1.075  1.00  0.00    -0.248 NA
ATOM     20  C   UNL     1       0.859  16.205  -1.052  1.00  0.00     0.031 C 
ATOM     21  C   UNL     1       3.571  14.310   2.683  1.00  0.00     0.029 A 
ATOM     22  N   UNL     1       1.815  15.555   3.274  1.00  0.00    -0.354 N 
ATOM     23  C   UNL     1      -0.621  17.455   0.138  1.00  0.00     0.074 A 
ATOM     24  C   UNL     1      -0.204  16.983  -1.160  1.00  0.00     0.031 C 
ATOM     25  C   UNL     1       3.387  14.134   3.999  1.00  0.00     0.029 A 
ATOM     26  C   UNL     1       2.314  15.014   4.434  1.00  0.00     0.049 A 
ATOM     27  H   UNL     1       1.014  16.127   3.245  1.00  0.00     0.167 HD
ATOM     28  C   UNL     1      -1.700  18.235   0.360  1.00  0.00     0.037 A 
ATOM     29  C   UNL     1       1.978  15.271   5.710  1.00  0.00     0.037 A 
ATOM     30  C   UNL     1      -2.074  18.667   1.675  1.00  0.00     0.049 A 
ATOM     31  C   UNL     1       0.876  16.271   5.929  1.00  0.00     0.074 A 
ATOM     32  C   UNL     1      -3.051  19.565   2.053  1.00  0.00     0.029 A 
ATOM     33  N   UNL     1      -1.471  18.205   2.840  1.00  0.00    -0.354 N 
ATOM     34  N   UNL     1       0.117  16.871   5.040  1.00  0.00    -0.248 NA
ATOM     35  C   UNL     1       0.598  16.652   7.316  1.00  0.00     0.031 C 
ATOM     36  C   UNL     1      -3.008  19.679   3.448  1.00  0.00     0.029 A 
ATOM     37  C   UNL     1      -2.046  18.807   3.941  1.00  0.00     0.049 A 
ATOM     38  H   UNL     1      -0.742  17.545   2.874  1.00  0.00     0.167 HD
ATOM     39  C   UNL     1      -0.739  17.691   5.759  1.00  0.00     0.074 A 
ATOM     40  C   UNL     1      -0.422  17.482   7.160  1.00  0.00     0.031 C 
ATOM     41  C   UNL     1      -1.691  18.549   5.315  1.00  0.00     0.037 A 
BRANCH  28  42
ATOM     42  C   UNL     1      -2.441  18.723  -0.847  1.00  0.00     0.057 A 
ATOM     43  C   UNL     1      -3.235  17.879  -1.634  1.00  0.00     0.134 A 
ATOM     44  C   UNL     1      -2.291  20.049  -1.271  1.00  0.00     0.134 A 
ATOM     45  F   UNL     1      -3.380  16.585  -1.311  1.00  0.00    -0.206 F 
ATOM     46  C   UNL     1      -3.834  18.331  -2.813  1.00  0.00     0.040 A 
ATOM     47  C   UNL     1      -2.904  20.519  -2.433  1.00  0.00     0.040 A 
ATOM     48  F   UNL     1      -1.525  20.904  -0.577  1.00  0.00    -0.206 F 
ATOM     49  C   UNL     1      -3.672  19.657  -3.212  1.00  0.00     0.006 A 
ENDBRANCH  28  42
BRANCH  29  50
ATOM     50  C   UNL     1       2.752  14.692   6.842  1.00  0.00     0.057 A 
ATOM     51  C   UNL     1       2.149  13.891   7.817  1.00  0.00     0.134 A 
ATOM     52  C   UNL     1       4.117  14.975   7.008  1.00  0.00     0.134 A 
ATOM     53  F   UNL     1       0.845  13.592   7.734  1.00  0.00    -0.206 F 
ATOM     54  C   UNL     1       2.860  13.424   8.927  1.00  0.00     0.040 A 
ATOM     55  C   UNL     1       4.848  14.486   8.091  1.00  0.00     0.040 A 
ATOM     56  F   UNL     1       4.767  15.736   6.114  1.00  0.00    -0.206 F 
ATOM     57  C   UNL     1       4.215  13.720   9.065  1.00  0.00     0.006 A 
ENDBRANCH  29  50
BRANCH  41  58
ATOM     58  C   UNL     1      -2.470  19.276   6.366  1.00  0.00     0.057 A 
ATOM     59  C   UNL     1      -1.900  20.299   7.133  1.00  0.00     0.134 A 
ATOM     60  C   UNL     1      -3.818  18.966   6.584  1.00  0.00     0.134 A 
ATOM     61  F   UNL     1      -0.608  20.628   6.977  1.00  0.00    -0.206 F 
ATOM     62  C   UNL     1      -2.637  20.968   8.107  1.00  0.00     0.040 A 
ATOM     63  C   UNL     1      -4.574  19.653   7.530  1.00  0.00     0.040 A 
ATOM     64  F   UNL     1      -4.421  18.004   5.870  1.00  0.00    -0.206 F 
ATOM     65  C   UNL     1      -3.981  20.650   8.302  1.00  0.00     0.006 A 
ENDBRANCH  41  58
ENDBRANCH  15  16
ENDBRANCH   8  10
ENDBRANCH   7   8
ENDBRANCH   6   7
ENDBRANCH   5   6
ENDBRANCH   4   5
ENDBRANCH   3   4
ENDBRANCH   2   3
ENDBRANCH   1   2
BRANCH   1  66
ATOM     66  C   UNL     1       3.608   8.620  -0.246  1.00  0.00     0.188 C 
BRANCH  66  67
ATOM     67  C   UNL     1       4.214   9.648   0.735  1.00  0.00     0.188 C 
BRANCH  67  68
ATOM     68  O   UNL     1       5.517  10.110   0.400  1.00  0.00    -0.376 OA
BRANCH  68  69
ATOM     69  C   UNL     1       6.542   9.661   1.275  1.00  0.00     0.202 C 
BRANCH  69  70
ATOM     70  C   UNL     1       7.274   8.355   0.906  1.00  0.00     0.261 C 
BRANCH  70  71
ATOM     71  O   UNL     1       6.600   7.172   0.419  1.00  0.00    -0.462 OA
BRANCH  71  72
ATOM     72  C   UNL     1       5.510   6.645   1.018  1.00  0.00     0.329 C 
ATOM     73  O   UNL     1       4.761   7.251   1.792  1.00  0.00    -0.250 OA
BRANCH  72  74
ATOM     74  C   UNL     1       5.219   5.193   0.654  1.00  0.00     0.197 C 
ATOM     75  C   UNL     1       4.516   5.231  -0.709  1.00  0.00     0.038 C 
ATOM     76  N   UNL     1       6.398   4.319   0.673  1.00  0.00    -0.308 N 
ATOM     77  C   UNL     1       4.179   3.865  -1.231  1.00  0.00     0.008 C 
ATOM     78  C   UNL     1       6.374   3.071  -0.150  1.00  0.00     0.091 C 
ATOM     79  C   UNL     1       5.474   3.086  -1.421  1.00  0.00     0.012 C 
ATOM     80  C   UNL     1       6.136   1.808   0.712  1.00  0.00     0.025 C 
ATOM     81  C   UNL     1       5.142   1.671  -1.912  1.00  0.00     0.006 C 
ATOM     82  C   UNL     1       4.769   1.148   0.561  1.00  0.00     0.002 C 
ATOM     83  C   UNL     1       4.343   0.879  -0.882  1.00  0.00     0.000 C 
BRANCH  76  84
ATOM     84  C   UNL     1       7.399   4.427   1.649  1.00  0.00     0.318 C 
ATOM     85  O   UNL     1       8.388   3.689   1.653  1.00  0.00    -0.249 OA
ATOM     86  N   UNL     1       7.442   5.550   2.444  1.00  0.00    -0.335 N 
ATOM     87  H   UNL     1       7.884   6.329   2.035  1.00  0.00     0.165 HD
BRANCH  86  88
ATOM     88  C   UNL     1       6.939   5.769   3.791  1.00  0.00     0.084 C 
ATOM     89  C   UNL     1       6.442   7.173   4.123  1.00  0.00     0.027 C 
ATOM     90  C   UNL     1       5.536   5.995   4.281  1.00  0.00     0.027 C 
ENDBRANCH  86  88
ENDBRANCH  76  84
ENDBRANCH  72  74
ENDBRANCH  71  72
ENDBRANCH  70  71
ENDBRANCH  69  70
ENDBRANCH  68  69
ENDBRANCH  67  68
ENDBRANCH  66  67
ENDBRANCH   1  66
TORSDOF 22
