REMARK SMILES CC1(C)CSC[C@H]([NH2+][C@H](C(=O)OCCOCCOCCOCCOC(=O)c2ccc(-c3c4nc(c(-c5c(F)cccc5F)c5ccc([nH]5)c(-c5c(F)cccc5F)c5nc(c(-c6c(F)cccc6F)c6ccc3[nH]6)C=C5)C=C4)cc2)c2ccccc2)C1
REMARK SMILES IDX 18 1 17 2 16 3 15 4 14 5 13 6 12 7 10 8 11 9 9 10 8 11 7 14
REMARK SMILES IDX 1 15 2 16 3 17 4 18 87 19 5 20 6 21 81 22 82 23 86 24 83 25
REMARK SMILES IDX 85 26 84 27 19 28 20 29 21 30 22 31 23 32 24 33 25 34 26 35
REMARK SMILES IDX 27 36 28 37 80 38 29 39 79 40 30 41 31 42 32 43 73 44 33 45
REMARK SMILES IDX 78 46 72 47 74 48 34 49 77 50 71 51 70 52 35 54 61 55 44 56
REMARK SMILES IDX 60 57 45 58 48 59 59 60 75 61 46 62 47 63 58 65 76 66 49 67
REMARK SMILES IDX 36 68 37 69 42 70 38 71 39 72 41 73 43 74 40 75 62 76 63 77
REMARK SMILES IDX 68 78 64 79 65 80 67 81 69 82 66 83 50 84 51 85 56 86 52 87
REMARK SMILES IDX 53 88 55 89 57 90 54 91
REMARK H PARENT 8 12 8 13 74 53 48 64
REMARK Flexibility Score: inf
ROOT
ATOM      1  O   UNL     1       1.673  -2.055  -0.567  1.00  0.00    -0.377 OA
ENDROOT
BRANCH   1   2
ATOM      2  C   UNL     1       0.977  -1.348  -1.585  1.00  0.00     0.188 C 
BRANCH   2   3
ATOM      3  C   UNL     1      -0.570  -1.341  -1.682  1.00  0.00     0.188 C 
BRANCH   3   4
ATOM      4  O   UNL     1      -1.209  -2.296  -0.852  1.00  0.00    -0.376 OA
BRANCH   4   5
ATOM      5  C   UNL     1      -1.796  -3.426  -1.472  1.00  0.00     0.202 C 
BRANCH   5   6
ATOM      6  C   UNL     1      -0.844  -4.377  -2.208  1.00  0.00     0.261 C 
BRANCH   6   7
ATOM      7  O   UNL     1       0.044  -3.745  -3.139  1.00  0.00    -0.459 OA
BRANCH   7   8
ATOM      8  C   UNL     1      -0.514  -3.180  -4.251  1.00  0.00     0.369 C 
ATOM      9  O   UNL     1      -1.690  -3.300  -4.566  1.00  0.00    -0.245 OA
BRANCH   8  10
ATOM     10  C   UNL     1       0.573  -2.358  -4.998  1.00  0.00     0.325 C 
BRANCH  10  11
ATOM     11  N   UNL     1       1.029  -3.182  -6.125  1.00  0.00    -0.328 N 
ATOM     12  H   UNL     1       1.754  -3.808  -5.775  1.00  0.00     0.347 HD
ATOM     13  H   UNL     1       0.189  -3.645  -6.471  1.00  0.00     0.347 HD
BRANCH  11  14
ATOM     14  C   UNL     1       1.576  -2.481  -7.280  1.00  0.00     0.193 C 
ATOM     15  C   UNL     1       0.819  -0.581  -9.594  1.00  0.00     0.012 C 
ATOM     16  C   UNL     1       0.827  -2.118  -9.717  1.00  0.00    -0.021 C 
ATOM     17  C   UNL     1      -0.330  -2.516 -10.656  1.00  0.00     0.012 C 
ATOM     18  C   UNL     1       2.160  -2.648 -10.274  1.00  0.00     0.076 C 
ATOM     19  C   UNL     1       0.553  -2.796  -8.371  1.00  0.00     0.073 C 
ATOM     20  S   UNL     1       3.606  -2.297  -9.214  1.00  0.00    -0.155 SA
ATOM     21  C   UNL     1       2.993  -2.962  -7.633  1.00  0.00     0.134 C 
ENDBRANCH  11  14
ENDBRANCH  10  11
BRANCH  10  22
ATOM     22  C   UNL     1       0.140  -0.910  -5.256  1.00  0.00     0.021 A 
ATOM     23  C   UNL     1       0.860   0.152  -4.668  1.00  0.00     0.010 A 
ATOM     24  C   UNL     1      -0.953  -0.580  -6.068  1.00  0.00     0.010 A 
ATOM     25  C   UNL     1       0.491   1.485  -4.869  1.00  0.00     0.001 A 
ATOM     26  C   UNL     1      -1.289   0.756  -6.314  1.00  0.00     0.001 A 
ATOM     27  C   UNL     1      -0.575   1.787  -5.708  1.00  0.00     0.000 A 
ENDBRANCH  10  22
ENDBRANCH   8  10
ENDBRANCH   7   8
ENDBRANCH   6   7
ENDBRANCH   5   6
ENDBRANCH   4   5
ENDBRANCH   3   4
ENDBRANCH   2   3
ENDBRANCH   1   2
BRANCH   1  28
ATOM     28  C   UNL     1       1.006  -2.328   0.651  1.00  0.00     0.188 C 
BRANCH  28  29
ATOM     29  C   UNL     1       0.272  -1.163   1.347  1.00  0.00     0.188 C 
BRANCH  29  30
ATOM     30  O   UNL     1       0.169   0.010   0.558  1.00  0.00    -0.376 OA
BRANCH  30  31
ATOM     31  C   UNL     1       0.969   1.133   0.872  1.00  0.00     0.202 C 
BRANCH  31  32
ATOM     32  C   UNL     1       2.498   0.996   0.831  1.00  0.00     0.261 C 
BRANCH  32  33
ATOM     33  O   UNL     1       3.055  -0.170   1.448  1.00  0.00    -0.460 OA
BRANCH  33  34
ATOM     34  C   UNL     1       2.986  -0.249   2.791  1.00  0.00     0.338 C 
ATOM     35  O   UNL     1       2.493   0.563   3.558  1.00  0.00    -0.246 OA
BRANCH  34  36
ATOM     36  C   UNL     1       3.441  -1.600   3.169  1.00  0.00     0.060 A 
ATOM     37  C   UNL     1       2.543  -2.471   3.803  1.00  0.00     0.016 A 
ATOM     38  C   UNL     1       4.736  -2.018   2.856  1.00  0.00     0.016 A 
ATOM     39  C   UNL     1       2.940  -3.765   4.128  1.00  0.00     0.010 A 
ATOM     40  C   UNL     1       5.148  -3.300   3.223  1.00  0.00     0.010 A 
ATOM     41  C   UNL     1       4.259  -4.166   3.883  1.00  0.00    -0.014 A 
BRANCH  41  42
ATOM     42  C   UNL     1       4.773  -5.389   4.535  1.00  0.00     0.031 A 
ATOM     43  C   UNL     1       5.464  -5.234   5.860  1.00  0.00     0.074 A 
ATOM     44  C   UNL     1       4.615  -6.603   3.982  1.00  0.00     0.049 A 
ATOM     45  N   UNL     1       6.044  -6.135   6.607  1.00  0.00    -0.248 NA
ATOM     46  C   UNL     1       5.508  -3.870   6.414  1.00  0.00     0.031 C 
ATOM     47  C   UNL     1       3.917  -6.881   2.730  1.00  0.00     0.029 A 
ATOM     48  N   UNL     1       5.044  -7.833   4.412  1.00  0.00    -0.354 N 
ATOM     49  C   UNL     1       6.529  -5.447   7.712  1.00  0.00     0.074 A 
ATOM     50  C   UNL     1       6.202  -4.051   7.526  1.00  0.00     0.031 C 
ATOM     51  C   UNL     1       3.977  -8.202   2.483  1.00  0.00     0.029 A 
ATOM     52  C   UNL     1       4.747  -8.853   3.542  1.00  0.00     0.049 A 
ATOM     53  H   UNL     1       5.520  -7.971   5.263  1.00  0.00     0.167 HD
ATOM     54  C   UNL     1       7.185  -5.937   8.789  1.00  0.00     0.037 A 
ATOM     55  C   UNL     1       5.085 -10.156   3.591  1.00  0.00     0.037 A 
ATOM     56  C   UNL     1       7.515  -7.326   8.962  1.00  0.00     0.049 A 
ATOM     57  C   UNL     1       5.894 -10.664   4.758  1.00  0.00     0.074 A 
ATOM     58  C   UNL     1       8.162  -7.931  10.024  1.00  0.00     0.029 A 
ATOM     59  N   UNL     1       7.233  -8.324   8.041  1.00  0.00    -0.354 N 
ATOM     60  N   UNL     1       6.325 -10.015   5.814  1.00  0.00    -0.248 NA
ATOM     61  C   UNL     1       6.261 -12.087   4.741  1.00  0.00     0.031 C 
ATOM     62  C   UNL     1       8.330  -9.284   9.716  1.00  0.00     0.029 A 
ATOM     63  C   UNL     1       7.725  -9.536   8.495  1.00  0.00     0.049 A 
ATOM     64  H   UNL     1       6.755  -8.190   7.191  1.00  0.00     0.167 HD
ATOM     65  C   UNL     1       6.982 -10.956   6.600  1.00  0.00     0.074 A 
ATOM     66  C   UNL     1       6.881 -12.222   5.904  1.00  0.00     0.031 C 
ATOM     67  C   UNL     1       7.608 -10.790   7.792  1.00  0.00     0.037 A 
BRANCH  54  68
ATOM     68  C   UNL     1       7.625  -4.956   9.835  1.00  0.00     0.057 A 
ATOM     69  C   UNL     1       6.712  -4.296  10.669  1.00  0.00     0.134 A 
ATOM     70  C   UNL     1       8.985  -4.677  10.018  1.00  0.00     0.134 A 
ATOM     71  F   UNL     1       5.393  -4.501  10.532  1.00  0.00    -0.206 F 
ATOM     72  C   UNL     1       7.136  -3.377  11.630  1.00  0.00     0.040 A 
ATOM     73  C   UNL     1       9.422  -3.784  10.996  1.00  0.00     0.040 A 
ATOM     74  F   UNL     1       9.912  -5.273   9.252  1.00  0.00    -0.206 F 
ATOM     75  C   UNL     1       8.496  -3.125  11.801  1.00  0.00     0.006 A 
ENDBRANCH  54  68
BRANCH  55  76
ATOM     76  C   UNL     1       4.676 -11.077   2.499  1.00  0.00     0.057 A 
ATOM     77  C   UNL     1       3.760 -12.111   2.726  1.00  0.00     0.134 A 
ATOM     78  C   UNL     1       5.214 -10.967   1.211  1.00  0.00     0.134 A 
ATOM     79  F   UNL     1       3.227 -12.284   3.945  1.00  0.00    -0.206 F 
ATOM     80  C   UNL     1       3.409 -13.013   1.721  1.00  0.00     0.040 A 
ATOM     81  C   UNL     1       4.852 -11.845   0.188  1.00  0.00     0.040 A 
ATOM     82  F   UNL     1       6.099 -10.000   0.926  1.00  0.00    -0.206 F 
ATOM     83  C   UNL     1       3.953 -12.878   0.445  1.00  0.00     0.006 A 
ENDBRANCH  55  76
BRANCH  67  84
ATOM     84  C   UNL     1       8.191 -12.011   8.445  1.00  0.00     0.057 A 
ATOM     85  C   UNL     1       9.327 -12.655   7.941  1.00  0.00     0.134 A 
ATOM     86  C   UNL     1       7.632 -12.519   9.626  1.00  0.00     0.134 A 
ATOM     87  F   UNL     1       9.907 -12.227   6.809  1.00  0.00    -0.206 F 
ATOM     88  C   UNL     1       9.870 -13.777   8.572  1.00  0.00     0.040 A 
ATOM     89  C   UNL     1       8.184 -13.618  10.284  1.00  0.00     0.040 A 
ATOM     90  F   UNL     1       6.550 -11.942  10.171  1.00  0.00    -0.206 F 
ATOM     91  C   UNL     1       9.303 -14.255   9.752  1.00  0.00     0.006 A 
ENDBRANCH  67  84
ENDBRANCH  41  42
ENDBRANCH  34  36
ENDBRANCH  33  34
ENDBRANCH  32  33
ENDBRANCH  31  32
ENDBRANCH  30  31
ENDBRANCH  29  30
ENDBRANCH  28  29
ENDBRANCH   1  28
TORSDOF 23
