REMARK SMILES CC(C)(C)c1cc2c(cc1Cl)C=C(C(=O)OCCOCCOCCOCCOC(=O)c1ccc(-c3c4nc(c(-c5c(F)cccc5F)c5ccc([nH]5)c(-c5c(F)cccc5F)c5nc(c(-c6c(F)cccc6F)c6ccc3[nH]6)C=C5)C=C4)cc1)[C@@H](C(F)(F)F)O2
REMARK SMILES IDX 23 1 22 2 21 3 20 4 19 5 18 6 17 7 16 8 14 9 15 10 13 11
REMARK SMILES IDX 5 12 6 13 10 14 7 15 9 16 11 17 8 18 90 19 12 20 85 21 2 22
REMARK SMILES IDX 1 23 3 24 4 25 86 26 87 27 88 28 89 29 24 30 25 31 26 32
REMARK SMILES IDX 27 33 28 34 29 35 30 36 31 37 32 38 84 39 33 40 83 41 34 42
REMARK SMILES IDX 35 43 36 44 77 45 37 46 82 47 76 48 78 49 38 50 81 51 75 52
REMARK SMILES IDX 74 53 39 55 65 56 48 57 64 58 49 59 52 60 63 61 79 62 50 63
REMARK SMILES IDX 51 64 62 66 80 67 53 68 40 69 41 70 46 71 42 72 43 73 45 74
REMARK SMILES IDX 47 75 44 76 66 77 67 78 72 79 68 80 69 81 71 82 73 83 70 84
REMARK SMILES IDX 54 85 55 86 60 87 56 88 57 89 59 90 61 91 58 92
REMARK H PARENT 78 54 52 65
REMARK Flexibility Score: inf
ROOT
ATOM      1  C   UNL     1       6.630  -1.519  -8.964  1.00  0.00     0.188 C 
ENDROOT
BRANCH   1   2
ATOM      2  O   UNL     1       5.415  -1.402  -8.224  1.00  0.00    -0.377 OA
BRANCH   2   3
ATOM      3  C   UNL     1       5.001  -2.516  -7.451  1.00  0.00     0.188 C 
BRANCH   3   4
ATOM      4  C   UNL     1       4.328  -3.622  -8.283  1.00  0.00     0.188 C 
BRANCH   4   5
ATOM      5  O   UNL     1       4.474  -3.438  -9.692  1.00  0.00    -0.376 OA
BRANCH   5   6
ATOM      6  C   UNL     1       3.327  -2.980 -10.398  1.00  0.00     0.202 C 
BRANCH   6   7
ATOM      7  C   UNL     1       2.958  -1.505 -10.184  1.00  0.00     0.261 C 
BRANCH   7   8
ATOM      8  O   UNL     1       2.658  -1.157  -8.824  1.00  0.00    -0.460 OA
BRANCH   8   9
ATOM      9  C   UNL     1       1.575  -1.735  -8.269  1.00  0.00     0.338 C 
ATOM     10  O   UNL     1       0.766  -2.456  -8.825  1.00  0.00    -0.246 OA
BRANCH   9  11
ATOM     11  C   UNL     1       1.616  -1.482  -6.814  1.00  0.00     0.087 C 
ATOM     12  C   UNL     1       1.050  -1.760  -1.799  1.00  0.00    -0.020 A 
ATOM     13  C   UNL     1       1.474  -0.769  -2.719  1.00  0.00     0.053 A 
ATOM     14  C   UNL     1       0.897  -3.063  -2.325  1.00  0.00     0.045 A 
ATOM     15  C   UNL     1       1.626  -1.026  -4.086  1.00  0.00     0.128 A 
ATOM     16  C   UNL     1       1.073  -3.323  -3.695  1.00  0.00     0.032 A 
ATOM     17  Cl  UNL     1       0.414  -4.444  -1.402  1.00  0.00    -0.084 Cl
ATOM     18  C   UNL     1       1.382  -2.297  -4.583  1.00  0.00     0.019 A 
ATOM     19  O   UNL     1       1.978   0.039  -4.863  1.00  0.00    -0.475 OA
ATOM     20  C   UNL     1       1.370  -2.529  -6.016  1.00  0.00     0.027 C 
ATOM     21  C   UNL     1       1.984  -0.110  -6.311  1.00  0.00     0.316 C 
BRANCH  12  22
ATOM     22  C   UNL     1       0.655  -1.342  -0.358  1.00  0.00    -0.012 C 
ATOM     23  C   UNL     1       1.092   0.103   0.013  1.00  0.00     0.016 C 
ATOM     24  C   UNL     1       1.257  -2.239   0.746  1.00  0.00     0.016 C 
ATOM     25  C   UNL     1      -0.889  -1.365  -0.268  1.00  0.00     0.016 C 
ENDBRANCH  12  22
BRANCH  21  26
ATOM     26  C   UNL     1       1.090   0.986  -6.909  1.00  0.00     0.430 C 
ATOM     27  F   UNL     1       1.405   2.207  -6.412  1.00  0.00    -0.167 F 
ATOM     28  F   UNL     1       1.217   1.074  -8.254  1.00  0.00    -0.167 F 
ATOM     29  F   UNL     1      -0.219   0.768  -6.643  1.00  0.00    -0.167 F 
ENDBRANCH  21  26
ENDBRANCH   9  11
ENDBRANCH   8   9
ENDBRANCH   7   8
ENDBRANCH   6   7
ENDBRANCH   5   6
ENDBRANCH   4   5
ENDBRANCH   3   4
ENDBRANCH   2   3
ENDBRANCH   1   2
BRANCH   1  30
ATOM     30  C   UNL     1       7.284  -2.886  -9.269  1.00  0.00     0.188 C 
BRANCH  30  31
ATOM     31  O   UNL     1       7.335  -3.768  -8.151  1.00  0.00    -0.376 OA
BRANCH  31  32
ATOM     32  C   UNL     1       8.621  -4.031  -7.606  1.00  0.00     0.202 C 
BRANCH  32  33
ATOM     33  C   UNL     1       9.120  -2.926  -6.671  1.00  0.00     0.261 C 
BRANCH  33  34
ATOM     34  O   UNL     1       9.312  -1.647  -7.294  1.00  0.00    -0.460 OA
BRANCH  34  35
ATOM     35  C   UNL     1      10.196  -1.564  -8.313  1.00  0.00     0.338 C 
ATOM     36  O   UNL     1      10.901  -2.451  -8.758  1.00  0.00    -0.246 OA
BRANCH  35  37
ATOM     37  C   UNL     1      10.012  -0.235  -8.931  1.00  0.00     0.060 A 
ATOM     38  C   UNL     1      10.014   0.911  -8.132  1.00  0.00     0.016 A 
ATOM     39  C   UNL     1       9.774  -0.144 -10.308  1.00  0.00     0.016 A 
ATOM     40  C   UNL     1       9.791   2.156  -8.716  1.00  0.00     0.010 A 
ATOM     41  C   UNL     1       9.544   1.106 -10.891  1.00  0.00     0.010 A 
ATOM     42  C   UNL     1       9.568   2.264 -10.099  1.00  0.00    -0.014 A 
BRANCH  42  43
ATOM     43  C   UNL     1       9.531   3.609 -10.715  1.00  0.00     0.031 A 
ATOM     44  C   UNL     1       8.244   4.301 -11.040  1.00  0.00     0.074 A 
ATOM     45  C   UNL     1      10.707   4.220 -10.945  1.00  0.00     0.049 A 
ATOM     46  N   UNL     1       8.056   5.530 -11.449  1.00  0.00    -0.248 NA
ATOM     47  C   UNL     1       7.012   3.516 -10.892  1.00  0.00     0.031 C 
ATOM     48  C   UNL     1      12.023   3.630 -10.688  1.00  0.00     0.029 A 
ATOM     49  N   UNL     1      10.988   5.471 -11.429  1.00  0.00    -0.354 N 
ATOM     50  C   UNL     1       6.683   5.681 -11.583  1.00  0.00     0.074 A 
ATOM     51  C   UNL     1       6.090   4.398 -11.258  1.00  0.00     0.031 C 
ATOM     52  C   UNL     1      12.971   4.527 -10.995  1.00  0.00     0.029 A 
ATOM     53  C   UNL     1      12.332   5.745 -11.481  1.00  0.00     0.049 A 
ATOM     54  H   UNL     1      10.295   6.109 -11.711  1.00  0.00     0.167 HD
ATOM     55  C   UNL     1       5.987   6.793 -11.928  1.00  0.00     0.037 A 
ATOM     56  C   UNL     1      12.977   6.860 -11.868  1.00  0.00     0.037 A 
ATOM     57  C   UNL     1       6.589   8.057 -12.277  1.00  0.00     0.049 A 
ATOM     58  C   UNL     1      12.181   8.058 -12.295  1.00  0.00     0.074 A 
ATOM     59  C   UNL     1       5.966   9.251 -12.601  1.00  0.00     0.029 A 
ATOM     60  N   UNL     1       7.955   8.287 -12.369  1.00  0.00    -0.354 N 
ATOM     61  N   UNL     1      10.880   8.217 -12.329  1.00  0.00    -0.248 NA
ATOM     62  C   UNL     1      12.945   9.235 -12.727  1.00  0.00     0.031 C 
ATOM     63  C   UNL     1       6.953  10.187 -12.936  1.00  0.00     0.029 A 
ATOM     64  C   UNL     1       8.193   9.591 -12.776  1.00  0.00     0.049 A 
ATOM     65  H   UNL     1       8.653   7.621 -12.173  1.00  0.00     0.167 HD
ATOM     66  C   UNL     1      10.670   9.518 -12.764  1.00  0.00     0.074 A 
ATOM     67  C   UNL     1      11.978  10.110 -12.961  1.00  0.00     0.031 C 
ATOM     68  C   UNL     1       9.499  10.165 -12.981  1.00  0.00     0.037 A 
BRANCH  55  69
ATOM     69  C   UNL     1       4.489   6.693 -11.947  1.00  0.00     0.057 A 
ATOM     70  C   UNL     1       3.778   6.745 -13.152  1.00  0.00     0.134 A 
ATOM     71  C   UNL     1       3.746   6.599 -10.762  1.00  0.00     0.134 A 
ATOM     72  F   UNL     1       4.426   6.846 -14.322  1.00  0.00    -0.206 F 
ATOM     73  C   UNL     1       2.382   6.708 -13.179  1.00  0.00     0.040 A 
ATOM     74  C   UNL     1       2.351   6.538 -10.778  1.00  0.00     0.040 A 
ATOM     75  F   UNL     1       4.365   6.543  -9.574  1.00  0.00    -0.206 F 
ATOM     76  C   UNL     1       1.665   6.598 -11.989  1.00  0.00     0.006 A 
ENDBRANCH  55  69
BRANCH  56  77
ATOM     77  C   UNL     1      14.458   6.902 -11.841  1.00  0.00     0.057 A 
ATOM     78  C   UNL     1      15.223   6.163 -12.751  1.00  0.00     0.134 A 
ATOM     79  C   UNL     1      15.142   7.692 -10.911  1.00  0.00     0.134 A 
ATOM     80  F   UNL     1      14.624   5.380 -13.661  1.00  0.00    -0.206 F 
ATOM     81  C   UNL     1      16.617   6.205 -12.735  1.00  0.00     0.040 A 
ATOM     82  C   UNL     1      16.535   7.763 -10.899  1.00  0.00     0.040 A 
ATOM     83  F   UNL     1      14.460   8.433 -10.025  1.00  0.00    -0.206 F 
ATOM     84  C   UNL     1      17.276   7.015 -11.812  1.00  0.00     0.006 A 
ENDBRANCH  56  77
BRANCH  68  85
ATOM     85  C   UNL     1       9.590  11.592 -13.441  1.00  0.00     0.057 A 
ATOM     86  C   UNL     1       9.251  12.645 -12.582  1.00  0.00     0.134 A 
ATOM     87  C   UNL     1      10.020  11.924 -14.733  1.00  0.00     0.134 A 
ATOM     88  F   UNL     1       8.828  12.397 -11.333  1.00  0.00    -0.206 F 
ATOM     89  C   UNL     1       9.340  13.977 -12.990  1.00  0.00     0.040 A 
ATOM     90  C   UNL     1      10.139  13.253 -15.143  1.00  0.00     0.040 A 
ATOM     91  F   UNL     1      10.379  10.964 -15.598  1.00  0.00    -0.206 F 
ATOM     92  C   UNL     1       9.794  14.284 -14.271  1.00  0.00     0.006 A 
ENDBRANCH  68  85
ENDBRANCH  42  43
ENDBRANCH  35  37
ENDBRANCH  34  35
ENDBRANCH  33  34
ENDBRANCH  32  33
ENDBRANCH  31  32
ENDBRANCH  30  31
ENDBRANCH   1  30
TORSDOF 22
