REMARK SMILES Cc1ccc(/[NH+]=C2/S[C@@H](CC(=O)Nc3ccc(C(=O)OCCOCCOCCOCCOC(=O)c4ccc(-c5c6nc(c(-c7c(F)cccc7F)c7ccc([nH]7)c(-c7c(F)cccc7F)c7nc(c(-c8c(F)cccc8F)c8ccc5[nH]8)C=C7)C=C6)cc4)cc3)C(=O)N2C)cc1
REMARK SMILES IDX 25 1 24 2 23 3 22 4 21 5 20 6 18 7 19 8 17 9 14 10 15 11
REMARK SMILES IDX 90 12 16 13 89 14 13 15 11 16 12 17 10 19 9 20 6 21 7 22
REMARK SMILES IDX 8 24 93 25 91 26 94 27 92 28 5 29 1 30 2 31 3 32 96 33 4 34
REMARK SMILES IDX 95 35 26 36 27 37 28 38 29 39 30 40 31 41 32 42 33 43 34 44
REMARK SMILES IDX 35 45 36 46 88 47 37 48 87 49 38 50 39 51 40 52 81 53 41 54
REMARK SMILES IDX 86 55 80 56 82 57 42 58 85 59 79 60 78 61 43 63 69 64 52 65
REMARK SMILES IDX 68 66 53 67 56 68 67 69 83 70 54 71 55 72 66 74 84 75 57 76
REMARK SMILES IDX 44 77 45 78 50 79 46 80 47 81 49 82 51 83 48 84 70 85 71 86
REMARK SMILES IDX 76 87 72 88 73 89 75 90 77 91 74 92 58 93 59 94 64 95 60 96
REMARK SMILES IDX 61 97 63 98 65 99 62 100
REMARK H PARENT 13 18 6 23 82 62 56 73
REMARK Flexibility Score: inf
ROOT
ATOM      1  C   UNL     1      -1.730   6.754   0.083  1.00  0.00     0.188 C 
ENDROOT
BRANCH   1   2
ATOM      2  C   UNL     1      -2.530   7.258   1.274  1.00  0.00     0.188 C 
BRANCH   2   3
ATOM      3  O   UNL     1      -1.813   7.971   2.285  1.00  0.00    -0.376 OA
BRANCH   3   4
ATOM      4  C   UNL     1      -1.528   7.182   3.434  1.00  0.00     0.202 C 
BRANCH   4   5
ATOM      5  C   UNL     1      -2.691   6.976   4.401  1.00  0.00     0.261 C 
BRANCH   5   6
ATOM      6  O   UNL     1      -3.802   6.359   3.762  1.00  0.00    -0.460 OA
BRANCH   6   7
ATOM      7  C   UNL     1      -4.864   7.143   3.541  1.00  0.00     0.338 C 
ATOM      8  O   UNL     1      -5.116   8.227   4.059  1.00  0.00    -0.246 OA
BRANCH   7   9
ATOM      9  C   UNL     1      -5.526   6.610   2.336  1.00  0.00     0.060 A 
ATOM     10  C   UNL     1      -6.483   5.739  -0.155  1.00  0.00     0.041 A 
ATOM     11  C   UNL     1      -5.949   4.827   0.753  1.00  0.00     0.027 A 
ATOM     12  C   UNL     1      -6.424   7.107   0.158  1.00  0.00     0.027 A 
ATOM     13  C   UNL     1      -5.499   5.250   2.006  1.00  0.00     0.018 A 
ATOM     14  C   UNL     1      -5.964   7.541   1.398  1.00  0.00     0.018 A 
BRANCH  10  15
ATOM     15  N   UNL     1      -7.113   5.423  -1.368  1.00  0.00    -0.326 N 
ATOM     16  C   UNL     1      -7.557   4.278  -1.954  1.00  0.00     0.226 C 
ATOM     17  O   UNL     1      -8.150   4.383  -3.035  1.00  0.00    -0.275 OA
ATOM     18  H   UNL     1      -7.271   6.217  -1.928  1.00  0.00     0.169 HD
BRANCH  16  19
ATOM     19  C   UNL     1      -7.371   2.906  -1.358  1.00  0.00     0.128 C 
BRANCH  19  20
ATOM     20  C   UNL     1      -6.207   2.171  -2.019  1.00  0.00     0.183 C 
ATOM     21  N   UNL     1      -3.301  -0.083  -1.065  1.00  0.00    -0.235 N 
ATOM     22  C   UNL     1      -4.031   0.956  -1.271  1.00  0.00     0.319 C 
ATOM     23  H   UNL     1      -3.826  -0.870  -0.792  1.00  0.00     0.313 HD
ATOM     24  S   UNL     1      -5.767   0.667  -1.112  1.00  0.00    -0.022 SA
ATOM     25  N   UNL     1      -3.833   2.273  -1.578  1.00  0.00    -0.193 N 
ATOM     26  C   UNL     1      -4.917   2.956  -2.103  1.00  0.00     0.324 C 
ATOM     27  C   UNL     1      -2.664   3.080  -1.331  1.00  0.00     0.301 C 
ATOM     28  O   UNL     1      -4.830   4.062  -2.631  1.00  0.00    -0.245 OA
BRANCH  21  29
ATOM     29  C   UNL     1      -1.933  -0.346  -1.140  1.00  0.00     0.125 A 
ATOM     30  C   UNL     1       2.297  -1.267  -0.801  1.00  0.00     0.044 C 
ATOM     31  C   UNL     1       0.823  -1.071  -1.033  1.00  0.00    -0.051 A 
ATOM     32  C   UNL     1      -0.103  -1.691  -0.194  1.00  0.00     0.008 A 
ATOM     33  C   UNL     1       0.340  -0.193  -2.019  1.00  0.00     0.008 A 
ATOM     34  C   UNL     1      -1.454  -1.325  -0.252  1.00  0.00     0.052 A 
ATOM     35  C   UNL     1      -1.030   0.157  -2.078  1.00  0.00     0.052 A 
ENDBRANCH  21  29
ENDBRANCH  19  20
ENDBRANCH  16  19
ENDBRANCH  10  15
ENDBRANCH   7   9
ENDBRANCH   6   7
ENDBRANCH   5   6
ENDBRANCH   4   5
ENDBRANCH   3   4
ENDBRANCH   2   3
ENDBRANCH   1   2
BRANCH   1  36
ATOM     36  O   UNL     1      -1.105   5.501   0.380  1.00  0.00    -0.377 OA
BRANCH  36  37
ATOM     37  C   UNL     1       0.274   5.511   0.046  1.00  0.00     0.188 C 
BRANCH  37  38
ATOM     38  C   UNL     1       1.059   6.249   1.104  1.00  0.00     0.188 C 
BRANCH  38  39
ATOM     39  O   UNL     1       0.900   7.650   1.212  1.00  0.00    -0.376 OA
BRANCH  39  40
ATOM     40  C   UNL     1       1.619   8.498   0.328  1.00  0.00     0.202 C 
BRANCH  40  41
ATOM     41  C   UNL     1       3.054   8.056  -0.001  1.00  0.00     0.261 C 
BRANCH  41  42
ATOM     42  O   UNL     1       3.796   7.902   1.233  1.00  0.00    -0.460 OA
BRANCH  42  43
ATOM     43  C   UNL     1       4.338   6.674   1.481  1.00  0.00     0.338 C 
ATOM     44  O   UNL     1       4.854   5.951   0.643  1.00  0.00    -0.246 OA
BRANCH  43  45
ATOM     45  C   UNL     1       3.838   6.174   2.813  1.00  0.00     0.060 A 
ATOM     46  C   UNL     1       3.817   4.789   3.055  1.00  0.00     0.016 A 
ATOM     47  C   UNL     1       3.007   6.995   3.568  1.00  0.00     0.016 A 
ATOM     48  C   UNL     1       2.796   4.220   3.845  1.00  0.00     0.010 A 
ATOM     49  C   UNL     1       1.968   6.416   4.287  1.00  0.00     0.010 A 
ATOM     50  C   UNL     1       1.779   5.024   4.348  1.00  0.00    -0.014 A 
BRANCH  50  51
ATOM     51  C   UNL     1       0.430   4.555   4.786  1.00  0.00     0.031 A 
ATOM     52  C   UNL     1      -0.084   5.038   6.098  1.00  0.00     0.074 A 
ATOM     53  C   UNL     1      -0.437   4.026   3.873  1.00  0.00     0.049 A 
ATOM     54  N   UNL     1      -1.258   4.803   6.564  1.00  0.00    -0.248 NA
ATOM     55  C   UNL     1       0.675   5.911   6.987  1.00  0.00     0.031 C 
ATOM     56  C   UNL     1      -1.914   3.898   3.863  1.00  0.00     0.029 A 
ATOM     57  N   UNL     1      -0.127   3.420   2.653  1.00  0.00    -0.354 N 
ATOM     58  C   UNL     1      -1.559   5.774   7.507  1.00  0.00     0.074 A 
ATOM     59  C   UNL     1      -0.277   6.351   7.819  1.00  0.00     0.031 C 
ATOM     60  C   UNL     1      -2.314   3.034   2.911  1.00  0.00     0.029 A 
ATOM     61  C   UNL     1      -1.101   2.403   2.489  1.00  0.00     0.049 A 
ATOM     62  H   UNL     1       0.609   3.650   2.040  1.00  0.00     0.167 HD
ATOM     63  C   UNL     1      -2.882   6.052   7.761  1.00  0.00     0.037 A 
ATOM     64  C   UNL     1      -0.741   1.111   2.737  1.00  0.00     0.037 A 
ATOM     65  C   UNL     1      -3.771   5.065   7.088  1.00  0.00     0.049 A 
ATOM     66  C   UNL     1      -1.532   0.617   3.963  1.00  0.00     0.074 A 
ATOM     67  C   UNL     1      -4.922   5.099   6.317  1.00  0.00     0.029 A 
ATOM     68  N   UNL     1      -3.366   3.731   7.051  1.00  0.00    -0.354 N 
ATOM     69  N   UNL     1      -2.021   1.432   4.882  1.00  0.00    -0.248 NA
ATOM     70  C   UNL     1      -2.045  -0.736   4.161  1.00  0.00     0.031 C 
ATOM     71  C   UNL     1      -5.151   3.789   5.781  1.00  0.00     0.029 A 
ATOM     72  C   UNL     1      -4.160   2.943   6.257  1.00  0.00     0.049 A 
ATOM     73  H   UNL     1      -2.588   3.388   7.547  1.00  0.00     0.167 HD
ATOM     74  C   UNL     1      -3.041   0.832   5.578  1.00  0.00     0.074 A 
ATOM     75  C   UNL     1      -2.897  -0.567   5.197  1.00  0.00     0.031 C 
ATOM     76  C   UNL     1      -3.989   1.497   6.330  1.00  0.00     0.037 A 
BRANCH  63  77
ATOM     77  C   UNL     1      -3.427   7.305   8.476  1.00  0.00     0.057 A 
ATOM     78  C   UNL     1      -4.813   7.460   8.722  1.00  0.00     0.134 A 
ATOM     79  C   UNL     1      -2.675   8.427   8.888  1.00  0.00     0.134 A 
ATOM     80  F   UNL     1      -5.690   6.487   8.448  1.00  0.00    -0.206 F 
ATOM     81  C   UNL     1      -5.388   8.618   9.282  1.00  0.00     0.040 A 
ATOM     82  C   UNL     1      -3.231   9.568   9.503  1.00  0.00     0.040 A 
ATOM     83  F   UNL     1      -1.358   8.520   8.696  1.00  0.00    -0.206 F 
ATOM     84  C   UNL     1      -4.596   9.676   9.689  1.00  0.00     0.006 A 
ENDBRANCH  63  77
BRANCH  64  85
ATOM     85  C   UNL     1       0.628   0.934   2.110  1.00  0.00     0.057 A 
ATOM     86  C   UNL     1       0.712   1.450   0.783  1.00  0.00     0.134 A 
ATOM     87  C   UNL     1       1.857   0.845   2.747  1.00  0.00     0.134 A 
ATOM     88  F   UNL     1      -0.419   1.646   0.107  1.00  0.00    -0.206 F 
ATOM     89  C   UNL     1       1.849   2.003   0.190  1.00  0.00     0.040 A 
ATOM     90  C   UNL     1       3.041   1.352   2.138  1.00  0.00     0.040 A 
ATOM     91  F   UNL     1       1.942   0.433   4.019  1.00  0.00    -0.206 F 
ATOM     92  C   UNL     1       3.027   1.992   0.893  1.00  0.00     0.006 A 
ENDBRANCH  64  85
BRANCH  76  93
ATOM     93  C   UNL     1      -4.812   0.833   7.405  1.00  0.00     0.057 A 
ATOM     94  C   UNL     1      -5.398  -0.420   7.294  1.00  0.00     0.134 A 
ATOM     95  C   UNL     1      -4.981   1.472   8.662  1.00  0.00     0.134 A 
ATOM     96  F   UNL     1      -5.547  -1.011   6.101  1.00  0.00    -0.206 F 
ATOM     97  C   UNL     1      -5.878  -1.100   8.419  1.00  0.00     0.040 A 
ATOM     98  C   UNL     1      -5.504   0.829   9.776  1.00  0.00     0.040 A 
ATOM     99  F   UNL     1      -4.630   2.744   8.890  1.00  0.00    -0.206 F 
ATOM    100  C   UNL     1      -5.889  -0.491   9.672  1.00  0.00     0.006 A 
ENDBRANCH  76  93
ENDBRANCH  50  51
ENDBRANCH  43  45
ENDBRANCH  42  43
ENDBRANCH  41  42
ENDBRANCH  40  41
ENDBRANCH  39  40
ENDBRANCH  38  39
ENDBRANCH  37  38
ENDBRANCH  36  37
ENDBRANCH   1  36
TORSDOF 24
