REMARK SMILES O=C(OCCOCCOCCOCCOC(=O)[C@H]1[C@H]2CC[C@H](CC2)[C@@H]1C(=O)Nc1ccc(Cc2ccncc2)cc1)c1ccc(-c2c3nc(c(-c4c(F)cccc4F)c4ccc([nH]4)c(-c4c(F)cccc4F)c4nc(c(-c5c(F)cccc5F)c5ccc2[nH]5)C=C4)C=C3)cc1
REMARK SMILES IDX 10 1 9 2 8 3 7 4 6 5 5 6 4 7 3 8 2 9 1 10 42 11 43 12 95 13
REMARK SMILES IDX 44 14 94 15 45 16 46 17 47 18 88 19 48 20 93 21 87 22 89 23
REMARK SMILES IDX 49 24 92 25 86 26 85 27 50 29 76 30 59 31 75 32 60 33 63 34
REMARK SMILES IDX 74 35 90 36 61 37 62 38 73 40 91 41 64 42 51 43 52 44 57 45
REMARK SMILES IDX 53 46 54 47 56 48 58 49 55 50 77 51 78 52 83 53 79 54 80 55
REMARK SMILES IDX 82 56 84 57 81 58 65 59 66 60 71 61 67 62 68 63 70 64 72 65
REMARK SMILES IDX 69 66 11 67 12 68 13 69 14 70 15 71 16 72 17 73 18 74 19 75
REMARK SMILES IDX 25 76 24 77 20 78 22 79 23 80 21 81 26 82 27 83 28 84 29 86
REMARK SMILES IDX 30 87 41 88 31 89 40 90 32 91 33 92 34 93 35 94 39 95 36 96
REMARK SMILES IDX 38 97 37 98
REMARK H PARENT 89 28 63 39 28 85
REMARK Flexibility Score: inf
ROOT
ATOM      1  C   UNL     1       4.126  -1.357  -2.690  1.00  0.00     0.188 C 
ENDROOT
BRANCH   1   2
ATOM      2  O   UNL     1       3.047  -2.275  -2.680  1.00  0.00    -0.377 OA
BRANCH   2   3
ATOM      3  C   UNL     1       1.761  -1.952  -2.170  1.00  0.00     0.188 C 
BRANCH   3   4
ATOM      4  C   UNL     1       1.653  -0.901  -1.081  1.00  0.00     0.188 C 
BRANCH   4   5
ATOM      5  O   UNL     1       2.844  -0.786  -0.331  1.00  0.00    -0.376 OA
BRANCH   5   6
ATOM      6  C   UNL     1       3.050  -1.661   0.751  1.00  0.00     0.202 C 
BRANCH   6   7
ATOM      7  C   UNL     1       3.375  -0.771   1.952  1.00  0.00     0.261 C 
BRANCH   7   8
ATOM      8  O   UNL     1       2.301   0.143   2.266  1.00  0.00    -0.460 OA
BRANCH   8   9
ATOM      9  C   UNL     1       1.813   1.100   1.434  1.00  0.00     0.338 C 
ATOM     10  O   UNL     1       0.597   1.269   1.355  1.00  0.00    -0.246 OA
BRANCH   9  11
ATOM     11  C   UNL     1       2.701   2.113   0.771  1.00  0.00     0.060 A 
ATOM     12  C   UNL     1       3.856   1.838   0.031  1.00  0.00     0.016 A 
ATOM     13  C   UNL     1       2.242   3.439   0.792  1.00  0.00     0.016 A 
ATOM     14  C   UNL     1       4.529   2.838  -0.679  1.00  0.00     0.010 A 
ATOM     15  C   UNL     1       2.922   4.450   0.103  1.00  0.00     0.010 A 
ATOM     16  C   UNL     1       4.080   4.154  -0.630  1.00  0.00    -0.014 A 
BRANCH  16  17
ATOM     17  C   UNL     1       4.940   5.248  -1.139  1.00  0.00     0.031 A 
ATOM     18  C   UNL     1       5.685   6.061  -0.121  1.00  0.00     0.074 A 
ATOM     19  C   UNL     1       5.098   5.493  -2.452  1.00  0.00     0.049 A 
ATOM     20  N   UNL     1       6.324   7.191  -0.257  1.00  0.00    -0.248 NA
ATOM     21  C   UNL     1       5.692   5.519   1.248  1.00  0.00     0.031 C 
ATOM     22  C   UNL     1       4.534   4.699  -3.541  1.00  0.00     0.029 A 
ATOM     23  N   UNL     1       5.784   6.498  -3.089  1.00  0.00    -0.354 N 
ATOM     24  C   UNL     1       6.759   7.524   1.020  1.00  0.00     0.074 A 
ATOM     25  C   UNL     1       6.307   6.482   1.914  1.00  0.00     0.031 C 
ATOM     26  C   UNL     1       4.889   5.253  -4.714  1.00  0.00     0.029 A 
ATOM     27  C   UNL     1       5.648   6.475  -4.457  1.00  0.00     0.049 A 
ATOM     28  H   UNL     1       6.322   7.170  -2.612  1.00  0.00     0.167 HD
ATOM     29  C   UNL     1       7.468   8.608   1.410  1.00  0.00     0.037 A 
ATOM     30  C   UNL     1       6.053   7.369  -5.382  1.00  0.00     0.037 A 
ATOM     31  C   UNL     1       7.934   9.618   0.500  1.00  0.00     0.049 A 
ATOM     32  C   UNL     1       6.775   8.613  -4.923  1.00  0.00     0.074 A 
ATOM     33  C   UNL     1       8.639  10.774   0.777  1.00  0.00     0.029 A 
ATOM     34  N   UNL     1       7.745   9.579  -0.875  1.00  0.00    -0.354 N 
ATOM     35  N   UNL     1       7.122   8.969  -3.708  1.00  0.00    -0.248 NA
ATOM     36  C   UNL     1       7.148   9.586  -5.960  1.00  0.00     0.031 C 
ATOM     37  C   UNL     1       8.836  11.458  -0.427  1.00  0.00     0.029 A 
ATOM     38  C   UNL     1       8.308  10.698  -1.460  1.00  0.00     0.049 A 
ATOM     39  H   UNL     1       7.279   8.861  -1.361  1.00  0.00     0.167 HD
ATOM     40  C   UNL     1       7.776  10.188  -3.836  1.00  0.00     0.074 A 
ATOM     41  C   UNL     1       7.786  10.506  -5.250  1.00  0.00     0.031 C 
ATOM     42  C   UNL     1       8.319  10.977  -2.875  1.00  0.00     0.037 A 
BRANCH  29  43
ATOM     43  C   UNL     1       7.705   8.774   2.883  1.00  0.00     0.057 A 
ATOM     44  C   UNL     1       8.550   7.923   3.609  1.00  0.00     0.134 A 
ATOM     45  C   UNL     1       7.035   9.777   3.595  1.00  0.00     0.134 A 
ATOM     46  F   UNL     1       9.204   6.928   2.992  1.00  0.00    -0.206 F 
ATOM     47  C   UNL     1       8.684   8.036   4.994  1.00  0.00     0.040 A 
ATOM     48  C   UNL     1       7.188   9.922   4.975  1.00  0.00     0.040 A 
ATOM     49  F   UNL     1       6.211  10.627   2.964  1.00  0.00    -0.206 F 
ATOM     50  C   UNL     1       8.004   9.040   5.680  1.00  0.00     0.006 A 
ENDBRANCH  29  43
BRANCH  30  51
ATOM     51  C   UNL     1       5.751   7.152  -6.823  1.00  0.00     0.057 A 
ATOM     52  C   UNL     1       6.771   6.930  -7.757  1.00  0.00     0.134 A 
ATOM     53  C   UNL     1       4.437   7.183  -7.308  1.00  0.00     0.134 A 
ATOM     54  F   UNL     1       8.053   6.917  -7.366  1.00  0.00    -0.206 F 
ATOM     55  C   UNL     1       6.497   6.759  -9.117  1.00  0.00     0.040 A 
ATOM     56  C   UNL     1       4.146   6.985  -8.660  1.00  0.00     0.040 A 
ATOM     57  F   UNL     1       3.411   7.399  -6.472  1.00  0.00    -0.206 F 
ATOM     58  C   UNL     1       5.180   6.778  -9.570  1.00  0.00     0.006 A 
ENDBRANCH  30  51
BRANCH  42  59
ATOM     59  C   UNL     1       9.021  12.227  -3.321  1.00  0.00     0.057 A 
ATOM     60  C   UNL     1       8.323  13.347  -3.788  1.00  0.00     0.134 A 
ATOM     61  C   UNL     1      10.415  12.329  -3.213  1.00  0.00     0.134 A 
ATOM     62  F   UNL     1       6.989  13.309  -3.923  1.00  0.00    -0.206 F 
ATOM     63  C   UNL     1       8.988  14.519  -4.149  1.00  0.00     0.040 A 
ATOM     64  C   UNL     1      11.087  13.506  -3.543  1.00  0.00     0.040 A 
ATOM     65  F   UNL     1      11.141  11.296  -2.762  1.00  0.00    -0.206 F 
ATOM     66  C   UNL     1      10.373  14.604  -4.018  1.00  0.00     0.006 A 
ENDBRANCH  42  59
ENDBRANCH  16  17
ENDBRANCH   9  11
ENDBRANCH   8   9
ENDBRANCH   7   8
ENDBRANCH   6   7
ENDBRANCH   5   6
ENDBRANCH   4   5
ENDBRANCH   3   4
ENDBRANCH   2   3
ENDBRANCH   1   2
BRANCH   1  67
ATOM     67  C   UNL     1       4.647  -0.855  -4.040  1.00  0.00     0.188 C 
BRANCH  67  68
ATOM     68  O   UNL     1       3.829   0.090  -4.713  1.00  0.00    -0.376 OA
BRANCH  68  69
ATOM     69  C   UNL     1       2.548  -0.363  -5.139  1.00  0.00     0.202 C 
BRANCH  69  70
ATOM     70  C   UNL     1       2.494  -1.697  -5.910  1.00  0.00     0.261 C 
BRANCH  70  71
ATOM     71  O   UNL     1       2.893  -2.829  -5.100  1.00  0.00    -0.463 OA
BRANCH  71  72
ATOM     72  C   UNL     1       3.833  -3.661  -5.630  1.00  0.00     0.310 C 
ATOM     73  O   UNL     1       4.121  -3.652  -6.816  1.00  0.00    -0.252 OA
BRANCH  72  74
ATOM     74  C   UNL     1       4.611  -4.475  -4.551  1.00  0.00     0.115 C 
ATOM     75  C   UNL     1       3.737  -5.248  -3.514  1.00  0.00     0.004 C 
ATOM     76  C   UNL     1       5.545  -5.483  -5.268  1.00  0.00     0.096 C 
ATOM     77  C   UNL     1       2.699  -6.089  -4.255  1.00  0.00     0.005 C 
ATOM     78  C   UNL     1       4.603  -6.239  -2.692  1.00  0.00     0.005 C 
ATOM     79  C   UNL     1       4.959  -6.917  -5.064  1.00  0.00     0.002 C 
ATOM     80  C   UNL     1       3.425  -6.918  -5.322  1.00  0.00     0.005 C 
ATOM     81  C   UNL     1       5.183  -7.327  -3.603  1.00  0.00     0.005 C 
BRANCH  76  82
ATOM     82  C   UNL     1       7.081  -5.432  -5.003  1.00  0.00     0.228 C 
ATOM     83  O   UNL     1       7.771  -6.429  -5.252  1.00  0.00    -0.274 OA
ATOM     84  N   UNL     1       7.737  -4.232  -4.891  1.00  0.00    -0.326 N 
ATOM     85  H   UNL     1       8.268  -3.980  -5.681  1.00  0.00     0.169 HD
BRANCH  84  86
ATOM     86  C   UNL     1       7.778  -3.299  -3.834  1.00  0.00     0.041 A 
ATOM     87  C   UNL     1       8.280  -2.024  -4.116  1.00  0.00     0.026 A 
ATOM     88  C   UNL     1       7.380  -3.578  -2.529  1.00  0.00     0.026 A 
ATOM     89  C   UNL     1       8.180  -0.990  -3.175  1.00  0.00     0.006 A 
ATOM     90  C   UNL     1       7.301  -2.551  -1.573  1.00  0.00     0.006 A 
ATOM     91  C   UNL     1       7.593  -1.225  -1.926  1.00  0.00    -0.043 A 
BRANCH  91  92
ATOM     92  C   UNL     1       7.003  -0.076  -1.137  1.00  0.00     0.071 C 
BRANCH  92  93
ATOM     93  C   UNL     1       7.791   0.620  -0.067  1.00  0.00    -0.041 A 
ATOM     94  C   UNL     1       8.805   1.525  -0.384  1.00  0.00     0.024 A 
ATOM     95  C   UNL     1       7.400   0.510   1.273  1.00  0.00     0.024 A 
ATOM     96  C   UNL     1       9.367   2.278   0.639  1.00  0.00     0.111 A 
ATOM     97  C   UNL     1       8.016   1.309   2.222  1.00  0.00     0.111 A 
ATOM     98  N   UNL     1       8.991   2.192   1.933  1.00  0.00    -0.265 NA
ENDBRANCH  92  93
ENDBRANCH  91  92
ENDBRANCH  84  86
ENDBRANCH  76  82
ENDBRANCH  72  74
ENDBRANCH  71  72
ENDBRANCH  70  71
ENDBRANCH  69  70
ENDBRANCH  68  69
ENDBRANCH  67  68
ENDBRANCH   1  67
TORSDOF 24
