REMARK SMILES Cc1cccc(C(=O)OCCOCCOCCOCCOC(=O)c2ccc(-c3c4nc(c(-c5c(F)cccc5F)c5ccc([nH]5)c(-c5c(F)cccc5F)c5nc(c(-c6c(F)cccc6F)c6ccc3[nH]6)C=C5)C=C4)cc2)c1OC[C@@H]1C[C@H]2CC[C@@H]1C2
REMARK SMILES IDX 14 1 13 2 12 3 11 4 10 5 9 6 7 7 8 8 6 9 1 10 2 11 3 12
REMARK SMILES IDX 78 13 4 14 5 15 79 16 80 17 81 18 82 19 86 20 83 21 85 22
REMARK SMILES IDX 87 23 84 24 15 25 16 26 17 27 18 28 19 29 20 30 21 31 22 32
REMARK SMILES IDX 23 33 24 34 25 35 77 36 26 37 76 38 27 39 28 40 29 41 70 42
REMARK SMILES IDX 30 43 75 44 69 45 71 46 31 47 74 48 68 49 67 50 32 52 58 53
REMARK SMILES IDX 41 54 57 55 42 56 45 57 56 58 72 59 43 60 44 61 55 63 73 64
REMARK SMILES IDX 46 65 33 66 34 67 39 68 35 69 36 70 38 71 40 72 37 73 59 74
REMARK SMILES IDX 60 75 65 76 61 77 62 78 64 79 66 80 63 81 47 82 48 83 53 84
REMARK SMILES IDX 49 85 50 86 52 87 54 88 51 89
REMARK H PARENT 71 51 45 62
REMARK Flexibility Score: inf
ROOT
ATOM      1  C   UNL     1      -1.334   1.202  -2.746  1.00  0.00     0.188 C 
ENDROOT
BRANCH   1   2
ATOM      2  C   UNL     1      -2.720   0.718  -2.271  1.00  0.00     0.188 C 
BRANCH   2   3
ATOM      3  O   UNL     1      -3.786   1.649  -2.132  1.00  0.00    -0.376 OA
BRANCH   3   4
ATOM      4  C   UNL     1      -3.696   2.526  -1.008  1.00  0.00     0.202 C 
BRANCH   4   5
ATOM      5  C   UNL     1      -3.436   1.869   0.340  1.00  0.00     0.261 C 
BRANCH   5   6
ATOM      6  O   UNL     1      -2.045   1.537   0.403  1.00  0.00    -0.460 OA
BRANCH   6   7
ATOM      7  C   UNL     1      -1.714   0.642   1.355  1.00  0.00     0.342 C 
ATOM      8  O   UNL     1      -2.307   0.393   2.381  1.00  0.00    -0.246 OA
BRANCH   7   9
ATOM      9  C   UNL     1      -0.869  -0.365   0.693  1.00  0.00     0.102 A 
ATOM     10  C   UNL     1       2.208  -1.225  -1.427  1.00  0.00     0.048 C 
ATOM     11  C   UNL     1       0.971  -1.209  -0.580  1.00  0.00    -0.008 A 
ATOM     12  C   UNL     1       0.288  -2.461  -0.616  1.00  0.00     0.007 A 
ATOM     13  C   UNL     1       0.407  -0.131   0.125  1.00  0.00     0.136 A 
ATOM     14  C   UNL     1      -0.973  -2.647  -0.075  1.00  0.00     0.001 A 
ATOM     15  C   UNL     1      -1.559  -1.588   0.571  1.00  0.00     0.019 A 
BRANCH  13  16
ATOM     16  O   UNL     1       0.853   1.149   0.262  1.00  0.00    -0.492 OA
BRANCH  16  17
ATOM     17  C   UNL     1       2.199   1.639   0.202  1.00  0.00     0.233 C 
BRANCH  17  18
ATOM     18  C   UNL     1       2.988   1.257   1.451  1.00  0.00     0.030 C 
ATOM     19  C   UNL     1       4.039   2.269   1.961  1.00  0.00     0.011 C 
ATOM     20  C   UNL     1       3.852  -0.022   1.307  1.00  0.00    -0.004 C 
ATOM     21  C   UNL     1       5.187   1.347   2.426  1.00  0.00    -0.010 C 
ATOM     22  C   UNL     1       3.869  -0.677   2.686  1.00  0.00     0.004 C 
ATOM     23  C   UNL     1       5.301   0.465   1.193  1.00  0.00     0.007 C 
ATOM     24  C   UNL     1       4.696   0.336   3.494  1.00  0.00     0.004 C 
ENDBRANCH  17  18
ENDBRANCH  16  17
ENDBRANCH  13  16
ENDBRANCH   7   9
ENDBRANCH   6   7
ENDBRANCH   5   6
ENDBRANCH   4   5
ENDBRANCH   3   4
ENDBRANCH   2   3
ENDBRANCH   1   2
BRANCH   1  25
ATOM     25  O   UNL     1      -0.783   2.330  -2.094  1.00  0.00    -0.377 OA
BRANCH  25  26
ATOM     26  C   UNL     1      -0.667   3.548  -2.817  1.00  0.00     0.188 C 
BRANCH  26  27
ATOM     27  C   UNL     1      -1.225   3.691  -4.212  1.00  0.00     0.188 C 
BRANCH  27  28
ATOM     28  O   UNL     1      -2.611   3.388  -4.160  1.00  0.00    -0.376 OA
BRANCH  28  29
ATOM     29  C   UNL     1      -3.161   2.846  -5.351  1.00  0.00     0.202 C 
BRANCH  29  30
ATOM     30  C   UNL     1      -2.987   3.781  -6.551  1.00  0.00     0.261 C 
BRANCH  30  31
ATOM     31  O   UNL     1      -3.701   5.013  -6.304  1.00  0.00    -0.460 OA
BRANCH  31  32
ATOM     32  C   UNL     1      -2.944   6.063  -5.876  1.00  0.00     0.338 C 
ATOM     33  O   UNL     1      -1.913   6.447  -6.407  1.00  0.00    -0.246 OA
BRANCH  32  34
ATOM     34  C   UNL     1      -3.365   6.481  -4.500  1.00  0.00     0.060 A 
ATOM     35  C   UNL     1      -2.574   7.370  -3.751  1.00  0.00     0.016 A 
ATOM     36  C   UNL     1      -4.306   5.709  -3.840  1.00  0.00     0.016 A 
ATOM     37  C   UNL     1      -2.568   7.307  -2.341  1.00  0.00     0.010 A 
ATOM     38  C   UNL     1      -4.205   5.582  -2.466  1.00  0.00     0.010 A 
ATOM     39  C   UNL     1      -3.292   6.317  -1.687  1.00  0.00    -0.014 A 
BRANCH  39  40
ATOM     40  C   UNL     1      -3.144   5.884  -0.264  1.00  0.00     0.031 A 
ATOM     41  C   UNL     1      -4.425   5.627   0.501  1.00  0.00     0.074 A 
ATOM     42  C   UNL     1      -1.968   5.368   0.216  1.00  0.00     0.049 A 
ATOM     43  N   UNL     1      -4.501   4.986   1.613  1.00  0.00    -0.248 NA
ATOM     44  C   UNL     1      -5.764   5.998   0.028  1.00  0.00     0.031 C 
ATOM     45  C   UNL     1      -1.817   4.396   1.305  1.00  0.00     0.029 A 
ATOM     46  N   UNL     1      -0.627   5.540  -0.174  1.00  0.00    -0.354 N 
ATOM     47  C   UNL     1      -5.794   4.551   1.806  1.00  0.00     0.074 A 
ATOM     48  C   UNL     1      -6.559   5.262   0.819  1.00  0.00     0.031 C 
ATOM     49  C   UNL     1      -0.533   4.133   1.581  1.00  0.00     0.029 A 
ATOM     50  C   UNL     1       0.192   5.182   0.930  1.00  0.00     0.049 A 
ATOM     51  H   UNL     1      -0.313   5.853  -1.053  1.00  0.00     0.167 HD
ATOM     52  C   UNL     1      -6.011   3.551   2.713  1.00  0.00     0.037 A 
ATOM     53  C   UNL     1       0.918   6.115   1.607  1.00  0.00     0.037 A 
ATOM     54  C   UNL     1      -4.818   3.336   3.547  1.00  0.00     0.049 A 
ATOM     55  C   UNL     1       0.366   6.212   3.021  1.00  0.00     0.074 A 
ATOM     56  C   UNL     1      -4.036   2.244   3.865  1.00  0.00     0.029 A 
ATOM     57  N   UNL     1      -4.151   4.444   4.081  1.00  0.00    -0.354 N 
ATOM     58  N   UNL     1      -0.908   6.059   3.320  1.00  0.00    -0.248 NA
ATOM     59  C   UNL     1       1.226   6.149   4.203  1.00  0.00     0.031 C 
ATOM     60  C   UNL     1      -2.806   2.731   4.407  1.00  0.00     0.029 A 
ATOM     61  C   UNL     1      -2.889   4.112   4.527  1.00  0.00     0.049 A 
ATOM     62  H   UNL     1      -4.535   5.349   4.131  1.00  0.00     0.167 HD
ATOM     63  C   UNL     1      -1.014   5.691   4.639  1.00  0.00     0.074 A 
ATOM     64  C   UNL     1       0.339   5.834   5.164  1.00  0.00     0.031 C 
ATOM     65  C   UNL     1      -2.082   5.086   5.247  1.00  0.00     0.037 A 
BRANCH  52  66
ATOM     66  C   UNL     1      -7.232   2.638   2.780  1.00  0.00     0.057 A 
ATOM     67  C   UNL     1      -7.406   1.749   3.866  1.00  0.00     0.134 A 
ATOM     68  C   UNL     1      -8.201   2.488   1.767  1.00  0.00     0.134 A 
ATOM     69  F   UNL     1      -6.577   1.762   4.919  1.00  0.00    -0.206 F 
ATOM     70  C   UNL     1      -8.435   0.793   3.931  1.00  0.00     0.040 A 
ATOM     71  C   UNL     1      -9.269   1.572   1.846  1.00  0.00     0.040 A 
ATOM     72  F   UNL     1      -8.144   3.180   0.624  1.00  0.00    -0.206 F 
ATOM     73  C   UNL     1      -9.383   0.710   2.925  1.00  0.00     0.006 A 
ENDBRANCH  52  66
BRANCH  53  74
ATOM     74  C   UNL     1       1.480   7.102   0.631  1.00  0.00     0.057 A 
ATOM     75  C   UNL     1       2.412   6.536  -0.277  1.00  0.00     0.134 A 
ATOM     76  C   UNL     1       0.680   8.136   0.131  1.00  0.00     0.134 A 
ATOM     77  F   UNL     1       3.248   5.570   0.138  1.00  0.00    -0.206 F 
ATOM     78  C   UNL     1       2.333   6.764  -1.657  1.00  0.00     0.040 A 
ATOM     79  C   UNL     1       0.640   8.412  -1.248  1.00  0.00     0.040 A 
ATOM     80  F   UNL     1      -0.226   8.736   0.915  1.00  0.00    -0.206 F 
ATOM     81  C   UNL     1       1.396   7.662  -2.152  1.00  0.00     0.006 A 
ENDBRANCH  53  74
BRANCH  65  82
ATOM     82  C   UNL     1      -2.473   5.378   6.678  1.00  0.00     0.057 A 
ATOM     83  C   UNL     1      -1.980   6.480   7.388  1.00  0.00     0.134 A 
ATOM     84  C   UNL     1      -3.547   4.694   7.301  1.00  0.00     0.134 A 
ATOM     85  F   UNL     1      -1.035   7.283   6.882  1.00  0.00    -0.206 F 
ATOM     86  C   UNL     1      -2.483   6.849   8.638  1.00  0.00     0.040 A 
ATOM     87  C   UNL     1      -4.092   5.090   8.522  1.00  0.00     0.040 A 
ATOM     88  F   UNL     1      -4.160   3.643   6.740  1.00  0.00    -0.206 F 
ATOM     89  C   UNL     1      -3.551   6.165   9.202  1.00  0.00     0.006 A 
ENDBRANCH  65  82
ENDBRANCH  39  40
ENDBRANCH  32  34
ENDBRANCH  31  32
ENDBRANCH  30  31
ENDBRANCH  29  30
ENDBRANCH  28  29
ENDBRANCH  27  28
ENDBRANCH  26  27
ENDBRANCH  25  26
ENDBRANCH   1  25
TORSDOF 23
