REMARK SMILES CC[NH2+]C(C)(C)C(=O)NC[C@@H]1CC[C@H](C(=O)OCCOCCOCCOCCOC(=O)c2ccc(-c3c4nc(c(-c5c(F)cccc5F)c5ccc([nH]5)c(-c5c(F)cccc5F)c5nc(c(-c6c(F)cccc6F)c6ccc3[nH]6)C=C5)C=C4)cc2)O1
REMARK SMILES IDX 21 1 20 2 19 3 18 4 17 5 15 6 16 7 14 8 11 9 12 10 86 11
REMARK SMILES IDX 13 12 10 13 9 14 7 15 8 16 4 18 5 19 6 20 3 21 2 24 1 25
REMARK SMILES IDX 22 26 23 27 24 28 25 29 26 30 27 31 28 32 29 33 30 34 31 35
REMARK SMILES IDX 32 36 33 37 85 38 34 39 84 40 35 41 36 42 37 43 78 44 38 45
REMARK SMILES IDX 83 46 77 47 79 48 39 49 82 50 76 51 75 52 40 54 66 55 49 56
REMARK SMILES IDX 65 57 50 58 53 59 64 60 80 61 51 62 52 63 63 65 81 66 54 67
REMARK SMILES IDX 41 68 42 69 47 70 43 71 44 72 46 73 48 74 45 75 67 76 68 77
REMARK SMILES IDX 73 78 69 79 70 80 72 81 74 82 71 83 55 84 56 85 61 86 57 87
REMARK SMILES IDX 58 88 60 89 62 90 59 91
REMARK H PARENT 9 17 3 22 3 23 79 53 53 64
REMARK Flexibility Score: inf
ROOT
ATOM      1  C   UNL     1      -4.180 -11.267  -3.171  1.00  0.00     0.188 C 
ENDROOT
BRANCH   1   2
ATOM      2  O   UNL     1      -4.344 -10.936  -4.536  1.00  0.00    -0.376 OA
BRANCH   2   3
ATOM      3  C   UNL     1      -3.701  -9.809  -5.114  1.00  0.00     0.202 C 
BRANCH   3   4
ATOM      4  C   UNL     1      -3.368  -8.516  -4.345  1.00  0.00     0.261 C 
BRANCH   4   5
ATOM      5  O   UNL     1      -2.756  -8.673  -3.052  1.00  0.00    -0.461 OA
BRANCH   5   6
ATOM      6  C   UNL     1      -3.512  -8.297  -1.993  1.00  0.00     0.335 C 
ATOM      7  O   UNL     1      -4.621  -7.779  -2.100  1.00  0.00    -0.249 OA
BRANCH   6   8
ATOM      8  C   UNL     1      -2.868  -8.560  -0.619  1.00  0.00     0.228 C 
ATOM      9  C   UNL     1      -1.307  -6.899  -0.201  1.00  0.00     0.138 C 
ATOM     10  C   UNL     1      -0.519  -8.142  -0.568  1.00  0.00     0.037 C 
ATOM     11  O   UNL     1      -2.677  -7.285   0.011  1.00  0.00    -0.361 OA
ATOM     12  C   UNL     1      -1.525  -9.244  -0.434  1.00  0.00     0.047 C 
BRANCH   9  13
ATOM     13  C   UNL     1      -1.222  -5.872  -1.333  1.00  0.00     0.148 C 
BRANCH  13  14
ATOM     14  N   UNL     1      -1.648  -4.577  -0.871  1.00  0.00    -0.348 N 
ATOM     15  C   UNL     1      -0.941  -3.594  -0.253  1.00  0.00     0.280 C 
ATOM     16  O   UNL     1      -1.629  -2.770   0.359  1.00  0.00    -0.268 OA
ATOM     17  H   UNL     1      -2.598  -4.371  -1.028  1.00  0.00     0.163 HD
BRANCH  15  18
ATOM     18  C   UNL     1       0.638  -3.535  -0.299  1.00  0.00     0.169 C 
ATOM     19  C   UNL     1       1.240  -3.695  -1.708  1.00  0.00     0.090 C 
ATOM     20  C   UNL     1       1.219  -4.609   0.637  1.00  0.00     0.090 C 
BRANCH  18  21
ATOM     21  N   UNL     1       1.096  -2.230   0.261  1.00  0.00    -0.334 N 
ATOM     22  H   UNL     1       0.718  -2.137   1.204  1.00  0.00     0.347 HD
ATOM     23  H   UNL     1       2.116  -2.248   0.241  1.00  0.00     0.347 HD
BRANCH  21  24
ATOM     24  C   UNL     1       0.685  -1.059  -0.515  1.00  0.00     0.257 C 
ATOM     25  C   UNL     1       1.156   0.198   0.195  1.00  0.00     0.071 C 
ENDBRANCH  21  24
ENDBRANCH  18  21
ENDBRANCH  15  18
ENDBRANCH  13  14
ENDBRANCH   9  13
ENDBRANCH   6   8
ENDBRANCH   5   6
ENDBRANCH   4   5
ENDBRANCH   3   4
ENDBRANCH   2   3
ENDBRANCH   1   2
BRANCH   1  26
ATOM     26  C   UNL     1      -2.784 -11.567  -2.615  1.00  0.00     0.188 C 
BRANCH  26  27
ATOM     27  O   UNL     1      -1.705 -10.975  -3.313  1.00  0.00    -0.377 OA
BRANCH  27  28
ATOM     28  C   UNL     1      -1.098 -11.690  -4.383  1.00  0.00     0.188 C 
BRANCH  28  29
ATOM     29  C   UNL     1      -1.844 -12.872  -5.030  1.00  0.00     0.188 C 
BRANCH  29  30
ATOM     30  O   UNL     1      -2.460 -13.753  -4.108  1.00  0.00    -0.376 OA
BRANCH  30  31
ATOM     31  C   UNL     1      -1.742 -14.881  -3.632  1.00  0.00     0.202 C 
BRANCH  31  32
ATOM     32  C   UNL     1      -0.400 -14.659  -2.913  1.00  0.00     0.261 C 
BRANCH  32  33
ATOM     33  O   UNL     1       0.643 -14.013  -3.662  1.00  0.00    -0.460 OA
BRANCH  33  34
ATOM     34  C   UNL     1       0.987 -14.526  -4.863  1.00  0.00     0.338 C 
ATOM     35  O   UNL     1       0.569 -15.537  -5.383  1.00  0.00    -0.246 OA
BRANCH  34  36
ATOM     36  C   UNL     1       1.840 -13.523  -5.540  1.00  0.00     0.060 A 
ATOM     37  C   UNL     1       1.423 -12.988  -6.766  1.00  0.00     0.016 A 
ATOM     38  C   UNL     1       3.052 -13.127  -4.971  1.00  0.00     0.016 A 
ATOM     39  C   UNL     1       2.239 -12.087  -7.450  1.00  0.00     0.010 A 
ATOM     40  C   UNL     1       3.878 -12.242  -5.667  1.00  0.00     0.010 A 
ATOM     41  C   UNL     1       3.493 -11.749  -6.927  1.00  0.00    -0.014 A 
BRANCH  41  42
ATOM     42  C   UNL     1       4.497 -11.066  -7.779  1.00  0.00     0.031 A 
ATOM     43  C   UNL     1       5.551 -11.910  -8.443  1.00  0.00     0.074 A 
ATOM     44  C   UNL     1       4.481  -9.735  -7.965  1.00  0.00     0.049 A 
ATOM     45  N   UNL     1       6.596 -11.545  -9.138  1.00  0.00    -0.248 NA
ATOM     46  C   UNL     1       5.406 -13.368  -8.293  1.00  0.00     0.031 C 
ATOM     47  C   UNL     1       3.481  -8.816  -7.428  1.00  0.00     0.029 A 
ATOM     48  N   UNL     1       5.352  -8.925  -8.651  1.00  0.00    -0.354 N 
ATOM     49  C   UNL     1       7.239 -12.723  -9.497  1.00  0.00     0.074 A 
ATOM     50  C   UNL     1       6.486 -13.813  -8.916  1.00  0.00     0.031 C 
ATOM     51  C   UNL     1       3.807  -7.561  -7.789  1.00  0.00     0.029 A 
ATOM     52  C   UNL     1       5.058  -7.588  -8.546  1.00  0.00     0.049 A 
ATOM     53  H   UNL     1       6.114  -9.271  -9.169  1.00  0.00     0.167 HD
ATOM     54  C   UNL     1       8.352 -12.884 -10.250  1.00  0.00     0.037 A 
ATOM     55  C   UNL     1       5.741  -6.511  -8.983  1.00  0.00     0.037 A 
ATOM     56  C   UNL     1       9.102 -11.798 -10.821  1.00  0.00     0.049 A 
ATOM     57  C   UNL     1       7.033  -6.711  -9.736  1.00  0.00     0.074 A 
ATOM     58  C   UNL     1      10.243 -11.855 -11.601  1.00  0.00     0.029 A 
ATOM     59  N   UNL     1       8.789 -10.456 -10.665  1.00  0.00    -0.354 N 
ATOM     60  N   UNL     1       7.630  -7.827 -10.080  1.00  0.00    -0.248 NA
ATOM     61  C   UNL     1       7.749  -5.497 -10.160  1.00  0.00     0.031 C 
ATOM     62  C   UNL     1      10.654 -10.546 -11.869  1.00  0.00     0.029 A 
ATOM     63  C   UNL     1       9.730  -9.674 -11.313  1.00  0.00     0.049 A 
ATOM     64  H   UNL     1       8.013 -10.111 -10.168  1.00  0.00     0.167 HD
ATOM     65  C   UNL     1       8.763  -7.452 -10.794  1.00  0.00     0.074 A 
ATOM     66  C   UNL     1       8.768  -6.005 -10.839  1.00  0.00     0.031 C 
ATOM     67  C   UNL     1       9.711  -8.234 -11.367  1.00  0.00     0.037 A 
BRANCH  54  68
ATOM     68  C   UNL     1       8.842 -14.287 -10.470  1.00  0.00     0.057 A 
ATOM     69  C   UNL     1       8.144 -15.200 -11.272  1.00  0.00     0.134 A 
ATOM     70  C   UNL     1      10.041 -14.721  -9.892  1.00  0.00     0.134 A 
ATOM     71  F   UNL     1       6.980 -14.854 -11.842  1.00  0.00    -0.206 F 
ATOM     72  C   UNL     1       8.608 -16.502 -11.468  1.00  0.00     0.040 A 
ATOM     73  C   UNL     1      10.531 -16.010 -10.106  1.00  0.00     0.040 A 
ATOM     74  F   UNL     1      10.761 -13.897  -9.115  1.00  0.00    -0.206 F 
ATOM     75  C   UNL     1       9.810 -16.907 -10.891  1.00  0.00     0.006 A 
ENDBRANCH  54  68
BRANCH  55  76
ATOM     76  C   UNL     1       5.236  -5.140  -8.709  1.00  0.00     0.057 A 
ATOM     77  C   UNL     1       4.811  -4.303  -9.747  1.00  0.00     0.134 A 
ATOM     78  C   UNL     1       5.206  -4.618  -7.409  1.00  0.00     0.134 A 
ATOM     79  F   UNL     1       4.838  -4.734 -11.016  1.00  0.00    -0.206 F 
ATOM     80  C   UNL     1       4.398  -2.990  -9.508  1.00  0.00     0.040 A 
ATOM     81  C   UNL     1       4.768  -3.318  -7.152  1.00  0.00     0.040 A 
ATOM     82  F   UNL     1       5.599  -5.367  -6.368  1.00  0.00    -0.206 F 
ATOM     83  C   UNL     1       4.372  -2.496  -8.205  1.00  0.00     0.006 A 
ENDBRANCH  55  76
BRANCH  67  84
ATOM     84  C   UNL     1      10.803  -7.554 -12.144  1.00  0.00     0.057 A 
ATOM     85  C   UNL     1      11.816  -6.815 -11.521  1.00  0.00     0.134 A 
ATOM     86  C   UNL     1      10.871  -7.694 -13.537  1.00  0.00     0.134 A 
ATOM     87  F   UNL     1      11.805  -6.633 -10.191  1.00  0.00    -0.206 F 
ATOM     88  C   UNL     1      12.844  -6.223 -12.256  1.00  0.00     0.040 A 
ATOM     89  C   UNL     1      11.911  -7.133 -14.280  1.00  0.00     0.040 A 
ATOM     90  F   UNL     1       9.940  -8.398 -14.198  1.00  0.00    -0.206 F 
ATOM     91  C   UNL     1      12.899  -6.389 -13.639  1.00  0.00     0.006 A 
ENDBRANCH  67  84
ENDBRANCH  41  42
ENDBRANCH  34  36
ENDBRANCH  33  34
ENDBRANCH  32  33
ENDBRANCH  31  32
ENDBRANCH  30  31
ENDBRANCH  29  30
ENDBRANCH  28  29
ENDBRANCH  27  28
ENDBRANCH  26  27
ENDBRANCH   1  26
TORSDOF 25
