REMARK SMILES O=C1C[C@H](c2cn[nH]c2C(=O)OCCOCCOCCOCCOC(=O)c2ccc(-c3c4nc(c(-c5c(F)cccc5F)c5ccc([nH]5)c(-c5c(F)cccc5F)c5nc(c(-c6c(F)cccc6F)c6ccc3[nH]6)C=C5)C=C4)cc2)c2c(-c3cccs3)n[nH]c2N1
REMARK SMILES IDX 18 1 17 2 16 3 15 4 14 5 13 6 12 7 10 8 11 9 9 10 5 11 6 12
REMARK SMILES IDX 7 13 8 14 4 16 1 17 2 18 3 19 91 20 90 21 81 23 89 24 82 25
REMARK SMILES IDX 88 26 83 28 84 29 87 30 85 31 86 32 19 33 20 34 21 35 22 36
REMARK SMILES IDX 23 37 24 38 25 39 26 40 27 41 28 42 80 43 29 44 79 45 30 46
REMARK SMILES IDX 31 47 32 48 73 49 33 50 78 51 72 52 74 53 34 54 77 55 71 56
REMARK SMILES IDX 70 57 35 59 61 60 44 61 60 62 45 63 48 64 59 65 75 66 46 67
REMARK SMILES IDX 47 68 58 70 76 71 49 72 36 73 37 74 42 75 38 76 39 77 41 78
REMARK SMILES IDX 43 79 40 80 62 81 63 82 68 83 64 84 65 85 67 86 69 87 66 88
REMARK SMILES IDX 50 89 51 90 56 91 52 92 53 93 55 94 57 95 54 96
REMARK H PARENT 8 15 91 22 89 27 74 58 48 69
REMARK Flexibility Score: inf
ROOT
ATOM      1  O   UNL     1       3.067  -2.041  -3.030  1.00  0.00    -0.377 OA
ENDROOT
BRANCH   1   2
ATOM      2  C   UNL     1       4.008  -1.015  -3.296  1.00  0.00     0.188 C 
BRANCH   2   3
ATOM      3  C   UNL     1       5.160  -1.330  -4.280  1.00  0.00     0.188 C 
BRANCH   3   4
ATOM      4  O   UNL     1       5.839  -2.555  -4.103  1.00  0.00    -0.376 OA
BRANCH   4   5
ATOM      5  C   UNL     1       6.872  -2.766  -3.162  1.00  0.00     0.202 C 
BRANCH   5   6
ATOM      6  C   UNL     1       7.367  -1.730  -2.146  1.00  0.00     0.261 C 
BRANCH   6   7
ATOM      7  O   UNL     1       6.502  -0.624  -1.893  1.00  0.00    -0.459 OA
BRANCH   7   8
ATOM      8  C   UNL     1       6.891   0.567  -2.408  1.00  0.00     0.356 C 
ATOM      9  O   UNL     1       7.900   0.723  -3.097  1.00  0.00    -0.244 OA
BRANCH   8  10
ATOM     10  C   UNL     1       5.877   1.581  -2.266  1.00  0.00     0.147 A 
ATOM     11  C   UNL     1       4.879   1.951  -1.353  1.00  0.00     0.013 A 
ATOM     12  C   UNL     1       4.316   3.118  -1.959  1.00  0.00     0.140 A 
ATOM     13  N   UNL     1       4.839   3.412  -3.143  1.00  0.00    -0.183 NA
ATOM     14  N   UNL     1       5.795   2.497  -3.288  1.00  0.00    -0.271 N 
ATOM     15  H   UNL     1       6.396   2.477  -4.068  1.00  0.00     0.190 HD
BRANCH  11  16
ATOM     16  C   UNL     1       4.426   1.480   0.028  1.00  0.00     0.069 C 
ATOM     17  O   UNL     1       1.132  -0.323  -0.084  1.00  0.00    -0.275 OA
ATOM     18  C   UNL     1       2.325  -0.111   0.141  1.00  0.00     0.226 C 
ATOM     19  C   UNL     1       2.885   1.310   0.134  1.00  0.00     0.114 C 
ATOM     20  N   UNL     1       3.139  -1.143   0.531  1.00  0.00    -0.311 N 
ATOM     21  C   UNL     1       4.462  -0.905   0.767  1.00  0.00     0.132 A 
ATOM     22  H   UNL     1       2.771  -2.050   0.639  1.00  0.00     0.171 HD
ATOM     23  C   UNL     1       5.109   0.287   0.585  1.00  0.00     0.031 A 
ATOM     24  N   UNL     1       5.395  -1.807   1.174  1.00  0.00    -0.262 N 
ATOM     25  C   UNL     1       6.451   0.024   0.961  1.00  0.00     0.108 A 
ATOM     26  N   UNL     1       6.634  -1.278   1.242  1.00  0.00    -0.173 NA
ATOM     27  H   UNL     1       5.188  -2.743   1.395  1.00  0.00     0.192 HD
BRANCH  25  28
ATOM     28  C   UNL     1       7.578   1.003   0.863  1.00  0.00     0.055 A 
ATOM     29  C   UNL     1       8.783   0.722   0.254  1.00  0.00     0.022 A 
ATOM     30  S   UNL     1       7.485   2.630   1.369  1.00  0.00    -0.142 S 
ATOM     31  C   UNL     1       9.567   1.899   0.065  1.00  0.00     0.012 A 
ATOM     32  C   UNL     1       9.002   2.997   0.675  1.00  0.00     0.065 A 
ENDBRANCH  25  28
ENDBRANCH  11  16
ENDBRANCH   8  10
ENDBRANCH   7   8
ENDBRANCH   6   7
ENDBRANCH   5   6
ENDBRANCH   4   5
ENDBRANCH   3   4
ENDBRANCH   2   3
ENDBRANCH   1   2
BRANCH   1  33
ATOM     33  C   UNL     1       3.610  -3.231  -2.503  1.00  0.00     0.188 C 
BRANCH  33  34
ATOM     34  C   UNL     1       3.651  -4.408  -3.497  1.00  0.00     0.188 C 
BRANCH  34  35
ATOM     35  O   UNL     1       3.284  -4.311  -4.873  1.00  0.00    -0.376 OA
BRANCH  35  36
ATOM     36  C   UNL     1       2.502  -3.265  -5.432  1.00  0.00     0.202 C 
BRANCH  36  37
ATOM     37  C   UNL     1       1.041  -3.059  -5.038  1.00  0.00     0.261 C 
BRANCH  37  38
ATOM     38  O   UNL     1       0.806  -3.262  -3.666  1.00  0.00    -0.460 OA
BRANCH  38  39
ATOM     39  C   UNL     1       0.723  -4.562  -3.333  1.00  0.00     0.338 C 
ATOM     40  O   UNL     1       0.734  -5.522  -4.085  1.00  0.00    -0.246 OA
BRANCH  39  41
ATOM     41  C   UNL     1       0.517  -4.654  -1.876  1.00  0.00     0.060 A 
ATOM     42  C   UNL     1       0.176  -5.943  -1.481  1.00  0.00     0.016 A 
ATOM     43  C   UNL     1       0.019  -3.507  -1.240  1.00  0.00     0.016 A 
ATOM     44  C   UNL     1      -1.036  -6.072  -0.865  1.00  0.00     0.010 A 
ATOM     45  C   UNL     1      -1.193  -3.632  -0.625  1.00  0.00     0.010 A 
ATOM     46  C   UNL     1      -1.755  -4.903  -0.585  1.00  0.00    -0.014 A 
BRANCH  46  47
ATOM     47  C   UNL     1      -3.133  -5.061  -0.207  1.00  0.00     0.031 A 
ATOM     48  C   UNL     1      -3.252  -5.533   1.181  1.00  0.00     0.074 A 
ATOM     49  C   UNL     1      -4.140  -4.743  -1.037  1.00  0.00     0.049 A 
ATOM     50  N   UNL     1      -3.623  -6.698   1.591  1.00  0.00    -0.248 NA
ATOM     51  C   UNL     1      -2.646  -4.683   2.220  1.00  0.00     0.031 C 
ATOM     52  C   UNL     1      -4.096  -4.023  -2.314  1.00  0.00     0.029 A 
ATOM     53  N   UNL     1      -5.469  -4.927  -0.834  1.00  0.00    -0.354 N 
ATOM     54  C   UNL     1      -3.497  -6.646   2.972  1.00  0.00     0.074 A 
ATOM     55  C   UNL     1      -2.685  -5.499   3.270  1.00  0.00     0.031 C 
ATOM     56  C   UNL     1      -5.349  -3.626  -2.642  1.00  0.00     0.029 A 
ATOM     57  C   UNL     1      -6.281  -4.178  -1.675  1.00  0.00     0.049 A 
ATOM     58  H   UNL     1      -5.826  -5.538  -0.150  1.00  0.00     0.167 HD
ATOM     59  C   UNL     1      -4.307  -7.383   3.775  1.00  0.00     0.037 A 
ATOM     60  C   UNL     1      -7.604  -3.964  -1.468  1.00  0.00     0.037 A 
ATOM     61  C   UNL     1      -4.917  -8.466   3.046  1.00  0.00     0.049 A 
ATOM     62  C   UNL     1      -8.073  -5.003  -0.506  1.00  0.00     0.074 A 
ATOM     63  C   UNL     1      -4.433  -9.577   2.383  1.00  0.00     0.029 A 
ATOM     64  N   UNL     1      -6.201  -8.284   2.590  1.00  0.00    -0.354 N 
ATOM     65  N   UNL     1      -8.140  -6.276  -0.795  1.00  0.00    -0.248 NA
ATOM     66  C   UNL     1      -7.979  -4.694   0.915  1.00  0.00     0.031 C 
ATOM     67  C   UNL     1      -5.268  -9.720   1.239  1.00  0.00     0.029 A 
ATOM     68  C   UNL     1      -6.249  -8.729   1.294  1.00  0.00     0.049 A 
ATOM     69  H   UNL     1      -6.951  -7.903   3.102  1.00  0.00     0.167 HD
ATOM     70  C   UNL     1      -7.691  -6.929   0.347  1.00  0.00     0.074 A 
ATOM     71  C   UNL     1      -7.662  -5.903   1.387  1.00  0.00     0.031 C 
ATOM     72  C   UNL     1      -7.106  -8.161   0.278  1.00  0.00     0.037 A 
BRANCH  59  73
ATOM     73  C   UNL     1      -4.840  -6.881   5.090  1.00  0.00     0.057 A 
ATOM     74  C   UNL     1      -5.566  -7.763   5.905  1.00  0.00     0.134 A 
ATOM     75  C   UNL     1      -4.918  -5.520   5.460  1.00  0.00     0.134 A 
ATOM     76  F   UNL     1      -5.579  -9.081   5.653  1.00  0.00    -0.206 F 
ATOM     77  C   UNL     1      -6.370  -7.316   6.959  1.00  0.00     0.040 A 
ATOM     78  C   UNL     1      -5.672  -5.070   6.543  1.00  0.00     0.040 A 
ATOM     79  F   UNL     1      -4.358  -4.537   4.747  1.00  0.00    -0.206 F 
ATOM     80  C   UNL     1      -6.431  -5.965   7.276  1.00  0.00     0.006 A 
ENDBRANCH  59  73
BRANCH  60  81
ATOM     81  C   UNL     1      -8.363  -2.720  -1.729  1.00  0.00     0.057 A 
ATOM     82  C   UNL     1      -9.760  -2.720  -1.814  1.00  0.00     0.134 A 
ATOM     83  C   UNL     1      -7.749  -1.457  -1.643  1.00  0.00     0.134 A 
ATOM     84  F   UNL     1     -10.439  -3.876  -1.846  1.00  0.00    -0.206 F 
ATOM     85  C   UNL     1     -10.506  -1.532  -1.811  1.00  0.00     0.040 A 
ATOM     86  C   UNL     1      -8.479  -0.265  -1.644  1.00  0.00     0.040 A 
ATOM     87  F   UNL     1      -6.425  -1.341  -1.467  1.00  0.00    -0.206 F 
ATOM     88  C   UNL     1      -9.865  -0.299  -1.718  1.00  0.00     0.006 A 
ENDBRANCH  60  81
BRANCH  72  89
ATOM     89  C   UNL     1      -7.142  -8.884  -1.041  1.00  0.00     0.057 A 
ATOM     90  C   UNL     1      -6.466  -8.444  -2.190  1.00  0.00     0.134 A 
ATOM     91  C   UNL     1      -7.715 -10.159  -1.094  1.00  0.00     0.134 A 
ATOM     92  F   UNL     1      -5.805  -7.279  -2.198  1.00  0.00    -0.206 F 
ATOM     93  C   UNL     1      -6.390  -9.226  -3.346  1.00  0.00     0.040 A 
ATOM     94  C   UNL     1      -7.619 -10.963  -2.231  1.00  0.00     0.040 A 
ATOM     95  F   UNL     1      -8.326 -10.669  -0.013  1.00  0.00    -0.206 F 
ATOM     96  C   UNL     1      -6.959 -10.496  -3.365  1.00  0.00     0.006 A 
ENDBRANCH  72  89
ENDBRANCH  46  47
ENDBRANCH  39  41
ENDBRANCH  38  39
ENDBRANCH  37  38
ENDBRANCH  36  37
ENDBRANCH  35  36
ENDBRANCH  34  35
ENDBRANCH  33  34
ENDBRANCH   1  33
TORSDOF 22
