REMARK SMILES CC1=C[C@H](C)[C@H](CN2C[C@]34C=C[C@@H](O3)[C@H](C(=O)OCCOCCOCCOCCOC(=O)c3ccc(-c5c6nc(c(-c7c(F)cccc7F)c7ccc([nH]7)c(-c7c(F)cccc7F)c7nc(c(-c8c(F)cccc8F)c8ccc5[nH]8)C=C7)C=C6)cc3)[C@@H]4C2=O)[C@H](C)C1
REMARK SMILES IDX 24 1 23 2 22 3 21 4 20 5 19 6 18 7 16 8 17 9 15 10 8 11 9 12
REMARK SMILES IDX 88 13 10 14 87 15 89 16 11 17 14 18 12 19 13 20 7 21 6 22
REMARK SMILES IDX 1 23 2 24 3 25 92 26 4 27 90 28 5 29 91 30 25 31 26 32 27 33
REMARK SMILES IDX 28 34 29 35 30 36 31 37 32 38 33 39 34 40 86 41 35 42 85 43
REMARK SMILES IDX 36 44 37 45 38 46 79 47 39 48 84 49 78 50 80 51 40 52 83 53
REMARK SMILES IDX 77 54 76 55 41 57 67 58 50 59 66 60 51 61 54 62 65 63 81 64
REMARK SMILES IDX 52 65 53 66 64 68 82 69 55 70 42 71 43 72 48 73 44 74 45 75
REMARK SMILES IDX 47 76 49 77 46 78 68 79 69 80 74 81 70 82 71 83 73 84 75 85
REMARK SMILES IDX 72 86 56 87 57 88 62 89 58 90 59 91 61 92 63 93 60 94
REMARK H PARENT 80 56 54 67
REMARK Flexibility Score: inf
ROOT
ATOM      1  O   UNL     1      -4.842   3.453  -8.737  1.00  0.00    -0.377 OA
ENDROOT
BRANCH   1   2
ATOM      2  C   UNL     1      -5.877   2.523  -9.063  1.00  0.00     0.188 C 
BRANCH   2   3
ATOM      3  C   UNL     1      -6.543   1.732  -7.926  1.00  0.00     0.188 C 
BRANCH   3   4
ATOM      4  O   UNL     1      -6.862   2.552  -6.826  1.00  0.00    -0.376 OA
BRANCH   4   5
ATOM      5  C   UNL     1      -6.539   2.209  -5.488  1.00  0.00     0.202 C 
BRANCH   5   6
ATOM      6  C   UNL     1      -5.448   1.190  -5.099  1.00  0.00     0.261 C 
BRANCH   6   7
ATOM      7  O   UNL     1      -4.405   1.046  -6.074  1.00  0.00    -0.463 OA
BRANCH   7   8
ATOM      8  C   UNL     1      -4.066  -0.213  -6.490  1.00  0.00     0.312 C 
ATOM      9  O   UNL     1      -4.477  -1.246  -5.980  1.00  0.00    -0.252 OA
BRANCH   8  10
ATOM     10  C   UNL     1      -3.211  -0.172  -7.753  1.00  0.00     0.148 C 
ATOM     11  N   UNL     1      -0.495  -1.044  -5.981  1.00  0.00    -0.339 N 
ATOM     12  C   UNL     1      -0.992   0.248  -6.154  1.00  0.00     0.160 C 
ATOM     13  C   UNL     1      -1.004  -1.801  -7.002  1.00  0.00     0.230 C 
ATOM     14  C   UNL     1      -0.838   0.493  -7.727  1.00  0.00     0.117 C 
ATOM     15  C   UNL     1      -1.787  -0.823  -7.876  1.00  0.00     0.133 C 
ATOM     16  O   UNL     1      -0.706  -2.946  -7.292  1.00  0.00    -0.274 OA
ATOM     17  C   UNL     1      -0.976   1.963  -7.310  1.00  0.00     0.009 C 
ATOM     18  O   UNL     1      -1.628   0.924  -8.888  1.00  0.00    -0.360 OA
ATOM     19  C   UNL     1      -2.261   2.312  -7.396  1.00  0.00     0.004 C 
ATOM     20  C   UNL     1      -2.879   1.256  -8.244  1.00  0.00     0.157 C 
BRANCH  11  21
ATOM     21  C   UNL     1       0.693  -1.169  -5.165  1.00  0.00     0.124 C 
BRANCH  21  22
ATOM     22  C   UNL     1       0.316  -0.795  -3.705  1.00  0.00     0.018 C 
ATOM     23  C   UNL     1       1.066  -0.006   0.602  1.00  0.00     0.039 C 
ATOM     24  C   UNL     1       0.843  -0.293  -0.853  1.00  0.00    -0.077 C 
ATOM     25  C   UNL     1       0.756  -1.551  -1.302  1.00  0.00    -0.025 C 
ATOM     26  C   UNL     1       0.687   0.914  -1.718  1.00  0.00     0.034 C 
ATOM     27  C   UNL     1       0.485  -1.965  -2.711  1.00  0.00     0.014 C 
ATOM     28  C   UNL     1       0.610   0.686  -3.235  1.00  0.00    -0.005 C 
ATOM     29  C   UNL     1       1.451  -3.073  -3.139  1.00  0.00     0.012 C 
ATOM     30  C   UNL     1       1.720   1.478  -3.947  1.00  0.00     0.008 C 
ENDBRANCH  21  22
ENDBRANCH  11  21
ENDBRANCH   8  10
ENDBRANCH   7   8
ENDBRANCH   6   7
ENDBRANCH   5   6
ENDBRANCH   4   5
ENDBRANCH   3   4
ENDBRANCH   2   3
ENDBRANCH   1   2
BRANCH   1  31
ATOM     31  C   UNL     1      -5.071   4.446  -7.741  1.00  0.00     0.188 C 
BRANCH  31  32
ATOM     32  C   UNL     1      -6.383   5.242  -7.794  1.00  0.00     0.188 C 
BRANCH  32  33
ATOM     33  O   UNL     1      -7.220   4.924  -8.888  1.00  0.00    -0.376 OA
BRANCH  33  34
ATOM     34  C   UNL     1      -7.046   5.654 -10.098  1.00  0.00     0.202 C 
BRANCH  34  35
ATOM     35  C   UNL     1      -5.631   5.836 -10.678  1.00  0.00     0.261 C 
BRANCH  35  36
ATOM     36  O   UNL     1      -4.689   6.530  -9.841  1.00  0.00    -0.460 OA
BRANCH  36  37
ATOM     37  C   UNL     1      -5.005   7.790  -9.463  1.00  0.00     0.338 C 
ATOM     38  O   UNL     1      -5.977   8.438  -9.779  1.00  0.00    -0.246 OA
BRANCH  37  39
ATOM     39  C   UNL     1      -4.034   8.196  -8.426  1.00  0.00     0.060 A 
ATOM     40  C   UNL     1      -4.494   8.426  -7.123  1.00  0.00     0.016 A 
ATOM     41  C   UNL     1      -2.685   8.363  -8.743  1.00  0.00     0.016 A 
ATOM     42  C   UNL     1      -3.603   8.842  -6.134  1.00  0.00     0.010 A 
ATOM     43  C   UNL     1      -1.799   8.803  -7.756  1.00  0.00     0.010 A 
ATOM     44  C   UNL     1      -2.257   9.065  -6.452  1.00  0.00    -0.014 A 
BRANCH  44  45
ATOM     45  C   UNL     1      -1.359   9.707  -5.461  1.00  0.00     0.031 A 
ATOM     46  C   UNL     1      -1.109  11.186  -5.561  1.00  0.00     0.074 A 
ATOM     47  C   UNL     1      -0.789   8.989  -4.476  1.00  0.00     0.049 A 
ATOM     48  N   UNL     1      -0.310  11.942  -4.853  1.00  0.00    -0.248 NA
ATOM     49  C   UNL     1      -1.863  11.910  -6.598  1.00  0.00     0.031 C 
ATOM     50  C   UNL     1      -0.993   7.561  -4.244  1.00  0.00     0.029 A 
ATOM     51  N   UNL     1       0.091   9.369  -3.493  1.00  0.00    -0.354 N 
ATOM     52  C   UNL     1      -0.465  13.228  -5.356  1.00  0.00     0.074 A 
ATOM     53  C   UNL     1      -1.412  13.146  -6.447  1.00  0.00     0.031 C 
ATOM     54  C   UNL     1      -0.240   7.179  -3.196  1.00  0.00     0.029 A 
ATOM     55  C   UNL     1       0.525   8.326  -2.711  1.00  0.00     0.049 A 
ATOM     56  H   UNL     1       0.383  10.300  -3.361  1.00  0.00     0.167 HD
ATOM     57  C   UNL     1       0.122  14.375  -4.939  1.00  0.00     0.037 A 
ATOM     58  C   UNL     1       1.459   8.297  -1.739  1.00  0.00     0.037 A 
ATOM     59  C   UNL     1       1.070  14.453  -3.859  1.00  0.00     0.049 A 
ATOM     60  C   UNL     1       2.173   9.572  -1.363  1.00  0.00     0.074 A 
ATOM     61  C   UNL     1       1.717  15.571  -3.361  1.00  0.00     0.029 A 
ATOM     62  N   UNL     1       1.514  13.370  -3.118  1.00  0.00    -0.354 N 
ATOM     63  N   UNL     1       2.004  10.786  -1.829  1.00  0.00    -0.248 NA
ATOM     64  C   UNL     1       3.212   9.470  -0.327  1.00  0.00     0.031 C 
ATOM     65  C   UNL     1       2.593  15.156  -2.353  1.00  0.00     0.029 A 
ATOM     66  C   UNL     1       2.450  13.788  -2.186  1.00  0.00     0.049 A 
ATOM     67  H   UNL     1       1.210  12.441  -3.236  1.00  0.00     0.167 HD
ATOM     68  C   UNL     1       2.894  11.592  -1.128  1.00  0.00     0.074 A 
ATOM     69  C   UNL     1       3.584  10.735  -0.189  1.00  0.00     0.031 C 
ATOM     70  C   UNL     1       3.124  12.923  -1.252  1.00  0.00     0.037 A 
BRANCH  57  71
ATOM     71  C   UNL     1      -0.229  15.641  -5.664  1.00  0.00     0.057 A 
ATOM     72  C   UNL     1      -1.477  16.257  -5.512  1.00  0.00     0.134 A 
ATOM     73  C   UNL     1       0.715  16.283  -6.476  1.00  0.00     0.134 A 
ATOM     74  F   UNL     1      -2.430  15.687  -4.760  1.00  0.00    -0.206 F 
ATOM     75  C   UNL     1      -1.779  17.461  -6.152  1.00  0.00     0.040 A 
ATOM     76  C   UNL     1       0.435  17.499  -7.100  1.00  0.00     0.040 A 
ATOM     77  F   UNL     1       1.932  15.748  -6.660  1.00  0.00    -0.206 F 
ATOM     78  C   UNL     1      -0.817  18.090  -6.941  1.00  0.00     0.006 A 
ENDBRANCH  57  71
BRANCH  58  79
ATOM     79  C   UNL     1       1.815   7.015  -1.075  1.00  0.00     0.057 A 
ATOM     80  C   UNL     1       1.572   6.806   0.288  1.00  0.00     0.134 A 
ATOM     81  C   UNL     1       2.463   5.988  -1.775  1.00  0.00     0.134 A 
ATOM     82  F   UNL     1       0.979   7.760   1.021  1.00  0.00    -0.206 F 
ATOM     83  C   UNL     1       1.984   5.639   0.936  1.00  0.00     0.040 A 
ATOM     84  C   UNL     1       2.853   4.804  -1.147  1.00  0.00     0.040 A 
ATOM     85  F   UNL     1       2.727   6.121  -3.083  1.00  0.00    -0.206 F 
ATOM     86  C   UNL     1       2.624   4.633   0.216  1.00  0.00     0.006 A 
ENDBRANCH  58  79
BRANCH  70  87
ATOM     87  C   UNL     1       4.141  13.539  -0.333  1.00  0.00     0.057 A 
ATOM     88  C   UNL     1       5.513  13.296  -0.479  1.00  0.00     0.134 A 
ATOM     89  C   UNL     1       3.746  14.421   0.682  1.00  0.00     0.134 A 
ATOM     90  F   UNL     1       5.957  12.453  -1.424  1.00  0.00    -0.206 F 
ATOM     91  C   UNL     1       6.453  13.888   0.366  1.00  0.00     0.040 A 
ATOM     92  C   UNL     1       4.679  15.042   1.514  1.00  0.00     0.040 A 
ATOM     93  F   UNL     1       2.449  14.707   0.870  1.00  0.00    -0.206 F 
ATOM     94  C   UNL     1       6.037  14.770   1.361  1.00  0.00     0.006 A 
ENDBRANCH  70  87
ENDBRANCH  44  45
ENDBRANCH  37  39
ENDBRANCH  36  37
ENDBRANCH  35  36
ENDBRANCH  34  35
ENDBRANCH  33  34
ENDBRANCH  32  33
ENDBRANCH  31  32
ENDBRANCH   1  31
TORSDOF 22
