REMARK SMILES Cc1ccccc1NC(=S)NN1C(=O)CS[C@H]1c1ccccc1C(=O)OCCOCCOCCOCCOC(=O)c1ccc(-c2c3nc(c(-c4c(F)cccc4F)c4ccc([nH]4)c(-c4c(F)cccc4F)c4nc(c(-c5c(F)cccc5F)c5ccc2[nH]5)C=C4)C=C3)cc1
REMARK SMILES IDX 30 1 29 2 28 3 27 4 26 5 24 6 25 7 23 8 18 9 19 10 20 11
REMARK SMILES IDX 22 12 21 13 17 14 12 15 13 16 14 17 15 18 16 19 11 20 9 22
REMARK SMILES IDX 10 23 8 24 7 26 1 27 2 28 3 29 4 30 6 31 5 32 31 33 32 34
REMARK SMILES IDX 33 35 34 36 35 37 36 38 37 39 38 40 39 41 40 42 41 43 42 44
REMARK SMILES IDX 94 45 43 46 93 47 44 48 45 49 46 50 87 51 47 52 92 53 86 54
REMARK SMILES IDX 88 55 48 56 91 57 85 58 84 59 49 61 75 62 58 63 74 64 59 65
REMARK SMILES IDX 62 66 73 67 89 68 60 69 61 70 72 72 90 73 63 74 50 75 51 76
REMARK SMILES IDX 56 77 52 78 53 79 55 80 57 81 54 82 76 83 77 84 82 85 78 86
REMARK SMILES IDX 79 87 81 88 83 89 80 90 64 91 65 92 70 93 66 94 67 95 69 96
REMARK SMILES IDX 71 97 68 98
REMARK H PARENT 11 21 8 25 88 60 62 71
REMARK Flexibility Score: inf
ROOT
ATOM      1  C   UNL     1      -2.302   6.139  -2.394  1.00  0.00     0.188 C 
ENDROOT
BRANCH   1   2
ATOM      2  O   UNL     1      -2.331   5.407  -1.191  1.00  0.00    -0.376 OA
BRANCH   2   3
ATOM      3  C   UNL     1      -1.454   4.254  -1.018  1.00  0.00     0.202 C 
BRANCH   3   4
ATOM      4  C   UNL     1      -1.740   3.093   0.371  1.00  0.00     0.261 C 
BRANCH   4   5
ATOM      5  O   UNL     1      -2.224   3.438   2.146  1.00  0.00    -0.460 OA
BRANCH   5   6
ATOM      6  C   UNL     1      -3.085   4.515   3.002  1.00  0.00     0.338 C 
ATOM      7  O   UNL     1      -3.156   4.373   4.225  1.00  0.00    -0.246 OA
BRANCH   6   8
ATOM      8  C   UNL     1      -4.196   5.702   2.412  1.00  0.00     0.066 A 
ATOM      9  C   UNL     1      -5.338   5.225   1.737  1.00  0.00     0.001 A 
ATOM     10  C   UNL     1      -6.247   5.970   0.951  1.00  0.00     0.008 A 
ATOM     11  C   UNL     1      -5.929   7.263   0.642  1.00  0.00     0.000 A 
ATOM     12  C   UNL     1      -3.979   7.071   2.176  1.00  0.00     0.016 A 
ATOM     13  C   UNL     1      -4.795   7.809   1.245  1.00  0.00     0.001 A 
BRANCH   9  14
ATOM     14  C   UNL     1      -5.317   3.805   1.462  1.00  0.00     0.197 C 
ATOM     15  N   UNL     1      -4.044   3.485   0.858  1.00  0.00    -0.236 N 
ATOM     16  C   UNL     1      -3.981   2.032   1.108  1.00  0.00     0.252 C 
ATOM     17  O   UNL     1      -3.923   1.182   0.210  1.00  0.00    -0.272 OA
ATOM     18  C   UNL     1      -4.456   1.629   2.504  1.00  0.00     0.174 C 
ATOM     19  S   UNL     1      -5.748   2.795   2.888  1.00  0.00    -0.120 SA
BRANCH  15  20
ATOM     20  N   UNL     1      -2.738   4.808   0.809  1.00  0.00    -0.270 N 
ATOM     21  H   UNL     1      -3.104   5.613   0.377  1.00  0.00     0.191 HD
BRANCH  20  22
ATOM     22  C   UNL     1      -1.085   5.102   1.272  1.00  0.00     0.189 C 
ATOM     23  S   UNL     1      -0.726   6.799   1.131  1.00  0.00    -0.039 S 
BRANCH  22  24
ATOM     24  N   UNL     1       0.223   4.063   1.375  1.00  0.00    -0.331 N 
ATOM     25  H   UNL     1       0.904   4.770   1.300  1.00  0.00     0.169 HD
BRANCH  24  26
ATOM     26  C   UNL     1       1.400   2.717   1.510  1.00  0.00     0.043 A 
ATOM     27  C   UNL     1       4.036   3.135   0.663  1.00  0.00     0.046 C 
ATOM     28  C   UNL     1       2.894   2.477   1.445  1.00  0.00    -0.028 A 
ATOM     29  C   UNL     1       3.583   1.187   1.830  1.00  0.00     0.005 A 
ATOM     30  C   UNL     1       2.947   0.014   2.068  1.00  0.00     0.000 A 
ATOM     31  C   UNL     1       1.002   1.448   1.754  1.00  0.00     0.026 A 
ATOM     32  C   UNL     1       1.622   0.147   1.953  1.00  0.00     0.002 A 
ENDBRANCH  24  26
ENDBRANCH  22  24
ENDBRANCH  20  22
ENDBRANCH  15  20
ENDBRANCH   9  14
ENDBRANCH   6   8
ENDBRANCH   5   6
ENDBRANCH   4   5
ENDBRANCH   3   4
ENDBRANCH   2   3
ENDBRANCH   1   2
BRANCH   1  33
ATOM     33  C   UNL     1      -3.474   5.603  -3.204  1.00  0.00     0.188 C 
BRANCH  33  34
ATOM     34  O   UNL     1      -3.222   5.468  -4.591  1.00  0.00    -0.377 OA
BRANCH  34  35
ATOM     35  C   UNL     1      -2.464   4.306  -4.912  1.00  0.00     0.188 C 
BRANCH  35  36
ATOM     36  C   UNL     1      -0.965   4.558  -4.840  1.00  0.00     0.188 C 
BRANCH  36  37
ATOM     37  O   UNL     1      -0.515   5.796  -5.373  1.00  0.00    -0.376 OA
BRANCH  37  38
ATOM     38  C   UNL     1      -0.804   6.027  -6.749  1.00  0.00     0.202 C 
BRANCH  38  39
ATOM     39  C   UNL     1      -0.283   4.939  -7.704  1.00  0.00     0.261 C 
BRANCH  39  40
ATOM     40  O   UNL     1       1.143   4.812  -7.543  1.00  0.00    -0.460 OA
BRANCH  40  41
ATOM     41  C   UNL     1       1.584   3.563  -7.232  1.00  0.00     0.338 C 
ATOM     42  O   UNL     1       1.185   2.525  -7.721  1.00  0.00    -0.246 OA
BRANCH  41  43
ATOM     43  C   UNL     1       2.342   3.630  -5.946  1.00  0.00     0.060 A 
ATOM     44  C   UNL     1       2.586   2.429  -5.277  1.00  0.00     0.016 A 
ATOM     45  C   UNL     1       2.350   4.838  -5.243  1.00  0.00     0.016 A 
ATOM     46  C   UNL     1       2.594   2.433  -3.888  1.00  0.00     0.010 A 
ATOM     47  C   UNL     1       2.175   4.812  -3.871  1.00  0.00     0.010 A 
ATOM     48  C   UNL     1       2.214   3.603  -3.192  1.00  0.00    -0.014 A 
BRANCH  48  49
ATOM     49  C   UNL     1       1.724   3.505  -1.789  1.00  0.00     0.031 A 
ATOM     50  C   UNL     1       2.297   4.699  -0.764  1.00  0.00     0.074 A 
ATOM     51  C   UNL     1       0.893   2.385  -1.670  1.00  0.00     0.049 A 
ATOM     52  N   UNL     1       2.064   4.905   0.506  1.00  0.00    -0.248 NA
ATOM     53  C   UNL     1       3.226   5.768  -1.165  1.00  0.00     0.031 C 
ATOM     54  C   UNL     1      -0.163   1.981  -2.650  1.00  0.00     0.029 A 
ATOM     55  N   UNL     1       0.613   1.445  -0.703  1.00  0.00    -0.354 N 
ATOM     56  C   UNL     1       2.672   5.996   1.114  1.00  0.00     0.074 A 
ATOM     57  C   UNL     1       3.414   6.489  -0.038  1.00  0.00     0.031 C 
ATOM     58  C   UNL     1      -1.075   1.159  -2.074  1.00  0.00     0.029 A 
ATOM     59  C   UNL     1      -0.620   0.764  -0.739  1.00  0.00     0.049 A 
ATOM     60  H   UNL     1       1.267   1.250   0.006  1.00  0.00     0.167 HD
ATOM     61  C   UNL     1       2.412   6.388   2.445  1.00  0.00     0.037 A 
ATOM     62  C   UNL     1      -1.213  -0.170   0.120  1.00  0.00     0.037 A 
ATOM     63  C   UNL     1       1.503   5.481   3.393  1.00  0.00     0.049 A 
ATOM     64  C   UNL     1      -1.343  -0.012   1.863  1.00  0.00     0.074 A 
ATOM     65  C   UNL     1       0.341   5.801   4.101  1.00  0.00     0.029 A 
ATOM     66  N   UNL     1       1.622   4.083   3.746  1.00  0.00    -0.354 N 
ATOM     67  N   UNL     1      -1.413   1.145   2.562  1.00  0.00    -0.248 NA
ATOM     68  C   UNL     1      -1.208  -1.082   2.867  1.00  0.00     0.031 C 
ATOM     69  C   UNL     1      -0.342   4.627   4.523  1.00  0.00     0.029 A 
ATOM     70  C   UNL     1       0.339   3.480   4.146  1.00  0.00     0.049 A 
ATOM     71  H   UNL     1       2.472   3.586   3.720  1.00  0.00     0.167 HD
ATOM     72  C   UNL     1      -0.748   1.046   3.841  1.00  0.00     0.074 A 
ATOM     73  C   UNL     1      -0.911  -0.413   4.019  1.00  0.00     0.031 C 
ATOM     74  C   UNL     1       0.072   2.003   4.566  1.00  0.00     0.037 A 
BRANCH  61  75
ATOM     75  C   UNL     1       2.521   7.943   2.817  1.00  0.00     0.057 A 
ATOM     76  C   UNL     1       1.964   8.448   4.015  1.00  0.00     0.134 A 
ATOM     77  C   UNL     1       2.912   8.991   1.959  1.00  0.00     0.134 A 
ATOM     78  F   UNL     1       1.830   7.672   5.101  1.00  0.00    -0.206 F 
ATOM     79  C   UNL     1       1.554   9.788   4.193  1.00  0.00     0.040 A 
ATOM     80  C   UNL     1       2.549  10.342   2.131  1.00  0.00     0.040 A 
ATOM     81  F   UNL     1       3.759   8.816   0.948  1.00  0.00    -0.206 F 
ATOM     82  C   UNL     1       1.800  10.738   3.220  1.00  0.00     0.006 A 
ENDBRANCH  61  75
BRANCH  62  83
ATOM     83  C   UNL     1      -1.078  -1.471  -0.736  1.00  0.00     0.057 A 
ATOM     84  C   UNL     1      -2.039  -1.657  -1.756  1.00  0.00     0.134 A 
ATOM     85  C   UNL     1       0.253  -1.796  -1.139  1.00  0.00     0.134 A 
ATOM     86  F   UNL     1      -3.333  -1.417  -1.505  1.00  0.00    -0.206 F 
ATOM     87  C   UNL     1      -1.673  -1.815  -3.117  1.00  0.00     0.040 A 
ATOM     88  C   UNL     1       0.629  -1.922  -2.494  1.00  0.00     0.040 A 
ATOM     89  F   UNL     1       1.259  -1.712  -0.256  1.00  0.00    -0.206 F 
ATOM     90  C   UNL     1      -0.332  -1.866  -3.495  1.00  0.00     0.006 A 
ENDBRANCH  62  83
BRANCH  74  91
ATOM     91  C   UNL     1       0.777   1.732   5.944  1.00  0.00     0.057 A 
ATOM     92  C   UNL     1       1.304   0.512   6.377  1.00  0.00     0.134 A 
ATOM     93  C   UNL     1       1.054   2.805   6.855  1.00  0.00     0.134 A 
ATOM     94  F   UNL     1       1.260  -0.585   5.612  1.00  0.00    -0.206 F 
ATOM     95  C   UNL     1       1.972   0.363   7.617  1.00  0.00     0.040 A 
ATOM     96  C   UNL     1       1.777   2.683   8.047  1.00  0.00     0.040 A 
ATOM     97  F   UNL     1       0.642   4.061   6.661  1.00  0.00    -0.206 F 
ATOM     98  C   UNL     1       2.221   1.448   8.450  1.00  0.00     0.006 A 
ENDBRANCH  74  91
ENDBRANCH  48  49
ENDBRANCH  41  43
ENDBRANCH  40  41
ENDBRANCH  39  40
ENDBRANCH  38  39
ENDBRANCH  37  38
ENDBRANCH  36  37
ENDBRANCH  35  36
ENDBRANCH  34  35
ENDBRANCH  33  34
ENDBRANCH   1  33
TORSDOF 25
