REMARK SMILES Cc1ccc(C(=O)Nc2cccc(F)c2C(=O)OCCOCCOCCOCCOC(=O)c2ccc(-c3c4nc(c(-c5c(F)cccc5F)c5ccc([nH]5)c(-c5c(F)cccc5F)c5nc(c(-c6c(F)cccc6F)c6ccc3[nH]6)C=C5)C=C4)cc2)c(F)c1
REMARK SMILES IDX 24 1 23 2 22 3 21 4 20 5 19 6 18 7 16 8 17 9 15 10 9 11
REMARK SMILES IDX 10 12 11 13 13 14 12 15 14 16 8 17 6 18 7 19 5 21 1 22 2 23
REMARK SMILES IDX 3 24 89 25 4 26 87 27 88 28 25 29 26 30 27 31 28 32 29 33
REMARK SMILES IDX 30 34 31 35 32 36 33 37 34 38 86 39 35 40 85 41 36 42 37 43
REMARK SMILES IDX 38 44 79 45 39 46 84 47 78 48 80 49 40 50 83 51 77 52 76 53
REMARK SMILES IDX 41 55 67 56 50 57 66 58 51 59 54 60 65 61 81 62 52 63 53 64
REMARK SMILES IDX 64 66 82 67 55 68 42 69 43 70 48 71 44 72 45 73 47 74 49 75
REMARK SMILES IDX 46 76 68 77 69 78 74 79 70 80 71 81 73 82 75 83 72 84 56 85
REMARK SMILES IDX 57 86 62 87 58 88 59 89 61 90 63 91 60 92
REMARK H PARENT 8 20 80 54 54 65
REMARK Flexibility Score: inf
ROOT
ATOM      1  O   UNL     1      -2.333  -8.402  -0.354  1.00  0.00    -0.377 OA
ENDROOT
BRANCH   1   2
ATOM      2  C   UNL     1      -2.676  -7.112   0.127  1.00  0.00     0.188 C 
BRANCH   2   3
ATOM      3  C   UNL     1      -3.671  -6.245  -0.677  1.00  0.00     0.188 C 
BRANCH   3   4
ATOM      4  O   UNL     1      -4.296  -6.919  -1.755  1.00  0.00    -0.376 OA
BRANCH   4   5
ATOM      5  C   UNL     1      -3.998  -6.503  -3.074  1.00  0.00     0.202 C 
BRANCH   5   6
ATOM      6  C   UNL     1      -2.548  -6.633  -3.566  1.00  0.00     0.261 C 
BRANCH   6   7
ATOM      7  O   UNL     1      -1.540  -6.326  -2.596  1.00  0.00    -0.460 OA
BRANCH   7   8
ATOM      8  C   UNL     1      -1.196  -5.029  -2.448  1.00  0.00     0.343 C 
ATOM      9  O   UNL     1      -1.653  -4.081  -3.061  1.00  0.00    -0.246 OA
BRANCH   8  10
ATOM     10  C   UNL     1      -0.358  -4.918  -1.239  1.00  0.00     0.119 A 
ATOM     11  C   UNL     1      -0.686  -4.008  -0.215  1.00  0.00     0.059 A 
ATOM     12  C   UNL     1       0.113  -3.954   0.938  1.00  0.00     0.027 A 
ATOM     13  C   UNL     1       1.250  -4.759   1.047  1.00  0.00     0.005 A 
ATOM     14  C   UNL     1       0.790  -5.701  -1.126  1.00  0.00     0.139 A 
ATOM     15  C   UNL     1       1.596  -5.622   0.007  1.00  0.00     0.040 A 
ATOM     16  F   UNL     1       1.162  -6.521  -2.119  1.00  0.00    -0.206 F 
BRANCH  11  17
ATOM     17  N   UNL     1      -1.804  -3.163  -0.340  1.00  0.00    -0.321 N 
ATOM     18  C   UNL     1      -1.931  -1.808  -0.132  1.00  0.00     0.258 C 
ATOM     19  O   UNL     1      -3.070  -1.348  -0.071  1.00  0.00    -0.269 OA
ATOM     20  H   UNL     1      -2.631  -3.616  -0.623  1.00  0.00     0.170 HD
BRANCH  18  21
ATOM     21  C   UNL     1      -0.746  -0.905  -0.136  1.00  0.00     0.075 A 
ATOM     22  C   UNL     1       2.675   1.718   0.053  1.00  0.00     0.044 C 
ATOM     23  C   UNL     1       1.480   0.823  -0.039  1.00  0.00    -0.048 A 
ATOM     24  C   UNL     1       1.609  -0.456  -0.574  1.00  0.00     0.004 A 
ATOM     25  C   UNL     1       0.213   1.270   0.349  1.00  0.00     0.043 A 
ATOM     26  C   UNL     1       0.495  -1.287  -0.665  1.00  0.00     0.017 A 
ATOM     27  C   UNL     1      -0.883   0.406   0.317  1.00  0.00     0.136 A 
ATOM     28  F   UNL     1      -2.064   0.888   0.729  1.00  0.00    -0.206 F 
ENDBRANCH  18  21
ENDBRANCH  11  17
ENDBRANCH   8  10
ENDBRANCH   7   8
ENDBRANCH   6   7
ENDBRANCH   5   6
ENDBRANCH   4   5
ENDBRANCH   3   4
ENDBRANCH   2   3
ENDBRANCH   1   2
BRANCH   1  29
ATOM     29  C   UNL     1      -3.364  -9.247  -0.859  1.00  0.00     0.188 C 
BRANCH  29  30
ATOM     30  C   UNL     1      -4.801  -9.165  -0.283  1.00  0.00     0.188 C 
BRANCH  30  31
ATOM     31  O   UNL     1      -4.951  -8.288   0.820  1.00  0.00    -0.376 OA
BRANCH  31  32
ATOM     32  C   UNL     1      -5.072  -8.863   2.109  1.00  0.00     0.202 C 
BRANCH  32  33
ATOM     33  C   UNL     1      -3.907  -9.726   2.615  1.00  0.00     0.261 C 
BRANCH  33  34
ATOM     34  O   UNL     1      -3.478 -10.791   1.752  1.00  0.00    -0.460 OA
BRANCH  34  35
ATOM     35  C   UNL     1      -4.347 -11.803   1.516  1.00  0.00     0.338 C 
ATOM     36  O   UNL     1      -5.463 -11.936   1.960  1.00  0.00    -0.246 OA
BRANCH  35  37
ATOM     37  C   UNL     1      -3.750 -12.630   0.440  1.00  0.00     0.060 A 
ATOM     38  C   UNL     1      -4.380 -12.698  -0.811  1.00  0.00     0.016 A 
ATOM     39  C   UNL     1      -2.533 -13.277   0.655  1.00  0.00     0.016 A 
ATOM     40  C   UNL     1      -3.784 -13.406  -1.857  1.00  0.00     0.010 A 
ATOM     41  C   UNL     1      -1.957 -14.015  -0.380  1.00  0.00     0.010 A 
ATOM     42  C   UNL     1      -2.583 -14.091  -1.637  1.00  0.00    -0.014 A 
BRANCH  42  43
ATOM     43  C   UNL     1      -2.032 -15.000  -2.667  1.00  0.00     0.031 A 
ATOM     44  C   UNL     1      -2.313 -16.468  -2.553  1.00  0.00     0.074 A 
ATOM     45  C   UNL     1      -1.259 -14.534  -3.663  1.00  0.00     0.049 A 
ATOM     46  N   UNL     1      -1.828 -17.462  -3.249  1.00  0.00    -0.248 NA
ATOM     47  C   UNL     1      -3.267 -16.870  -1.506  1.00  0.00     0.031 C 
ATOM     48  C   UNL     1      -0.953 -13.126  -3.904  1.00  0.00     0.029 A 
ATOM     49  N   UNL     1      -0.570 -15.205  -4.643  1.00  0.00    -0.354 N 
ATOM     50  C   UNL     1      -2.400 -18.608  -2.714  1.00  0.00     0.074 A 
ATOM     51  C   UNL     1      -3.259 -18.189  -1.627  1.00  0.00     0.031 C 
ATOM     52  C   UNL     1      -0.113 -13.039  -4.949  1.00  0.00     0.029 A 
ATOM     53  C   UNL     1       0.214 -14.386  -5.418  1.00  0.00     0.049 A 
ATOM     54  H   UNL     1      -0.632 -16.178  -4.777  1.00  0.00     0.167 HD
ATOM     55  C   UNL     1      -2.220 -19.892  -3.097  1.00  0.00     0.037 A 
ATOM     56  C   UNL     1       1.124 -14.689  -6.366  1.00  0.00     0.037 A 
ATOM     57  C   UNL     1      -1.366 -20.297  -4.181  1.00  0.00     0.049 A 
ATOM     58  C   UNL     1       1.374 -16.131  -6.722  1.00  0.00     0.074 A 
ATOM     59  C   UNL     1      -1.161 -21.571  -4.680  1.00  0.00     0.029 A 
ATOM     60  N   UNL     1      -0.562 -19.442  -4.919  1.00  0.00    -0.354 N 
ATOM     61  N   UNL     1       0.803 -17.209  -6.240  1.00  0.00    -0.248 NA
ATOM     62  C   UNL     1       2.398 -16.402  -7.742  1.00  0.00     0.031 C 
ATOM     63  C   UNL     1      -0.177 -21.497  -5.668  1.00  0.00     0.029 A 
ATOM     64  C   UNL     1       0.182 -20.168  -5.833  1.00  0.00     0.049 A 
ATOM     65  H   UNL     1      -0.526 -18.464  -4.809  1.00  0.00     0.167 HD
ATOM     66  C   UNL     1       1.388 -18.282  -6.901  1.00  0.00     0.074 A 
ATOM     67  C   UNL     1       2.349 -17.726  -7.831  1.00  0.00     0.031 C 
ATOM     68  C   UNL     1       1.146 -19.607  -6.748  1.00  0.00     0.037 A 
BRANCH  55  69
ATOM     69  C   UNL     1      -2.927 -20.962  -2.317  1.00  0.00     0.057 A 
ATOM     70  C   UNL     1      -2.196 -21.858  -1.526  1.00  0.00     0.134 A 
ATOM     71  C   UNL     1      -4.313 -21.148  -2.392  1.00  0.00     0.134 A 
ATOM     72  F   UNL     1      -0.865 -21.738  -1.413  1.00  0.00    -0.206 F 
ATOM     73  C   UNL     1      -2.816 -22.909  -0.850  1.00  0.00     0.040 A 
ATOM     74  C   UNL     1      -4.948 -22.178  -1.697  1.00  0.00     0.040 A 
ATOM     75  F   UNL     1      -5.073 -20.316  -3.120  1.00  0.00    -0.206 F 
ATOM     76  C   UNL     1      -4.197 -23.069  -0.932  1.00  0.00     0.006 A 
ENDBRANCH  55  69
BRANCH  56  77
ATOM     77  C   UNL     1       1.881 -13.591  -7.018  1.00  0.00     0.057 A 
ATOM     78  C   UNL     1       2.821 -12.834  -6.306  1.00  0.00     0.134 A 
ATOM     79  C   UNL     1       1.639 -13.232  -8.347  1.00  0.00     0.134 A 
ATOM     80  F   UNL     1       3.101 -13.130  -5.028  1.00  0.00    -0.206 F 
ATOM     81  C   UNL     1       3.464 -11.736  -6.880  1.00  0.00     0.040 A 
ATOM     82  C   UNL     1       2.293 -12.151  -8.942  1.00  0.00     0.040 A 
ATOM     83  F   UNL     1       0.770 -13.935  -9.088  1.00  0.00    -0.206 F 
ATOM     84  C   UNL     1       3.198 -11.391  -8.203  1.00  0.00     0.006 A 
ENDBRANCH  56  77
BRANCH  68  85
ATOM     85  C   UNL     1       1.930 -20.573  -7.590  1.00  0.00     0.057 A 
ATOM     86  C   UNL     1       1.301 -21.323  -8.593  1.00  0.00     0.134 A 
ATOM     87  C   UNL     1       3.275 -20.854  -7.320  1.00  0.00     0.134 A 
ATOM     88  F   UNL     1       0.010 -21.113  -8.892  1.00  0.00    -0.206 F 
ATOM     89  C   UNL     1       1.972 -22.339  -9.275  1.00  0.00     0.040 A 
ATOM     90  C   UNL     1       3.965 -21.850  -8.015  1.00  0.00     0.040 A 
ATOM     91  F   UNL     1       3.938 -20.167  -6.378  1.00  0.00    -0.206 F 
ATOM     92  C   UNL     1       3.308 -22.606  -8.985  1.00  0.00     0.006 A 
ENDBRANCH  68  85
ENDBRANCH  42  43
ENDBRANCH  35  37
ENDBRANCH  34  35
ENDBRANCH  33  34
ENDBRANCH  32  33
ENDBRANCH  31  32
ENDBRANCH  30  31
ENDBRANCH  29  30
ENDBRANCH   1  29
TORSDOF 22
