REMARK SMILES CCC[N@@H+](CC1CC[NH2+]CC1)[C@@H](CC)C(=O)OCCOCCOCCOCCOC(=O)c1ccc(-c2c3nc(c(-c4c(F)cccc4F)c4ccc([nH]4)c(-c4c(F)cccc4F)c4nc(c(-c5c(F)cccc5F)c5ccc2[nH]5)C=C4)C=C3)cc1
REMARK SMILES IDX 22 1 21 2 20 3 19 4 18 5 17 6 15 7 16 8 12 9 4 10 3 12 2 13
REMARK SMILES IDX 1 14 5 15 6 16 7 17 11 18 8 19 10 20 9 21 13 24 14 25 23 26
REMARK SMILES IDX 24 27 25 28 26 29 27 30 28 31 29 32 30 33 31 34 32 35 33 36
REMARK SMILES IDX 85 37 34 38 84 39 35 40 36 41 37 42 78 43 38 44 83 45 77 46
REMARK SMILES IDX 79 47 39 48 82 49 76 50 75 51 40 53 66 54 49 55 65 56 50 57
REMARK SMILES IDX 53 58 64 59 80 60 51 61 52 62 63 64 81 65 54 66 41 67 42 68
REMARK SMILES IDX 47 69 43 70 44 71 46 72 48 73 45 74 67 75 68 76 73 77 69 78
REMARK SMILES IDX 70 79 72 80 74 81 71 82 55 83 56 84 61 85 57 86 58 87 60 88
REMARK SMILES IDX 62 89 59 90
REMARK H PARENT 4 11 9 22 9 23 79 52 53 63
REMARK Flexibility Score: inf
ROOT
ATOM      1  C   UNL     1      -1.817   1.309  -0.287  1.00  0.00     0.188 C 
ENDROOT
BRANCH   1   2
ATOM      2  C   UNL     1      -1.697   0.518  -1.602  1.00  0.00     0.188 C 
BRANCH   2   3
ATOM      3  O   UNL     1      -2.026  -0.855  -1.679  1.00  0.00    -0.376 OA
BRANCH   3   4
ATOM      4  C   UNL     1      -1.069  -1.876  -1.432  1.00  0.00     0.202 C 
BRANCH   4   5
ATOM      5  C   UNL     1       0.414  -1.696  -1.748  1.00  0.00     0.261 C 
BRANCH   5   6
ATOM      6  O   UNL     1       1.009  -0.562  -1.106  1.00  0.00    -0.459 OA
BRANCH   6   7
ATOM      7  C   UNL     1       1.512   0.389  -1.931  1.00  0.00     0.364 C 
ATOM      8  O   UNL     1       1.409   0.359  -3.157  1.00  0.00    -0.245 OA
BRANCH   7   9
ATOM      9  C   UNL     1       2.351   1.452  -1.212  1.00  0.00     0.294 C 
BRANCH   9  10
ATOM     10  N   UNL     1       1.599   2.249  -0.199  1.00  0.00    -0.323 N 
ATOM     11  H   UNL     1       0.708   1.761  -0.281  1.00  0.00     0.348 HD
BRANCH  10  12
ATOM     12  C   UNL     1       1.842   2.125   1.249  1.00  0.00     0.262 C 
BRANCH  12  13
ATOM     13  C   UNL     1       1.419   0.955   2.157  1.00  0.00     0.058 C 
ATOM     14  C   UNL     1       1.643  -0.472   1.723  1.00  0.00     0.010 C 
ENDBRANCH  12  13
ENDBRANCH  10  12
BRANCH  10  15
ATOM     15  C   UNL     1       1.559   3.712  -0.567  1.00  0.00     0.266 C 
BRANCH  15  16
ATOM     16  C   UNL     1       2.891   4.532  -0.474  1.00  0.00     0.055 C 
ATOM     17  C   UNL     1       2.650   6.053  -0.355  1.00  0.00     0.071 C 
ATOM     18  C   UNL     1       3.865   4.334  -1.648  1.00  0.00     0.071 C 
ATOM     19  C   UNL     1       2.287   6.734  -1.678  1.00  0.00     0.261 C 
ATOM     20  C   UNL     1       3.338   4.955  -2.937  1.00  0.00     0.261 C 
ATOM     21  N   UNL     1       3.207   6.397  -2.762  1.00  0.00    -0.346 N 
ATOM     22  H   UNL     1       4.125   6.788  -2.550  1.00  0.00     0.346 HD
ATOM     23  H   UNL     1       2.832   6.787  -3.627  1.00  0.00     0.346 HD
ENDBRANCH  15  16
ENDBRANCH  10  15
ENDBRANCH   9  10
BRANCH   9  24
ATOM     24  C   UNL     1       3.757   0.820  -1.081  1.00  0.00     0.074 C 
ATOM     25  C   UNL     1       4.672   1.194   0.062  1.00  0.00     0.011 C 
ENDBRANCH   9  24
ENDBRANCH   7   9
ENDBRANCH   6   7
ENDBRANCH   5   6
ENDBRANCH   4   5
ENDBRANCH   3   4
ENDBRANCH   2   3
ENDBRANCH   1   2
BRANCH   1  26
ATOM     26  O   UNL     1      -1.574   0.719   0.971  1.00  0.00    -0.377 OA
BRANCH  26  27
ATOM     27  C   UNL     1      -2.238  -0.468   1.356  1.00  0.00     0.188 C 
BRANCH  27  28
ATOM     28  C   UNL     1      -3.641  -0.816   0.828  1.00  0.00     0.188 C 
BRANCH  28  29
ATOM     29  O   UNL     1      -4.255   0.186   0.036  1.00  0.00    -0.376 OA
BRANCH  29  30
ATOM     30  C   UNL     1      -5.254   0.976   0.667  1.00  0.00     0.202 C 
BRANCH  30  31
ATOM     31  C   UNL     1      -4.782   1.906   1.797  1.00  0.00     0.261 C 
BRANCH  31  32
ATOM     32  O   UNL     1      -4.147   1.259   2.913  1.00  0.00    -0.460 OA
BRANCH  32  33
ATOM     33  C   UNL     1      -4.910   0.406   3.629  1.00  0.00     0.338 C 
ATOM     34  O   UNL     1      -6.083   0.142   3.456  1.00  0.00    -0.246 OA
BRANCH  33  35
ATOM     35  C   UNL     1      -4.037  -0.310   4.580  1.00  0.00     0.060 A 
ATOM     36  C   UNL     1      -3.954  -1.704   4.484  1.00  0.00     0.016 A 
ATOM     37  C   UNL     1      -3.343   0.377   5.579  1.00  0.00     0.016 A 
ATOM     38  C   UNL     1      -3.226  -2.422   5.429  1.00  0.00     0.010 A 
ATOM     39  C   UNL     1      -2.628  -0.347   6.539  1.00  0.00     0.010 A 
ATOM     40  C   UNL     1      -2.610  -1.752   6.495  1.00  0.00    -0.014 A 
BRANCH  40  41
ATOM     41  C   UNL     1      -2.156  -2.549   7.661  1.00  0.00     0.031 A 
ATOM     42  C   UNL     1      -3.084  -2.683   8.839  1.00  0.00     0.074 A 
ATOM     43  C   UNL     1      -0.990  -3.217   7.641  1.00  0.00     0.049 A 
ATOM     44  N   UNL     1      -2.946  -3.388   9.933  1.00  0.00    -0.248 NA
ATOM     45  C   UNL     1      -4.342  -1.921   8.771  1.00  0.00     0.031 C 
ATOM     46  C   UNL     1      -0.023  -3.200   6.546  1.00  0.00     0.029 A 
ATOM     47  N   UNL     1      -0.431  -4.053   8.575  1.00  0.00    -0.354 N 
ATOM     48  C   UNL     1      -4.099  -3.160  10.676  1.00  0.00     0.074 A 
ATOM     49  C   UNL     1      -4.905  -2.219   9.931  1.00  0.00     0.031 C 
ATOM     50  C   UNL     1       1.011  -3.997   6.869  1.00  0.00     0.029 A 
ATOM     51  C   UNL     1       0.788  -4.561   8.199  1.00  0.00     0.049 A 
ATOM     52  H   UNL     1      -0.863  -4.268   9.433  1.00  0.00     0.167 HD
ATOM     53  C   UNL     1      -4.462  -3.698  11.864  1.00  0.00     0.037 A 
ATOM     54  C   UNL     1       1.626  -5.384   8.858  1.00  0.00     0.037 A 
ATOM     55  C   UNL     1      -3.657  -4.628  12.611  1.00  0.00     0.049 A 
ATOM     56  C   UNL     1       1.229  -5.918  10.211  1.00  0.00     0.074 A 
ATOM     57  C   UNL     1      -3.938  -5.232  13.825  1.00  0.00     0.029 A 
ATOM     58  N   UNL     1      -2.407  -5.082  12.219  1.00  0.00    -0.354 N 
ATOM     59  N   UNL     1       0.126  -5.718  10.892  1.00  0.00    -0.248 NA
ATOM     60  C   UNL     1       2.193  -6.804  10.879  1.00  0.00     0.031 C 
ATOM     61  C   UNL     1      -2.834  -6.010  14.192  1.00  0.00     0.029 A 
ATOM     62  C   UNL     1      -1.893  -5.941  13.177  1.00  0.00     0.049 A 
ATOM     63  H   UNL     1      -1.951  -4.830  11.383  1.00  0.00     0.167 HD
ATOM     64  C   UNL     1       0.248  -6.480  12.049  1.00  0.00     0.074 A 
ATOM     65  C   UNL     1       1.525  -7.157  11.968  1.00  0.00     0.031 C 
ATOM     66  C   UNL     1      -0.620  -6.611  13.083  1.00  0.00     0.037 A 
BRANCH  53  67
ATOM     67  C   UNL     1      -5.780  -3.266  12.441  1.00  0.00     0.057 A 
ATOM     68  C   UNL     1      -7.002  -3.655  11.875  1.00  0.00     0.134 A 
ATOM     69  C   UNL     1      -5.828  -2.463  13.587  1.00  0.00     0.134 A 
ATOM     70  F   UNL     1      -7.029  -4.409  10.765  1.00  0.00    -0.206 F 
ATOM     71  C   UNL     1      -8.222  -3.239  12.413  1.00  0.00     0.040 A 
ATOM     72  C   UNL     1      -7.041  -2.066  14.152  1.00  0.00     0.040 A 
ATOM     73  F   UNL     1      -4.696  -2.056  14.181  1.00  0.00    -0.206 F 
ATOM     74  C   UNL     1      -8.243  -2.448  13.560  1.00  0.00     0.006 A 
ENDBRANCH  53  67
BRANCH  54  75
ATOM     75  C   UNL     1       2.928  -5.765   8.251  1.00  0.00     0.057 A 
ATOM     76  C   UNL     1       3.187  -7.079   7.845  1.00  0.00     0.134 A 
ATOM     77  C   UNL     1       3.956  -4.828   8.093  1.00  0.00     0.134 A 
ATOM     78  F   UNL     1       2.252  -8.029   7.994  1.00  0.00    -0.206 F 
ATOM     79  C   UNL     1       4.428  -7.453   7.324  1.00  0.00     0.040 A 
ATOM     80  C   UNL     1       5.191  -5.181   7.547  1.00  0.00     0.040 A 
ATOM     81  F   UNL     1       3.772  -3.552   8.462  1.00  0.00    -0.206 F 
ATOM     82  C   UNL     1       5.433  -6.500   7.169  1.00  0.00     0.006 A 
ENDBRANCH  54  75
BRANCH  66  83
ATOM     83  C   UNL     1      -0.236  -7.558  14.186  1.00  0.00     0.057 A 
ATOM     84  C   UNL     1       0.817  -7.288  15.070  1.00  0.00     0.134 A 
ATOM     85  C   UNL     1      -0.941  -8.756  14.372  1.00  0.00     0.134 A 
ATOM     86  F   UNL     1       1.539  -6.164  14.945  1.00  0.00    -0.206 F 
ATOM     87  C   UNL     1       1.183  -8.193  16.069  1.00  0.00     0.040 A 
ATOM     88  C   UNL     1      -0.606  -9.652  15.387  1.00  0.00     0.040 A 
ATOM     89  F   UNL     1      -1.970  -9.072  13.572  1.00  0.00    -0.206 F 
ATOM     90  C   UNL     1       0.467  -9.378  16.232  1.00  0.00     0.006 A 
ENDBRANCH  66  83
ENDBRANCH  40  41
ENDBRANCH  33  35
ENDBRANCH  32  33
ENDBRANCH  31  32
ENDBRANCH  30  31
ENDBRANCH  29  30
ENDBRANCH  28  29
ENDBRANCH  27  28
ENDBRANCH  26  27
ENDBRANCH   1  26
TORSDOF 26
