REMARK SMILES CC[NH+]1CCC2(CC1)OC[C@H](C(=O)OCCOCCOCCOCCOC(=O)c1ccc(-c3c4nc(c(-c5c(F)cccc5F)c5ccc([nH]5)c(-c5c(F)cccc5F)c5nc(c(-c6c(F)cccc6F)c6ccc3[nH]6)C=C5)C=C4)cc1)N2C(=O)c1ccc(F)cc1
REMARK SMILES IDX 20 1 19 2 18 3 17 4 16 5 15 6 14 7 12 8 13 9 11 10 3 11 4 12
REMARK SMILES IDX 8 13 5 15 7 16 6 17 9 18 83 19 10 20 2 21 1 22 84 23 85 24
REMARK SMILES IDX 86 25 87 26 92 27 88 28 91 29 89 30 90 31 21 32 22 33 23 34
REMARK SMILES IDX 24 35 25 36 26 37 27 38 28 39 29 40 30 41 82 42 31 43 81 44
REMARK SMILES IDX 32 45 33 46 34 47 75 48 35 49 80 50 74 51 76 52 36 53 79 54
REMARK SMILES IDX 73 55 72 56 37 58 63 59 46 60 62 61 47 62 50 63 61 64 77 65
REMARK SMILES IDX 48 66 49 67 60 69 78 70 51 71 38 72 39 73 44 74 40 75 41 76
REMARK SMILES IDX 43 77 45 78 42 79 64 80 65 81 70 82 66 83 67 84 69 85 71 86
REMARK SMILES IDX 68 87 52 88 53 89 58 90 54 91 55 92 57 93 59 94 56 95
REMARK H PARENT 3 14 76 57 50 68
REMARK Flexibility Score: inf
ROOT
ATOM      1  O   UNL     1       3.778  -4.177  -1.479  1.00  0.00    -0.377 OA
ENDROOT
BRANCH   1   2
ATOM      2  C   UNL     1       2.482  -4.114  -0.917  1.00  0.00     0.188 C 
BRANCH   2   3
ATOM      3  C   UNL     1       2.075  -4.627   0.485  1.00  0.00     0.188 C 
BRANCH   3   4
ATOM      4  O   UNL     1       2.875  -5.677   0.971  1.00  0.00    -0.376 OA
BRANCH   4   5
ATOM      5  C   UNL     1       2.424  -7.004   0.800  1.00  0.00     0.202 C 
BRANCH   5   6
ATOM      6  C   UNL     1       1.710  -7.463  -0.491  1.00  0.00     0.261 C 
BRANCH   6   7
ATOM      7  O   UNL     1       1.068  -6.442  -1.292  1.00  0.00    -0.462 OA
BRANCH   7   8
ATOM      8  C   UNL     1      -0.283  -6.422  -1.385  1.00  0.00     0.331 C 
ATOM      9  O   UNL     1      -0.980  -7.267  -0.827  1.00  0.00    -0.250 OA
BRANCH   8  10
ATOM     10  C   UNL     1      -0.886  -5.366  -2.388  1.00  0.00     0.224 C 
ATOM     11  N   UNL     1      -0.072  -0.119  -1.927  1.00  0.00    -0.335 N 
ATOM     12  C   UNL     1       0.578  -1.250  -1.311  1.00  0.00     0.267 C 
ATOM     13  C   UNL     1      -1.058  -0.478  -2.950  1.00  0.00     0.267 C 
ATOM     14  H   UNL     1       0.698   0.312  -2.438  1.00  0.00     0.348 HD
ATOM     15  C   UNL     1      -0.382  -2.317  -0.862  1.00  0.00     0.120 C 
ATOM     16  C   UNL     1      -1.804  -1.830  -2.828  1.00  0.00     0.120 C 
ATOM     17  C   UNL     1      -1.103  -2.957  -2.043  1.00  0.00     0.155 C 
ATOM     18  O   UNL     1      -2.179  -3.686  -1.375  1.00  0.00    -0.352 OA
ATOM     19  N   UNL     1      -0.365  -4.029  -2.782  1.00  0.00    -0.293 N 
ATOM     20  C   UNL     1      -2.273  -5.008  -1.909  1.00  0.00     0.200 C 
BRANCH  11  21
ATOM     21  C   UNL     1      -0.473   0.981  -1.050  1.00  0.00     0.258 C 
ATOM     22  C   UNL     1       0.409   1.202   0.184  1.00  0.00     0.071 C 
ENDBRANCH  11  21
BRANCH  19  23
ATOM     23  C   UNL     1       0.502  -3.995  -3.882  1.00  0.00     0.256 C 
ATOM     24  O   UNL     1       0.929  -5.029  -4.399  1.00  0.00    -0.269 OA
BRANCH  23  25
ATOM     25  C   UNL     1       0.925  -2.741  -4.548  1.00  0.00     0.040 A 
ATOM     26  C   UNL     1       0.197  -2.236  -5.636  1.00  0.00     0.017 A 
ATOM     27  C   UNL     1       2.141  -2.136  -4.202  1.00  0.00     0.017 A 
ATOM     28  C   UNL     1       0.596  -1.038  -6.250  1.00  0.00     0.040 A 
ATOM     29  C   UNL     1       2.514  -0.918  -4.783  1.00  0.00     0.040 A 
ATOM     30  C   UNL     1       1.725  -0.369  -5.786  1.00  0.00     0.123 A 
ATOM     31  F   UNL     1       2.056   0.817  -6.313  1.00  0.00    -0.207 F 
ENDBRANCH  23  25
ENDBRANCH  19  23
ENDBRANCH   8  10
ENDBRANCH   7   8
ENDBRANCH   6   7
ENDBRANCH   5   6
ENDBRANCH   4   5
ENDBRANCH   3   4
ENDBRANCH   2   3
ENDBRANCH   1   2
BRANCH   1  32
ATOM     32  C   UNL     1       4.809  -4.739  -0.705  1.00  0.00     0.188 C 
BRANCH  32  33
ATOM     33  C   UNL     1       5.256  -3.878   0.485  1.00  0.00     0.188 C 
BRANCH  33  34
ATOM     34  O   UNL     1       4.299  -2.946   0.944  1.00  0.00    -0.376 OA
BRANCH  34  35
ATOM     35  C   UNL     1       4.208  -1.635   0.411  1.00  0.00     0.202 C 
BRANCH  35  36
ATOM     36  C   UNL     1       4.646  -1.172  -0.996  1.00  0.00     0.261 C 
BRANCH  36  37
ATOM     37  O   UNL     1       5.493  -2.025  -1.760  1.00  0.00    -0.460 OA
BRANCH  37  38
ATOM     38  C   UNL     1       6.818  -1.874  -1.580  1.00  0.00     0.338 C 
ATOM     39  O   UNL     1       7.383  -1.081  -0.839  1.00  0.00    -0.246 OA
BRANCH  38  40
ATOM     40  C   UNL     1       7.486  -2.993  -2.263  1.00  0.00     0.060 A 
ATOM     41  C   UNL     1       8.148  -3.937  -1.467  1.00  0.00     0.016 A 
ATOM     42  C   UNL     1       7.431  -3.137  -3.651  1.00  0.00     0.016 A 
ATOM     43  C   UNL     1       8.753  -5.038  -2.055  1.00  0.00     0.010 A 
ATOM     44  C   UNL     1       8.095  -4.212  -4.248  1.00  0.00     0.010 A 
ATOM     45  C   UNL     1       8.776  -5.147  -3.449  1.00  0.00    -0.014 A 
BRANCH  45  46
ATOM     46  C   UNL     1       9.736  -6.096  -4.045  1.00  0.00     0.031 A 
ATOM     47  C   UNL     1      11.112  -5.582  -4.355  1.00  0.00     0.074 A 
ATOM     48  C   UNL     1       9.418  -7.388  -4.218  1.00  0.00     0.049 A 
ATOM     49  N   UNL     1      12.134  -6.207  -4.875  1.00  0.00    -0.248 NA
ATOM     50  C   UNL     1      11.372  -4.170  -4.022  1.00  0.00     0.031 C 
ATOM     51  C   UNL     1       8.134  -7.998  -3.876  1.00  0.00     0.029 A 
ATOM     52  N   UNL     1      10.161  -8.422  -4.725  1.00  0.00    -0.354 N 
ATOM     53  C   UNL     1      13.153  -5.265  -4.936  1.00  0.00     0.074 A 
ATOM     54  C   UNL     1      12.624  -4.022  -4.424  1.00  0.00     0.031 C 
ATOM     55  C   UNL     1       8.174  -9.302  -4.201  1.00  0.00     0.029 A 
ATOM     56  C   UNL     1       9.471  -9.605  -4.803  1.00  0.00     0.049 A 
ATOM     57  H   UNL     1      11.100  -8.325  -5.006  1.00  0.00     0.167 HD
ATOM     58  C   UNL     1      14.420  -5.428  -5.379  1.00  0.00     0.037 A 
ATOM     59  C   UNL     1       9.845 -10.786  -5.332  1.00  0.00     0.037 A 
ATOM     60  C   UNL     1      14.927  -6.670  -5.898  1.00  0.00     0.049 A 
ATOM     61  C   UNL     1      11.230 -10.915  -5.911  1.00  0.00     0.074 A 
ATOM     62  C   UNL     1      16.192  -6.950  -6.379  1.00  0.00     0.029 A 
ATOM     63  N   UNL     1      14.182  -7.835  -6.013  1.00  0.00    -0.354 N 
ATOM     64  N   UNL     1      12.195 -10.026  -5.959  1.00  0.00    -0.248 NA
ATOM     65  C   UNL     1      11.581 -12.210  -6.509  1.00  0.00     0.031 C 
ATOM     66  C   UNL     1      16.195  -8.269  -6.843  1.00  0.00     0.029 A 
ATOM     67  C   UNL     1      14.953  -8.831  -6.588  1.00  0.00     0.049 A 
ATOM     68  H   UNL     1      13.245  -7.938  -5.729  1.00  0.00     0.167 HD
ATOM     69  C   UNL     1      13.273 -10.662  -6.562  1.00  0.00     0.074 A 
ATOM     70  C   UNL     1      12.847 -12.017  -6.849  1.00  0.00     0.031 C 
ATOM     71  C   UNL     1      14.505 -10.175  -6.853  1.00  0.00     0.037 A 
BRANCH  58  72
ATOM     72  C   UNL     1      15.319  -4.228  -5.366  1.00  0.00     0.057 A 
ATOM     73  C   UNL     1      15.803  -3.671  -4.175  1.00  0.00     0.134 A 
ATOM     74  C   UNL     1      15.718  -3.628  -6.567  1.00  0.00     0.134 A 
ATOM     75  F   UNL     1      15.440  -4.181  -2.988  1.00  0.00    -0.206 F 
ATOM     76  C   UNL     1      16.636  -2.550  -4.178  1.00  0.00     0.040 A 
ATOM     77  C   UNL     1      16.574  -2.526  -6.585  1.00  0.00     0.040 A 
ATOM     78  F   UNL     1      15.288  -4.108  -7.744  1.00  0.00    -0.206 F 
ATOM     79  C   UNL     1      17.030  -1.980  -5.388  1.00  0.00     0.006 A 
ENDBRANCH  58  72
BRANCH  59  80
ATOM     80  C   UNL     1       8.892 -11.925  -5.371  1.00  0.00     0.057 A 
ATOM     81  C   UNL     1       9.121 -13.097  -4.640  1.00  0.00     0.134 A 
ATOM     82  C   UNL     1       7.740 -11.881  -6.168  1.00  0.00     0.134 A 
ATOM     83  F   UNL     1      10.217 -13.211  -3.875  1.00  0.00    -0.206 F 
ATOM     84  C   UNL     1       8.255 -14.189  -4.717  1.00  0.00     0.040 A 
ATOM     85  C   UNL     1       6.850 -12.954  -6.231  1.00  0.00     0.040 A 
ATOM     86  F   UNL     1       7.461 -10.790  -6.895  1.00  0.00    -0.206 F 
ATOM     87  C   UNL     1       7.112 -14.117  -5.511  1.00  0.00     0.006 A 
ENDBRANCH  59  80
BRANCH  71  88
ATOM     88  C   UNL     1      15.492 -11.121  -7.473  1.00  0.00     0.057 A 
ATOM     89  C   UNL     1      15.364 -11.569  -8.794  1.00  0.00     0.134 A 
ATOM     90  C   UNL     1      16.616 -11.547  -6.752  1.00  0.00     0.134 A 
ATOM     91  F   UNL     1      14.307 -11.207  -9.536  1.00  0.00    -0.206 F 
ATOM     92  C   UNL     1      16.305 -12.427  -9.366  1.00  0.00     0.040 A 
ATOM     93  C   UNL     1      17.579 -12.377  -7.324  1.00  0.00     0.040 A 
ATOM     94  F   UNL     1      16.806 -11.144  -5.486  1.00  0.00    -0.206 F 
ATOM     95  C   UNL     1      17.421 -12.825  -8.633  1.00  0.00     0.006 A 
ENDBRANCH  71  88
ENDBRANCH  45  46
ENDBRANCH  38  40
ENDBRANCH  37  38
ENDBRANCH  36  37
ENDBRANCH  35  36
ENDBRANCH  34  35
ENDBRANCH  33  34
ENDBRANCH  32  33
ENDBRANCH   1  32
TORSDOF 23
