REMARK SMILES CC(C)[C@H](NC(=O)[C@H](Cc1ccccc1)n1c(=O)[nH]c2ccccc2c1=O)C(=O)OCCOCCOCCOCCOC(=O)c1ccc(-c2c3nc(c(-c4c(F)cccc4F)c4ccc([nH]4)c(-c4c(F)cccc4F)c4nc(c(-c5c(F)cccc5F)c5ccc2[nH]5)C=C4)C=C3)cc1
REMARK SMILES IDX 35 1 34 2 33 3 32 4 31 5 30 6 28 7 29 8 4 9 2 10 1 11 3 12
REMARK SMILES IDX 5 13 6 14 7 16 8 17 16 18 17 19 26 20 18 21 19 22 25 23
REMARK SMILES IDX 27 24 20 25 24 27 21 28 23 29 22 30 9 31 10 32 11 33 15 34
REMARK SMILES IDX 12 35 14 36 13 37 36 38 37 39 38 40 39 41 40 42 41 43 42 44
REMARK SMILES IDX 43 45 44 46 45 47 46 48 98 49 47 50 97 51 48 52 49 53 50 54
REMARK SMILES IDX 91 55 51 56 96 57 90 58 92 59 52 60 95 61 89 62 88 63 53 65
REMARK SMILES IDX 79 66 62 67 78 68 63 69 66 70 77 71 93 72 64 73 65 74 76 76
REMARK SMILES IDX 94 77 67 78 54 79 55 80 60 81 56 82 57 83 59 84 61 85 58 86
REMARK SMILES IDX 80 87 81 88 86 89 82 90 83 91 85 92 87 93 84 94 68 95 69 96
REMARK SMILES IDX 74 97 70 98 71 99 73 100 75 101 72 102
REMARK H PARENT 5 15 19 26 92 64 66 75
REMARK Flexibility Score: inf
ROOT
ATOM      1  C   UNL     1      -5.492   6.078  -3.122  1.00  0.00     0.188 C 
ENDROOT
BRANCH   1   2
ATOM      2  C   UNL     1      -5.897   4.651  -3.513  1.00  0.00     0.188 C 
BRANCH   2   3
ATOM      3  O   UNL     1      -6.523   3.785  -2.580  1.00  0.00    -0.376 OA
BRANCH   3   4
ATOM      4  C   UNL     1      -6.049   3.653  -1.247  1.00  0.00     0.202 C 
BRANCH   4   5
ATOM      5  C   UNL     1      -4.555   3.545  -0.877  1.00  0.00     0.261 C 
BRANCH   5   6
ATOM      6  O   UNL     1      -3.643   4.363  -1.626  1.00  0.00    -0.462 OA
BRANCH   6   7
ATOM      7  C   UNL     1      -2.854   3.711  -2.520  1.00  0.00     0.328 C 
ATOM      8  O   UNL     1      -2.842   2.491  -2.641  1.00  0.00    -0.250 OA
BRANCH   7   9
ATOM      9  C   UNL     1      -2.167   4.687  -3.523  1.00  0.00     0.194 C 
BRANCH   9  10
ATOM     10  C   UNL     1      -0.892   4.158  -4.189  1.00  0.00     0.017 C 
ATOM     11  C   UNL     1      -1.065   2.767  -4.811  1.00  0.00     0.010 C 
ATOM     12  C   UNL     1      -0.357   5.117  -5.255  1.00  0.00     0.010 C 
ENDBRANCH   9  10
BRANCH   9  13
ATOM     13  N   UNL     1      -2.140   6.123  -3.182  1.00  0.00    -0.341 N 
ATOM     14  C   UNL     1      -1.618   6.946  -2.252  1.00  0.00     0.244 C 
ATOM     15  H   UNL     1      -2.667   6.638  -3.836  1.00  0.00     0.164 HD
ATOM     16  O   UNL     1      -2.239   8.016  -2.166  1.00  0.00    -0.273 OA
BRANCH  14  17
ATOM     17  C   UNL     1      -0.515   6.587  -1.246  1.00  0.00     0.189 C 
BRANCH  17  18
ATOM     18  N   UNL     1       0.702   5.964  -1.808  1.00  0.00    -0.247 N 
ATOM     19  C   UNL     1       1.485   6.691  -2.684  1.00  0.00     0.329 A 
ATOM     20  C   UNL     1       0.993   4.638  -1.497  1.00  0.00     0.264 A 
ATOM     21  O   UNL     1       1.094   7.644  -3.351  1.00  0.00    -0.248 OA
ATOM     22  N   UNL     1       2.748   6.231  -2.920  1.00  0.00    -0.307 N 
ATOM     23  C   UNL     1       2.147   4.033  -2.206  1.00  0.00     0.064 A 
ATOM     24  O   UNL     1       0.312   3.935  -0.755  1.00  0.00    -0.268 OA
ATOM     25  C   UNL     1       3.071   4.887  -2.792  1.00  0.00     0.055 A 
ATOM     26  H   UNL     1       3.449   6.869  -3.188  1.00  0.00     0.171 HD
ATOM     27  C   UNL     1       2.256   2.655  -2.406  1.00  0.00     0.016 A 
ATOM     28  C   UNL     1       4.201   4.388  -3.435  1.00  0.00     0.027 A 
ATOM     29  C   UNL     1       3.331   2.150  -3.142  1.00  0.00     0.001 A 
ATOM     30  C   UNL     1       4.324   3.011  -3.617  1.00  0.00     0.002 A 
ENDBRANCH  17  18
BRANCH  17  31
ATOM     31  C   UNL     1      -0.226   7.766  -0.251  1.00  0.00     0.071 C 
BRANCH  31  32
ATOM     32  C   UNL     1       0.602   8.966  -0.687  1.00  0.00    -0.045 A 
ATOM     33  C   UNL     1       0.294   9.727  -1.825  1.00  0.00     0.004 A 
ATOM     34  C   UNL     1       1.719   9.355   0.066  1.00  0.00     0.004 A 
ATOM     35  C   UNL     1       1.151  10.730  -2.287  1.00  0.00     0.000 A 
ATOM     36  C   UNL     1       2.555  10.390  -0.370  1.00  0.00     0.000 A 
ATOM     37  C   UNL     1       2.291  11.053  -1.565  1.00  0.00     0.000 A 
ENDBRANCH  31  32
ENDBRANCH  17  31
ENDBRANCH  14  17
ENDBRANCH   9  13
ENDBRANCH   7   9
ENDBRANCH   6   7
ENDBRANCH   5   6
ENDBRANCH   4   5
ENDBRANCH   3   4
ENDBRANCH   2   3
ENDBRANCH   1   2
BRANCH   1  38
ATOM     38  O   UNL     1      -5.420   6.299  -1.732  1.00  0.00    -0.377 OA
BRANCH  38  39
ATOM     39  C   UNL     1      -6.512   6.988  -1.143  1.00  0.00     0.188 C 
BRANCH  39  40
ATOM     40  C   UNL     1      -7.925   6.698  -1.695  1.00  0.00     0.188 C 
BRANCH  40  41
ATOM     41  O   UNL     1      -8.041   6.810  -3.107  1.00  0.00    -0.376 OA
BRANCH  41  42
ATOM     42  C   UNL     1      -8.491   8.033  -3.673  1.00  0.00     0.202 C 
BRANCH  42  43
ATOM     43  C   UNL     1      -7.653   9.306  -3.456  1.00  0.00     0.261 C 
BRANCH  43  44
ATOM     44  O   UNL     1      -7.387   9.686  -2.098  1.00  0.00    -0.460 OA
BRANCH  44  45
ATOM     45  C   UNL     1      -8.433   9.899  -1.277  1.00  0.00     0.338 C 
ATOM     46  O   UNL     1      -9.617   9.878  -1.572  1.00  0.00    -0.246 OA
BRANCH  45  47
ATOM     47  C   UNL     1      -7.916   9.955   0.107  1.00  0.00     0.060 A 
ATOM     48  C   UNL     1      -8.401   9.035   1.047  1.00  0.00     0.016 A 
ATOM     49  C   UNL     1      -6.960  10.904   0.477  1.00  0.00     0.016 A 
ATOM     50  C   UNL     1      -7.966   9.091   2.370  1.00  0.00     0.010 A 
ATOM     51  C   UNL     1      -6.546  10.978   1.811  1.00  0.00     0.010 A 
ATOM     52  C   UNL     1      -7.080  10.098   2.770  1.00  0.00    -0.014 A 
BRANCH  52  53
ATOM     53  C   UNL     1      -6.901  10.376   4.215  1.00  0.00     0.031 A 
ATOM     54  C   UNL     1      -7.727  11.473   4.831  1.00  0.00     0.074 A 
ATOM     55  C   UNL     1      -6.058   9.656   4.976  1.00  0.00     0.049 A 
ATOM     56  N   UNL     1      -7.720  11.939   6.053  1.00  0.00    -0.248 NA
ATOM     57  C   UNL     1      -8.696  12.136   3.940  1.00  0.00     0.031 C 
ATOM     58  C   UNL     1      -5.245   8.535   4.512  1.00  0.00     0.029 A 
ATOM     59  N   UNL     1      -5.745   9.774   6.308  1.00  0.00    -0.354 N 
ATOM     60  C   UNL     1      -8.671  12.951   6.075  1.00  0.00     0.074 A 
ATOM     61  C   UNL     1      -9.214  13.055   4.739  1.00  0.00     0.031 C 
ATOM     62  C   UNL     1      -4.511   8.076   5.542  1.00  0.00     0.029 A 
ATOM     63  C   UNL     1      -4.778   8.893   6.725  1.00  0.00     0.049 A 
ATOM     64  H   UNL     1      -6.174  10.428   6.906  1.00  0.00     0.167 HD
ATOM     65  C   UNL     1      -9.062  13.721   7.117  1.00  0.00     0.037 A 
ATOM     66  C   UNL     1      -4.162   8.783   7.919  1.00  0.00     0.037 A 
ATOM     67  C   UNL     1      -8.516  13.619   8.444  1.00  0.00     0.049 A 
ATOM     68  C   UNL     1      -4.552   9.713   9.041  1.00  0.00     0.074 A 
ATOM     69  C   UNL     1      -8.853  14.346   9.572  1.00  0.00     0.029 A 
ATOM     70  N   UNL     1      -7.511  12.741   8.817  1.00  0.00    -0.354 N 
ATOM     71  N   UNL     1      -5.466  10.653   9.061  1.00  0.00    -0.248 NA
ATOM     72  C   UNL     1      -3.822   9.563  10.309  1.00  0.00     0.031 C 
ATOM     73  C   UNL     1      -8.008  13.950  10.613  1.00  0.00     0.029 A 
ATOM     74  C   UNL     1      -7.193  12.929  10.152  1.00  0.00     0.049 A 
ATOM     75  H   UNL     1      -7.086  12.082   8.222  1.00  0.00     0.167 HD
ATOM     76  C   UNL     1      -5.445  11.181  10.348  1.00  0.00     0.074 A 
ATOM     77  C   UNL     1      -4.437  10.447  11.083  1.00  0.00     0.031 C 
ATOM     78  C   UNL     1      -6.194  12.182  10.875  1.00  0.00     0.037 A 
BRANCH  65  79
ATOM     79  C   UNL     1     -10.109  14.765   6.851  1.00  0.00     0.057 A 
ATOM     80  C   UNL     1     -11.443  14.430   6.583  1.00  0.00     0.134 A 
ATOM     81  C   UNL     1      -9.781  16.126   6.892  1.00  0.00     0.134 A 
ATOM     82  F   UNL     1     -11.821  13.145   6.513  1.00  0.00    -0.206 F 
ATOM     83  C   UNL     1     -12.406  15.411   6.340  1.00  0.00     0.040 A 
ATOM     84  C   UNL     1     -10.742  17.116   6.681  1.00  0.00     0.040 A 
ATOM     85  F   UNL     1      -8.523  16.517   7.146  1.00  0.00    -0.206 F 
ATOM     86  C   UNL     1     -12.058  16.759   6.397  1.00  0.00     0.006 A 
ENDBRANCH  65  79
BRANCH  66  87
ATOM     87  C   UNL     1      -3.094   7.769   8.120  1.00  0.00     0.057 A 
ATOM     88  C   UNL     1      -3.265   6.696   9.002  1.00  0.00     0.134 A 
ATOM     89  C   UNL     1      -1.860   7.872   7.466  1.00  0.00     0.134 A 
ATOM     90  F   UNL     1      -4.414   6.556   9.680  1.00  0.00    -0.206 F 
ATOM     91  C   UNL     1      -2.243   5.776   9.244  1.00  0.00     0.040 A 
ATOM     92  C   UNL     1      -0.839   6.943   7.676  1.00  0.00     0.040 A 
ATOM     93  F   UNL     1      -1.628   8.878   6.610  1.00  0.00    -0.206 F 
ATOM     94  C   UNL     1      -1.026   5.896   8.575  1.00  0.00     0.006 A 
ENDBRANCH  66  87
BRANCH  78  95
ATOM     95  C   UNL     1      -5.991  12.511  12.327  1.00  0.00     0.057 A 
ATOM     96  C   UNL     1      -4.829  13.137  12.794  1.00  0.00     0.134 A 
ATOM     97  C   UNL     1      -6.997  12.238  13.264  1.00  0.00     0.134 A 
ATOM     98  F   UNL     1      -3.822  13.418  11.953  1.00  0.00    -0.206 F 
ATOM     99  C   UNL     1      -4.663  13.456  14.144  1.00  0.00     0.040 A 
ATOM    100  C   UNL     1      -6.857  12.581  14.609  1.00  0.00     0.040 A 
ATOM    101  F   UNL     1      -8.142  11.652  12.884  1.00  0.00    -0.206 F 
ATOM    102  C   UNL     1      -5.683  13.185  15.054  1.00  0.00     0.006 A 
ENDBRANCH  78  95
ENDBRANCH  52  53
ENDBRANCH  45  47
ENDBRANCH  44  45
ENDBRANCH  43  44
ENDBRANCH  42  43
ENDBRANCH  41  42
ENDBRANCH  40  41
ENDBRANCH  39  40
ENDBRANCH  38  39
ENDBRANCH   1  38
TORSDOF 26
