REMARK SMILES O=C(OCCOCCOCCOCCOC(=O)c1ccc(-c2c3nc(c(-c4c(F)cccc4F)c4ccc([nH]4)c(-c4c(F)cccc4F)c4nc(c(-c5c(F)cccc5F)c5ccc2[nH]5)C=C4)C=C3)cc1)C1=Cc2cc(Cl)c(Cl)cc2O[C@@H]1C(F)(F)F
REMARK SMILES IDX 10 1 9 2 8 3 7 4 6 5 5 6 4 7 3 8 2 9 1 10 72 11 73 12 83 13
REMARK SMILES IDX 74 14 82 15 75 16 81 17 76 18 80 19 77 20 78 21 79 22 84 23
REMARK SMILES IDX 85 24 86 25 87 26 11 27 12 28 13 29 14 30 15 31 16 32 17 33
REMARK SMILES IDX 18 34 19 35 71 36 20 37 70 38 21 39 22 40 23 41 64 42 24 43
REMARK SMILES IDX 69 44 63 45 65 46 25 47 68 48 62 49 61 50 26 52 52 53 35 54
REMARK SMILES IDX 51 55 36 56 39 57 50 58 66 59 37 60 38 61 49 63 67 64 40 65
REMARK SMILES IDX 27 66 28 67 33 68 29 69 30 70 32 71 34 72 31 73 53 74 54 75
REMARK SMILES IDX 59 76 55 77 56 78 58 79 60 80 57 81 41 82 42 83 47 84 43 85
REMARK SMILES IDX 44 86 46 87 48 88 45 89
REMARK H PARENT 65 51 39 62
REMARK Flexibility Score: inf
ROOT
ATOM      1  C   UNL     1       4.069  -2.367   2.802  1.00  0.00     0.188 C 
ENDROOT
BRANCH   1   2
ATOM      2  O   UNL     1       2.729  -2.784   2.899  1.00  0.00    -0.377 OA
BRANCH   2   3
ATOM      3  C   UNL     1       1.895  -2.081   2.007  1.00  0.00     0.188 C 
BRANCH   3   4
ATOM      4  C   UNL     1       2.244  -2.211   0.514  1.00  0.00     0.188 C 
BRANCH   4   5
ATOM      5  O   UNL     1       3.575  -1.958  -0.059  1.00  0.00    -0.376 OA
BRANCH   5   6
ATOM      6  C   UNL     1       4.318  -0.597  -0.664  1.00  0.00     0.202 C 
BRANCH   6   7
ATOM      7  C   UNL     1       3.609   1.462  -0.496  1.00  0.00     0.261 C 
BRANCH   7   8
ATOM      8  O   UNL     1       2.683   2.174  -1.455  1.00  0.00    -0.460 OA
BRANCH   8   9
ATOM      9  C   UNL     1       2.860   1.775  -2.721  1.00  0.00     0.338 C 
ATOM     10  O   UNL     1       2.178   2.029  -3.682  1.00  0.00    -0.246 OA
BRANCH   9  11
ATOM     11  C   UNL     1       3.727   0.640  -2.437  1.00  0.00     0.087 C 
ATOM     12  C   UNL     1       5.115   1.004  -2.114  1.00  0.00     0.027 C 
ATOM     13  C   UNL     1       2.479  -0.119  -1.189  1.00  0.00     0.316 C 
ATOM     14  C   UNL     1       5.805   1.015  -0.450  1.00  0.00     0.019 A 
ATOM     15  O   UNL     1       3.140   0.019   0.641  1.00  0.00    -0.475 OA
ATOM     16  C   UNL     1       7.108   1.386  -0.255  1.00  0.00     0.034 A 
ATOM     17  C   UNL     1       4.849   0.634   0.940  1.00  0.00     0.129 A 
ATOM     18  C   UNL     1       7.550   1.388   1.087  1.00  0.00     0.060 A 
ATOM     19  C   UNL     1       5.344   0.690   2.217  1.00  0.00     0.069 A 
ATOM     20  Cl  UNL     1       9.226   1.834   1.289  1.00  0.00    -0.083 Cl
ATOM     21  C   UNL     1       6.719   1.056   2.253  1.00  0.00     0.063 A 
ATOM     22  Cl  UNL     1       7.446   1.082   3.840  1.00  0.00    -0.083 Cl
BRANCH  13  23
ATOM     23  C   UNL     1       2.158  -1.439  -2.167  1.00  0.00     0.430 C 
ATOM     24  F   UNL     1       1.262  -2.346  -1.738  1.00  0.00    -0.167 F 
ATOM     25  F   UNL     1       1.601  -0.942  -3.314  1.00  0.00    -0.167 F 
ATOM     26  F   UNL     1       3.251  -2.117  -2.596  1.00  0.00    -0.167 F 
ENDBRANCH  13  23
ENDBRANCH   9  11
ENDBRANCH   8   9
ENDBRANCH   7   8
ENDBRANCH   6   7
ENDBRANCH   5   6
ENDBRANCH   4   5
ENDBRANCH   3   4
ENDBRANCH   2   3
ENDBRANCH   1   2
BRANCH   1  27
ATOM     27  C   UNL     1       5.048  -3.350   2.149  1.00  0.00     0.188 C 
BRANCH  27  28
ATOM     28  O   UNL     1       4.639  -4.507   1.441  1.00  0.00    -0.376 OA
BRANCH  28  29
ATOM     29  C   UNL     1       3.437  -5.189   1.743  1.00  0.00     0.202 C 
BRANCH  29  30
ATOM     30  C   UNL     1       3.162  -5.785   3.130  1.00  0.00     0.261 C 
BRANCH  30  31
ATOM     31  O   UNL     1       3.453  -4.938   4.247  1.00  0.00    -0.460 OA
BRANCH  31  32
ATOM     32  C   UNL     1       4.706  -5.055   4.729  1.00  0.00     0.338 C 
ATOM     33  O   UNL     1       5.557  -5.855   4.377  1.00  0.00    -0.246 OA
BRANCH  32  34
ATOM     34  C   UNL     1       4.999  -3.939   5.652  1.00  0.00     0.060 A 
ATOM     35  C   UNL     1       6.227  -3.278   5.493  1.00  0.00     0.016 A 
ATOM     36  C   UNL     1       4.128  -3.578   6.682  1.00  0.00     0.016 A 
ATOM     37  C   UNL     1       6.633  -2.323   6.411  1.00  0.00     0.010 A 
ATOM     38  C   UNL     1       4.556  -2.650   7.635  1.00  0.00     0.010 A 
ATOM     39  C   UNL     1       5.840  -2.083   7.536  1.00  0.00    -0.014 A 
BRANCH  39  40
ATOM     40  C   UNL     1       6.502  -1.500   8.723  1.00  0.00     0.031 A 
ATOM     41  C   UNL     1       6.983  -2.444   9.793  1.00  0.00     0.074 A 
ATOM     42  C   UNL     1       6.767  -0.186   8.797  1.00  0.00     0.049 A 
ATOM     43  N   UNL     1       7.604  -2.186  10.915  1.00  0.00    -0.248 NA
ATOM     44  C   UNL     1       6.729  -3.877   9.565  1.00  0.00     0.031 C 
ATOM     45  C   UNL     1       6.425   0.804   7.779  1.00  0.00     0.029 A 
ATOM     46  N   UNL     1       7.398   0.534   9.776  1.00  0.00    -0.354 N 
ATOM     47  C   UNL     1       7.791  -3.417  11.532  1.00  0.00     0.074 A 
ATOM     48  C   UNL     1       7.191  -4.418  10.681  1.00  0.00     0.031 C 
ATOM     49  C   UNL     1       6.851   2.011   8.189  1.00  0.00     0.029 A 
ATOM     50  C   UNL     1       7.458   1.878   9.512  1.00  0.00     0.049 A 
ATOM     51  H   UNL     1       7.772   0.126  10.590  1.00  0.00     0.167 HD
ATOM     52  C   UNL     1       8.415  -3.689  12.702  1.00  0.00     0.037 A 
ATOM     53  C   UNL     1       7.935   2.884  10.268  1.00  0.00     0.037 A 
ATOM     54  C   UNL     1       9.013  -2.683  13.539  1.00  0.00     0.049 A 
ATOM     55  C   UNL     1       8.542   2.566  11.610  1.00  0.00     0.074 A 
ATOM     56  C   UNL     1       9.686  -2.846  14.736  1.00  0.00     0.029 A 
ATOM     57  N   UNL     1       8.996  -1.322  13.270  1.00  0.00    -0.354 N 
ATOM     58  N   UNL     1       8.727   1.401  12.185  1.00  0.00    -0.248 NA
ATOM     59  C   UNL     1       9.013   3.707  12.406  1.00  0.00     0.031 C 
ATOM     60  C   UNL     1      10.001  -1.579  15.233  1.00  0.00     0.029 A 
ATOM     61  C   UNL     1       9.610  -0.630  14.301  1.00  0.00     0.049 A 
ATOM     62  H   UNL     1       8.606  -0.909  12.466  1.00  0.00     0.167 HD
ATOM     63  C   UNL     1       9.377   1.665  13.385  1.00  0.00     0.074 A 
ATOM     64  C   UNL     1       9.561   3.100  13.448  1.00  0.00     0.031 C 
ATOM     65  C   UNL     1       9.790   0.800  14.346  1.00  0.00     0.037 A 
BRANCH  52  66
ATOM     66  C   UNL     1       8.425  -5.118  13.170  1.00  0.00     0.057 A 
ATOM     67  C   UNL     1       9.138  -6.125  12.507  1.00  0.00     0.134 A 
ATOM     68  C   UNL     1       7.711  -5.487  14.319  1.00  0.00     0.134 A 
ATOM     69  F   UNL     1       9.832  -5.848  11.392  1.00  0.00    -0.206 F 
ATOM     70  C   UNL     1       9.112  -7.451  12.947  1.00  0.00     0.040 A 
ATOM     71  C   UNL     1       7.708  -6.801  14.790  1.00  0.00     0.040 A 
ATOM     72  F   UNL     1       7.008  -4.575  15.007  1.00  0.00    -0.206 F 
ATOM     73  C   UNL     1       8.402  -7.790  14.096  1.00  0.00     0.006 A 
ENDBRANCH  52  66
BRANCH  53  74
ATOM     74  C   UNL     1       7.856   4.286   9.783  1.00  0.00     0.057 A 
ATOM     75  C   UNL     1       9.012   5.022   9.500  1.00  0.00     0.134 A 
ATOM     76  C   UNL     1       6.625   4.933   9.617  1.00  0.00     0.134 A 
ATOM     77  F   UNL     1      10.223   4.465   9.658  1.00  0.00    -0.206 F 
ATOM     78  C   UNL     1       8.950   6.357   9.098  1.00  0.00     0.040 A 
ATOM     79  C   UNL     1       6.547   6.257   9.184  1.00  0.00     0.040 A 
ATOM     80  F   UNL     1       5.478   4.284   9.866  1.00  0.00    -0.206 F 
ATOM     81  C   UNL     1       7.713   6.977   8.935  1.00  0.00     0.006 A 
ENDBRANCH  53  74
BRANCH  65  82
ATOM     82  C   UNL     1      10.540   1.377  15.516  1.00  0.00     0.057 A 
ATOM     83  C   UNL     1       9.932   2.214  16.460  1.00  0.00     0.134 A 
ATOM     84  C   UNL     1      11.894   1.068  15.709  1.00  0.00     0.134 A 
ATOM     85  F   UNL     1       8.641   2.557  16.336  1.00  0.00    -0.206 F 
ATOM     86  C   UNL     1      10.654   2.761  17.524  1.00  0.00     0.040 A 
ATOM     87  C   UNL     1      12.615   1.574  16.791  1.00  0.00     0.040 A 
ATOM     88  F   UNL     1      12.538   0.258  14.855  1.00  0.00    -0.206 F 
ATOM     89  C   UNL     1      11.998   2.435  17.694  1.00  0.00     0.006 A 
ENDBRANCH  65  82
ENDBRANCH  39  40
ENDBRANCH  32  34
ENDBRANCH  31  32
ENDBRANCH  30  31
ENDBRANCH  29  30
ENDBRANCH  28  29
ENDBRANCH  27  28
ENDBRANCH   1  27
TORSDOF 21
