REMARK SMILES O=C(CCCN1C(=O)c2ccc3c4c(ccc(c24)C1=O)C(=O)NC3=O)OCCOCCOCCOCCOC(=O)c1ccc(-c2c3nc(c(-c4c(F)cccc4F)c4ccc([nH]4)c(-c4c(F)cccc4F)c4nc(c(-c5c(F)cccc5F)c5ccc2[nH]5)C=C4)C=C3)cc1
REMARK SMILES IDX 31 1 30 2 29 3 28 4 27 5 26 6 2 7 1 8 3 9 4 10 5 11 6 12
REMARK SMILES IDX 19 13 7 14 20 15 17 16 9 17 8 18 16 19 18 20 10 21 15 22
REMARK SMILES IDX 13 23 11 24 14 25 12 26 21 27 24 28 23 29 22 30 25 31 32 33
REMARK SMILES IDX 33 34 34 35 35 36 36 37 37 38 38 39 39 40 40 41 41 42 42 43
REMARK SMILES IDX 94 44 43 45 93 46 44 47 45 48 46 49 87 50 47 51 92 52 86 53
REMARK SMILES IDX 88 54 48 55 91 56 85 57 84 58 49 60 75 61 58 62 74 63 59 64
REMARK SMILES IDX 62 65 73 66 89 67 60 68 61 69 72 71 90 72 63 73 50 74 51 75
REMARK SMILES IDX 56 76 52 77 53 78 55 79 57 80 54 81 76 82 77 83 82 84 78 85
REMARK SMILES IDX 79 86 81 87 83 88 80 89 64 90 65 91 70 92 66 93 67 94 69 95
REMARK SMILES IDX 71 96 68 97
REMARK H PARENT 23 32 88 59 62 70
REMARK Flexibility Score: inf
ROOT
ATOM      1  C   UNL     1       1.723  -2.070  -1.971  1.00  0.00     0.188 C 
ENDROOT
BRANCH   1   2
ATOM      2  C   UNL     1       1.713  -0.578  -1.615  1.00  0.00     0.188 C 
BRANCH   2   3
ATOM      3  O   UNL     1       2.974   0.055  -1.464  1.00  0.00    -0.376 OA
BRANCH   3   4
ATOM      4  C   UNL     1       3.869  -0.461  -0.494  1.00  0.00     0.202 C 
BRANCH   4   5
ATOM      5  C   UNL     1       3.355  -0.858   0.882  1.00  0.00     0.261 C 
BRANCH   5   6
ATOM      6  O   UNL     1       2.728   0.142   1.700  1.00  0.00    -0.463 OA
BRANCH   6   7
ATOM      7  C   UNL     1       2.410   1.379   1.287  1.00  0.00     0.305 C 
ATOM      8  O   UNL     1       1.275   1.813   1.475  1.00  0.00    -0.252 OA
BRANCH   7   9
ATOM      9  C   UNL     1       3.501   2.251   0.698  1.00  0.00     0.124 C 
BRANCH   9  10
ATOM     10  C   UNL     1       4.795   2.451   1.496  1.00  0.00     0.034 C 
BRANCH  10  11
ATOM     11  C   UNL     1       5.894   1.364   1.641  1.00  0.00     0.130 C 
BRANCH  11  12
ATOM     12  N   UNL     1       6.637   0.848   0.468  1.00  0.00    -0.274 N 
ATOM     13  C   UNL     1       7.141   1.732  -0.486  1.00  0.00     0.261 C 
ATOM     14  C   UNL     1       6.985  -0.512   0.489  1.00  0.00     0.261 C 
ATOM     15  O   UNL     1       7.056   2.953  -0.405  1.00  0.00    -0.269 OA
ATOM     16  C   UNL     1       7.842   1.145  -1.664  1.00  0.00     0.049 A 
ATOM     17  C   UNL     1       7.633  -1.083  -0.718  1.00  0.00     0.049 A 
ATOM     18  O   UNL     1       6.761  -1.267   1.432  1.00  0.00    -0.269 OA
ATOM     19  C   UNL     1       8.299   1.981  -2.692  1.00  0.00     0.015 A 
ATOM     20  C   UNL     1       8.031  -0.237  -1.754  1.00  0.00     0.009 A 
ATOM     21  C   UNL     1       7.825  -2.471  -0.819  1.00  0.00     0.015 A 
ATOM     22  C   UNL     1       8.933   1.444  -3.815  1.00  0.00     0.015 A 
ATOM     23  C   UNL     1       8.643  -0.793  -2.912  1.00  0.00     0.009 A 
ATOM     24  C   UNL     1       8.397  -3.020  -1.967  1.00  0.00     0.015 A 
ATOM     25  C   UNL     1       9.094   0.061  -3.929  1.00  0.00     0.048 A 
ATOM     26  C   UNL     1       8.788  -2.184  -3.015  1.00  0.00     0.048 A 
ATOM     27  C   UNL     1       9.757  -0.512  -5.126  1.00  0.00     0.258 C 
ATOM     28  C   UNL     1       9.340  -2.773  -4.257  1.00  0.00     0.258 C 
ATOM     29  N   UNL     1       9.799  -1.885  -5.199  1.00  0.00    -0.288 N 
ATOM     30  O   UNL     1      10.236   0.201  -5.998  1.00  0.00    -0.269 OA
ATOM     31  O   UNL     1       9.357  -3.985  -4.430  1.00  0.00    -0.269 OA
ATOM     32  H   UNL     1      10.200  -2.271  -6.011  1.00  0.00     0.173 HD
ENDBRANCH  11  12
ENDBRANCH  10  11
ENDBRANCH   9  10
ENDBRANCH   7   9
ENDBRANCH   6   7
ENDBRANCH   5   6
ENDBRANCH   4   5
ENDBRANCH   3   4
ENDBRANCH   2   3
ENDBRANCH   1   2
BRANCH   1  33
ATOM     33  O   UNL     1       2.805  -2.766  -1.357  1.00  0.00    -0.377 OA
BRANCH  33  34
ATOM     34  C   UNL     1       3.765  -3.321  -2.261  1.00  0.00     0.188 C 
BRANCH  34  35
ATOM     35  C   UNL     1       4.533  -2.344  -3.195  1.00  0.00     0.188 C 
BRANCH  35  36
ATOM     36  O   UNL     1       3.689  -1.398  -3.811  1.00  0.00    -0.376 OA
BRANCH  36  37
ATOM     37  C   UNL     1       3.270  -1.574  -5.150  1.00  0.00     0.202 C 
BRANCH  37  38
ATOM     38  C   UNL     1       2.824  -2.943  -5.710  1.00  0.00     0.261 C 
BRANCH  38  39
ATOM     39  O   UNL     1       3.242  -4.124  -5.008  1.00  0.00    -0.460 OA
BRANCH  39  40
ATOM     40  C   UNL     1       4.402  -4.705  -5.405  1.00  0.00     0.338 C 
ATOM     41  O   UNL     1       5.107  -4.345  -6.323  1.00  0.00    -0.246 OA
BRANCH  40  42
ATOM     42  C   UNL     1       4.827  -5.696  -4.376  1.00  0.00     0.060 A 
ATOM     43  C   UNL     1       6.069  -5.489  -3.763  1.00  0.00     0.016 A 
ATOM     44  C   UNL     1       4.051  -6.799  -4.011  1.00  0.00     0.016 A 
ATOM     45  C   UNL     1       6.557  -6.395  -2.820  1.00  0.00     0.010 A 
ATOM     46  C   UNL     1       4.557  -7.729  -3.084  1.00  0.00     0.010 A 
ATOM     47  C   UNL     1       5.830  -7.549  -2.508  1.00  0.00    -0.014 A 
BRANCH  47  48
ATOM     48  C   UNL     1       6.530  -8.644  -1.780  1.00  0.00     0.031 A 
ATOM     49  C   UNL     1       7.129  -9.766  -2.590  1.00  0.00     0.074 A 
ATOM     50  C   UNL     1       6.752  -8.594  -0.453  1.00  0.00     0.049 A 
ATOM     51  N   UNL     1       7.772 -10.834  -2.192  1.00  0.00    -0.248 NA
ATOM     52  C   UNL     1       6.993  -9.658  -4.052  1.00  0.00     0.031 C 
ATOM     53  C   UNL     1       6.318  -7.523   0.441  1.00  0.00     0.029 A 
ATOM     54  N   UNL     1       7.415  -9.471   0.374  1.00  0.00    -0.354 N 
ATOM     55  C   UNL     1       8.112 -11.524  -3.350  1.00  0.00     0.074 A 
ATOM     56  C   UNL     1       7.580 -10.770  -4.464  1.00  0.00     0.031 C 
ATOM     57  C   UNL     1       6.717  -7.810   1.694  1.00  0.00     0.029 A 
ATOM     58  C   UNL     1       7.399  -9.104   1.699  1.00  0.00     0.049 A 
ATOM     59  H   UNL     1       7.859 -10.287   0.048  1.00  0.00     0.167 HD
ATOM     60  C   UNL     1       8.814 -12.675  -3.479  1.00  0.00     0.037 A 
ATOM     61  C   UNL     1       7.853  -9.753   2.792  1.00  0.00     0.037 A 
ATOM     62  C   UNL     1       9.351 -13.428  -2.376  1.00  0.00     0.049 A 
ATOM     63  C   UNL     1       8.535 -11.091   2.629  1.00  0.00     0.074 A 
ATOM     64  C   UNL     1      10.049 -14.623  -2.406  1.00  0.00     0.029 A 
ATOM     65  N   UNL     1       9.252 -13.056  -1.045  1.00  0.00    -0.354 N 
ATOM     66  N   UNL     1       8.822 -11.750   1.532  1.00  0.00    -0.248 NA
ATOM     67  C   UNL     1       8.956 -11.775   3.862  1.00  0.00     0.031 C 
ATOM     68  C   UNL     1      10.328 -15.000  -1.089  1.00  0.00     0.029 A 
ATOM     69  C   UNL     1       9.859 -14.009  -0.243  1.00  0.00     0.049 A 
ATOM     70  H   UNL     1       8.816 -12.236  -0.718  1.00  0.00     0.167 HD
ATOM     71  C   UNL     1       9.477 -12.907   1.941  1.00  0.00     0.074 A 
ATOM     72  C   UNL     1       9.572 -12.845   3.384  1.00  0.00     0.031 C 
ATOM     73  C   UNL     1       9.953 -13.933   1.193  1.00  0.00     0.037 A 
BRANCH  60  74
ATOM     74  C   UNL     1       9.013 -13.213  -4.867  1.00  0.00     0.057 A 
ATOM     75  C   UNL     1       9.885 -12.607  -5.781  1.00  0.00     0.134 A 
ATOM     76  C   UNL     1       8.351 -14.377  -5.279  1.00  0.00     0.134 A 
ATOM     77  F   UNL     1      10.535 -11.479  -5.456  1.00  0.00    -0.206 F 
ATOM     78  C   UNL     1      10.079 -13.131  -7.061  1.00  0.00     0.040 A 
ATOM     79  C   UNL     1       8.559 -14.925  -6.545  1.00  0.00     0.040 A 
ATOM     80  F   UNL     1       7.503 -15.007  -4.453  1.00  0.00    -0.206 F 
ATOM     81  C   UNL     1       9.422 -14.299  -7.442  1.00  0.00     0.006 A 
ENDBRANCH  60  74
BRANCH  61  82
ATOM     82  C   UNL     1       7.632  -9.193   4.154  1.00  0.00     0.057 A 
ATOM     83  C   UNL     1       8.700  -8.832   4.986  1.00  0.00     0.134 A 
ATOM     84  C   UNL     1       6.341  -9.083   4.689  1.00  0.00     0.134 A 
ATOM     85  F   UNL     1       9.963  -8.944   4.549  1.00  0.00    -0.206 F 
ATOM     86  C   UNL     1       8.496  -8.415   6.304  1.00  0.00     0.040 A 
ATOM     87  C   UNL     1       6.121  -8.634   5.992  1.00  0.00     0.040 A 
ATOM     88  F   UNL     1       5.272  -9.419   3.952  1.00  0.00    -0.206 F 
ATOM     89  C   UNL     1       7.202  -8.312   6.809  1.00  0.00     0.006 A 
ENDBRANCH  61  82
BRANCH  73  90
ATOM     90  C   UNL     1      10.653 -15.050   1.918  1.00  0.00     0.057 A 
ATOM     91  C   UNL     1       9.966 -15.939   2.755  1.00  0.00     0.134 A 
ATOM     92  C   UNL     1      12.032 -15.246   1.765  1.00  0.00     0.134 A 
ATOM     93  F   UNL     1       8.646 -15.805   2.953  1.00  0.00    -0.206 F 
ATOM     94  C   UNL     1      10.631 -16.954   3.446  1.00  0.00     0.040 A 
ATOM     95  C   UNL     1      12.702 -16.278   2.424  1.00  0.00     0.040 A 
ATOM     96  F   UNL     1      12.752 -14.442   0.967  1.00  0.00    -0.206 F 
ATOM     97  C   UNL     1      12.003 -17.128   3.277  1.00  0.00     0.006 A 
ENDBRANCH  73  90
ENDBRANCH  47  48
ENDBRANCH  40  42
ENDBRANCH  39  40
ENDBRANCH  38  39
ENDBRANCH  37  38
ENDBRANCH  36  37
ENDBRANCH  35  36
ENDBRANCH  34  35
ENDBRANCH  33  34
ENDBRANCH   1  33
TORSDOF 23
