REMARK SMILES CC(C)CN(C)c1cc2c(cc1Cl)C=C(C(=O)OCCOCCOCCOCCOC(=O)c1ccc(-c3c4nc(c(-c5c(F)cccc5F)c5ccc([nH]5)c(-c5c(F)cccc5F)c5nc(c(-c6c(F)cccc6F)c6ccc3[nH]6)C=C5)C=C4)cc1)[C@H](C(F)(F)F)O2
REMARK SMILES IDX 23 1 22 2 21 3 20 4 19 5 18 6 16 7 17 8 15 9 7 10 8 11 12 12
REMARK SMILES IDX 9 13 11 14 13 15 10 16 92 17 14 18 87 19 5 20 6 21 4 22 2 23
REMARK SMILES IDX 1 24 3 25 88 26 89 27 90 28 91 29 24 30 25 31 26 32 27 33
REMARK SMILES IDX 28 34 29 35 30 36 31 37 32 38 33 39 34 40 86 41 35 42 85 43
REMARK SMILES IDX 36 44 37 45 38 46 79 47 39 48 84 49 78 50 80 51 40 52 83 53
REMARK SMILES IDX 77 54 76 55 41 57 67 58 50 59 66 60 51 61 54 62 65 63 81 64
REMARK SMILES IDX 52 65 53 66 64 68 82 69 55 70 42 71 43 72 48 73 44 74 45 75
REMARK SMILES IDX 47 76 49 77 46 78 68 79 69 80 74 81 70 82 71 83 73 84 75 85
REMARK SMILES IDX 72 86 56 87 57 88 62 89 58 90 59 91 61 92 63 93 60 94
REMARK H PARENT 80 56 54 67
REMARK Flexibility Score: inf
ROOT
ATOM      1  C   UNL     1      -0.431  -2.579  -7.057  1.00  0.00     0.188 C 
ENDROOT
BRANCH   1   2
ATOM      2  C   UNL     1       0.873  -3.264  -7.487  1.00  0.00     0.188 C 
BRANCH   2   3
ATOM      3  O   UNL     1       0.679  -4.230  -8.518  1.00  0.00    -0.376 OA
BRANCH   3   4
ATOM      4  C   UNL     1       0.811  -5.600  -8.170  1.00  0.00     0.202 C 
BRANCH   4   5
ATOM      5  C   UNL     1      -0.467  -6.231  -7.603  1.00  0.00     0.261 C 
BRANCH   5   6
ATOM      6  O   UNL     1      -1.031  -5.490  -6.509  1.00  0.00    -0.460 OA
BRANCH   6   7
ATOM      7  C   UNL     1      -0.501  -5.703  -5.295  1.00  0.00     0.338 C 
ATOM      8  O   UNL     1       0.348  -6.540  -5.033  1.00  0.00    -0.246 OA
BRANCH   7   9
ATOM      9  C   UNL     1      -0.944  -4.663  -4.338  1.00  0.00     0.087 C 
ATOM     10  C   UNL     1      -0.749  -1.951  -0.079  1.00  0.00     0.059 A 
ATOM     11  C   UNL     1      -1.780  -2.322  -0.969  1.00  0.00     0.074 A 
ATOM     12  C   UNL     1       0.559  -2.355  -0.425  1.00  0.00     0.065 A 
ATOM     13  C   UNL     1      -1.519  -3.057  -2.134  1.00  0.00     0.130 A 
ATOM     14  C   UNL     1       0.833  -2.961  -1.653  1.00  0.00     0.034 A 
ATOM     15  Cl  UNL     1       1.890  -2.301   0.682  1.00  0.00    -0.082 Cl
ATOM     16  C   UNL     1      -0.208  -3.325  -2.501  1.00  0.00     0.019 A 
ATOM     17  O   UNL     1      -2.597  -3.529  -2.827  1.00  0.00    -0.475 OA
ATOM     18  C   UNL     1       0.083  -4.110  -3.681  1.00  0.00     0.027 C 
ATOM     19  C   UNL     1      -2.394  -4.415  -3.981  1.00  0.00     0.316 C 
BRANCH  10  20
ATOM     20  N   UNL     1      -1.035  -1.273   1.116  1.00  0.00    -0.373 N 
ATOM     21  C   UNL     1      -2.093  -1.855   1.941  1.00  0.00     0.143 C 
BRANCH  20  22
ATOM     22  C   UNL     1      -0.926   0.205   1.140  1.00  0.00     0.119 C 
BRANCH  22  23
ATOM     23  C   UNL     1       0.526   0.712   1.257  1.00  0.00     0.002 C 
ATOM     24  C   UNL     1       1.111   1.075  -0.111  1.00  0.00     0.009 C 
ATOM     25  C   UNL     1       0.645   1.925   2.184  1.00  0.00     0.009 C 
ENDBRANCH  22  23
ENDBRANCH  20  22
ENDBRANCH  10  20
BRANCH  19  26
ATOM     26  C   UNL     1      -3.319  -3.859  -5.084  1.00  0.00     0.430 C 
ATOM     27  F   UNL     1      -3.008  -2.584  -5.410  1.00  0.00    -0.167 F 
ATOM     28  F   UNL     1      -3.305  -4.594  -6.215  1.00  0.00    -0.167 F 
ATOM     29  F   UNL     1      -4.610  -3.855  -4.659  1.00  0.00    -0.167 F 
ENDBRANCH  19  26
ENDBRANCH   7   9
ENDBRANCH   6   7
ENDBRANCH   5   6
ENDBRANCH   4   5
ENDBRANCH   3   4
ENDBRANCH   2   3
ENDBRANCH   1   2
BRANCH   1  30
ATOM     30  O   UNL     1      -1.205  -1.939  -8.056  1.00  0.00    -0.377 OA
BRANCH  30  31
ATOM     31  C   UNL     1      -1.518  -2.715  -9.199  1.00  0.00     0.188 C 
BRANCH  31  32
ATOM     32  C   UNL     1      -0.595  -2.451 -10.409  1.00  0.00     0.188 C 
BRANCH  32  33
ATOM     33  O   UNL     1       0.225  -1.290 -10.508  1.00  0.00    -0.376 OA
BRANCH  33  34
ATOM     34  C   UNL     1      -0.023  -0.148  -9.707  1.00  0.00     0.202 C 
BRANCH  34  35
ATOM     35  C   UNL     1      -1.325   0.639  -9.926  1.00  0.00     0.261 C 
BRANCH  35  36
ATOM     36  O   UNL     1      -2.489  -0.141 -10.224  1.00  0.00    -0.460 OA
BRANCH  36  37
ATOM     37  C   UNL     1      -2.741  -0.343 -11.539  1.00  0.00     0.338 C 
ATOM     38  O   UNL     1      -2.113   0.089 -12.491  1.00  0.00    -0.246 OA
BRANCH  37  39
ATOM     39  C   UNL     1      -3.841  -1.325 -11.662  1.00  0.00     0.060 A 
ATOM     40  C   UNL     1      -5.041  -1.155 -10.967  1.00  0.00     0.016 A 
ATOM     41  C   UNL     1      -3.655  -2.441 -12.489  1.00  0.00     0.016 A 
ATOM     42  C   UNL     1      -6.067  -2.091 -11.127  1.00  0.00     0.010 A 
ATOM     43  C   UNL     1      -4.670  -3.386 -12.630  1.00  0.00     0.010 A 
ATOM     44  C   UNL     1      -5.893  -3.202 -11.972  1.00  0.00    -0.014 A 
BRANCH  44  45
ATOM     45  C   UNL     1      -7.050  -4.060 -12.315  1.00  0.00     0.031 A 
ATOM     46  C   UNL     1      -7.268  -5.397 -11.680  1.00  0.00     0.074 A 
ATOM     47  C   UNL     1      -7.904  -3.610 -13.252  1.00  0.00     0.049 A 
ATOM     48  N   UNL     1      -8.288  -6.210 -11.806  1.00  0.00    -0.248 NA
ATOM     49  C   UNL     1      -6.201  -5.894 -10.803  1.00  0.00     0.031 C 
ATOM     50  C   UNL     1      -7.767  -2.339 -13.967  1.00  0.00     0.029 A 
ATOM     51  N   UNL     1      -9.054  -4.158 -13.755  1.00  0.00    -0.354 N 
ATOM     52  C   UNL     1      -8.001  -7.307 -11.005  1.00  0.00     0.074 A 
ATOM     53  C   UNL     1      -6.684  -7.076 -10.442  1.00  0.00     0.031 C 
ATOM     54  C   UNL     1      -8.816  -2.186 -14.788  1.00  0.00     0.029 A 
ATOM     55  C   UNL     1      -9.683  -3.354 -14.672  1.00  0.00     0.049 A 
ATOM     56  H   UNL     1      -9.395  -5.041 -13.486  1.00  0.00     0.167 HD
ATOM     57  C   UNL     1      -8.772  -8.395 -10.757  1.00  0.00     0.037 A 
ATOM     58  C   UNL     1     -10.840  -3.531 -15.334  1.00  0.00     0.037 A 
ATOM     59  C   UNL     1     -10.064  -8.631 -11.355  1.00  0.00     0.049 A 
ATOM     60  C   UNL     1     -11.642  -4.776 -15.088  1.00  0.00     0.074 A 
ATOM     61  C   UNL     1     -10.948  -9.673 -11.127  1.00  0.00     0.029 A 
ATOM     62  N   UNL     1     -10.646  -7.827 -12.327  1.00  0.00    -0.354 N 
ATOM     63  N   UNL     1     -11.416  -5.755 -14.246  1.00  0.00    -0.248 NA
ATOM     64  C   UNL     1     -12.864  -4.934 -15.886  1.00  0.00     0.031 C 
ATOM     65  C   UNL     1     -12.032  -9.532 -12.002  1.00  0.00     0.029 A 
ATOM     66  C   UNL     1     -11.854  -8.372 -12.739  1.00  0.00     0.049 A 
ATOM     67  H   UNL     1     -10.257  -6.992 -12.673  1.00  0.00     0.167 HD
ATOM     68  C   UNL     1     -12.482  -6.632 -14.389  1.00  0.00     0.074 A 
ATOM     69  C   UNL     1     -13.361  -6.059 -15.390  1.00  0.00     0.031 C 
ATOM     70  C   UNL     1     -12.715  -7.803 -13.747  1.00  0.00     0.037 A 
BRANCH  57  71
ATOM     71  C   UNL     1      -8.222  -9.420  -9.805  1.00  0.00     0.057 A 
ATOM     72  C   UNL     1      -7.850 -10.694 -10.254  1.00  0.00     0.134 A 
ATOM     73  C   UNL     1      -8.070  -9.152  -8.437  1.00  0.00     0.134 A 
ATOM     74  F   UNL     1      -7.981 -11.026 -11.547  1.00  0.00    -0.206 F 
ATOM     75  C   UNL     1      -7.333 -11.655  -9.383  1.00  0.00     0.040 A 
ATOM     76  C   UNL     1      -7.529 -10.096  -7.561  1.00  0.00     0.040 A 
ATOM     77  F   UNL     1      -8.404  -7.952  -7.938  1.00  0.00    -0.206 F 
ATOM     78  C   UNL     1      -7.160 -11.353  -8.034  1.00  0.00     0.006 A 
ENDBRANCH  57  71
BRANCH  58  79
ATOM     79  C   UNL     1     -11.338  -2.476 -16.247  1.00  0.00     0.057 A 
ATOM     80  C   UNL     1     -10.714  -2.205 -17.470  1.00  0.00     0.134 A 
ATOM     81  C   UNL     1     -12.458  -1.709 -15.906  1.00  0.00     0.134 A 
ATOM     82  F   UNL     1      -9.632  -2.900 -17.847  1.00  0.00    -0.206 F 
ATOM     83  C   UNL     1     -11.184  -1.203 -18.320  1.00  0.00     0.040 A 
ATOM     84  C   UNL     1     -12.952  -0.721 -16.757  1.00  0.00     0.040 A 
ATOM     85  F   UNL     1     -13.104  -1.935 -14.752  1.00  0.00    -0.206 F 
ATOM     86  C   UNL     1     -12.311  -0.463 -17.966  1.00  0.00     0.006 A 
ENDBRANCH  58  79
BRANCH  70  87
ATOM     87  C   UNL     1     -13.985  -8.526 -14.098  1.00  0.00     0.057 A 
ATOM     88  C   UNL     1     -15.044  -8.594 -13.184  1.00  0.00     0.134 A 
ATOM     89  C   UNL     1     -14.164  -9.147 -15.341  1.00  0.00     0.134 A 
ATOM     90  F   UNL     1     -14.939  -8.025 -11.975  1.00  0.00    -0.206 F 
ATOM     91  C   UNL     1     -16.236  -9.251 -13.496  1.00  0.00     0.040 A 
ATOM     92  C   UNL     1     -15.363  -9.781 -15.675  1.00  0.00     0.040 A 
ATOM     93  F   UNL     1     -13.197  -9.102 -16.270  1.00  0.00    -0.206 F 
ATOM     94  C   UNL     1     -16.402  -9.838 -14.748  1.00  0.00     0.006 A 
ENDBRANCH  70  87
ENDBRANCH  44  45
ENDBRANCH  37  39
ENDBRANCH  36  37
ENDBRANCH  35  36
ENDBRANCH  34  35
ENDBRANCH  33  34
ENDBRANCH  32  33
ENDBRANCH  31  32
ENDBRANCH  30  31
ENDBRANCH   1  30
TORSDOF 24
