REMARK SMILES Cc1cc(Cl)c2c(c1)C=C(C(=O)OCCOCCOCCOCCOC(=O)c1ccc(-c3c4nc(c(-c5c(F)cccc5F)c5ccc([nH]5)c(-c5c(F)cccc5F)c5nc(c(-c6c(F)cccc6F)c6ccc3[nH]6)C=C5)C=C4)cc1)[C@@H](C(F)(F)F)O2
REMARK SMILES IDX 20 1 19 2 18 3 17 4 16 5 15 6 14 7 13 8 11 9 12 10 10 11
REMARK SMILES IDX 1 12 2 13 3 14 8 15 4 16 7 17 5 18 6 19 9 20 87 21 82 22
REMARK SMILES IDX 83 23 84 24 85 25 86 26 21 27 22 28 23 29 24 30 25 31 26 32
REMARK SMILES IDX 27 33 28 34 29 35 81 36 30 37 80 38 31 39 32 40 33 41 74 42
REMARK SMILES IDX 34 43 79 44 73 45 75 46 35 47 78 48 72 49 71 50 36 52 62 53
REMARK SMILES IDX 45 54 61 55 46 56 49 57 60 58 76 59 47 60 48 61 59 63 77 64
REMARK SMILES IDX 50 65 37 66 38 67 43 68 39 69 40 70 42 71 44 72 41 73 63 74
REMARK SMILES IDX 64 75 69 76 65 77 66 78 68 79 70 80 67 81 51 82 52 83 57 84
REMARK SMILES IDX 53 85 54 86 56 87 58 88 55 89
REMARK H PARENT 75 51 49 62
REMARK Flexibility Score: inf
ROOT
ATOM      1  C   UNL     1       3.731   9.081   2.826  1.00  0.00     0.188 C 
ENDROOT
BRANCH   1   2
ATOM      2  O   UNL     1       2.709   8.140   2.489  1.00  0.00    -0.377 OA
BRANCH   2   3
ATOM      3  C   UNL     1       3.067   7.036   1.674  1.00  0.00     0.188 C 
BRANCH   3   4
ATOM      4  C   UNL     1       3.149   7.390   0.177  1.00  0.00     0.188 C 
BRANCH   4   5
ATOM      5  O   UNL     1       3.168   8.794  -0.059  1.00  0.00    -0.376 OA
BRANCH   5   6
ATOM      6  C   UNL     1       1.970   9.406  -0.515  1.00  0.00     0.202 C 
BRANCH   6   7
ATOM      7  C   UNL     1       0.754   9.403   0.425  1.00  0.00     0.261 C 
BRANCH   7   8
ATOM      8  O   UNL     1       0.369   8.120   0.937  1.00  0.00    -0.460 OA
BRANCH   8   9
ATOM      9  C   UNL     1      -0.132   7.220   0.070  1.00  0.00     0.338 C 
ATOM     10  O   UNL     1      -0.346   7.392  -1.117  1.00  0.00    -0.246 OA
BRANCH   9  11
ATOM     11  C   UNL     1      -0.224   5.919   0.770  1.00  0.00     0.087 C 
ATOM     12  C   UNL     1       0.959  -0.085   0.011  1.00  0.00     0.044 C 
ATOM     13  C   UNL     1       0.491   1.142   0.737  1.00  0.00    -0.049 A 
ATOM     14  C   UNL     1      -0.084   1.051   2.008  1.00  0.00     0.028 A 
ATOM     15  C   UNL     1       0.633   2.404   0.144  1.00  0.00     0.015 A 
ATOM     16  C   UNL     1      -0.507   2.206   2.675  1.00  0.00     0.084 A 
ATOM     17  C   UNL     1       0.175   3.558   0.795  1.00  0.00     0.019 A 
ATOM     18  Cl  UNL     1      -1.221   2.027   4.239  1.00  0.00    -0.080 Cl
ATOM     19  C   UNL     1      -0.375   3.466   2.076  1.00  0.00     0.146 A 
ATOM     20  C   UNL     1       0.228   4.843   0.115  1.00  0.00     0.027 C 
ATOM     21  O   UNL     1      -0.807   4.556   2.779  1.00  0.00    -0.474 OA
ATOM     22  C   UNL     1      -0.729   5.881   2.190  1.00  0.00     0.316 C 
BRANCH  22  23
ATOM     23  C   UNL     1      -2.107   6.543   2.333  1.00  0.00     0.430 C 
ATOM     24  F   UNL     1      -2.570   6.454   3.603  1.00  0.00    -0.167 F 
ATOM     25  F   UNL     1      -2.076   7.861   2.027  1.00  0.00    -0.167 F 
ATOM     26  F   UNL     1      -3.026   5.966   1.525  1.00  0.00    -0.167 F 
ENDBRANCH  22  23
ENDBRANCH   9  11
ENDBRANCH   8   9
ENDBRANCH   7   8
ENDBRANCH   6   7
ENDBRANCH   5   6
ENDBRANCH   4   5
ENDBRANCH   3   4
ENDBRANCH   2   3
ENDBRANCH   1   2
BRANCH   1  27
ATOM     27  C   UNL     1       5.051   9.191   2.025  1.00  0.00     0.188 C 
BRANCH  27  28
ATOM     28  O   UNL     1       5.633   7.936   1.684  1.00  0.00    -0.376 OA
BRANCH  28  29
ATOM     29  C   UNL     1       6.824   7.572   2.367  1.00  0.00     0.202 C 
BRANCH  29  30
ATOM     30  C   UNL     1       6.596   7.085   3.802  1.00  0.00     0.261 C 
BRANCH  30  31
ATOM     31  O   UNL     1       6.024   8.056   4.692  1.00  0.00    -0.460 OA
BRANCH  31  32
ATOM     32  C   UNL     1       6.717   9.195   4.907  1.00  0.00     0.338 C 
ATOM     33  O   UNL     1       7.811   9.493   4.463  1.00  0.00    -0.246 OA
BRANCH  32  34
ATOM     34  C   UNL     1       5.820  10.119   5.628  1.00  0.00     0.060 A 
ATOM     35  C   UNL     1       5.514  11.359   5.056  1.00  0.00     0.016 A 
ATOM     36  C   UNL     1       5.251   9.737   6.846  1.00  0.00     0.016 A 
ATOM     37  C   UNL     1       4.644  12.229   5.714  1.00  0.00     0.010 A 
ATOM     38  C   UNL     1       4.394  10.615   7.510  1.00  0.00     0.010 A 
ATOM     39  C   UNL     1       4.104  11.873   6.958  1.00  0.00    -0.014 A 
BRANCH  39  40
ATOM     40  C   UNL     1       3.364  12.880   7.753  1.00  0.00     0.031 A 
ATOM     41  C   UNL     1       4.115  13.669   8.787  1.00  0.00     0.074 A 
ATOM     42  C   UNL     1       2.055  13.108   7.543  1.00  0.00     0.049 A 
ATOM     43  N   UNL     1       3.688  14.623   9.574  1.00  0.00    -0.248 NA
ATOM     44  C   UNL     1       5.541  13.342   8.955  1.00  0.00     0.031 C 
ATOM     45  C   UNL     1       1.225  12.422   6.556  1.00  0.00     0.029 A 
ATOM     46  N   UNL     1       1.197  13.990   8.152  1.00  0.00    -0.354 N 
ATOM     47  C   UNL     1       4.793  15.021  10.313  1.00  0.00     0.074 A 
ATOM     48  C   UNL     1       5.899  14.177   9.919  1.00  0.00     0.031 C 
ATOM     49  C   UNL     1      -0.025  12.915   6.621  1.00  0.00     0.029 A 
ATOM     50  C   UNL     1      -0.087  13.935   7.668  1.00  0.00     0.049 A 
ATOM     51  H   UNL     1       1.475  14.604   8.870  1.00  0.00     0.167 HD
ATOM     52  C   UNL     1       4.882  16.017  11.224  1.00  0.00     0.037 A 
ATOM     53  C   UNL     1      -1.185  14.629   8.030  1.00  0.00     0.037 A 
ATOM     54  C   UNL     1       3.780  16.846  11.626  1.00  0.00     0.049 A 
ATOM     55  C   UNL     1      -1.080  15.673   9.112  1.00  0.00     0.074 A 
ATOM     56  C   UNL     1       3.775  17.885  12.540  1.00  0.00     0.029 A 
ATOM     57  N   UNL     1       2.485  16.726  11.145  1.00  0.00    -0.354 N 
ATOM     58  N   UNL     1      -0.021  16.072   9.774  1.00  0.00    -0.248 NA
ATOM     59  C   UNL     1      -2.320  16.366   9.496  1.00  0.00     0.031 C 
ATOM     60  C   UNL     1       2.467  18.362  12.649  1.00  0.00     0.029 A 
ATOM     61  C   UNL     1       1.668  17.656  11.763  1.00  0.00     0.049 A 
ATOM     62  H   UNL     1       2.192  16.076  10.467  1.00  0.00     0.167 HD
ATOM     63  C   UNL     1      -0.457  17.082  10.624  1.00  0.00     0.074 A 
ATOM     64  C   UNL     1      -1.878  17.237  10.396  1.00  0.00     0.031 C 
ATOM     65  C   UNL     1       0.259  17.815  11.510  1.00  0.00     0.037 A 
BRANCH  52  66
ATOM     66  C   UNL     1       6.220  16.267  11.851  1.00  0.00     0.057 A 
ATOM     67  C   UNL     1       7.264  16.863  11.132  1.00  0.00     0.134 A 
ATOM     68  C   UNL     1       6.449  15.970  13.200  1.00  0.00     0.134 A 
ATOM     69  F   UNL     1       7.113  17.159   9.832  1.00  0.00    -0.206 F 
ATOM     70  C   UNL     1       8.493  17.146  11.730  1.00  0.00     0.040 A 
ATOM     71  C   UNL     1       7.664  16.270  13.816  1.00  0.00     0.040 A 
ATOM     72  F   UNL     1       5.488  15.402  13.944  1.00  0.00    -0.206 F 
ATOM     73  C   UNL     1       8.691  16.858  13.080  1.00  0.00     0.006 A 
ENDBRANCH  52  66
BRANCH  53  74
ATOM     74  C   UNL     1      -2.478  14.379   7.344  1.00  0.00     0.057 A 
ATOM     75  C   UNL     1      -3.040  15.335   6.490  1.00  0.00     0.134 A 
ATOM     76  C   UNL     1      -3.183  13.182   7.524  1.00  0.00     0.134 A 
ATOM     77  F   UNL     1      -2.425  16.510   6.296  1.00  0.00    -0.206 F 
ATOM     78  C   UNL     1      -4.258  15.114   5.845  1.00  0.00     0.040 A 
ATOM     79  C   UNL     1      -4.390  12.938   6.866  1.00  0.00     0.040 A 
ATOM     80  F   UNL     1      -2.700  12.226   8.331  1.00  0.00    -0.206 F 
ATOM     81  C   UNL     1      -4.933  13.909   6.027  1.00  0.00     0.006 A 
ENDBRANCH  53  74
BRANCH  65  82
ATOM     82  C   UNL     1      -0.453  18.884  12.286  1.00  0.00     0.057 A 
ATOM     83  C   UNL     1      -1.288  18.577  13.365  1.00  0.00     0.134 A 
ATOM     84  C   UNL     1      -0.191  20.238  12.033  1.00  0.00     0.134 A 
ATOM     85  F   UNL     1      -1.583  17.301  13.656  1.00  0.00    -0.206 F 
ATOM     86  C   UNL     1      -1.836  19.579  14.169  1.00  0.00     0.040 A 
ATOM     87  C   UNL     1      -0.713  21.246  12.843  1.00  0.00     0.040 A 
ATOM     88  F   UNL     1       0.614  20.598  11.021  1.00  0.00    -0.206 F 
ATOM     89  C   UNL     1      -1.536  20.917  13.917  1.00  0.00     0.006 A 
ENDBRANCH  65  82
ENDBRANCH  39  40
ENDBRANCH  32  34
ENDBRANCH  31  32
ENDBRANCH  30  31
ENDBRANCH  29  30
ENDBRANCH  28  29
ENDBRANCH  27  28
ENDBRANCH   1  27
TORSDOF 21
