REMARK SMILES C/C=C/C[C@@H](C(=O)OCCOCCOCCOCCOC(=O)c1ccc(-c2c3nc(c(-c4c(F)cccc4F)c4ccc([nH]4)c(-c4c(F)cccc4F)c4nc(c(-c5c(F)cccc5F)c5ccc2[nH]5)C=C4)C=C3)cc1)c1cccc(Cl)c1
REMARK SMILES IDX 14 1 13 2 12 3 11 4 10 5 9 6 8 7 6 8 7 9 5 10 4 11 3 12 1 13
REMARK SMILES IDX 2 14 77 15 78 16 83 17 79 18 81 19 80 20 82 21 15 22 16 23
REMARK SMILES IDX 17 24 18 25 19 26 20 27 21 28 22 29 23 30 24 31 76 32 25 33
REMARK SMILES IDX 75 34 26 35 27 36 28 37 69 38 29 39 74 40 68 41 70 42 30 43
REMARK SMILES IDX 73 44 67 45 66 46 31 48 57 49 40 50 56 51 41 52 44 53 55 54
REMARK SMILES IDX 71 55 42 56 43 57 54 59 72 60 45 61 32 62 33 63 38 64 34 65
REMARK SMILES IDX 35 66 37 67 39 68 36 69 58 70 59 71 64 72 60 73 61 74 63 75
REMARK SMILES IDX 65 76 62 77 46 78 47 79 52 80 48 81 49 82 51 83 53 84 50 85
REMARK H PARENT 70 47 44 58
REMARK Flexibility Score: inf
ROOT
ATOM      1  O   UNL     1      -2.459  -1.455   2.825  1.00  0.00    -0.377 OA
ENDROOT
BRANCH   1   2
ATOM      2  C   UNL     1      -2.769  -2.833   2.801  1.00  0.00     0.188 C 
BRANCH   2   3
ATOM      3  C   UNL     1      -2.770  -3.603   4.130  1.00  0.00     0.188 C 
BRANCH   3   4
ATOM      4  O   UNL     1      -2.708  -2.754   5.254  1.00  0.00    -0.376 OA
BRANCH   4   5
ATOM      5  C   UNL     1      -1.446  -2.416   5.796  1.00  0.00     0.202 C 
BRANCH   5   6
ATOM      6  C   UNL     1      -0.141  -2.301   4.977  1.00  0.00     0.261 C 
BRANCH   6   7
ATOM      7  O   UNL     1      -0.114  -2.827   3.641  1.00  0.00    -0.463 OA
BRANCH   7   8
ATOM      8  C   UNL     1       0.481  -4.022   3.432  1.00  0.00     0.313 C 
ATOM      9  O   UNL     1       0.926  -4.711   4.347  1.00  0.00    -0.252 OA
BRANCH   8  10
ATOM     10  C   UNL     1       0.532  -4.475   1.952  1.00  0.00     0.133 C 
BRANCH  10  11
ATOM     11  C   UNL     1       0.126  -3.546   0.771  1.00  0.00     0.047 C 
BRANCH  11  12
ATOM     12  C   UNL     1       0.439  -2.073   0.841  1.00  0.00    -0.030 C 
ATOM     13  C   UNL     1       1.258   0.104  -0.083  1.00  0.00     0.035 C 
ATOM     14  C   UNL     1       1.065  -1.380  -0.124  1.00  0.00    -0.035 C 
ENDBRANCH  11  12
ENDBRANCH  10  11
BRANCH  10  15
ATOM     15  C   UNL     1      -0.136  -5.859   1.827  1.00  0.00    -0.032 A 
ATOM     16  C   UNL     1      -1.531  -6.035   1.758  1.00  0.00     0.005 A 
ATOM     17  C   UNL     1       0.661  -7.012   1.875  1.00  0.00     0.025 A 
ATOM     18  C   UNL     1      -2.113  -7.305   1.796  1.00  0.00     0.002 A 
ATOM     19  C   UNL     1       0.078  -8.282   1.882  1.00  0.00     0.041 A 
ATOM     20  C   UNL     1      -1.306  -8.433   1.862  1.00  0.00     0.020 A 
ATOM     21  Cl  UNL     1       1.082  -9.678   1.930  1.00  0.00    -0.084 Cl
ENDBRANCH  10  15
ENDBRANCH   8  10
ENDBRANCH   7   8
ENDBRANCH   6   7
ENDBRANCH   5   6
ENDBRANCH   4   5
ENDBRANCH   3   4
ENDBRANCH   2   3
ENDBRANCH   1   2
BRANCH   1  22
ATOM     22  C   UNL     1      -3.306  -0.568   3.536  1.00  0.00     0.188 C 
BRANCH  22  23
ATOM     23  C   UNL     1      -4.690  -1.011   4.058  1.00  0.00     0.188 C 
BRANCH  23  24
ATOM     24  O   UNL     1      -5.231  -2.171   3.445  1.00  0.00    -0.376 OA
BRANCH  24  25
ATOM     25  C   UNL     1      -6.233  -1.999   2.456  1.00  0.00     0.202 C 
BRANCH  25  26
ATOM     26  C   UNL     1      -5.806  -1.329   1.142  1.00  0.00     0.261 C 
BRANCH  26  27
ATOM     27  O   UNL     1      -5.230  -0.020   1.261  1.00  0.00    -0.460 OA
BRANCH  27  28
ATOM     28  C   UNL     1      -6.005   0.955   1.779  1.00  0.00     0.338 C 
ATOM     29  O   UNL     1      -7.165   0.864   2.147  1.00  0.00    -0.246 OA
BRANCH  28  30
ATOM     30  C   UNL     1      -5.146   2.132   2.004  1.00  0.00     0.060 A 
ATOM     31  C   UNL     1      -4.943   2.587   3.314  1.00  0.00     0.016 A 
ATOM     32  C   UNL     1      -4.521   2.764   0.927  1.00  0.00     0.016 A 
ATOM     33  C   UNL     1      -4.131   3.695   3.548  1.00  0.00     0.010 A 
ATOM     34  C   UNL     1      -3.733   3.893   1.160  1.00  0.00     0.010 A 
ATOM     35  C   UNL     1      -3.562   4.382   2.468  1.00  0.00    -0.014 A 
BRANCH  35  36
ATOM     36  C   UNL     1      -2.981   5.727   2.685  1.00  0.00     0.031 A 
ATOM     37  C   UNL     1      -3.853   6.922   2.417  1.00  0.00     0.074 A 
ATOM     38  C   UNL     1      -1.724   5.890   3.133  1.00  0.00     0.049 A 
ATOM     39  N   UNL     1      -3.565   8.196   2.482  1.00  0.00    -0.248 NA
ATOM     40  C   UNL     1      -5.243   6.638   2.020  1.00  0.00     0.031 C 
ATOM     41  C   UNL     1      -0.800   4.812   3.477  1.00  0.00     0.029 A 
ATOM     42  N   UNL     1      -1.009   7.037   3.368  1.00  0.00    -0.354 N 
ATOM     43  C   UNL     1      -4.731   8.862   2.129  1.00  0.00     0.074 A 
ATOM     44  C   UNL     1      -5.721   7.855   1.818  1.00  0.00     0.031 C 
ATOM     45  C   UNL     1       0.369   5.351   3.867  1.00  0.00     0.029 A 
ATOM     46  C   UNL     1       0.285   6.807   3.766  1.00  0.00     0.049 A 
ATOM     47  H   UNL     1      -1.387   7.940   3.260  1.00  0.00     0.167 HD
ATOM     48  C   UNL     1      -4.960  10.195   2.076  1.00  0.00     0.037 A 
ATOM     49  C   UNL     1       1.289   7.676   3.996  1.00  0.00     0.037 A 
ATOM     50  C   UNL     1      -3.970  11.194   2.378  1.00  0.00     0.049 A 
ATOM     51  C   UNL     1       1.036   9.155   3.841  1.00  0.00     0.074 A 
ATOM     52  C   UNL     1      -4.104  12.571   2.363  1.00  0.00     0.029 A 
ATOM     53  N   UNL     1      -2.659  10.922   2.739  1.00  0.00    -0.354 N 
ATOM     54  N   UNL     1      -0.074   9.779   3.528  1.00  0.00    -0.248 NA
ATOM     55  C   UNL     1       2.179  10.051   4.074  1.00  0.00     0.031 C 
ATOM     56  C   UNL     1      -2.857  13.132   2.655  1.00  0.00     0.029 A 
ATOM     57  C   UNL     1      -1.964  12.106   2.919  1.00  0.00     0.049 A 
ATOM     58  H   UNL     1      -2.280  10.021   2.850  1.00  0.00     0.167 HD
ATOM     59  C   UNL     1       0.226  11.136   3.560  1.00  0.00     0.074 A 
ATOM     60  C   UNL     1       1.620  11.245   3.935  1.00  0.00     0.031 C 
ATOM     61  C   UNL     1      -0.578  12.198   3.304  1.00  0.00     0.037 A 
BRANCH  48  62
ATOM     62  C   UNL     1      -6.325  10.645   1.643  1.00  0.00     0.057 A 
ATOM     63  C   UNL     1      -7.458  10.466   2.449  1.00  0.00     0.134 A 
ATOM     64  C   UNL     1      -6.505  11.286   0.411  1.00  0.00     0.134 A 
ATOM     65  F   UNL     1      -7.359   9.843   3.633  1.00  0.00    -0.206 F 
ATOM     66  C   UNL     1      -8.723  10.886   2.034  1.00  0.00     0.040 A 
ATOM     67  C   UNL     1      -7.759  11.738  -0.002  1.00  0.00     0.040 A 
ATOM     68  F   UNL     1      -5.463  11.491  -0.409  1.00  0.00    -0.206 F 
ATOM     69  C   UNL     1      -8.874  11.532   0.808  1.00  0.00     0.006 A 
ENDBRANCH  48  62
BRANCH  49  70
ATOM     70  C   UNL     1       2.637   7.180   4.379  1.00  0.00     0.057 A 
ATOM     71  C   UNL     1       3.179   7.445   5.642  1.00  0.00     0.134 A 
ATOM     72  C   UNL     1       3.433   6.462   3.476  1.00  0.00     0.134 A 
ATOM     73  F   UNL     1       2.478   8.150   6.542  1.00  0.00    -0.206 F 
ATOM     74  C   UNL     1       4.469   7.036   5.987  1.00  0.00     0.040 A 
ATOM     75  C   UNL     1       4.713   6.022   3.818  1.00  0.00     0.040 A 
ATOM     76  F   UNL     1       2.976   6.176   2.248  1.00  0.00    -0.206 F 
ATOM     77  C   UNL     1       5.238   6.317   5.074  1.00  0.00     0.006 A 
ENDBRANCH  49  70
BRANCH  61  78
ATOM     78  C   UNL     1       0.011  13.571   3.465  1.00  0.00     0.057 A 
ATOM     79  C   UNL     1       0.966  14.082   2.576  1.00  0.00     0.134 A 
ATOM     80  C   UNL     1      -0.420  14.412   4.500  1.00  0.00     0.134 A 
ATOM     81  F   UNL     1       1.429  13.327   1.568  1.00  0.00    -0.206 F 
ATOM     82  C   UNL     1       1.489  15.367   2.727  1.00  0.00     0.040 A 
ATOM     83  C   UNL     1       0.072  15.710   4.642  1.00  0.00     0.040 A 
ATOM     84  F   UNL     1      -1.341  13.992   5.381  1.00  0.00    -0.206 F 
ATOM     85  C   UNL     1       1.036  16.188   3.758  1.00  0.00     0.006 A 
ENDBRANCH  61  78
ENDBRANCH  35  36
ENDBRANCH  28  30
ENDBRANCH  27  28
ENDBRANCH  26  27
ENDBRANCH  25  26
ENDBRANCH  24  25
ENDBRANCH  23  24
ENDBRANCH  22  23
ENDBRANCH   1  22
TORSDOF 23
