REMARK SMILES NS(=O)(=O)c1ccc(-n2nc(C(=O)OCCOCCOCCOCCOC(=O)c3ccc(-c4c5nc(c(-c6c(F)cccc6F)c6ccc([nH]6)c(-c6c(F)cccc6F)c6nc(c(-c7c(F)cccc7F)c7ccc4[nH]7)C=C6)C=C5)cc3)c(Cl)c2-c2ccc(Cl)cc2)cc1
REMARK SMILES IDX 19 1 18 2 17 3 16 4 15 5 14 6 12 7 13 8 11 9 9 10 10 11
REMARK SMILES IDX 85 12 83 13 84 14 8 15 5 16 6 17 94 18 7 19 93 20 2 21 3 22
REMARK SMILES IDX 4 23 1 24 86 27 87 28 92 29 88 30 91 31 89 32 90 33 20 34
REMARK SMILES IDX 21 35 22 36 23 37 24 38 25 39 26 40 27 41 28 42 29 43 30 44
REMARK SMILES IDX 82 45 31 46 81 47 32 48 33 49 34 50 75 51 35 52 80 53 74 54
REMARK SMILES IDX 76 55 36 56 79 57 73 58 72 59 37 61 63 62 46 63 62 64 47 65
REMARK SMILES IDX 50 66 61 67 77 68 48 69 49 70 60 72 78 73 51 74 38 75 39 76
REMARK SMILES IDX 44 77 40 78 41 79 43 80 45 81 42 82 64 83 65 84 70 85 66 86
REMARK SMILES IDX 67 87 69 88 71 89 68 90 52 91 53 92 58 93 54 94 55 95 57 96
REMARK SMILES IDX 59 97 56 98
REMARK H PARENT 1 25 1 26 76 60 50 71
REMARK Flexibility Score: inf
ROOT
ATOM      1  C   UNL     1       3.587   8.682   6.452  1.00  0.00     0.188 C 
ENDROOT
BRANCH   1   2
ATOM      2  C   UNL     1       4.989   8.725   5.804  1.00  0.00     0.188 C 
BRANCH   2   3
ATOM      3  O   UNL     1       5.831   9.849   5.979  1.00  0.00    -0.376 OA
BRANCH   3   4
ATOM      4  C   UNL     1       5.516  11.150   5.525  1.00  0.00     0.202 C 
BRANCH   4   5
ATOM      5  C   UNL     1       4.528  11.475   4.399  1.00  0.00     0.261 C 
BRANCH   5   6
ATOM      6  O   UNL     1       3.538  10.498   4.121  1.00  0.00    -0.458 OA
BRANCH   6   7
ATOM      7  C   UNL     1       3.773   9.643   3.087  1.00  0.00     0.360 C 
ATOM      8  O   UNL     1       4.781   9.660   2.392  1.00  0.00    -0.244 OA
BRANCH   7   9
ATOM      9  C   UNL     1       2.692   8.658   2.961  1.00  0.00     0.190 A 
ATOM     10  N   UNL     1       1.658   6.857   2.436  1.00  0.00    -0.231 N 
ATOM     11  N   UNL     1       2.900   7.386   2.558  1.00  0.00    -0.159 NA
ATOM     12  C   UNL     1       0.664   7.748   2.799  1.00  0.00     0.094 A 
ATOM     13  C   UNL     1       1.324   8.873   3.248  1.00  0.00     0.102 A 
ATOM     14  Cl  UNL     1       0.605  10.283   3.884  1.00  0.00    -0.079 Cl
BRANCH  10  15
ATOM     15  C   UNL     1       1.483   5.642   1.738  1.00  0.00     0.065 A 
ATOM     16  C   UNL     1       0.973   3.277   0.376  1.00  0.00     0.082 A 
ATOM     17  C   UNL     1       1.527   3.226   1.661  1.00  0.00     0.024 A 
ATOM     18  C   UNL     1       0.703   4.505  -0.239  1.00  0.00     0.024 A 
ATOM     19  C   UNL     1       1.805   4.420   2.343  1.00  0.00     0.030 A 
ATOM     20  C   UNL     1       0.944   5.691   0.448  1.00  0.00     0.030 A 
BRANCH  16  21
ATOM     21  S   UNL     1       0.591   1.821  -0.553  1.00  0.00     0.238 S 
ATOM     22  O   UNL     1       1.266   1.901  -1.823  1.00  0.00    -0.207 OA
ATOM     23  O   UNL     1      -0.831   1.578  -0.437  1.00  0.00    -0.207 OA
BRANCH  21  24
ATOM     24  N   UNL     1       1.333   0.556   0.265  1.00  0.00    -0.225 NA
ATOM     25  H   UNL     1       1.150  -0.320  -0.224  1.00  0.00     0.137 HD
ATOM     26  H   UNL     1       0.962   0.500   1.214  1.00  0.00     0.137 HD
ENDBRANCH  21  24
ENDBRANCH  16  21
ENDBRANCH  10  15
BRANCH  12  27
ATOM     27  C   UNL     1      -0.774   7.559   2.650  1.00  0.00     0.002 A 
ATOM     28  C   UNL     1      -1.482   8.501   1.887  1.00  0.00     0.012 A 
ATOM     29  C   UNL     1      -1.470   6.543   3.310  1.00  0.00     0.012 A 
ATOM     30  C   UNL     1      -2.871   8.462   1.819  1.00  0.00     0.021 A 
ATOM     31  C   UNL     1      -2.866   6.498   3.231  1.00  0.00     0.021 A 
ATOM     32  C   UNL     1      -3.559   7.464   2.499  1.00  0.00     0.041 A 
ATOM     33  Cl  UNL     1      -5.277   7.441   2.452  1.00  0.00    -0.084 Cl
ENDBRANCH  12  27
ENDBRANCH   7   9
ENDBRANCH   6   7
ENDBRANCH   5   6
ENDBRANCH   4   5
ENDBRANCH   3   4
ENDBRANCH   2   3
ENDBRANCH   1   2
BRANCH   1  34
ATOM     34  O   UNL     1       3.058   9.918   6.886  1.00  0.00    -0.377 OA
BRANCH  34  35
ATOM     35  C   UNL     1       3.488  10.463   8.131  1.00  0.00     0.188 C 
BRANCH  35  36
ATOM     36  C   UNL     1       4.798  10.024   8.836  1.00  0.00     0.188 C 
BRANCH  36  37
ATOM     37  O   UNL     1       5.299   8.755   8.462  1.00  0.00    -0.376 OA
BRANCH  37  38
ATOM     38  C   UNL     1       5.222   7.608   9.282  1.00  0.00     0.202 C 
BRANCH  38  39
ATOM     39  C   UNL     1       3.853   7.115   9.728  1.00  0.00     0.261 C 
BRANCH  39  40
ATOM     40  O   UNL     1       2.939   8.150  10.028  1.00  0.00    -0.460 OA
BRANCH  40  41
ATOM     41  C   UNL     1       3.195   8.780  11.189  1.00  0.00     0.338 C 
ATOM     42  O   UNL     1       4.231   8.761  11.830  1.00  0.00    -0.246 OA
BRANCH  41  43
ATOM     43  C   UNL     1       1.939   9.350  11.670  1.00  0.00     0.060 A 
ATOM     44  C   UNL     1       2.025  10.109  12.834  1.00  0.00     0.016 A 
ATOM     45  C   UNL     1       0.732   8.803  11.205  1.00  0.00     0.016 A 
ATOM     46  C   UNL     1       0.942  10.097  13.676  1.00  0.00     0.010 A 
ATOM     47  C   UNL     1      -0.340   8.774  12.056  1.00  0.00     0.010 A 
ATOM     48  C   UNL     1      -0.182   9.342  13.315  1.00  0.00    -0.014 A 
BRANCH  48  49
ATOM     49  C   UNL     1      -1.275   9.291  14.253  1.00  0.00     0.031 A 
ATOM     50  C   UNL     1      -1.967  10.591  14.325  1.00  0.00     0.074 A 
ATOM     51  C   UNL     1      -1.627   8.171  14.908  1.00  0.00     0.049 A 
ATOM     52  N   UNL     1      -1.922  11.434  15.299  1.00  0.00    -0.248 NA
ATOM     53  C   UNL     1      -2.577  11.118  13.093  1.00  0.00     0.031 C 
ATOM     54  C   UNL     1      -1.139   6.807  14.700  1.00  0.00     0.029 A 
ATOM     55  N   UNL     1      -2.584   8.010  15.860  1.00  0.00    -0.354 N 
ATOM     56  C   UNL     1      -2.723  12.492  14.894  1.00  0.00     0.074 A 
ATOM     57  C   UNL     1      -2.895  12.355  13.473  1.00  0.00     0.031 C 
ATOM     58  C   UNL     1      -1.962   5.939  15.334  1.00  0.00     0.029 A 
ATOM     59  C   UNL     1      -2.952   6.689  16.088  1.00  0.00     0.049 A 
ATOM     60  H   UNL     1      -2.983   8.767  16.348  1.00  0.00     0.167 HD
ATOM     61  C   UNL     1      -3.454  13.168  15.817  1.00  0.00     0.037 A 
ATOM     62  C   UNL     1      -4.039   6.275  16.788  1.00  0.00     0.037 A 
ATOM     63  C   UNL     1      -2.900  12.992  17.140  1.00  0.00     0.049 A 
ATOM     64  C   UNL     1      -4.470   7.409  17.645  1.00  0.00     0.074 A 
ATOM     65  C   UNL     1      -1.668  13.226  17.722  1.00  0.00     0.029 A 
ATOM     66  N   UNL     1      -3.558  12.134  17.987  1.00  0.00    -0.354 N 
ATOM     67  N   UNL     1      -3.794   7.838  18.673  1.00  0.00    -0.248 NA
ATOM     68  C   UNL     1      -5.424   8.357  17.088  1.00  0.00     0.031 C 
ATOM     69  C   UNL     1      -1.479  12.155  18.645  1.00  0.00     0.029 A 
ATOM     70  C   UNL     1      -2.627  11.363  18.629  1.00  0.00     0.049 A 
ATOM     71  H   UNL     1      -4.533  12.083  18.111  1.00  0.00     0.167 HD
ATOM     72  C   UNL     1      -3.891   9.219  18.603  1.00  0.00     0.074 A 
ATOM     73  C   UNL     1      -4.988   9.477  17.672  1.00  0.00     0.031 C 
ATOM     74  C   UNL     1      -2.881  10.011  19.069  1.00  0.00     0.037 A 
BRANCH  61  75
ATOM     75  C   UNL     1      -4.904  13.539  15.591  1.00  0.00     0.057 A 
ATOM     76  C   UNL     1      -5.566  14.267  16.593  1.00  0.00     0.134 A 
ATOM     77  C   UNL     1      -5.749  12.951  14.624  1.00  0.00     0.134 A 
ATOM     78  F   UNL     1      -4.877  14.871  17.573  1.00  0.00    -0.206 F 
ATOM     79  C   UNL     1      -6.962  14.309  16.690  1.00  0.00     0.040 A 
ATOM     80  C   UNL     1      -7.141  13.031  14.683  1.00  0.00     0.040 A 
ATOM     81  F   UNL     1      -5.299  12.181  13.628  1.00  0.00    -0.206 F 
ATOM     82  C   UNL     1      -7.754  13.678  15.740  1.00  0.00     0.006 A 
ENDBRANCH  61  75
BRANCH  62  83
ATOM     83  C   UNL     1      -4.915   5.102  16.555  1.00  0.00     0.057 A 
ATOM     84  C   UNL     1      -5.878   4.723  17.506  1.00  0.00     0.134 A 
ATOM     85  C   UNL     1      -5.040   4.506  15.289  1.00  0.00     0.134 A 
ATOM     86  F   UNL     1      -5.870   5.261  18.735  1.00  0.00    -0.206 F 
ATOM     87  C   UNL     1      -6.922   3.839  17.204  1.00  0.00     0.040 A 
ATOM     88  C   UNL     1      -6.073   3.615  14.976  1.00  0.00     0.040 A 
ATOM     89  F   UNL     1      -4.220   4.837  14.281  1.00  0.00    -0.206 F 
ATOM     90  C   UNL     1      -7.030   3.293  15.930  1.00  0.00     0.006 A 
ENDBRANCH  62  83
BRANCH  74  91
ATOM     91  C   UNL     1      -1.832   9.368  19.933  1.00  0.00     0.057 A 
ATOM     92  C   UNL     1      -0.961   8.353  19.507  1.00  0.00     0.134 A 
ATOM     93  C   UNL     1      -1.618   9.890  21.213  1.00  0.00     0.134 A 
ATOM     94  F   UNL     1      -1.025   7.857  18.265  1.00  0.00    -0.206 F 
ATOM     95  C   UNL     1       0.044   7.851  20.340  1.00  0.00     0.040 A 
ATOM     96  C   UNL     1      -0.596   9.423  22.040  1.00  0.00     0.040 A 
ATOM     97  F   UNL     1      -2.380  10.899  21.667  1.00  0.00    -0.206 F 
ATOM     98  C   UNL     1       0.233   8.391  21.609  1.00  0.00     0.006 A 
ENDBRANCH  74  91
ENDBRANCH  48  49
ENDBRANCH  41  43
ENDBRANCH  40  41
ENDBRANCH  39  40
ENDBRANCH  38  39
ENDBRANCH  37  38
ENDBRANCH  36  37
ENDBRANCH  35  36
ENDBRANCH  34  35
ENDBRANCH   1  34
TORSDOF 24
