REMARK SMILES O=C(N/N=C/c1ccc(C(=O)OCCOCCOCCOCCOC(=O)c2ccc(-c3c4nc(c(-c5c(F)cccc5F)c5ccc([nH]5)c(-c5c(F)cccc5F)c5nc(c(-c6c(F)cccc6F)c6ccc3[nH]6)C=C5)C=C4)cc2)cc1)C(=O)Nc1cccc(Br)c1
REMARK SMILES IDX 17 1 16 2 15 3 14 4 13 5 12 6 10 7 11 8 9 9 6 10 7 11 82 12
REMARK SMILES IDX 8 13 81 14 5 15 4 16 3 17 1 18 2 19 83 21 84 22 85 23 86 25
REMARK SMILES IDX 87 26 92 27 88 28 90 29 89 30 91 31 18 32 19 33 20 34 21 35
REMARK SMILES IDX 22 36 23 37 24 38 25 39 26 40 27 41 28 42 80 43 29 44 79 45
REMARK SMILES IDX 30 46 31 47 32 48 73 49 33 50 78 51 72 52 74 53 34 54 77 55
REMARK SMILES IDX 71 56 70 57 35 59 61 60 44 61 60 62 45 63 48 64 59 65 75 66
REMARK SMILES IDX 46 67 47 68 58 70 76 71 49 72 36 73 37 74 42 75 38 76 39 77
REMARK SMILES IDX 41 78 43 79 40 80 62 81 63 82 68 83 64 84 65 85 67 86 69 87
REMARK SMILES IDX 66 88 50 89 51 90 56 91 52 92 53 93 55 94 57 95 54 96
REMARK H PARENT 3 20 85 24 74 58 48 69
REMARK Flexibility Score: inf
ROOT
ATOM      1  C   UNL     1      10.884   2.470   0.373  1.00  0.00     0.188 C 
ENDROOT
BRANCH   1   2
ATOM      2  C   UNL     1      11.805   1.679   1.323  1.00  0.00     0.188 C 
BRANCH   2   3
ATOM      3  O   UNL     1      13.167   1.677   0.912  1.00  0.00    -0.376 OA
BRANCH   3   4
ATOM      4  C   UNL     1      13.745   0.439   0.535  1.00  0.00     0.202 C 
BRANCH   4   5
ATOM      5  C   UNL     1      13.287  -0.164  -0.802  1.00  0.00     0.261 C 
BRANCH   5   6
ATOM      6  O   UNL     1      11.872  -0.182  -1.012  1.00  0.00    -0.460 OA
BRANCH   6   7
ATOM      7  C   UNL     1      11.167  -1.047  -0.258  1.00  0.00     0.338 C 
ATOM      8  O   UNL     1      11.612  -1.869   0.525  1.00  0.00    -0.246 OA
BRANCH   7   9
ATOM      9  C   UNL     1       9.734  -0.713  -0.370  1.00  0.00     0.060 A 
ATOM     10  C   UNL     1       6.705  -0.477  -0.541  1.00  0.00    -0.005 A 
ATOM     11  C   UNL     1       7.573  -0.436   0.684  1.00  0.00     0.010 A 
ATOM     12  C   UNL     1       7.731  -0.089  -1.575  1.00  0.00     0.010 A 
ATOM     13  C   UNL     1       8.967  -0.664   0.771  1.00  0.00     0.016 A 
ATOM     14  C   UNL     1       9.141  -0.268  -1.526  1.00  0.00     0.016 A 
BRANCH  10  15
ATOM     15  C   UNL     1       4.679  -1.106  -0.727  1.00  0.00     0.141 C 
ATOM     16  N   UNL     1       3.543  -0.647  -1.347  1.00  0.00    -0.180 NA
BRANCH  16  17
ATOM     17  N   UNL     1       2.389  -0.961  -0.716  1.00  0.00    -0.239 N 
ATOM     18  O   UNL     1       0.592   0.012   0.209  1.00  0.00    -0.262 OA
ATOM     19  C   UNL     1       1.823  -0.078   0.199  1.00  0.00     0.329 C 
ATOM     20  H   UNL     1       1.946  -1.820  -0.905  1.00  0.00     0.194 HD
BRANCH  19  21
ATOM     21  C   UNL     1       2.616   0.729   1.270  1.00  0.00     0.315 C 
ATOM     22  O   UNL     1       1.958   1.173   2.220  1.00  0.00    -0.263 OA
ATOM     23  N   UNL     1       3.986   0.969   1.340  1.00  0.00    -0.318 N 
ATOM     24  H   UNL     1       4.277   1.634   2.005  1.00  0.00     0.170 HD
BRANCH  23  25
ATOM     25  C   UNL     1       4.995   0.377   0.580  1.00  0.00     0.042 A 
ATOM     26  C   UNL     1       5.451  -1.313   1.119  1.00  0.00     0.026 A 
ATOM     27  C   UNL     1       5.127   0.870  -1.170  1.00  0.00     0.041 A 
ATOM     28  C   UNL     1       6.063  -2.514  -0.125  1.00  0.00     0.003 A 
ATOM     29  C   UNL     1       5.543  -0.404  -2.422  1.00  0.00     0.020 A 
ATOM     30  C   UNL     1       6.043  -2.075  -1.889  1.00  0.00     0.016 A 
ATOM     31  Br  UNL     1       5.282  -0.043  -4.269  1.00  0.00    -0.051 Br
ENDBRANCH  23  25
ENDBRANCH  19  21
ENDBRANCH  16  17
ENDBRANCH  10  15
ENDBRANCH   7   9
ENDBRANCH   6   7
ENDBRANCH   5   6
ENDBRANCH   4   5
ENDBRANCH   3   4
ENDBRANCH   2   3
ENDBRANCH   1   2
BRANCH   1  32
ATOM     32  O   UNL     1      11.405   2.759  -0.912  1.00  0.00    -0.377 OA
BRANCH  32  33
ATOM     33  C   UNL     1      12.571   3.577  -1.015  1.00  0.00     0.188 C 
BRANCH  33  34
ATOM     34  C   UNL     1      13.173   4.337   0.196  1.00  0.00     0.188 C 
BRANCH  34  35
ATOM     35  O   UNL     1      12.274   4.585   1.266  1.00  0.00    -0.376 OA
BRANCH  35  36
ATOM     36  C   UNL     1      11.864   5.929   1.464  1.00  0.00     0.202 C 
BRANCH  36  37
ATOM     37  C   UNL     1      10.890   6.459   0.405  1.00  0.00     0.261 C 
BRANCH  37  38
ATOM     38  O   UNL     1      11.398   6.468  -0.938  1.00  0.00    -0.460 OA
BRANCH  38  39
ATOM     39  C   UNL     1      12.487   7.230  -1.177  1.00  0.00     0.338 C 
ATOM     40  O   UNL     1      13.075   7.951  -0.393  1.00  0.00    -0.246 OA
BRANCH  39  41
ATOM     41  C   UNL     1      12.974   6.898  -2.529  1.00  0.00     0.060 A 
ATOM     42  C   UNL     1      14.281   6.417  -2.683  1.00  0.00     0.016 A 
ATOM     43  C   UNL     1      12.137   7.058  -3.635  1.00  0.00     0.016 A 
ATOM     44  C   UNL     1      14.771   6.136  -3.958  1.00  0.00     0.010 A 
ATOM     45  C   UNL     1      12.634   6.798  -4.911  1.00  0.00     0.010 A 
ATOM     46  C   UNL     1      13.965   6.375  -5.079  1.00  0.00    -0.014 A 
BRANCH  46  47
ATOM     47  C   UNL     1      14.578   6.417  -6.426  1.00  0.00     0.031 A 
ATOM     48  C   UNL     1      15.004   7.755  -6.962  1.00  0.00     0.074 A 
ATOM     49  C   UNL     1      14.765   5.302  -7.152  1.00  0.00     0.049 A 
ATOM     50  N   UNL     1      15.518   8.062  -8.125  1.00  0.00    -0.248 NA
ATOM     51  C   UNL     1      14.819   8.905  -6.061  1.00  0.00     0.031 C 
ATOM     52  C   UNL     1      14.434   3.946  -6.723  1.00  0.00     0.029 A 
ATOM     53  N   UNL     1      15.277   5.146  -8.414  1.00  0.00    -0.354 N 
ATOM     54  C   UNL     1      15.713   9.437  -8.095  1.00  0.00     0.074 A 
ATOM     55  C   UNL     1      15.228   9.910  -6.817  1.00  0.00     0.031 C 
ATOM     56  C   UNL     1      14.745   3.091  -7.714  1.00  0.00     0.029 A 
ATOM     57  C   UNL     1      15.267   3.845  -8.854  1.00  0.00     0.049 A 
ATOM     58  H   UNL     1      15.620   5.894  -8.954  1.00  0.00     0.167 HD
ATOM     59  C   UNL     1      16.255  10.236  -9.044  1.00  0.00     0.037 A 
ATOM     60  C   UNL     1      15.621   3.332 -10.048  1.00  0.00     0.037 A 
ATOM     61  C   UNL     1      16.722   9.765 -10.320  1.00  0.00     0.049 A 
ATOM     62  C   UNL     1      16.143   4.251 -11.123  1.00  0.00     0.074 A 
ATOM     63  C   UNL     1      17.292  10.490 -11.351  1.00  0.00     0.029 A 
ATOM     64  N   UNL     1      16.661   8.446 -10.743  1.00  0.00    -0.354 N 
ATOM     65  N   UNL     1      16.345   5.546 -11.081  1.00  0.00    -0.248 NA
ATOM     66  C   UNL     1      16.489   3.632 -12.411  1.00  0.00     0.031 C 
ATOM     67  C   UNL     1      17.528   9.617 -12.419  1.00  0.00     0.029 A 
ATOM     68  C   UNL     1      17.160   8.338 -12.030  1.00  0.00     0.049 A 
ATOM     69  H   UNL     1      16.313   7.696 -10.208  1.00  0.00     0.167 HD
ATOM     70  C   UNL     1      16.874   5.891 -12.320  1.00  0.00     0.074 A 
ATOM     71  C   UNL     1      16.966   4.667 -13.089  1.00  0.00     0.031 C 
ATOM     72  C   UNL     1      17.255   7.110 -12.778  1.00  0.00     0.037 A 
BRANCH  59  73
ATOM     73  C   UNL     1      16.333  11.703  -8.739  1.00  0.00     0.057 A 
ATOM     74  C   UNL     1      17.209  12.214  -7.772  1.00  0.00     0.134 A 
ATOM     75  C   UNL     1      15.516  12.616  -9.417  1.00  0.00     0.134 A 
ATOM     76  F   UNL     1      18.005  11.391  -7.072  1.00  0.00    -0.206 F 
ATOM     77  C   UNL     1      17.245  13.576  -7.466  1.00  0.00     0.040 A 
ATOM     78  C   UNL     1      15.565  13.983  -9.141  1.00  0.00     0.040 A 
ATOM     79  F   UNL     1      14.655  12.194 -10.355  1.00  0.00    -0.206 F 
ATOM     80  C   UNL     1      16.424  14.465  -8.156  1.00  0.00     0.006 A 
ENDBRANCH  59  73
BRANCH  60  81
ATOM     81  C   UNL     1      15.498   1.873 -10.296  1.00  0.00     0.057 A 
ATOM     82  C   UNL     1      16.632   1.066 -10.444  1.00  0.00     0.134 A 
ATOM     83  C   UNL     1      14.247   1.254 -10.408  1.00  0.00     0.134 A 
ATOM     84  F   UNL     1      17.858   1.605 -10.371  1.00  0.00    -0.206 F 
ATOM     85  C   UNL     1      16.528  -0.301 -10.708  1.00  0.00     0.040 A 
ATOM     86  C   UNL     1      14.128  -0.116 -10.648  1.00  0.00     0.040 A 
ATOM     87  F   UNL     1      13.122   1.972 -10.278  1.00  0.00    -0.206 F 
ATOM     88  C   UNL     1      15.271  -0.896 -10.805  1.00  0.00     0.006 A 
ENDBRANCH  60  81
BRANCH  72  89
ATOM     89  C   UNL     1      17.854   7.176 -14.154  1.00  0.00     0.057 A 
ATOM     90  C   UNL     1      17.084   7.005 -15.311  1.00  0.00     0.134 A 
ATOM     91  C   UNL     1      19.216   7.462 -14.322  1.00  0.00     0.134 A 
ATOM     92  F   UNL     1      15.776   6.719 -15.222  1.00  0.00    -0.206 F 
ATOM     93  C   UNL     1      17.651   7.092 -16.584  1.00  0.00     0.040 A 
ATOM     94  C   UNL     1      19.788   7.580 -15.588  1.00  0.00     0.040 A 
ATOM     95  F   UNL     1      20.009   7.649 -13.255  1.00  0.00    -0.206 F 
ATOM     96  C   UNL     1      19.006   7.388 -16.725  1.00  0.00     0.006 A 
ENDBRANCH  72  89
ENDBRANCH  46  47
ENDBRANCH  39  41
ENDBRANCH  38  39
ENDBRANCH  37  38
ENDBRANCH  36  37
ENDBRANCH  35  36
ENDBRANCH  34  35
ENDBRANCH  33  34
ENDBRANCH  32  33
ENDBRANCH   1  32
TORSDOF 24
