REMARK SMILES Cc1nc(CC(=O)N2[C@@H](C(=O)OCCOCCOCCOCCOC(=O)c3ccc(-c4c5nc(c(-c6c(F)cccc6F)c6ccc([nH]6)c(-c6c(F)cccc6F)c6nc(c(-c7c(F)cccc7F)c7ccc4[nH]7)C=C6)C=C5)cc3)C[C@@H]3CCCC[C@H]32)cs1
REMARK SMILES IDX 17 1 16 2 15 3 14 4 13 5 12 6 10 7 11 8 9 9 8 10 87 11 81 12
REMARK SMILES IDX 82 13 86 14 83 15 85 16 84 17 6 18 7 19 5 20 4 21 1 22 2 23
REMARK SMILES IDX 3 24 89 25 88 26 18 27 19 28 20 29 21 30 22 31 23 32 24 33
REMARK SMILES IDX 25 34 26 35 27 36 28 37 80 38 29 39 79 40 30 41 31 42 32 43
REMARK SMILES IDX 73 44 33 45 78 46 72 47 74 48 34 49 77 50 71 51 70 52 35 54
REMARK SMILES IDX 61 55 44 56 60 57 45 58 48 59 59 60 75 61 46 62 47 63 58 65
REMARK SMILES IDX 76 66 49 67 36 68 37 69 42 70 38 71 39 72 41 73 43 74 40 75
REMARK SMILES IDX 62 76 63 77 68 78 64 79 65 80 67 81 69 82 66 83 50 84 51 85
REMARK SMILES IDX 56 86 52 87 53 88 55 89 57 90 54 91
REMARK H PARENT 74 53 48 64
REMARK Flexibility Score: inf
ROOT
ATOM      1  C   UNL     1       1.321  -5.800  -4.000  1.00  0.00     0.188 C 
ENDROOT
BRANCH   1   2
ATOM      2  C   UNL     1       2.622  -6.312  -4.648  1.00  0.00     0.188 C 
BRANCH   2   3
ATOM      3  O   UNL     1       3.535  -7.129  -3.928  1.00  0.00    -0.376 OA
BRANCH   3   4
ATOM      4  C   UNL     1       3.535  -7.131  -2.513  1.00  0.00     0.202 C 
BRANCH   4   5
ATOM      5  C   UNL     1       3.877  -5.839  -1.752  1.00  0.00     0.261 C 
BRANCH   5   6
ATOM      6  O   UNL     1       3.240  -4.614  -2.154  1.00  0.00    -0.462 OA
BRANCH   6   7
ATOM      7  C   UNL     1       3.918  -3.838  -3.049  1.00  0.00     0.328 C 
ATOM      8  O   UNL     1       4.921  -4.200  -3.656  1.00  0.00    -0.250 OA
BRANCH   7   9
ATOM      9  C   UNL     1       3.241  -2.472  -3.303  1.00  0.00     0.195 C 
ATOM     10  N   UNL     1       2.278  -2.030  -2.277  1.00  0.00    -0.325 N 
ATOM     11  C   UNL     1       1.185  -1.320  -2.948  1.00  0.00     0.089 C 
ATOM     12  C   UNL     1       2.437  -2.419  -4.631  1.00  0.00     0.043 C 
ATOM     13  C   UNL     1       0.990  -2.188  -4.182  1.00  0.00     0.014 C 
ATOM     14  C   UNL     1      -0.148  -1.064  -2.276  1.00  0.00     0.025 C 
ATOM     15  C   UNL     1       0.013  -1.605  -5.190  1.00  0.00     0.006 C 
ATOM     16  C   UNL     1      -1.192  -0.513  -3.254  1.00  0.00     0.002 C 
ATOM     17  C   UNL     1      -1.339  -1.369  -4.507  1.00  0.00     0.000 C 
BRANCH  10  18
ATOM     18  C   UNL     1       2.785  -1.790  -1.010  1.00  0.00     0.229 C 
ATOM     19  O   UNL     1       3.981  -1.536  -0.836  1.00  0.00    -0.274 OA
BRANCH  18  20
ATOM     20  C   UNL     1       1.889  -2.091   0.176  1.00  0.00     0.157 C 
BRANCH  20  21
ATOM     21  C   UNL     1       1.106  -0.920   0.641  1.00  0.00     0.061 A 
ATOM     22  C   UNL     1      -2.319   0.261   0.803  1.00  0.00     0.079 C 
ATOM     23  C   UNL     1      -0.852   0.066   0.948  1.00  0.00     0.090 A 
ATOM     24  N   UNL     1      -0.261  -1.097   0.799  1.00  0.00    -0.246 NA
ATOM     25  S   UNL     1       0.206   1.402   1.161  1.00  0.00    -0.127 S 
ATOM     26  C   UNL     1       1.548   0.369   0.871  1.00  0.00     0.091 A 
ENDBRANCH  20  21
ENDBRANCH  18  20
ENDBRANCH  10  18
ENDBRANCH   7   9
ENDBRANCH   6   7
ENDBRANCH   5   6
ENDBRANCH   4   5
ENDBRANCH   3   4
ENDBRANCH   2   3
ENDBRANCH   1   2
BRANCH   1  27
ATOM     27  O   UNL     1       0.942  -6.410  -2.781  1.00  0.00    -0.377 OA
BRANCH  27  28
ATOM     28  C   UNL     1      -0.029  -7.439  -2.876  1.00  0.00     0.188 C 
BRANCH  28  29
ATOM     29  C   UNL     1       0.238  -8.506  -3.947  1.00  0.00     0.188 C 
BRANCH  29  30
ATOM     30  O   UNL     1       0.336  -7.948  -5.253  1.00  0.00    -0.376 OA
BRANCH  30  31
ATOM     31  C   UNL     1      -0.772  -8.062  -6.131  1.00  0.00     0.202 C 
BRANCH  31  32
ATOM     32  C   UNL     1      -1.990  -7.179  -5.820  1.00  0.00     0.261 C 
BRANCH  32  33
ATOM     33  O   UNL     1      -2.582  -7.344  -4.523  1.00  0.00    -0.460 OA
BRANCH  33  34
ATOM     34  C   UNL     1      -3.053  -8.564  -4.191  1.00  0.00     0.338 C 
ATOM     35  O   UNL     1      -3.097  -9.554  -4.900  1.00  0.00    -0.246 OA
BRANCH  34  36
ATOM     36  C   UNL     1      -3.312  -8.556  -2.735  1.00  0.00     0.060 A 
ATOM     37  C   UNL     1      -2.630  -9.473  -1.924  1.00  0.00     0.016 A 
ATOM     38  C   UNL     1      -4.185  -7.623  -2.170  1.00  0.00     0.016 A 
ATOM     39  C   UNL     1      -2.828  -9.466  -0.543  1.00  0.00     0.010 A 
ATOM     40  C   UNL     1      -4.407  -7.640  -0.790  1.00  0.00     0.010 A 
ATOM     41  C   UNL     1      -3.746  -8.575   0.025  1.00  0.00    -0.014 A 
BRANCH  41  42
ATOM     42  C   UNL     1      -4.153  -8.738   1.439  1.00  0.00     0.031 A 
ATOM     43  C   UNL     1      -5.394  -9.529   1.738  1.00  0.00     0.074 A 
ATOM     44  C   UNL     1      -3.441  -8.193   2.439  1.00  0.00     0.049 A 
ATOM     45  N   UNL     1      -5.992  -9.741   2.880  1.00  0.00    -0.248 NA
ATOM     46  C   UNL     1      -6.051 -10.162   0.583  1.00  0.00     0.031 C 
ATOM     47  C   UNL     1      -2.200  -7.440   2.280  1.00  0.00     0.029 A 
ATOM     48  N   UNL     1      -3.679  -8.176   3.791  1.00  0.00    -0.354 N 
ATOM     49  C   UNL     1      -7.102 -10.521   2.583  1.00  0.00     0.074 A 
ATOM     50  C   UNL     1      -7.107 -10.724   1.150  1.00  0.00     0.031 C 
ATOM     51  C   UNL     1      -1.797  -7.009   3.488  1.00  0.00     0.029 A 
ATOM     52  C   UNL     1      -2.772  -7.425   4.496  1.00  0.00     0.049 A 
ATOM     53  H   UNL     1      -4.428  -8.656   4.214  1.00  0.00     0.167 HD
ATOM     54  C   UNL     1      -8.033 -11.022   3.429  1.00  0.00     0.037 A 
ATOM     55  C   UNL     1      -2.754  -7.082   5.799  1.00  0.00     0.037 A 
ATOM     56  C   UNL     1      -8.029 -10.805   4.851  1.00  0.00     0.049 A 
ATOM     57  C   UNL     1      -3.845  -7.579   6.711  1.00  0.00     0.074 A 
ATOM     58  C   UNL     1      -8.904 -11.300   5.801  1.00  0.00     0.029 A 
ATOM     59  N   UNL     1      -7.114 -10.009   5.525  1.00  0.00    -0.354 N 
ATOM     60  N   UNL     1      -4.870  -8.349   6.433  1.00  0.00    -0.248 NA
ATOM     61  C   UNL     1      -3.780  -7.155   8.117  1.00  0.00     0.031 C 
ATOM     62  C   UNL     1      -8.560 -10.748   7.040  1.00  0.00     0.029 A 
ATOM     63  C   UNL     1      -7.433  -9.959   6.873  1.00  0.00     0.049 A 
ATOM     64  H   UNL     1      -6.352  -9.547   5.107  1.00  0.00     0.167 HD
ATOM     65  C   UNL     1      -5.563  -8.512   7.627  1.00  0.00     0.074 A 
ATOM     66  C   UNL     1      -4.829  -7.777   8.637  1.00  0.00     0.031 C 
ATOM     67  C   UNL     1      -6.703  -9.207   7.865  1.00  0.00     0.037 A 
BRANCH  54  68
ATOM     68  C   UNL     1      -9.159 -11.807   2.821  1.00  0.00     0.057 A 
ATOM     69  C   UNL     1      -8.966 -13.069   2.244  1.00  0.00     0.134 A 
ATOM     70  C   UNL     1     -10.460 -11.286   2.809  1.00  0.00     0.134 A 
ATOM     71  F   UNL     1      -7.743 -13.620   2.205  1.00  0.00    -0.206 F 
ATOM     72  C   UNL     1     -10.017 -13.769   1.648  1.00  0.00     0.040 A 
ATOM     73  C   UNL     1     -11.524 -11.988   2.244  1.00  0.00     0.040 A 
ATOM     74  F   UNL     1     -10.716 -10.083   3.345  1.00  0.00    -0.206 F 
ATOM     75  C   UNL     1     -11.302 -13.229   1.651  1.00  0.00     0.006 A 
ENDBRANCH  54  68
BRANCH  55  76
ATOM     76  C   UNL     1      -1.681  -6.192   6.308  1.00  0.00     0.057 A 
ATOM     77  C   UNL     1      -0.690  -6.665   7.175  1.00  0.00     0.134 A 
ATOM     78  C   UNL     1      -1.615  -4.845   5.927  1.00  0.00     0.134 A 
ATOM     79  F   UNL     1      -0.715  -7.937   7.597  1.00  0.00    -0.206 F 
ATOM     80  C   UNL     1       0.327  -5.832   7.646  1.00  0.00     0.040 A 
ATOM     81  C   UNL     1      -0.590  -4.008   6.369  1.00  0.00     0.040 A 
ATOM     82  F   UNL     1      -2.539  -4.329   5.103  1.00  0.00    -0.206 F 
ATOM     83  C   UNL     1       0.384  -4.501   7.235  1.00  0.00     0.006 A 
ENDBRANCH  55  76
BRANCH  67  84
ATOM     84  C   UNL     1      -7.230  -9.210   9.272  1.00  0.00     0.057 A 
ATOM     85  C   UNL     1      -7.812  -8.072   9.845  1.00  0.00     0.134 A 
ATOM     86  C   UNL     1      -7.200 -10.378  10.046  1.00  0.00     0.134 A 
ATOM     87  F   UNL     1      -7.863  -6.918   9.162  1.00  0.00    -0.206 F 
ATOM     88  C   UNL     1      -8.326  -8.089  11.143  1.00  0.00     0.040 A 
ATOM     89  C   UNL     1      -7.737 -10.415  11.334  1.00  0.00     0.040 A 
ATOM     90  F   UNL     1      -6.667 -11.507   9.556  1.00  0.00    -0.206 F 
ATOM     91  C   UNL     1      -8.297  -9.266  11.888  1.00  0.00     0.006 A 
ENDBRANCH  67  84
ENDBRANCH  41  42
ENDBRANCH  34  36
ENDBRANCH  33  34
ENDBRANCH  32  33
ENDBRANCH  31  32
ENDBRANCH  30  31
ENDBRANCH  29  30
ENDBRANCH  28  29
ENDBRANCH  27  28
ENDBRANCH   1  27
TORSDOF 23
