REMARK SMILES C[NH2+]C[C@H](C)C(=O)N1CCC[C@@H]1C(=O)OCCOCCOCCOCCOC(=O)c1ccc(-c2c3nc(c(-c4c(F)cccc4F)c4ccc([nH]4)c(-c4c(F)cccc4F)c4nc(c(-c5c(F)cccc5F)c5ccc2[nH]5)C=C4)C=C3)cc1
REMARK SMILES IDX 20 1 19 2 18 3 17 4 16 5 15 6 13 7 14 8 12 9 8 10 9 11 10 12
REMARK SMILES IDX 11 13 6 14 7 15 4 16 5 17 3 18 2 19 1 20 21 23 22 24 23 25
REMARK SMILES IDX 24 26 25 27 26 28 27 29 28 30 29 31 30 32 31 33 83 34 32 35
REMARK SMILES IDX 82 36 33 37 34 38 35 39 76 40 36 41 81 42 75 43 77 44 37 45
REMARK SMILES IDX 80 46 74 47 73 48 38 50 64 51 47 52 63 53 48 54 51 55 62 56
REMARK SMILES IDX 78 57 49 58 50 59 61 61 79 62 52 63 39 64 40 65 45 66 41 67
REMARK SMILES IDX 42 68 44 69 46 70 43 71 65 72 66 73 71 74 67 75 68 76 70 77
REMARK SMILES IDX 72 78 69 79 53 80 54 81 59 82 55 83 56 84 58 85 60 86 57 87
REMARK H PARENT 2 21 2 22 77 49 51 60
REMARK Flexibility Score: inf
ROOT
ATOM      1  C   UNL     1      -6.636   3.055   4.412  1.00  0.00     0.188 C 
ENDROOT
BRANCH   1   2
ATOM      2  C   UNL     1      -6.701   1.616   4.937  1.00  0.00     0.188 C 
BRANCH   2   3
ATOM      3  O   UNL     1      -5.982   1.435   6.142  1.00  0.00    -0.376 OA
BRANCH   3   4
ATOM      4  C   UNL     1      -4.681   0.883   6.072  1.00  0.00     0.202 C 
BRANCH   4   5
ATOM      5  C   UNL     1      -3.559   1.601   5.301  1.00  0.00     0.261 C 
BRANCH   5   6
ATOM      6  O   UNL     1      -3.817   2.161   3.999  1.00  0.00    -0.462 OA
BRANCH   6   7
ATOM      7  C   UNL     1      -4.207   1.352   2.988  1.00  0.00     0.328 C 
ATOM      8  O   UNL     1      -4.322   0.139   3.117  1.00  0.00    -0.250 OA
BRANCH   7   9
ATOM      9  C   UNL     1      -4.315   2.104   1.638  1.00  0.00     0.195 C 
ATOM     10  N   UNL     1      -3.045   2.024   0.921  1.00  0.00    -0.328 N 
ATOM     11  C   UNL     1      -2.844   3.223   0.135  1.00  0.00     0.120 C 
ATOM     12  C   UNL     1      -3.475   4.311   0.966  1.00  0.00     0.024 C 
ATOM     13  C   UNL     1      -4.635   3.611   1.665  1.00  0.00     0.039 C 
BRANCH  10  14
ATOM     14  C   UNL     1      -2.545   0.800   0.547  1.00  0.00     0.231 C 
ATOM     15  O   UNL     1      -3.282  -0.150   0.286  1.00  0.00    -0.274 OA
BRANCH  14  16
ATOM     16  C   UNL     1      -1.027   0.636   0.581  1.00  0.00     0.130 C 
ATOM     17  C   UNL     1      -0.359   1.225  -0.656  1.00  0.00     0.024 C 
BRANCH  16  18
ATOM     18  C   UNL     1      -0.365   1.167   1.874  1.00  0.00     0.273 C 
BRANCH  18  19
ATOM     19  N   UNL     1      -0.943   0.797   3.168  1.00  0.00    -0.348 N 
ATOM     20  C   UNL     1      -1.149  -0.633   3.359  1.00  0.00     0.330 C 
ATOM     21  H   UNL     1      -0.316   1.127   3.901  1.00  0.00     0.346 HD
ATOM     22  H   UNL     1      -1.867   1.227   3.204  1.00  0.00     0.346 HD
ENDBRANCH  18  19
ENDBRANCH  16  18
ENDBRANCH  14  16
ENDBRANCH  10  14
ENDBRANCH   7   9
ENDBRANCH   6   7
ENDBRANCH   5   6
ENDBRANCH   4   5
ENDBRANCH   3   4
ENDBRANCH   2   3
ENDBRANCH   1   2
BRANCH   1  23
ATOM     23  O   UNL     1      -5.579   3.858   4.914  1.00  0.00    -0.377 OA
BRANCH  23  24
ATOM     24  C   UNL     1      -5.571   4.264   6.281  1.00  0.00     0.188 C 
BRANCH  24  25
ATOM     25  C   UNL     1      -6.703   3.872   7.252  1.00  0.00     0.188 C 
BRANCH  25  26
ATOM     26  O   UNL     1      -7.961   3.667   6.636  1.00  0.00    -0.376 OA
BRANCH  26  27
ATOM     27  C   UNL     1      -8.882   4.742   6.593  1.00  0.00     0.202 C 
BRANCH  27  28
ATOM     28  C   UNL     1      -8.453   6.054   5.915  1.00  0.00     0.261 C 
BRANCH  28  29
ATOM     29  O   UNL     1      -7.272   6.701   6.416  1.00  0.00    -0.460 OA
BRANCH  29  30
ATOM     30  C   UNL     1      -7.218   7.006   7.732  1.00  0.00     0.338 C 
ATOM     31  O   UNL     1      -8.090   6.857   8.559  1.00  0.00    -0.246 OA
BRANCH  30  32
ATOM     32  C   UNL     1      -5.818   7.381   8.045  1.00  0.00     0.060 A 
ATOM     33  C   UNL     1      -5.115   6.649   9.014  1.00  0.00     0.016 A 
ATOM     34  C   UNL     1      -5.213   8.458   7.396  1.00  0.00     0.016 A 
ATOM     35  C   UNL     1      -3.826   7.035   9.382  1.00  0.00     0.010 A 
ATOM     36  C   UNL     1      -3.931   8.859   7.783  1.00  0.00     0.010 A 
ATOM     37  C   UNL     1      -3.256   8.180   8.814  1.00  0.00    -0.014 A 
BRANCH  37  38
ATOM     38  C   UNL     1      -2.092   8.820   9.474  1.00  0.00     0.031 A 
ATOM     39  C   UNL     1      -2.362   9.963  10.418  1.00  0.00     0.074 A 
ATOM     40  C   UNL     1      -0.835   8.391   9.277  1.00  0.00     0.049 A 
ATOM     41  N   UNL     1      -1.523  10.723  11.073  1.00  0.00    -0.248 NA
ATOM     42  C   UNL     1      -3.779  10.294  10.646  1.00  0.00     0.031 C 
ATOM     43  C   UNL     1      -0.445   7.260   8.440  1.00  0.00     0.029 A 
ATOM     44  N   UNL     1       0.352   8.871   9.774  1.00  0.00    -0.354 N 
ATOM     45  C   UNL     1      -2.309  11.623  11.783  1.00  0.00     0.074 A 
ATOM     46  C   UNL     1      -3.687  11.344  11.445  1.00  0.00     0.031 C 
ATOM     47  C   UNL     1       0.894   7.136   8.475  1.00  0.00     0.029 A 
ATOM     48  C   UNL     1       1.455   8.200   9.306  1.00  0.00     0.049 A 
ATOM     49  H   UNL     1       0.407   9.624  10.405  1.00  0.00     0.167 HD
ATOM     50  C   UNL     1      -1.921  12.589  12.649  1.00  0.00     0.037 A 
ATOM     51  C   UNL     1       2.765   8.435   9.514  1.00  0.00     0.037 A 
ATOM     52  C   UNL     1      -0.548  12.873  12.974  1.00  0.00     0.049 A 
ATOM     53  C   UNL     1       3.180   9.581  10.402  1.00  0.00     0.074 A 
ATOM     54  C   UNL     1      -0.046  13.834  13.833  1.00  0.00     0.029 A 
ATOM     55  N   UNL     1       0.542  12.201  12.443  1.00  0.00    -0.354 N 
ATOM     56  N   UNL     1       2.434  10.424  11.075  1.00  0.00    -0.248 NA
ATOM     57  C   UNL     1       4.625   9.804  10.562  1.00  0.00     0.031 C 
ATOM     58  C   UNL     1       1.350  13.781  13.778  1.00  0.00     0.029 A 
ATOM     59  C   UNL     1       1.718  12.742  12.938  1.00  0.00     0.049 A 
ATOM     60  H   UNL     1       0.489  11.450  11.808  1.00  0.00     0.167 HD
ATOM     61  C   UNL     1       3.315  11.246  11.770  1.00  0.00     0.074 A 
ATOM     62  C   UNL     1       4.651  10.797  11.440  1.00  0.00     0.031 C 
ATOM     63  C   UNL     1       3.042  12.275  12.611  1.00  0.00     0.037 A 
BRANCH  50  64
ATOM     64  C   UNL     1      -3.002  13.427  13.270  1.00  0.00     0.057 A 
ATOM     65  C   UNL     1      -3.914  12.900  14.195  1.00  0.00     0.134 A 
ATOM     66  C   UNL     1      -3.136  14.780  12.935  1.00  0.00     0.134 A 
ATOM     67  F   UNL     1      -3.854  11.606  14.548  1.00  0.00    -0.206 F 
ATOM     68  C   UNL     1      -4.941  13.677  14.735  1.00  0.00     0.040 A 
ATOM     69  C   UNL     1      -4.137  15.576  13.493  1.00  0.00     0.040 A 
ATOM     70  F   UNL     1      -2.296  15.352  12.059  1.00  0.00    -0.206 F 
ATOM     71  C   UNL     1      -5.051  15.022  14.387  1.00  0.00     0.006 A 
ENDBRANCH  50  64
BRANCH  51  72
ATOM     72  C   UNL     1       3.790   7.570   8.874  1.00  0.00     0.057 A 
ATOM     73  C   UNL     1       4.607   6.729   9.638  1.00  0.00     0.134 A 
ATOM     74  C   UNL     1       3.997   7.583   7.489  1.00  0.00     0.134 A 
ATOM     75  F   UNL     1       4.475   6.692  10.973  1.00  0.00    -0.206 F 
ATOM     76  C   UNL     1       5.604   5.947   9.053  1.00  0.00     0.040 A 
ATOM     77  C   UNL     1       4.972   6.785   6.887  1.00  0.00     0.040 A 
ATOM     78  F   UNL     1       3.250   8.368   6.699  1.00  0.00    -0.206 F 
ATOM     79  C   UNL     1       5.785   5.969   7.672  1.00  0.00     0.006 A 
ENDBRANCH  51  72
BRANCH  63  80
ATOM     80  C   UNL     1       4.206  12.946  13.287  1.00  0.00     0.057 A 
ATOM     81  C   UNL     1       5.115  13.752  12.589  1.00  0.00     0.134 A 
ATOM     82  C   UNL     1       4.395  12.812  14.669  1.00  0.00     0.134 A 
ATOM     83  F   UNL     1       4.999  13.918  11.263  1.00  0.00    -0.206 F 
ATOM     84  C   UNL     1       6.185  14.374  13.236  1.00  0.00     0.040 A 
ATOM     85  C   UNL     1       5.441  13.455  15.332  1.00  0.00     0.040 A 
ATOM     86  F   UNL     1       3.555  12.066  15.403  1.00  0.00    -0.206 F 
ATOM     87  C   UNL     1       6.346  14.232  14.613  1.00  0.00     0.006 A 
ENDBRANCH  63  80
ENDBRANCH  37  38
ENDBRANCH  30  32
ENDBRANCH  29  30
ENDBRANCH  28  29
ENDBRANCH  27  28
ENDBRANCH  26  27
ENDBRANCH  25  26
ENDBRANCH  24  25
ENDBRANCH  23  24
ENDBRANCH   1  23
TORSDOF 24
