REMARK SMILES COc1ccc(C(F)(F)F)cc1-c1cc(N)cc(C(=O)OCCOCCOCCOCCOC(=O)c2ccc(-c3c4nc(c(-c5c(F)cccc5F)c5ccc([nH]5)c(-c5c(F)cccc5F)c5nc(c(-c6c(F)cccc6F)c6ccc3[nH]6)C=C5)C=C4)cc2)c1
REMARK SMILES IDX 27 1 26 2 25 3 24 4 23 5 22 6 21 7 19 8 20 9 18 10 13 11
REMARK SMILES IDX 14 12 90 13 15 14 17 15 12 16 3 17 4 18 5 19 11 20 6 21 2 22
REMARK SMILES IDX 1 23 7 24 8 25 9 26 10 27 16 28 28 31 29 32 30 33 31 34
REMARK SMILES IDX 32 35 33 36 34 37 35 38 36 39 37 40 89 41 38 42 88 43 39 44
REMARK SMILES IDX 40 45 41 46 82 47 42 48 87 49 81 50 83 51 43 52 86 53 80 54
REMARK SMILES IDX 79 55 44 57 70 58 53 59 69 60 54 61 57 62 68 63 84 64 55 65
REMARK SMILES IDX 56 66 67 68 85 69 58 70 45 71 46 72 51 73 47 74 48 75 50 76
REMARK SMILES IDX 52 77 49 78 71 79 72 80 77 81 73 82 74 83 76 84 78 85 75 86
REMARK SMILES IDX 59 87 60 88 65 89 61 90 62 91 64 92 66 93 63 94
REMARK H PARENT 16 29 16 30 83 56 57 67
REMARK Flexibility Score: inf
ROOT
ATOM      1  O   UNL     1       5.401   0.487  -3.607  1.00  0.00    -0.377 OA
ENDROOT
BRANCH   1   2
ATOM      2  C   UNL     1       6.155   0.143  -2.457  1.00  0.00     0.188 C 
BRANCH   2   3
ATOM      3  C   UNL     1       6.494  -1.355  -2.315  1.00  0.00     0.188 C 
BRANCH   3   4
ATOM      4  O   UNL     1       6.358  -2.070  -3.532  1.00  0.00    -0.376 OA
BRANCH   4   5
ATOM      5  C   UNL     1       5.230  -2.898  -3.752  1.00  0.00     0.202 C 
BRANCH   5   6
ATOM      6  C   UNL     1       3.796  -2.380  -3.558  1.00  0.00     0.261 C 
BRANCH   6   7
ATOM      7  O   UNL     1       3.591  -1.455  -2.491  1.00  0.00    -0.460 OA
BRANCH   7   8
ATOM      8  C   UNL     1       3.554  -1.939  -1.233  1.00  0.00     0.338 C 
ATOM      9  O   UNL     1       3.620  -3.107  -0.895  1.00  0.00    -0.246 OA
BRANCH   8  10
ATOM     10  C   UNL     1       3.638  -0.778  -0.315  1.00  0.00     0.062 A 
ATOM     11  C   UNL     1       2.968   1.475   0.306  1.00  0.00    -0.012 A 
ATOM     12  C   UNL     1       3.824   1.375   1.421  1.00  0.00     0.034 A 
ATOM     13  C   UNL     1       2.964   0.411  -0.605  1.00  0.00     0.024 A 
ATOM     14  C   UNL     1       4.615   0.241   1.649  1.00  0.00     0.033 A 
ATOM     15  C   UNL     1       4.454  -0.864   0.816  1.00  0.00     0.041 A 
BRANCH  11  16
ATOM     16  C   UNL     1       2.020   2.602   0.156  1.00  0.00     0.024 A 
ATOM     17  C   UNL     1       0.669   2.410  -0.215  1.00  0.00     0.126 A 
ATOM     18  C   UNL     1      -0.205   3.493  -0.349  1.00  0.00     0.047 A 
ATOM     19  C   UNL     1       0.232   4.788  -0.080  1.00  0.00     0.017 A 
ATOM     20  C   UNL     1       2.439   3.926   0.407  1.00  0.00     0.025 A 
ATOM     21  C   UNL     1       1.560   5.021   0.299  1.00  0.00     0.056 A 
BRANCH  17  22
ATOM     22  O   UNL     1       0.147   1.193  -0.587  1.00  0.00    -0.496 OA
ATOM     23  C   UNL     1      -0.059   0.307   0.513  1.00  0.00     0.278 C 
ENDBRANCH  17  22
BRANCH  21  24
ATOM     24  C   UNL     1       2.023   6.431   0.573  1.00  0.00     0.416 C 
ATOM     25  F   UNL     1       1.889   7.246  -0.509  1.00  0.00    -0.166 F 
ATOM     26  F   UNL     1       1.317   7.024   1.576  1.00  0.00    -0.166 F 
ATOM     27  F   UNL     1       3.332   6.514   0.943  1.00  0.00    -0.166 F 
ENDBRANCH  21  24
ENDBRANCH  11  16
BRANCH  14  28
ATOM     28  N   UNL     1       5.429   0.166   2.768  1.00  0.00    -0.399 N 
ATOM     29  H   UNL     1       5.538   0.951   3.352  1.00  0.00     0.156 HD
ATOM     30  H   UNL     1       5.898  -0.673   2.980  1.00  0.00     0.156 HD
ENDBRANCH  14  28
ENDBRANCH   8  10
ENDBRANCH   7   8
ENDBRANCH   6   7
ENDBRANCH   5   6
ENDBRANCH   4   5
ENDBRANCH   3   4
ENDBRANCH   2   3
ENDBRANCH   1   2
BRANCH   1  31
ATOM     31  C   UNL     1       6.014   0.386  -4.892  1.00  0.00     0.188 C 
BRANCH  31  32
ATOM     32  C   UNL     1       7.470  -0.108  -5.099  1.00  0.00     0.188 C 
BRANCH  32  33
ATOM     33  O   UNL     1       8.336   0.072  -3.990  1.00  0.00    -0.376 OA
BRANCH  33  34
ATOM     34  C   UNL     1       9.306   1.102  -4.057  1.00  0.00     0.202 C 
BRANCH  34  35
ATOM     35  C   UNL     1       8.768   2.538  -4.072  1.00  0.00     0.261 C 
BRANCH  35  36
ATOM     36  O   UNL     1       7.851   2.848  -5.133  1.00  0.00    -0.460 OA
BRANCH  36  37
ATOM     37  C   UNL     1       8.316   2.770  -6.398  1.00  0.00     0.338 C 
ATOM     38  O   UNL     1       9.447   2.487  -6.756  1.00  0.00    -0.246 OA
BRANCH  37  39
ATOM     39  C   UNL     1       7.158   2.909  -7.302  1.00  0.00     0.060 A 
ATOM     40  C   UNL     1       6.827   1.852  -8.160  1.00  0.00     0.016 A 
ATOM     41  C   UNL     1       6.390   4.074  -7.281  1.00  0.00     0.016 A 
ATOM     42  C   UNL     1       5.734   1.969  -9.020  1.00  0.00     0.010 A 
ATOM     43  C   UNL     1       5.312   4.199  -8.159  1.00  0.00     0.010 A 
ATOM     44  C   UNL     1       4.996   3.159  -9.051  1.00  0.00    -0.014 A 
BRANCH  44  45
ATOM     45  C   UNL     1       4.015   3.399 -10.136  1.00  0.00     0.031 A 
ATOM     46  C   UNL     1       4.451   4.212 -11.322  1.00  0.00     0.074 A 
ATOM     47  C   UNL     1       2.763   2.915 -10.068  1.00  0.00     0.049 A 
ATOM     48  N   UNL     1       3.753   4.633 -12.345  1.00  0.00    -0.248 NA
ATOM     49  C   UNL     1       5.869   4.609 -11.355  1.00  0.00     0.031 C 
ATOM     50  C   UNL     1       2.232   2.083  -8.990  1.00  0.00     0.029 A 
ATOM     51  N   UNL     1       1.701   3.076 -10.925  1.00  0.00    -0.354 N 
ATOM     52  C   UNL     1       4.640   5.354 -13.133  1.00  0.00     0.074 A 
ATOM     53  C   UNL     1       5.921   5.335 -12.462  1.00  0.00     0.031 C 
ATOM     54  C   UNL     1       0.936   1.825  -9.238  1.00  0.00     0.029 A 
ATOM     55  C   UNL     1       0.538   2.505 -10.470  1.00  0.00     0.049 A 
ATOM     56  H   UNL     1       1.768   3.554 -11.782  1.00  0.00     0.167 HD
ATOM     57  C   UNL     1       4.407   5.975 -14.313  1.00  0.00     0.037 A 
ATOM     58  C   UNL     1      -0.711   2.557 -10.976  1.00  0.00     0.037 A 
ATOM     59  C   UNL     1       3.131   5.992 -14.978  1.00  0.00     0.049 A 
ATOM     60  C   UNL     1      -0.961   3.318 -12.253  1.00  0.00     0.074 A 
ATOM     61  C   UNL     1       2.802   6.566 -16.192  1.00  0.00     0.029 A 
ATOM     62  N   UNL     1       1.972   5.418 -14.477  1.00  0.00    -0.354 N 
ATOM     63  N   UNL     1      -0.110   3.967 -13.013  1.00  0.00    -0.248 NA
ATOM     64  C   UNL     1      -2.347   3.356 -12.745  1.00  0.00     0.031 C 
ATOM     65  C   UNL     1       1.430   6.395 -16.397  1.00  0.00     0.029 A 
ATOM     66  C   UNL     1       0.918   5.656 -15.342  1.00  0.00     0.049 A 
ATOM     67  H   UNL     1       1.909   4.916 -13.633  1.00  0.00     0.167 HD
ATOM     68  C   UNL     1      -0.849   4.460 -14.082  1.00  0.00     0.074 A 
ATOM     69  C   UNL     1      -2.215   4.025 -13.881  1.00  0.00     0.031 C 
ATOM     70  C   UNL     1      -0.435   5.207 -15.135  1.00  0.00     0.037 A 
BRANCH  57  71
ATOM     71  C   UNL     1       5.546   6.717 -14.946  1.00  0.00     0.057 A 
ATOM     72  C   UNL     1       6.637   6.055 -15.523  1.00  0.00     0.134 A 
ATOM     73  C   UNL     1       5.527   8.116 -15.019  1.00  0.00     0.134 A 
ATOM     74  F   UNL     1       6.725   4.717 -15.473  1.00  0.00    -0.206 F 
ATOM     75  C   UNL     1       7.677   6.758 -16.134  1.00  0.00     0.040 A 
ATOM     76  C   UNL     1       6.546   8.829 -15.652  1.00  0.00     0.040 A 
ATOM     77  F   UNL     1       4.511   8.812 -14.489  1.00  0.00    -0.206 F 
ATOM     78  C   UNL     1       7.628   8.149 -16.208  1.00  0.00     0.006 A 
ENDBRANCH  57  71
BRANCH  58  79
ATOM     79  C   UNL     1      -1.837   1.900 -10.260  1.00  0.00     0.057 A 
ATOM     80  C   UNL     1      -2.514   0.807 -10.813  1.00  0.00     0.134 A 
ATOM     81  C   UNL     1      -2.290   2.378  -9.024  1.00  0.00     0.134 A 
ATOM     82  F   UNL     1      -2.146   0.319 -12.007  1.00  0.00    -0.206 F 
ATOM     83  C   UNL     1      -3.614   0.228 -10.177  1.00  0.00     0.040 A 
ATOM     84  C   UNL     1      -3.370   1.790  -8.362  1.00  0.00     0.040 A 
ATOM     85  F   UNL     1      -1.689   3.425  -8.440  1.00  0.00    -0.206 F 
ATOM     86  C   UNL     1      -4.042   0.718  -8.945  1.00  0.00     0.006 A 
ENDBRANCH  58  79
BRANCH  70  87
ATOM     87  C   UNL     1      -1.456   5.568 -16.177  1.00  0.00     0.057 A 
ATOM     88  C   UNL     1      -2.469   6.504 -15.932  1.00  0.00     0.134 A 
ATOM     89  C   UNL     1      -1.388   5.013 -17.462  1.00  0.00     0.134 A 
ATOM     90  F   UNL     1      -2.597   7.066 -14.720  1.00  0.00    -0.206 F 
ATOM     91  C   UNL     1      -3.390   6.857 -16.920  1.00  0.00     0.040 A 
ATOM     92  C   UNL     1      -2.284   5.381 -18.466  1.00  0.00     0.040 A 
ATOM     93  F   UNL     1      -0.435   4.119 -17.768  1.00  0.00    -0.206 F 
ATOM     94  C   UNL     1      -3.293   6.302 -18.194  1.00  0.00     0.006 A 
ENDBRANCH  70  87
ENDBRANCH  44  45
ENDBRANCH  37  39
ENDBRANCH  36  37
ENDBRANCH  35  36
ENDBRANCH  34  35
ENDBRANCH  33  34
ENDBRANCH  32  33
ENDBRANCH  31  32
ENDBRANCH   1  31
TORSDOF 24
