REMARK SMILES CC(C)C[C@H](C)NS(=O)(=O)c1cc(C(=O)OCCOCCOCCOCCOC(=O)c2ccc(-c3c4nc(c(-c5c(F)cccc5F)c5ccc([nH]5)c(-c5c(F)cccc5F)c5nc(c(-c6c(F)cccc6F)c6ccc3[nH]6)C=C5)C=C4)cc2)ccc1Cl
REMARK SMILES IDX 20 1 19 2 18 3 17 4 16 5 14 6 15 7 13 8 11 9 12 10 87 11
REMARK SMILES IDX 86 12 88 13 85 14 8 15 9 16 10 17 7 18 5 20 6 21 4 22 2 23
REMARK SMILES IDX 1 24 3 25 21 26 22 27 23 28 24 29 25 30 26 31 27 32 28 33
REMARK SMILES IDX 29 34 30 35 31 36 32 37 84 38 33 39 83 40 34 41 35 42 36 43
REMARK SMILES IDX 77 44 37 45 82 46 76 47 78 48 38 49 81 50 75 51 74 52 39 54
REMARK SMILES IDX 65 55 48 56 64 57 49 58 52 59 63 60 79 61 50 62 51 63 62 65
REMARK SMILES IDX 80 66 53 67 40 68 41 69 46 70 42 71 43 72 45 73 47 74 44 75
REMARK SMILES IDX 66 76 67 77 72 78 68 79 69 80 71 81 73 82 70 83 54 84 55 85
REMARK SMILES IDX 60 86 56 87 57 88 59 89 61 90 58 91
REMARK H PARENT 7 19 78 53 52 64
REMARK Flexibility Score: inf
ROOT
ATOM      1  C   UNL     1      -1.587   2.579   3.327  1.00  0.00     0.188 C 
ENDROOT
BRANCH   1   2
ATOM      2  O   UNL     1      -0.652   2.839   4.356  1.00  0.00    -0.376 OA
BRANCH   2   3
ATOM      3  C   UNL     1       0.540   3.547   4.077  1.00  0.00     0.202 C 
BRANCH   3   4
ATOM      4  C   UNL     1       0.573   4.839   3.237  1.00  0.00     0.261 C 
BRANCH   4   5
ATOM      5  O   UNL     1      -0.411   5.006   2.212  1.00  0.00    -0.460 OA
BRANCH   5   6
ATOM      6  C   UNL     1      -0.203   4.345   1.058  1.00  0.00     0.338 C 
ATOM      7  O   UNL     1       0.733   3.611   0.794  1.00  0.00    -0.246 OA
BRANCH   6   8
ATOM      8  C   UNL     1      -1.426   4.458   0.227  1.00  0.00     0.061 A 
ATOM      9  C   UNL     1      -3.146   3.292  -1.046  1.00  0.00     0.101 A 
ATOM     10  C   UNL     1      -2.032   3.272  -0.204  1.00  0.00     0.039 A 
ATOM     11  C   UNL     1      -3.706   4.522  -1.399  1.00  0.00     0.061 A 
ATOM     12  C   UNL     1      -3.143   5.710  -0.901  1.00  0.00     0.023 A 
ATOM     13  Cl  UNL     1      -5.091   4.684  -2.414  1.00  0.00    -0.083 Cl
ATOM     14  C   UNL     1      -2.000   5.684  -0.093  1.00  0.00     0.017 A 
BRANCH   9  15
ATOM     15  S   UNL     1      -3.808   1.782  -1.690  1.00  0.00     0.242 S 
ATOM     16  O   UNL     1      -3.755   1.809  -3.132  1.00  0.00    -0.207 OA
ATOM     17  O   UNL     1      -5.054   1.552  -0.989  1.00  0.00    -0.207 OA
BRANCH  15  18
ATOM     18  N   UNL     1      -2.821   0.526  -1.173  1.00  0.00    -0.208 NA
ATOM     19  H   UNL     1      -2.862   0.573  -0.155  1.00  0.00     0.141 HD
BRANCH  18  20
ATOM     20  C   UNL     1      -1.394   0.282  -1.473  1.00  0.00     0.067 C 
ATOM     21  C   UNL     1      -1.086  -1.149  -1.005  1.00  0.00     0.025 C 
BRANCH  20  22
ATOM     22  C   UNL     1      -0.967   0.471  -2.933  1.00  0.00     0.022 C 
BRANCH  22  23
ATOM     23  C   UNL     1      -0.644   1.922  -3.365  1.00  0.00    -0.016 C 
ATOM     24  C   UNL     1       0.513   2.556  -2.591  1.00  0.00     0.007 C 
ATOM     25  C   UNL     1      -0.322   1.957  -4.860  1.00  0.00     0.007 C 
ENDBRANCH  22  23
ENDBRANCH  20  22
ENDBRANCH  18  20
ENDBRANCH  15  18
ENDBRANCH   9  15
ENDBRANCH   6   8
ENDBRANCH   5   6
ENDBRANCH   4   5
ENDBRANCH   3   4
ENDBRANCH   2   3
ENDBRANCH   1   2
BRANCH   1  26
ATOM     26  C   UNL     1      -2.768   3.571   3.318  1.00  0.00     0.188 C 
BRANCH  26  27
ATOM     27  O   UNL     1      -2.590   4.754   4.079  1.00  0.00    -0.377 OA
BRANCH  27  28
ATOM     28  C   UNL     1      -2.459   4.659   5.497  1.00  0.00     0.188 C 
BRANCH  28  29
ATOM     29  C   UNL     1      -2.581   3.320   6.269  1.00  0.00     0.188 C 
BRANCH  29  30
ATOM     30  O   UNL     1      -3.265   2.284   5.586  1.00  0.00    -0.376 OA
BRANCH  30  31
ATOM     31  C   UNL     1      -4.578   1.954   6.000  1.00  0.00     0.202 C 
BRANCH  31  32
ATOM     32  C   UNL     1      -5.655   3.028   5.791  1.00  0.00     0.261 C 
BRANCH  32  33
ATOM     33  O   UNL     1      -5.374   4.311   6.372  1.00  0.00    -0.460 OA
BRANCH  33  34
ATOM     34  C   UNL     1      -5.308   4.367   7.717  1.00  0.00     0.338 C 
ATOM     35  O   UNL     1      -5.484   3.449   8.504  1.00  0.00    -0.246 OA
BRANCH  34  36
ATOM     36  C   UNL     1      -4.788   5.695   8.094  1.00  0.00     0.060 A 
ATOM     37  C   UNL     1      -3.600   5.769   8.832  1.00  0.00     0.016 A 
ATOM     38  C   UNL     1      -5.469   6.859   7.726  1.00  0.00     0.016 A 
ATOM     39  C   UNL     1      -3.117   7.006   9.251  1.00  0.00     0.010 A 
ATOM     40  C   UNL     1      -4.994   8.098   8.165  1.00  0.00     0.010 A 
ATOM     41  C   UNL     1      -3.842   8.171   8.968  1.00  0.00    -0.014 A 
BRANCH  41  42
ATOM     42  C   UNL     1      -3.512   9.415   9.705  1.00  0.00     0.031 A 
ATOM     43  C   UNL     1      -4.326   9.755  10.925  1.00  0.00     0.074 A 
ATOM     44  C   UNL     1      -2.475  10.191   9.347  1.00  0.00     0.049 A 
ATOM     45  N   UNL     1      -4.213  10.766  11.748  1.00  0.00    -0.248 NA
ATOM     46  C   UNL     1      -5.417   8.825  11.261  1.00  0.00     0.031 C 
ATOM     47  C   UNL     1      -1.589   9.948   8.211  1.00  0.00     0.029 A 
ATOM     48  N   UNL     1      -1.994  11.344   9.913  1.00  0.00    -0.354 N 
ATOM     49  C   UNL     1      -5.216  10.595  12.694  1.00  0.00     0.074 A 
ATOM     50  C   UNL     1      -5.954   9.408  12.321  1.00  0.00     0.031 C 
ATOM     51  C   UNL     1      -0.669  10.928   8.162  1.00  0.00     0.029 A 
ATOM     52  C   UNL     1      -0.919  11.877   9.245  1.00  0.00     0.049 A 
ATOM     53  H   UNL     1      -2.382  11.751  10.720  1.00  0.00     0.167 HD
ATOM     54  C   UNL     1      -5.491  11.349  13.784  1.00  0.00     0.037 A 
ATOM     55  C   UNL     1      -0.228  13.010   9.478  1.00  0.00     0.037 A 
ATOM     56  C   UNL     1      -4.761  12.534  14.151  1.00  0.00     0.049 A 
ATOM     57  C   UNL     1      -0.597  13.872  10.659  1.00  0.00     0.074 A 
ATOM     58  C   UNL     1      -4.952  13.362  15.242  1.00  0.00     0.029 A 
ATOM     59  N   UNL     1      -3.704  13.066  13.426  1.00  0.00    -0.354 N 
ATOM     60  N   UNL     1      -1.527  13.687  11.565  1.00  0.00    -0.248 NA
ATOM     61  C   UNL     1       0.192  15.097  10.853  1.00  0.00     0.031 C 
ATOM     62  C   UNL     1      -4.052  14.429  15.145  1.00  0.00     0.029 A 
ATOM     63  C   UNL     1      -3.252  14.227  14.032  1.00  0.00     0.049 A 
ATOM     64  H   UNL     1      -3.330  12.675  12.604  1.00  0.00     0.167 HD
ATOM     65  C   UNL     1      -1.414  14.752  12.452  1.00  0.00     0.074 A 
ATOM     66  C   UNL     1      -0.312  15.566  11.985  1.00  0.00     0.031 C 
ATOM     67  C   UNL     1      -2.154  15.031  13.555  1.00  0.00     0.037 A 
BRANCH  54  68
ATOM     68  C   UNL     1      -6.656  10.930  14.635  1.00  0.00     0.057 A 
ATOM     69  C   UNL     1      -6.630   9.764  15.413  1.00  0.00     0.134 A 
ATOM     70  C   UNL     1      -7.818  11.710  14.684  1.00  0.00     0.134 A 
ATOM     71  F   UNL     1      -5.556   8.960  15.399  1.00  0.00    -0.206 F 
ATOM     72  C   UNL     1      -7.728   9.374  16.183  1.00  0.00     0.040 A 
ATOM     73  C   UNL     1      -8.909  11.348  15.474  1.00  0.00     0.040 A 
ATOM     74  F   UNL     1      -7.911  12.840  13.966  1.00  0.00    -0.206 F 
ATOM     75  C   UNL     1      -8.870  10.172  16.220  1.00  0.00     0.006 A 
ENDBRANCH  54  68
BRANCH  55  76
ATOM     76  C   UNL     1       0.884  13.405   8.575  1.00  0.00     0.057 A 
ATOM     77  C   UNL     1       2.212  13.425   9.017  1.00  0.00     0.134 A 
ATOM     78  C   UNL     1       0.640  13.803   7.254  1.00  0.00     0.134 A 
ATOM     79  F   UNL     1       2.509  13.079  10.278  1.00  0.00    -0.206 F 
ATOM     80  C   UNL     1       3.253  13.848   8.188  1.00  0.00     0.040 A 
ATOM     81  C   UNL     1       1.674  14.200   6.405  1.00  0.00     0.040 A 
ATOM     82  F   UNL     1      -0.610  13.807   6.768  1.00  0.00    -0.206 F 
ATOM     83  C   UNL     1       2.985  14.231   6.875  1.00  0.00     0.006 A 
ENDBRANCH  55  76
BRANCH  67  84
ATOM     84  C   UNL     1      -1.765  16.244  14.355  1.00  0.00     0.057 A 
ATOM     85  C   UNL     1      -1.931  17.547  13.865  1.00  0.00     0.134 A 
ATOM     86  C   UNL     1      -1.223  16.106  15.640  1.00  0.00     0.134 A 
ATOM     87  F   UNL     1      -2.436  17.754  12.639  1.00  0.00    -0.206 F 
ATOM     88  C   UNL     1      -1.532  18.663  14.604  1.00  0.00     0.040 A 
ATOM     89  C   UNL     1      -0.854  17.215  16.403  1.00  0.00     0.040 A 
ATOM     90  F   UNL     1      -1.050  14.890  16.180  1.00  0.00    -0.206 F 
ATOM     91  C   UNL     1      -0.995  18.497  15.880  1.00  0.00     0.006 A 
ENDBRANCH  67  84
ENDBRANCH  41  42
ENDBRANCH  34  36
ENDBRANCH  33  34
ENDBRANCH  32  33
ENDBRANCH  31  32
ENDBRANCH  30  31
ENDBRANCH  29  30
ENDBRANCH  28  29
ENDBRANCH  27  28
ENDBRANCH  26  27
ENDBRANCH   1  26
TORSDOF 25
