REMARK SMILES C[C@]1(C(=O)OCCOCCOCCOCCOC(=O)c2ccc(-c3c4nc(c(-c5c(F)cccc5F)c5ccc([nH]5)c(-c5c(F)cccc5F)c5nc(c(-c6c(F)cccc6F)c6ccc3[nH]6)C=C5)C=C4)cc2)[NH2+]C2(C(=O)c3ccccc3C2=O)[C@@H]2C(=O)N(c3ccccc3)C(=O)[C@H]21
REMARK SMILES IDX 12 1 11 2 10 3 9 4 8 5 7 6 6 7 5 8 3 9 4 10 2 11 1 12 74 13
REMARK SMILES IDX 98 14 75 15 86 18 96 19 76 20 84 21 87 22 89 23 97 24 77 25
REMARK SMILES IDX 78 26 83 27 85 28 88 29 79 30 82 31 80 32 81 33 90 34 91 35
REMARK SMILES IDX 95 36 92 37 94 38 93 39 13 40 14 41 15 42 16 43 17 44 18 45
REMARK SMILES IDX 19 46 20 47 21 48 73 49 22 50 72 51 23 52 24 53 25 54 66 55
REMARK SMILES IDX 26 56 71 57 65 58 67 59 27 60 70 61 64 62 63 63 28 65 54 66
REMARK SMILES IDX 37 67 53 68 38 69 41 70 52 71 68 72 39 73 40 74 51 76 69 77
REMARK SMILES IDX 42 78 29 79 30 80 35 81 31 82 32 83 34 84 36 85 33 86 55 87
REMARK SMILES IDX 56 88 61 89 57 90 58 91 60 92 62 93 59 94 43 95 44 96 49 97
REMARK SMILES IDX 45 98 46 99 48 100 50 101 47 102
REMARK H PARENT 74 16 74 17 67 64 41 75
REMARK Flexibility Score: inf
ROOT
ATOM      1  C   UNL     1      -0.517  -1.347   5.206  1.00  0.00     0.188 C 
ENDROOT
BRANCH   1   2
ATOM      2  O   UNL     1      -0.279  -0.714   3.960  1.00  0.00    -0.377 OA
BRANCH   2   3
ATOM      3  C   UNL     1       0.010  -1.513   2.835  1.00  0.00     0.188 C 
BRANCH   3   4
ATOM      4  C   UNL     1       1.488  -1.895   2.676  1.00  0.00     0.188 C 
BRANCH   4   5
ATOM      5  O   UNL     1       2.317  -1.893   3.819  1.00  0.00    -0.376 OA
BRANCH   5   6
ATOM      6  C   UNL     1       2.679  -0.718   4.524  1.00  0.00     0.202 C 
BRANCH   6   7
ATOM      7  C   UNL     1       2.417   0.743   4.115  1.00  0.00     0.261 C 
BRANCH   7   8
ATOM      8  O   UNL     1       1.458   1.005   3.095  1.00  0.00    -0.459 OA
BRANCH   8   9
ATOM      9  C   UNL     1       1.934   1.075   1.833  1.00  0.00     0.368 C 
ATOM     10  O   UNL     1       3.113   0.907   1.548  1.00  0.00    -0.245 OA
BRANCH   9  11
ATOM     11  C   UNL     1       0.835   1.434   0.790  1.00  0.00     0.205 C 
ATOM     12  C   UNL     1       1.094   0.584  -0.454  1.00  0.00     0.093 C 
ATOM     13  N   UNL     1      -0.609   1.228   1.244  1.00  0.00    -0.313 N 
ATOM     14  C   UNL     1       0.834   2.915   0.557  1.00  0.00     0.172 C 
ATOM     15  C   UNL     1      -1.195   2.571   1.647  1.00  0.00     0.237 C 
ATOM     16  H   UNL     1      -0.630   0.593   2.042  1.00  0.00     0.348 HD
ATOM     17  H   UNL     1      -1.157   0.827   0.483  1.00  0.00     0.348 HD
ATOM     18  C   UNL     1       0.042   3.387   1.767  1.00  0.00     0.177 C 
ATOM     19  C   UNL     1       2.034   3.785   0.642  1.00  0.00     0.244 C 
ATOM     20  C   UNL     1      -2.242   3.004   0.619  1.00  0.00     0.232 C 
ATOM     21  C   UNL     1      -2.016   2.450   2.936  1.00  0.00     0.232 C 
ATOM     22  C   UNL     1       0.276   4.847   1.699  1.00  0.00     0.245 C 
ATOM     23  N   UNL     1       1.602   4.944   1.277  1.00  0.00    -0.250 N 
ATOM     24  O   UNL     1       3.121   3.500   0.172  1.00  0.00    -0.273 OA
ATOM     25  O   UNL     1      -2.066   3.215  -0.568  1.00  0.00    -0.286 OA
ATOM     26  C   UNL     1      -3.556   2.997   1.260  1.00  0.00     0.036 A 
ATOM     27  C   UNL     1      -3.430   2.656   2.600  1.00  0.00     0.036 A 
ATOM     28  O   UNL     1      -1.623   2.271   4.075  1.00  0.00    -0.286 OA
ATOM     29  O   UNL     1      -0.508   5.699   2.076  1.00  0.00    -0.273 OA
ATOM     30  C   UNL     1      -4.789   3.248   0.682  1.00  0.00     0.013 A 
ATOM     31  C   UNL     1      -4.538   2.561   3.425  1.00  0.00     0.013 A 
ATOM     32  C   UNL     1      -5.918   3.159   1.501  1.00  0.00     0.001 A 
ATOM     33  C   UNL     1      -5.793   2.817   2.861  1.00  0.00     0.001 A 
BRANCH  23  34
ATOM     34  C   UNL     1       2.492   5.982   1.611  1.00  0.00     0.052 A 
ATOM     35  C   UNL     1       3.546   6.315   0.749  1.00  0.00     0.027 A 
ATOM     36  C   UNL     1       2.435   6.574   2.878  1.00  0.00     0.027 A 
ATOM     37  C   UNL     1       4.537   7.207   1.150  1.00  0.00     0.002 A 
ATOM     38  C   UNL     1       3.452   7.437   3.293  1.00  0.00     0.002 A 
ATOM     39  C   UNL     1       4.500   7.754   2.429  1.00  0.00     0.000 A 
ENDBRANCH  23  34
ENDBRANCH   9  11
ENDBRANCH   8   9
ENDBRANCH   7   8
ENDBRANCH   6   7
ENDBRANCH   5   6
ENDBRANCH   4   5
ENDBRANCH   3   4
ENDBRANCH   2   3
ENDBRANCH   1   2
BRANCH   1  40
ATOM     40  C   UNL     1      -0.065  -2.803   5.452  1.00  0.00     0.188 C 
BRANCH  40  41
ATOM     41  O   UNL     1      -0.191  -3.675   4.340  1.00  0.00    -0.376 OA
BRANCH  41  42
ATOM     42  C   UNL     1      -1.338  -4.500   4.221  1.00  0.00     0.202 C 
BRANCH  42  43
ATOM     43  C   UNL     1      -2.716  -3.830   4.096  1.00  0.00     0.261 C 
BRANCH  43  44
ATOM     44  O   UNL     1      -3.082  -2.923   5.144  1.00  0.00    -0.460 OA
BRANCH  44  45
ATOM     45  C   UNL     1      -3.120  -3.397   6.406  1.00  0.00     0.338 C 
ATOM     46  O   UNL     1      -2.949  -4.552   6.765  1.00  0.00    -0.246 OA
BRANCH  45  47
ATOM     47  C   UNL     1      -3.200  -2.234   7.317  1.00  0.00     0.060 A 
ATOM     48  C   UNL     1      -4.184  -1.259   7.138  1.00  0.00     0.016 A 
ATOM     49  C   UNL     1      -2.251  -2.102   8.340  1.00  0.00     0.016 A 
ATOM     50  C   UNL     1      -4.250  -0.181   8.022  1.00  0.00     0.010 A 
ATOM     51  C   UNL     1      -2.314  -1.019   9.220  1.00  0.00     0.010 A 
ATOM     52  C   UNL     1      -3.342  -0.074   9.093  1.00  0.00    -0.014 A 
BRANCH  52  53
ATOM     53  C   UNL     1      -3.635   0.872  10.198  1.00  0.00     0.031 A 
ATOM     54  C   UNL     1      -2.869   2.139  10.417  1.00  0.00     0.074 A 
ATOM     55  C   UNL     1      -4.639   0.541  11.033  1.00  0.00     0.049 A 
ATOM     56  N   UNL     1      -3.122   3.112  11.258  1.00  0.00    -0.248 NA
ATOM     57  C   UNL     1      -1.659   2.335   9.610  1.00  0.00     0.031 C 
ATOM     58  C   UNL     1      -5.407  -0.705  10.966  1.00  0.00     0.029 A 
ATOM     59  N   UNL     1      -5.199   1.222  12.082  1.00  0.00    -0.354 N 
ATOM     60  C   UNL     1      -2.119   4.053  11.067  1.00  0.00     0.074 A 
ATOM     61  C   UNL     1      -1.221   3.502  10.070  1.00  0.00     0.031 C 
ATOM     62  C   UNL     1      -6.370  -0.678  11.899  1.00  0.00     0.029 A 
ATOM     63  C   UNL     1      -6.270   0.571  12.644  1.00  0.00     0.049 A 
ATOM     64  H   UNL     1      -4.866   2.091  12.402  1.00  0.00     0.167 HD
ATOM     65  C   UNL     1      -1.975   5.268  11.656  1.00  0.00     0.037 A 
ATOM     66  C   UNL     1      -7.093   0.945  13.639  1.00  0.00     0.037 A 
ATOM     67  C   UNL     1      -2.855   5.790  12.677  1.00  0.00     0.049 A 
ATOM     68  C   UNL     1      -6.898   2.287  14.282  1.00  0.00     0.074 A 
ATOM     69  C   UNL     1      -2.819   7.028  13.300  1.00  0.00     0.029 A 
ATOM     70  N   UNL     1      -3.916   5.097  13.244  1.00  0.00    -0.354 N 
ATOM     71  N   UNL     1      -6.016   3.218  14.012  1.00  0.00    -0.248 NA
ATOM     72  C   UNL     1      -7.832   2.635  15.360  1.00  0.00     0.031 C 
ATOM     73  C   UNL     1      -3.817   7.059  14.283  1.00  0.00     0.029 A 
ATOM     74  C   UNL     1      -4.521   5.868  14.227  1.00  0.00     0.049 A 
ATOM     75  H   UNL     1      -4.198   4.190  12.986  1.00  0.00     0.167 HD
ATOM     76  C   UNL     1      -6.305   4.273  14.867  1.00  0.00     0.074 A 
ATOM     77  C   UNL     1      -7.467   3.877  15.637  1.00  0.00     0.031 C 
ATOM     78  C   UNL     1      -5.666   5.462  15.005  1.00  0.00     0.037 A 
BRANCH  65  79
ATOM     79  C   UNL     1      -0.819   6.121  11.210  1.00  0.00     0.057 A 
ATOM     80  C   UNL     1       0.231   6.431  12.085  1.00  0.00     0.134 A 
ATOM     81  C   UNL     1      -0.767   6.677   9.924  1.00  0.00     0.134 A 
ATOM     82  F   UNL     1       0.241   5.949  13.337  1.00  0.00    -0.206 F 
ATOM     83  C   UNL     1       1.288   7.258  11.697  1.00  0.00     0.040 A 
ATOM     84  C   UNL     1       0.299   7.480   9.514  1.00  0.00     0.040 A 
ATOM     85  F   UNL     1      -1.740   6.425   9.035  1.00  0.00    -0.206 F 
ATOM     86  C   UNL     1       1.329   7.777  10.405  1.00  0.00     0.006 A 
ENDBRANCH  65  79
BRANCH  66  87
ATOM     87  C   UNL     1      -8.200   0.054  14.067  1.00  0.00     0.057 A 
ATOM     88  C   UNL     1      -7.949  -1.157  14.721  1.00  0.00     0.134 A 
ATOM     89  C   UNL     1      -9.538   0.412  13.861  1.00  0.00     0.134 A 
ATOM     90  F   UNL     1      -6.689  -1.564  14.933  1.00  0.00    -0.206 F 
ATOM     91  C   UNL     1      -8.987  -1.976  15.164  1.00  0.00     0.040 A 
ATOM     92  C   UNL     1     -10.586  -0.380  14.329  1.00  0.00     0.040 A 
ATOM     93  F   UNL     1      -9.842   1.567  13.249  1.00  0.00    -0.206 F 
ATOM     94  C   UNL     1     -10.311  -1.580  14.982  1.00  0.00     0.006 A 
ENDBRANCH  66  87
BRANCH  78  95
ATOM     95  C   UNL     1      -6.245   6.422  16.009  1.00  0.00     0.057 A 
ATOM     96  C   UNL     1      -6.864   7.607  15.589  1.00  0.00     0.134 A 
ATOM     97  C   UNL     1      -6.237   6.158  17.387  1.00  0.00     0.134 A 
ATOM     98  F   UNL     1      -6.901   7.933  14.288  1.00  0.00    -0.206 F 
ATOM     99  C   UNL     1      -7.472   8.477  16.495  1.00  0.00     0.040 A 
ATOM    100  C   UNL     1      -6.875   7.001  18.299  1.00  0.00     0.040 A 
ATOM    101  F   UNL     1      -5.674   5.035  17.860  1.00  0.00    -0.206 F 
ATOM    102  C   UNL     1      -7.495   8.166  17.853  1.00  0.00     0.006 A 
ENDBRANCH  78  95
ENDBRANCH  52  53
ENDBRANCH  45  47
ENDBRANCH  44  45
ENDBRANCH  43  44
ENDBRANCH  42  43
ENDBRANCH  41  42
ENDBRANCH  40  41
ENDBRANCH   1  40
TORSDOF 21
