REMARK SMILES C[C@H]1[C@@H](C(=O)OCCOCCOCCOCCOC(=O)c2ccc(-c3c4nc(c(-c5c(F)cccc5F)c5ccc([nH]5)c(-c5c(F)cccc5F)c5nc(c(-c6c(F)cccc6F)c6ccc3[nH]6)C=C5)C=C4)cc2)CC[N@@H+]1CC1(O)CCCC1
REMARK SMILES IDX 11 1 10 2 9 3 8 4 7 5 6 6 4 7 5 8 3 9 1 10 2 11 77 12 75 13
REMARK SMILES IDX 76 14 78 16 79 17 81 18 84 19 82 20 83 21 80 22 12 24 13 25
REMARK SMILES IDX 14 26 15 27 16 28 17 29 18 30 19 31 20 32 21 33 22 34 74 35
REMARK SMILES IDX 23 36 73 37 24 38 25 39 26 40 67 41 27 42 72 43 66 44 68 45
REMARK SMILES IDX 28 46 71 47 65 48 64 49 29 51 55 52 38 53 54 54 39 55 42 56
REMARK SMILES IDX 53 57 69 58 40 59 41 60 52 62 70 63 43 64 30 65 31 66 36 67
REMARK SMILES IDX 32 68 33 69 35 70 37 71 34 72 56 73 57 74 62 75 58 76 59 77
REMARK SMILES IDX 61 78 63 79 60 80 44 81 45 82 50 83 46 84 47 85 49 86 51 87
REMARK SMILES IDX 48 88
REMARK H PARENT 77 15 80 23 68 50 42 61
REMARK Flexibility Score: inf
ROOT
ATOM      1  C   UNL     1      -0.009   0.367  -2.983  1.00  0.00     0.188 C 
ENDROOT
BRANCH   1   2
ATOM      2  C   UNL     1      -0.455   1.767  -3.448  1.00  0.00     0.188 C 
BRANCH   2   3
ATOM      3  O   UNL     1       0.493   2.422  -4.263  1.00  0.00    -0.376 OA
BRANCH   3   4
ATOM      4  C   UNL     1       1.262   3.457  -3.687  1.00  0.00     0.202 C 
BRANCH   4   5
ATOM      5  C   UNL     1       2.108   3.191  -2.428  1.00  0.00     0.261 C 
BRANCH   5   6
ATOM      6  O   UNL     1       1.618   2.228  -1.480  1.00  0.00    -0.463 OA
BRANCH   6   7
ATOM      7  C   UNL     1       0.741   2.663  -0.555  1.00  0.00     0.315 C 
ATOM      8  O   UNL     1       0.301   3.810  -0.535  1.00  0.00    -0.252 OA
BRANCH   7   9
ATOM      9  C   UNL     1       0.247   1.606   0.426  1.00  0.00     0.162 C 
ATOM     10  C   UNL     1       2.219  -0.117   0.018  1.00  0.00     0.076 C 
ATOM     11  C   UNL     1       0.986   0.309   0.811  1.00  0.00     0.195 C 
ATOM     12  N   UNL     1      -0.020  -0.777   0.827  1.00  0.00    -0.330 N 
ATOM     13  C   UNL     1      -1.203   1.186   0.154  1.00  0.00     0.083 C 
ATOM     14  C   UNL     1      -1.209  -0.334   0.108  1.00  0.00     0.263 C 
ATOM     15  H   UNL     1       0.414  -1.566   0.347  1.00  0.00     0.348 HD
BRANCH  12  16
ATOM     16  C   UNL     1      -0.339  -1.368   2.143  1.00  0.00     0.297 C 
BRANCH  16  17
ATOM     17  C   UNL     1      -1.157  -0.548   3.184  1.00  0.00     0.113 C 
ATOM     18  C   UNL     1      -0.467   0.720   3.683  1.00  0.00     0.041 C 
ATOM     19  C   UNL     1      -1.366  -1.303   4.499  1.00  0.00     0.041 C 
ATOM     20  C   UNL     1      -1.178   1.085   4.977  1.00  0.00     0.003 C 
ATOM     21  C   UNL     1      -1.810  -0.209   5.476  1.00  0.00     0.003 C 
BRANCH  17  22
ATOM     22  O   UNL     1      -2.465  -0.263   2.670  1.00  0.00    -0.384 OA
ATOM     23  H   UNL     1      -2.385   0.218   1.831  1.00  0.00     0.211 HD
ENDBRANCH  17  22
ENDBRANCH  16  17
ENDBRANCH  12  16
ENDBRANCH   7   9
ENDBRANCH   6   7
ENDBRANCH   5   6
ENDBRANCH   4   5
ENDBRANCH   3   4
ENDBRANCH   2   3
ENDBRANCH   1   2
BRANCH   1  24
ATOM     24  O   UNL     1       1.127  -0.308  -3.502  1.00  0.00    -0.377 OA
BRANCH  24  25
ATOM     25  C   UNL     1       1.595   0.045  -4.787  1.00  0.00     0.188 C 
BRANCH  25  26
ATOM     26  C   UNL     1       0.559   0.021  -5.925  1.00  0.00     0.188 C 
BRANCH  26  27
ATOM     27  O   UNL     1      -0.781  -0.128  -5.483  1.00  0.00    -0.376 OA
BRANCH  27  28
ATOM     28  C   UNL     1      -1.385  -1.411  -5.552  1.00  0.00     0.202 C 
BRANCH  28  29
ATOM     29  C   UNL     1      -0.747  -2.618  -4.838  1.00  0.00     0.261 C 
BRANCH  29  30
ATOM     30  O   UNL     1       0.664  -2.804  -4.994  1.00  0.00    -0.460 OA
BRANCH  30  31
ATOM     31  C   UNL     1       1.115  -3.139  -6.215  1.00  0.00     0.338 C 
ATOM     32  O   UNL     1       0.452  -3.308  -7.230  1.00  0.00    -0.246 OA
BRANCH  31  33
ATOM     33  C   UNL     1       2.587  -3.078  -6.180  1.00  0.00     0.060 A 
ATOM     34  C   UNL     1       3.239  -2.153  -7.006  1.00  0.00     0.016 A 
ATOM     35  C   UNL     1       3.320  -3.916  -5.334  1.00  0.00     0.016 A 
ATOM     36  C   UNL     1       4.627  -2.087  -7.017  1.00  0.00     0.010 A 
ATOM     37  C   UNL     1       4.716  -3.880  -5.377  1.00  0.00     0.010 A 
ATOM     38  C   UNL     1       5.370  -2.996  -6.254  1.00  0.00    -0.014 A 
BRANCH  38  39
ATOM     39  C   UNL     1       6.793  -3.192  -6.609  1.00  0.00     0.031 A 
ATOM     40  C   UNL     1       7.119  -4.277  -7.599  1.00  0.00     0.074 A 
ATOM     41  C   UNL     1       7.752  -2.369  -6.154  1.00  0.00     0.049 A 
ATOM     42  N   UNL     1       8.271  -4.610  -8.122  1.00  0.00    -0.248 NA
ATOM     43  C   UNL     1       5.987  -5.095  -8.068  1.00  0.00     0.031 C 
ATOM     44  C   UNL     1       7.544  -1.250  -5.238  1.00  0.00     0.029 A 
ATOM     45  N   UNL     1       9.097  -2.347  -6.418  1.00  0.00    -0.354 N 
ATOM     46  C   UNL     1       7.999  -5.670  -8.979  1.00  0.00     0.074 A 
ATOM     47  C   UNL     1       6.586  -5.952  -8.877  1.00  0.00     0.031 C 
ATOM     48  C   UNL     1       8.726  -0.649  -5.013  1.00  0.00     0.029 A 
ATOM     49  C   UNL     1       9.772  -1.356  -5.750  1.00  0.00     0.049 A 
ATOM     50  H   UNL     1       9.537  -2.981  -7.029  1.00  0.00     0.167 HD
ATOM     51  C   UNL     1       8.850  -6.339  -9.790  1.00  0.00     0.037 A 
ATOM     52  C   UNL     1      11.088  -1.068  -5.732  1.00  0.00     0.037 A 
ATOM     53  C   UNL     1      10.258  -6.060  -9.880  1.00  0.00     0.049 A 
ATOM     54  C   UNL     1      12.030  -1.882  -6.582  1.00  0.00     0.074 A 
ATOM     55  C   UNL     1      11.211  -6.679 -10.668  1.00  0.00     0.029 A 
ATOM     56  N   UNL     1      10.915  -5.083  -9.146  1.00  0.00    -0.354 N 
ATOM     57  N   UNL     1      11.764  -2.869  -7.405  1.00  0.00    -0.248 NA
ATOM     58  C   UNL     1      13.455  -1.533  -6.508  1.00  0.00     0.031 C 
ATOM     59  C   UNL     1      12.456  -6.117 -10.367  1.00  0.00     0.029 A 
ATOM     60  C   UNL     1      12.268  -5.100  -9.444  1.00  0.00     0.049 A 
ATOM     61  H   UNL     1      10.485  -4.470  -8.508  1.00  0.00     0.167 HD
ATOM     62  C   UNL     1      12.980  -3.233  -7.972  1.00  0.00     0.074 A 
ATOM     63  C   UNL     1      13.980  -2.349  -7.410  1.00  0.00     0.031 C 
ATOM     64  C   UNL     1      13.248  -4.208  -8.878  1.00  0.00     0.037 A 
BRANCH  51  65
ATOM     65  C   UNL     1       8.281  -7.462 -10.609  1.00  0.00     0.057 A 
ATOM     66  C   UNL     1       7.406  -7.234 -11.680  1.00  0.00     0.134 A 
ATOM     67  C   UNL     1       8.623  -8.790 -10.326  1.00  0.00     0.134 A 
ATOM     68  F   UNL     1       7.021  -5.987 -11.991  1.00  0.00    -0.206 F 
ATOM     69  C   UNL     1       6.872  -8.288 -12.423  1.00  0.00     0.040 A 
ATOM     70  C   UNL     1       8.119  -9.850 -11.082  1.00  0.00     0.040 A 
ATOM     71  F   UNL     1       9.454  -9.080  -9.314  1.00  0.00    -0.206 F 
ATOM     72  C   UNL     1       7.235  -9.601 -12.129  1.00  0.00     0.006 A 
ENDBRANCH  51  65
BRANCH  52  73
ATOM     73  C   UNL     1      11.601   0.033  -4.876  1.00  0.00     0.057 A 
ATOM     74  C   UNL     1      12.163   1.189  -5.431  1.00  0.00     0.134 A 
ATOM     75  C   UNL     1      11.574  -0.061  -3.479  1.00  0.00     0.134 A 
ATOM     76  F   UNL     1      12.240   1.330  -6.763  1.00  0.00    -0.206 F 
ATOM     77  C   UNL     1      12.702   2.198  -4.630  1.00  0.00     0.040 A 
ATOM     78  C   UNL     1      12.082   0.953  -2.666  1.00  0.00     0.040 A 
ATOM     79  F   UNL     1      11.050  -1.142  -2.883  1.00  0.00    -0.206 F 
ATOM     80  C   UNL     1      12.658   2.083  -3.242  1.00  0.00     0.006 A 
ENDBRANCH  52  73
BRANCH  64  81
ATOM     81  C   UNL     1      14.669  -4.334  -9.352  1.00  0.00     0.057 A 
ATOM     82  C   UNL     1      15.698  -4.788  -8.518  1.00  0.00     0.134 A 
ATOM     83  C   UNL     1      15.006  -4.016 -10.675  1.00  0.00     0.134 A 
ATOM     84  F   UNL     1      15.448  -5.102  -7.237  1.00  0.00    -0.206 F 
ATOM     85  C   UNL     1      17.017  -4.881  -8.969  1.00  0.00     0.040 A 
ATOM     86  C   UNL     1      16.313  -4.139 -11.148  1.00  0.00     0.040 A 
ATOM     87  F   UNL     1      14.068  -3.590 -11.535  1.00  0.00    -0.206 F 
ATOM     88  C   UNL     1      17.325  -4.561 -10.290  1.00  0.00     0.006 A 
ENDBRANCH  64  81
ENDBRANCH  38  39
ENDBRANCH  31  33
ENDBRANCH  30  31
ENDBRANCH  29  30
ENDBRANCH  28  29
ENDBRANCH  27  28
ENDBRANCH  26  27
ENDBRANCH  25  26
ENDBRANCH  24  25
ENDBRANCH   1  24
TORSDOF 23
