REMARK SMILES O=C(OCCOCCOCCOCCOC(=O)c1ccc(-c2c3nc(c(-c4c(F)cccc4F)c4ccc([nH]4)c(-c4c(F)cccc4F)c4nc(c(-c5c(F)cccc5F)c5ccc2[nH]5)C=C4)C=C3)cc1)c1ccc(N[C@H]2OC[C@@H](O)[C@@H](O)[C@H]2O)cc1
REMARK SMILES IDX 8 1 7 2 6 3 5 4 4 5 3 6 2 7 1 8 72 9 73 10 87 11 74 12 86 13
REMARK SMILES IDX 75 14 76 15 77 17 78 18 84 19 79 20 82 21 80 22 85 23 83 25
REMARK SMILES IDX 81 27 9 29 10 30 11 31 12 32 13 33 14 34 15 35 16 36 17 37
REMARK SMILES IDX 18 38 19 39 71 40 20 41 70 42 21 43 22 44 23 45 64 46 24 47
REMARK SMILES IDX 69 48 63 49 65 50 25 51 68 52 62 53 61 54 26 56 52 57 35 58
REMARK SMILES IDX 51 59 36 60 39 61 50 62 66 63 37 64 38 65 49 67 67 68 40 69
REMARK SMILES IDX 27 70 28 71 33 72 29 73 30 74 32 75 34 76 31 77 53 78 54 79
REMARK SMILES IDX 59 80 55 81 56 82 58 83 60 84 57 85 41 86 42 87 47 88 43 89
REMARK SMILES IDX 44 90 46 91 48 92 45 93
REMARK H PARENT 76 16 85 24 83 26 81 28 65 55 39 66
REMARK Flexibility Score: inf
ROOT
ATOM      1  C   UNL     1       1.876  -0.448 -11.840  1.00  0.00     0.188 C 
ENDROOT
BRANCH   1   2
ATOM      2  C   UNL     1       2.170   1.022 -11.540  1.00  0.00     0.188 C 
BRANCH   2   3
ATOM      3  O   UNL     1       2.247   1.223 -10.125  1.00  0.00    -0.376 OA
BRANCH   3   4
ATOM      4  C   UNL     1       1.729   2.460  -9.645  1.00  0.00     0.202 C 
BRANCH   4   5
ATOM      5  C   UNL     1       2.677   3.647  -9.793  1.00  0.00     0.261 C 
BRANCH   5   6
ATOM      6  O   UNL     1       3.606   3.475 -10.870  1.00  0.00    -0.460 OA
BRANCH   6   7
ATOM      7  C   UNL     1       4.829   2.898 -10.787  1.00  0.00     0.338 C 
ATOM      8  O   UNL     1       5.508   2.785 -11.806  1.00  0.00    -0.246 OA
BRANCH   7   9
ATOM      9  C   UNL     1       5.441   2.475  -9.496  1.00  0.00     0.060 A 
ATOM     10  C   UNL     1       4.829   1.671  -8.533  1.00  0.00     0.018 A 
ATOM     11  C   UNL     1       6.794   2.780  -9.325  1.00  0.00     0.018 A 
ATOM     12  C   UNL     1       5.530   1.230  -7.402  1.00  0.00     0.026 A 
ATOM     13  C   UNL     1       7.495   2.316  -8.206  1.00  0.00     0.026 A 
ATOM     14  C   UNL     1       6.870   1.552  -7.212  1.00  0.00     0.036 A 
BRANCH  14  15
ATOM     15  N   UNL     1       7.625   1.098  -6.149  1.00  0.00    -0.358 N 
ATOM     16  H   UNL     1       8.602   1.197  -6.210  1.00  0.00     0.163 HD
BRANCH  15  17
ATOM     17  C   UNL     1       7.086   0.485  -4.944  1.00  0.00     0.244 C 
ATOM     18  O   UNL     1       6.510  -0.783  -5.269  1.00  0.00    -0.353 OA
ATOM     19  C   UNL     1       8.273   0.248  -3.981  1.00  0.00     0.195 C 
ATOM     20  C   UNL     1       5.954  -1.452  -4.127  1.00  0.00     0.197 C 
ATOM     21  C   UNL     1       7.779  -0.467  -2.722  1.00  0.00     0.178 C 
ATOM     22  C   UNL     1       7.028  -1.758  -3.079  1.00  0.00     0.171 C 
BRANCH  19  23
ATOM     23  O   UNL     1       9.268  -0.579  -4.640  1.00  0.00    -0.386 OA
ATOM     24  H   UNL     1       8.871  -1.431  -4.882  1.00  0.00     0.211 HD
ENDBRANCH  19  23
BRANCH  21  25
ATOM     25  O   UNL     1       8.888  -0.752  -1.867  1.00  0.00    -0.387 OA
ATOM     26  H   UNL     1       9.511  -1.335  -2.328  1.00  0.00     0.211 HD
ENDBRANCH  21  25
BRANCH  22  27
ATOM     27  O   UNL     1       7.936  -2.743  -3.595  1.00  0.00    -0.388 OA
ATOM     28  H   UNL     1       8.359  -2.403  -4.399  1.00  0.00     0.211 HD
ENDBRANCH  22  27
ENDBRANCH  15  17
ENDBRANCH  14  15
ENDBRANCH   7   9
ENDBRANCH   6   7
ENDBRANCH   5   6
ENDBRANCH   4   5
ENDBRANCH   3   4
ENDBRANCH   2   3
ENDBRANCH   1   2
BRANCH   1  29
ATOM     29  O   UNL     1       0.550  -0.871 -11.522  1.00  0.00    -0.377 OA
BRANCH  29  30
ATOM     30  C   UNL     1       0.062  -0.515 -10.234  1.00  0.00     0.188 C 
BRANCH  30  31
ATOM     31  C   UNL     1       0.797  -1.052  -8.986  1.00  0.00     0.188 C 
BRANCH  31  32
ATOM     32  O   UNL     1       1.976  -1.801  -9.249  1.00  0.00    -0.376 OA
BRANCH  32  33
ATOM     33  C   UNL     1       1.861  -3.208  -9.047  1.00  0.00     0.202 C 
BRANCH  33  34
ATOM     34  C   UNL     1       1.092  -3.948 -10.150  1.00  0.00     0.261 C 
BRANCH  34  35
ATOM     35  O   UNL     1      -0.282  -3.550 -10.296  1.00  0.00    -0.460 OA
BRANCH  35  36
ATOM     36  C   UNL     1      -1.113  -3.741  -9.248  1.00  0.00     0.338 C 
ATOM     37  O   UNL     1      -0.862  -4.320  -8.205  1.00  0.00    -0.246 OA
BRANCH  36  38
ATOM     38  C   UNL     1      -2.311  -2.897  -9.474  1.00  0.00     0.060 A 
ATOM     39  C   UNL     1      -2.749  -2.071  -8.429  1.00  0.00     0.016 A 
ATOM     40  C   UNL     1      -2.918  -2.816 -10.734  1.00  0.00     0.016 A 
ATOM     41  C   UNL     1      -3.806  -1.180  -8.636  1.00  0.00     0.010 A 
ATOM     42  C   UNL     1      -3.986  -1.937 -10.935  1.00  0.00     0.010 A 
ATOM     43  C   UNL     1      -4.455  -1.137  -9.878  1.00  0.00    -0.014 A 
BRANCH  43  44
ATOM     44  C   UNL     1      -5.779  -0.476  -9.985  1.00  0.00     0.031 A 
ATOM     45  C   UNL     1      -6.993  -1.328  -9.730  1.00  0.00     0.074 A 
ATOM     46  C   UNL     1      -5.920   0.832 -10.266  1.00  0.00     0.049 A 
ATOM     47  N   UNL     1      -8.260  -1.003  -9.745  1.00  0.00    -0.248 NA
ATOM     48  C   UNL     1      -6.737  -2.744  -9.413  1.00  0.00     0.031 C 
ATOM     49  C   UNL     1      -4.833   1.775 -10.513  1.00  0.00     0.029 A 
ATOM     50  N   UNL     1      -7.059   1.590 -10.396  1.00  0.00    -0.354 N 
ATOM     51  C   UNL     1      -8.946  -2.167  -9.425  1.00  0.00     0.074 A 
ATOM     52  C   UNL     1      -7.964  -3.216  -9.267  1.00  0.00     0.031 C 
ATOM     53  C   UNL     1      -5.359   2.987 -10.774  1.00  0.00     0.029 A 
ATOM     54  C   UNL     1      -6.819   2.901 -10.730  1.00  0.00     0.049 A 
ATOM     55  H   UNL     1      -7.965   1.228 -10.261  1.00  0.00     0.167 HD
ATOM     56  C   UNL     1     -10.276  -2.349  -9.258  1.00  0.00     0.037 A 
ATOM     57  C   UNL     1      -7.682   3.906 -10.983  1.00  0.00     0.037 A 
ATOM     58  C   UNL     1     -11.263  -1.323  -9.441  1.00  0.00     0.049 A 
ATOM     59  C   UNL     1      -9.168   3.656 -10.878  1.00  0.00     0.074 A 
ATOM     60  C   UNL     1     -12.636  -1.414  -9.310  1.00  0.00     0.029 A 
ATOM     61  N   UNL     1     -10.979  -0.018  -9.810  1.00  0.00    -0.354 N 
ATOM     62  N   UNL     1      -9.804   2.562 -10.534  1.00  0.00    -0.248 NA
ATOM     63  C   UNL     1     -10.055   4.787 -11.192  1.00  0.00     0.031 C 
ATOM     64  C   UNL     1     -13.188  -0.172  -9.639  1.00  0.00     0.029 A 
ATOM     65  C   UNL     1     -12.154   0.704  -9.927  1.00  0.00     0.049 A 
ATOM     66  H   UNL     1     -10.076   0.343  -9.965  1.00  0.00     0.167 HD
ATOM     67  C   UNL     1     -11.158   2.883 -10.557  1.00  0.00     0.074 A 
ATOM     68  C   UNL     1     -11.251   4.276 -10.936  1.00  0.00     0.031 C 
ATOM     69  C   UNL     1     -12.229   2.096 -10.289  1.00  0.00     0.037 A 
BRANCH  56  70
ATOM     70  C   UNL     1     -10.729  -3.724  -8.870  1.00  0.00     0.057 A 
ATOM     71  C   UNL     1     -10.495  -4.239  -7.588  1.00  0.00     0.134 A 
ATOM     72  C   UNL     1     -11.404  -4.541  -9.784  1.00  0.00     0.134 A 
ATOM     73  F   UNL     1      -9.830  -3.514  -6.675  1.00  0.00    -0.206 F 
ATOM     74  C   UNL     1     -10.899  -5.527  -7.235  1.00  0.00     0.040 A 
ATOM     75  C   UNL     1     -11.835  -5.821  -9.435  1.00  0.00     0.040 A 
ATOM     76  F   UNL     1     -11.654  -4.108 -11.029  1.00  0.00    -0.206 F 
ATOM     77  C   UNL     1     -11.577  -6.319  -8.159  1.00  0.00     0.006 A 
ENDBRANCH  56  70
BRANCH  57  78
ATOM     78  C   UNL     1      -7.184   5.251 -11.374  1.00  0.00     0.057 A 
ATOM     79  C   UNL     1      -7.351   6.362 -10.538  1.00  0.00     0.134 A 
ATOM     80  C   UNL     1      -6.590   5.472 -12.623  1.00  0.00     0.134 A 
ATOM     81  F   UNL     1      -7.940   6.222  -9.341  1.00  0.00    -0.206 F 
ATOM     82  C   UNL     1      -6.971   7.645 -10.937  1.00  0.00     0.040 A 
ATOM     83  C   UNL     1      -6.181   6.745 -13.025  1.00  0.00     0.040 A 
ATOM     84  F   UNL     1      -6.406   4.453 -13.475  1.00  0.00    -0.206 F 
ATOM     85  C   UNL     1      -6.382   7.838 -12.185  1.00  0.00     0.006 A 
ENDBRANCH  57  78
BRANCH  69  86
ATOM     86  C   UNL     1     -13.589   2.729 -10.346  1.00  0.00     0.057 A 
ATOM     87  C   UNL     1     -14.192   3.086 -11.559  1.00  0.00     0.134 A 
ATOM     88  C   UNL     1     -14.325   2.941  -9.172  1.00  0.00     0.134 A 
ATOM     89  F   UNL     1     -13.538   2.918 -12.718  1.00  0.00    -0.206 F 
ATOM     90  C   UNL     1     -15.467   3.652 -11.600  1.00  0.00     0.040 A 
ATOM     91  C   UNL     1     -15.611   3.481  -9.203  1.00  0.00     0.040 A 
ATOM     92  F   UNL     1     -13.811   2.610  -7.977  1.00  0.00    -0.206 F 
ATOM     93  C   UNL     1     -16.183   3.844 -10.420  1.00  0.00     0.006 A 
ENDBRANCH  69  86
ENDBRANCH  43  44
ENDBRANCH  36  38
ENDBRANCH  35  36
ENDBRANCH  34  35
ENDBRANCH  33  34
ENDBRANCH  32  33
ENDBRANCH  31  32
ENDBRANCH  30  31
ENDBRANCH  29  30
ENDBRANCH   1  29
TORSDOF 25
