REMARK SMILES C[C@H](CCC(=O)OCCOCCOCCOCCOC(=O)c1ccc(-c2c3nc(c(-c4c(F)cccc4F)c4ccc([nH]4)c(-c4c(F)cccc4F)c4nc(c(-c5c(F)cccc5F)c5ccc2[nH]5)C=C4)C=C3)cc1)NC(=O)OC(C)(C)C
REMARK SMILES IDX 11 1 10 2 9 3 8 4 7 5 5 6 6 7 4 8 3 9 2 10 1 11 76 12 77 13
REMARK SMILES IDX 78 15 79 16 80 17 81 18 82 19 83 20 12 21 13 22 14 23 15 24
REMARK SMILES IDX 16 25 17 26 18 27 19 28 20 29 21 30 22 31 23 32 75 33 24 34
REMARK SMILES IDX 74 35 25 36 26 37 27 38 68 39 28 40 73 41 67 42 69 43 29 44
REMARK SMILES IDX 72 45 66 46 65 47 30 49 56 50 39 51 55 52 40 53 43 54 54 55
REMARK SMILES IDX 70 56 41 57 42 58 53 60 71 61 44 62 31 63 32 64 37 65 33 66
REMARK SMILES IDX 34 67 36 68 38 69 35 70 57 71 58 72 63 73 59 74 60 75 62 76
REMARK SMILES IDX 64 77 61 78 45 79 46 80 51 81 47 82 48 83 50 84 52 85 49 86
REMARK H PARENT 76 14 69 48 43 59
REMARK Flexibility Score: inf
ROOT
ATOM      1  C   UNL     1       2.018   4.167  -0.409  1.00  0.00     0.188 C 
ENDROOT
BRANCH   1   2
ATOM      2  O   UNL     1       1.951   4.828   0.834  1.00  0.00    -0.376 OA
BRANCH   2   3
ATOM      3  C   UNL     1       0.677   5.074   1.397  1.00  0.00     0.202 C 
BRANCH   3   4
ATOM      4  C   UNL     1      -0.446   4.015   1.379  1.00  0.00     0.261 C 
BRANCH   4   5
ATOM      5  O   UNL     1      -0.124   2.719   0.846  1.00  0.00    -0.463 OA
BRANCH   5   6
ATOM      6  C   UNL     1      -0.816   2.342  -0.253  1.00  0.00     0.305 C 
ATOM      7  O   UNL     1      -1.608   3.068  -0.848  1.00  0.00    -0.252 OA
BRANCH   6   8
ATOM      8  C   UNL     1      -0.514   0.954  -0.765  1.00  0.00     0.125 C 
BRANCH   8   9
ATOM      9  C   UNL     1       0.348  -0.041   0.008  1.00  0.00     0.036 C 
BRANCH   9  10
ATOM     10  C   UNL     1      -0.089  -0.506   1.404  1.00  0.00     0.083 C 
ATOM     11  C   UNL     1       0.626   0.162   2.572  1.00  0.00     0.031 C 
BRANCH  10  12
ATOM     12  N   UNL     1      -1.528  -0.474   1.584  1.00  0.00    -0.319 N 
ATOM     13  C   UNL     1      -2.272  -1.475   2.129  1.00  0.00     0.407 C 
ATOM     14  H   UNL     1      -2.004   0.336   1.289  1.00  0.00     0.167 HD
ATOM     15  O   UNL     1      -3.490  -1.382   2.227  1.00  0.00    -0.225 OA
BRANCH  13  16
ATOM     16  O   UNL     1      -1.513  -2.519   2.522  1.00  0.00    -0.444 OA
BRANCH  16  17
ATOM     17  C   UNL     1      -2.099  -3.718   3.076  1.00  0.00     0.106 C 
ATOM     18  C   UNL     1      -2.901  -3.418   4.345  1.00  0.00     0.056 C 
ATOM     19  C   UNL     1      -2.926  -4.441   2.010  1.00  0.00     0.056 C 
ATOM     20  C   UNL     1      -0.895  -4.596   3.452  1.00  0.00     0.056 C 
ENDBRANCH  16  17
ENDBRANCH  13  16
ENDBRANCH  10  12
ENDBRANCH   9  10
ENDBRANCH   8   9
ENDBRANCH   6   8
ENDBRANCH   5   6
ENDBRANCH   4   5
ENDBRANCH   3   4
ENDBRANCH   2   3
ENDBRANCH   1   2
BRANCH   1  21
ATOM     21  C   UNL     1       2.761   2.833  -0.286  1.00  0.00     0.188 C 
BRANCH  21  22
ATOM     22  O   UNL     1       2.637   2.102   0.927  1.00  0.00    -0.377 OA
BRANCH  22  23
ATOM     23  C   UNL     1       3.083   2.672   2.155  1.00  0.00     0.188 C 
BRANCH  23  24
ATOM     24  C   UNL     1       4.300   3.611   2.183  1.00  0.00     0.188 C 
BRANCH  24  25
ATOM     25  O   UNL     1       5.464   3.308   1.424  1.00  0.00    -0.376 OA
BRANCH  25  26
ATOM     26  C   UNL     1       5.763   1.962   1.097  1.00  0.00     0.202 C 
BRANCH  26  27
ATOM     27  C   UNL     1       6.379   1.102   2.195  1.00  0.00     0.261 C 
BRANCH  27  28
ATOM     28  O   UNL     1       5.529   0.952   3.336  1.00  0.00    -0.460 OA
BRANCH  28  29
ATOM     29  C   UNL     1       5.830   1.761   4.378  1.00  0.00     0.338 C 
ATOM     30  O   UNL     1       6.709   2.600   4.447  1.00  0.00    -0.246 OA
BRANCH  29  31
ATOM     31  C   UNL     1       4.852   1.533   5.451  1.00  0.00     0.060 A 
ATOM     32  C   UNL     1       4.197   2.634   6.017  1.00  0.00     0.016 A 
ATOM     33  C   UNL     1       4.676   0.247   5.965  1.00  0.00     0.016 A 
ATOM     34  C   UNL     1       3.403   2.459   7.148  1.00  0.00     0.010 A 
ATOM     35  C   UNL     1       3.889   0.075   7.099  1.00  0.00     0.010 A 
ATOM     36  C   UNL     1       3.292   1.186   7.719  1.00  0.00    -0.014 A 
BRANCH  36  37
ATOM     37  C   UNL     1       2.726   1.010   9.073  1.00  0.00     0.031 A 
ATOM     38  C   UNL     1       3.678   0.826  10.219  1.00  0.00     0.074 A 
ATOM     39  C   UNL     1       1.400   0.942   9.261  1.00  0.00     0.049 A 
ATOM     40  N   UNL     1       3.439   0.452  11.448  1.00  0.00    -0.248 NA
ATOM     41  C   UNL     1       5.098   1.076   9.927  1.00  0.00     0.031 C 
ATOM     42  C   UNL     1       0.390   1.145   8.227  1.00  0.00     0.029 A 
ATOM     43  N   UNL     1       0.683   0.639  10.389  1.00  0.00    -0.354 N 
ATOM     44  C   UNL     1       4.681   0.391  12.067  1.00  0.00     0.074 A 
ATOM     45  C   UNL     1       5.670   0.743  11.073  1.00  0.00     0.031 C 
ATOM     46  C   UNL     1      -0.823   0.922   8.760  1.00  0.00     0.029 A 
ATOM     47  C   UNL     1      -0.663   0.514  10.155  1.00  0.00     0.049 A 
ATOM     48  H   UNL     1       1.092   0.523  11.277  1.00  0.00     0.167 HD
ATOM     49  C   UNL     1       4.966   0.066  13.350  1.00  0.00     0.037 A 
ATOM     50  C   UNL     1      -1.645   0.073  10.965  1.00  0.00     0.037 A 
ATOM     51  C   UNL     1       3.966  -0.292  14.322  1.00  0.00     0.049 A 
ATOM     52  C   UNL     1      -1.306  -0.345  12.370  1.00  0.00     0.074 A 
ATOM     53  C   UNL     1       4.134  -0.611  15.657  1.00  0.00     0.029 A 
ATOM     54  N   UNL     1       2.607  -0.393  14.053  1.00  0.00    -0.354 N 
ATOM     55  N   UNL     1      -0.136  -0.382  12.963  1.00  0.00    -0.248 NA
ATOM     56  C   UNL     1      -2.422  -0.782  13.220  1.00  0.00     0.031 C 
ATOM     57  C   UNL     1       2.887  -0.970  16.178  1.00  0.00     0.029 A 
ATOM     58  C   UNL     1       1.929  -0.801  15.189  1.00  0.00     0.049 A 
ATOM     59  H   UNL     1       2.188  -0.203  13.182  1.00  0.00     0.167 HD
ATOM     60  C   UNL     1      -0.377  -0.810  14.263  1.00  0.00     0.074 A 
ATOM     61  C   UNL     1      -1.807  -1.022  14.371  1.00  0.00     0.031 C 
ATOM     62  C   UNL     1       0.503  -0.998  15.278  1.00  0.00     0.037 A 
BRANCH  49  63
ATOM     63  C   UNL     1       6.415   0.030  13.746  1.00  0.00     0.057 A 
ATOM     64  C   UNL     1       7.207   1.185  13.800  1.00  0.00     0.134 A 
ATOM     65  C   UNL     1       7.032  -1.187  14.065  1.00  0.00     0.134 A 
ATOM     66  F   UNL     1       6.685   2.383  13.494  1.00  0.00    -0.206 F 
ATOM     67  C   UNL     1       8.567   1.126  14.111  1.00  0.00     0.040 A 
ATOM     68  C   UNL     1       8.383  -1.254  14.411  1.00  0.00     0.040 A 
ATOM     69  F   UNL     1       6.335  -2.333  14.040  1.00  0.00    -0.206 F 
ATOM     70  C   UNL     1       9.158  -0.097  14.421  1.00  0.00     0.006 A 
ENDBRANCH  49  63
BRANCH  50  71
ATOM     71  C   UNL     1      -3.033  -0.004  10.447  1.00  0.00     0.057 A 
ATOM     72  C   UNL     1      -4.018   0.885  10.888  1.00  0.00     0.134 A 
ATOM     73  C   UNL     1      -3.396  -0.938   9.469  1.00  0.00     0.134 A 
ATOM     74  F   UNL     1      -3.735   1.791  11.836  1.00  0.00    -0.206 F 
ATOM     75  C   UNL     1      -5.317   0.847  10.378  1.00  0.00     0.040 A 
ATOM     76  C   UNL     1      -4.683  -0.970   8.931  1.00  0.00     0.040 A 
ATOM     77  F   UNL     1      -2.494  -1.813   8.999  1.00  0.00    -0.206 F 
ATOM     78  C   UNL     1      -5.649  -0.077   9.389  1.00  0.00     0.006 A 
ENDBRANCH  50  71
BRANCH  62  79
ATOM     79  C   UNL     1      -0.052  -1.400  16.616  1.00  0.00     0.057 A 
ATOM     80  C   UNL     1      -0.551  -2.684  16.864  1.00  0.00     0.134 A 
ATOM     81  C   UNL     1      -0.011  -0.503  17.693  1.00  0.00     0.134 A 
ATOM     82  F   UNL     1      -0.628  -3.587  15.875  1.00  0.00    -0.206 F 
ATOM     83  C   UNL     1      -1.002  -3.057  18.132  1.00  0.00     0.040 A 
ATOM     84  C   UNL     1      -0.430  -0.874  18.970  1.00  0.00     0.040 A 
ATOM     85  F   UNL     1       0.465   0.741  17.526  1.00  0.00    -0.206 F 
ATOM     86  C   UNL     1      -0.931  -2.154  19.192  1.00  0.00     0.006 A 
ENDBRANCH  62  79
ENDBRANCH  36  37
ENDBRANCH  29  31
ENDBRANCH  28  29
ENDBRANCH  27  28
ENDBRANCH  26  27
ENDBRANCH  25  26
ENDBRANCH  24  25
ENDBRANCH  23  24
ENDBRANCH  22  23
ENDBRANCH  21  22
ENDBRANCH   1  21
TORSDOF 25
