REMARK SMILES Cc1cccc(-n2ncc(C(=O)Nc3cccc(C(=O)OCCOCCOCCOCCOC(=O)c4ccc(-c5c6nc(c(-c7c(F)cccc7F)c7ccc([nH]7)c(-c7c(F)cccc7F)c7nc(c(-c8c(F)cccc8F)c8ccc5[nH]8)C=C7)C=C6)cc4)c3C)c2C)c1
REMARK SMILES IDX 26 1 25 2 24 3 23 4 22 5 21 6 19 7 20 8 18 9 14 10 15 11
REMARK SMILES IDX 90 12 16 13 91 14 17 15 13 16 11 17 12 18 10 20 7 21 8 22
REMARK SMILES IDX 92 23 9 24 93 25 6 26 1 27 2 28 3 29 94 30 4 31 5 32 27 33
REMARK SMILES IDX 28 34 29 35 30 36 31 37 32 38 33 39 34 40 35 41 36 42 37 43
REMARK SMILES IDX 89 44 38 45 88 46 39 47 40 48 41 49 82 50 42 51 87 52 81 53
REMARK SMILES IDX 83 54 43 55 86 56 80 57 79 58 44 60 70 61 53 62 69 63 54 64
REMARK SMILES IDX 57 65 68 66 84 67 55 68 56 69 67 71 85 72 58 73 45 74 46 75
REMARK SMILES IDX 51 76 47 77 48 78 50 79 52 80 49 81 71 82 72 83 77 84 73 85
REMARK SMILES IDX 74 86 76 87 78 88 75 89 59 90 60 91 65 92 61 93 62 94 64 95
REMARK SMILES IDX 66 96 63 97
REMARK H PARENT 13 19 83 59 57 70
REMARK Flexibility Score: inf
ROOT
ATOM      1  C   UNL     1      -5.746   9.848  -2.445  1.00  0.00     0.188 C 
ENDROOT
BRANCH   1   2
ATOM      2  C   UNL     1      -5.629   9.944  -0.904  1.00  0.00     0.188 C 
BRANCH   2   3
ATOM      3  O   UNL     1      -5.094  11.111  -0.284  1.00  0.00    -0.376 OA
BRANCH   3   4
ATOM      4  C   UNL     1      -3.810  11.568  -0.687  1.00  0.00     0.202 C 
BRANCH   4   5
ATOM      5  C   UNL     1      -2.628  10.608  -0.763  1.00  0.00     0.261 C 
BRANCH   5   6
ATOM      6  O   UNL     1      -2.973   9.352  -1.308  1.00  0.00    -0.460 OA
BRANCH   6   7
ATOM      7  C   UNL     1      -2.188   8.298  -1.065  1.00  0.00     0.338 C 
ATOM      8  O   UNL     1      -1.091   8.213  -0.568  1.00  0.00    -0.246 OA
BRANCH   7   9
ATOM      9  C   UNL     1      -3.139   7.201  -1.184  1.00  0.00     0.065 A 
ATOM     10  C   UNL     1      -4.681   5.729  -0.134  1.00  0.00     0.045 A 
ATOM     11  C   UNL     1      -4.900   5.088  -1.360  1.00  0.00     0.026 A 
ATOM     12  C   UNL     1      -3.855   6.846  -0.029  1.00  0.00    -0.013 A 
ATOM     13  C   UNL     1      -4.239   5.525  -2.509  1.00  0.00     0.003 A 
ATOM     14  C   UNL     1      -3.644   7.541   1.296  1.00  0.00     0.047 C 
ATOM     15  C   UNL     1      -3.327   6.571  -2.418  1.00  0.00     0.016 A 
BRANCH  10  16
ATOM     16  N   UNL     1      -5.128   5.130   1.040  1.00  0.00    -0.322 N 
ATOM     17  C   UNL     1      -4.399   4.198   1.757  1.00  0.00     0.259 C 
ATOM     18  O   UNL     1      -4.803   3.896   2.880  1.00  0.00    -0.269 OA
ATOM     19  H   UNL     1      -6.016   5.385   1.381  1.00  0.00     0.170 HD
BRANCH  17  20
ATOM     20  C   UNL     1      -3.204   3.585   1.173  1.00  0.00     0.081 A 
ATOM     21  N   UNL     1      -1.673   2.070   0.605  1.00  0.00    -0.237 N 
ATOM     22  N   UNL     1      -1.213   3.229   0.090  1.00  0.00    -0.175 NA
ATOM     23  C   UNL     1      -2.781   2.283   1.410  1.00  0.00     0.054 A 
ATOM     24  C   UNL     1      -2.142   4.122   0.413  1.00  0.00     0.149 A 
ATOM     25  C   UNL     1      -3.300   1.328   2.424  1.00  0.00     0.068 C 
BRANCH  21  26
ATOM     26  C   UNL     1      -0.985   0.869   0.318  1.00  0.00     0.065 A 
ATOM     27  C   UNL     1       2.623  -0.208  -0.197  1.00  0.00     0.044 C 
ATOM     28  C   UNL     1       1.128  -0.252  -0.087  1.00  0.00    -0.049 A 
ATOM     29  C   UNL     1       0.451  -1.477  -0.101  1.00  0.00     0.003 A 
ATOM     30  C   UNL     1       0.397   0.926   0.088  1.00  0.00     0.031 A 
ATOM     31  C   UNL     1      -0.937  -1.526   0.053  1.00  0.00     0.002 A 
ATOM     32  C   UNL     1      -1.658  -0.354   0.268  1.00  0.00     0.028 A 
ENDBRANCH  21  26
ENDBRANCH  17  20
ENDBRANCH  10  16
ENDBRANCH   7   9
ENDBRANCH   6   7
ENDBRANCH   5   6
ENDBRANCH   4   5
ENDBRANCH   3   4
ENDBRANCH   2   3
ENDBRANCH   1   2
BRANCH   1  33
ATOM     33  O   UNL     1      -4.526  10.117  -3.115  1.00  0.00    -0.377 OA
BRANCH  33  34
ATOM     34  C   UNL     1      -4.551  10.836  -4.339  1.00  0.00     0.188 C 
BRANCH  34  35
ATOM     35  C   UNL     1      -5.488  12.047  -4.397  1.00  0.00     0.188 C 
BRANCH  35  36
ATOM     36  O   UNL     1      -5.431  12.769  -3.173  1.00  0.00    -0.376 OA
BRANCH  36  37
ATOM     37  C   UNL     1      -6.681  13.244  -2.675  1.00  0.00     0.202 C 
BRANCH  37  38
ATOM     38  C   UNL     1      -7.183  14.454  -3.462  1.00  0.00     0.261 C 
BRANCH  38  39
ATOM     39  O   UNL     1      -6.221  15.517  -3.337  1.00  0.00    -0.460 OA
BRANCH  39  40
ATOM     40  C   UNL     1      -5.305  15.559  -4.342  1.00  0.00     0.338 C 
ATOM     41  O   UNL     1      -5.566  15.516  -5.534  1.00  0.00    -0.246 OA
BRANCH  40  42
ATOM     42  C   UNL     1      -3.930  15.396  -3.787  1.00  0.00     0.060 A 
ATOM     43  C   UNL     1      -2.865  15.106  -4.655  1.00  0.00     0.016 A 
ATOM     44  C   UNL     1      -3.746  15.258  -2.415  1.00  0.00     0.016 A 
ATOM     45  C   UNL     1      -1.669  14.556  -4.161  1.00  0.00     0.010 A 
ATOM     46  C   UNL     1      -2.586  14.658  -1.945  1.00  0.00     0.010 A 
ATOM     47  C   UNL     1      -1.544  14.254  -2.802  1.00  0.00    -0.014 A 
BRANCH  47  48
ATOM     48  C   UNL     1      -0.511  13.357  -2.214  1.00  0.00     0.031 A 
ATOM     49  C   UNL     1      -0.064  13.559  -0.785  1.00  0.00     0.074 A 
ATOM     50  C   UNL     1      -0.217  12.158  -2.801  1.00  0.00     0.049 A 
ATOM     51  N   UNL     1       0.517  12.639  -0.100  1.00  0.00    -0.248 NA
ATOM     52  C   UNL     1      -0.243  14.767   0.027  1.00  0.00     0.031 C 
ATOM     53  C   UNL     1       0.151  10.928  -2.076  1.00  0.00     0.029 A 
ATOM     54  N   UNL     1      -0.315  11.696  -4.120  1.00  0.00    -0.354 N 
ATOM     55  C   UNL     1       0.506  12.954   1.226  1.00  0.00     0.074 A 
ATOM     56  C   UNL     1       0.075  14.328   1.257  1.00  0.00     0.031 C 
ATOM     57  C   UNL     1       0.281   9.891  -2.904  1.00  0.00     0.029 A 
ATOM     58  C   UNL     1       0.367  10.455  -4.214  1.00  0.00     0.049 A 
ATOM     59  H   UNL     1      -0.780  12.154  -4.857  1.00  0.00     0.167 HD
ATOM     60  C   UNL     1       0.788  11.957   2.111  1.00  0.00     0.037 A 
ATOM     61  C   UNL     1       1.512  10.299  -4.945  1.00  0.00     0.037 A 
ATOM     62  C   UNL     1       1.419  10.805   1.452  1.00  0.00     0.049 A 
ATOM     63  C   UNL     1       2.734  10.033  -4.082  1.00  0.00     0.074 A 
ATOM     64  C   UNL     1       1.139   9.455   1.342  1.00  0.00     0.029 A 
ATOM     65  N   UNL     1       2.510  11.040   0.610  1.00  0.00    -0.354 N 
ATOM     66  N   UNL     1       2.807  10.406  -2.828  1.00  0.00    -0.248 NA
ATOM     67  C   UNL     1       3.899   9.244  -4.476  1.00  0.00     0.031 C 
ATOM     68  C   UNL     1       2.039   8.897   0.385  1.00  0.00     0.029 A 
ATOM     69  C   UNL     1       2.893   9.898  -0.054  1.00  0.00     0.049 A 
ATOM     70  H   UNL     1       2.950  11.915   0.505  1.00  0.00     0.167 HD
ATOM     71  C   UNL     1       3.894   9.836  -2.230  1.00  0.00     0.074 A 
ATOM     72  C   UNL     1       4.595   9.183  -3.321  1.00  0.00     0.031 C 
ATOM     73  C   UNL     1       4.096   9.875  -0.879  1.00  0.00     0.037 A 
BRANCH  60  74
ATOM     74  C   UNL     1       0.437  11.967   3.581  1.00  0.00     0.057 A 
ATOM     75  C   UNL     1       0.984  11.011   4.462  1.00  0.00     0.134 A 
ATOM     76  C   UNL     1      -0.522  12.816   4.165  1.00  0.00     0.134 A 
ATOM     77  F   UNL     1       1.884  10.109   4.045  1.00  0.00    -0.206 F 
ATOM     78  C   UNL     1       0.625  10.924   5.815  1.00  0.00     0.040 A 
ATOM     79  C   UNL     1      -0.853  12.771   5.529  1.00  0.00     0.040 A 
ATOM     80  F   UNL     1      -1.225  13.694   3.438  1.00  0.00    -0.206 F 
ATOM     81  C   UNL     1      -0.283  11.819   6.360  1.00  0.00     0.006 A 
ENDBRANCH  60  74
BRANCH  61  82
ATOM     82  C   UNL     1       1.369  10.918  -6.281  1.00  0.00     0.057 A 
ATOM     83  C   UNL     1       0.454  10.265  -7.133  1.00  0.00     0.134 A 
ATOM     84  C   UNL     1       1.502  12.303  -6.425  1.00  0.00     0.134 A 
ATOM     85  F   UNL     1       0.285   8.935  -7.043  1.00  0.00    -0.206 F 
ATOM     86  C   UNL     1      -0.445  10.980  -7.927  1.00  0.00     0.040 A 
ATOM     87  C   UNL     1       0.609  13.027  -7.225  1.00  0.00     0.040 A 
ATOM     88  F   UNL     1       2.351  12.989  -5.647  1.00  0.00    -0.206 F 
ATOM     89  C   UNL     1      -0.401  12.370  -7.933  1.00  0.00     0.006 A 
ENDBRANCH  61  82
BRANCH  73  90
ATOM     90  C   UNL     1       5.437   9.818  -0.177  1.00  0.00     0.057 A 
ATOM     91  C   UNL     1       6.661  10.056  -0.817  1.00  0.00     0.134 A 
ATOM     92  C   UNL     1       5.513   9.749   1.237  1.00  0.00     0.134 A 
ATOM     93  F   UNL     1       6.743  10.230  -2.142  1.00  0.00    -0.206 F 
ATOM     94  C   UNL     1       7.866  10.193  -0.111  1.00  0.00     0.040 A 
ATOM     95  C   UNL     1       6.700   9.928   1.952  1.00  0.00     0.040 A 
ATOM     96  F   UNL     1       4.431   9.553   2.004  1.00  0.00    -0.206 F 
ATOM     97  C   UNL     1       7.886  10.146   1.277  1.00  0.00     0.006 A 
ENDBRANCH  73  90
ENDBRANCH  47  48
ENDBRANCH  40  42
ENDBRANCH  39  40
ENDBRANCH  38  39
ENDBRANCH  37  38
ENDBRANCH  36  37
ENDBRANCH  35  36
ENDBRANCH  34  35
ENDBRANCH  33  34
ENDBRANCH   1  33
TORSDOF 23
