REMARK SMILES O=C(OCCOCCOCCOCCOC(=O)c1nnn(-c2ccc(C(F)(F)F)cc2)c1-c1cccc(Cl)c1)c1ccc(-c2c3nc(c(-c4c(F)cccc4F)c4ccc([nH]4)c(-c4c(F)cccc4F)c4nc(c(-c5c(F)cccc5F)c5ccc2[nH]5)C=C4)C=C3)cc1
REMARK SMILES IDX 9 1 8 2 7 3 6 4 5 5 4 6 3 7 2 8 1 9 40 10 41 11 93 12 42 13
REMARK SMILES IDX 92 14 43 15 44 16 45 17 86 18 46 19 91 20 85 21 87 22 47 23
REMARK SMILES IDX 90 24 84 25 83 26 48 28 74 29 57 30 73 31 58 32 61 33 72 34
REMARK SMILES IDX 88 35 59 36 60 37 71 39 89 40 62 41 49 42 50 43 55 44 51 45
REMARK SMILES IDX 52 46 54 47 56 48 53 49 75 50 76 51 81 52 77 53 78 54 80 55
REMARK SMILES IDX 82 56 79 57 63 58 64 59 69 60 65 61 66 62 68 63 70 64 67 65
REMARK SMILES IDX 10 66 11 67 12 68 13 69 14 70 15 71 16 72 17 73 18 74 19 75
REMARK SMILES IDX 32 76 20 77 21 78 33 79 34 80 39 81 35 82 37 83 36 84 38 85
REMARK SMILES IDX 22 86 23 87 31 88 24 89 30 90 25 91 26 92 27 93 28 94 29 95
REMARK H PARENT 87 27 61 38
REMARK Flexibility Score: inf
ROOT
ATOM      1  O   UNL     1       2.871  -1.994   2.536  1.00  0.00    -0.377 OA
ENDROOT
BRANCH   1   2
ATOM      2  C   UNL     1       2.341  -1.231   1.469  1.00  0.00     0.188 C 
BRANCH   2   3
ATOM      3  C   UNL     1       3.014  -1.434   0.103  1.00  0.00     0.188 C 
BRANCH   3   4
ATOM      4  O   UNL     1       4.321  -1.006  -0.252  1.00  0.00    -0.376 OA
BRANCH   4   5
ATOM      5  C   UNL     1       5.089   0.066   0.251  1.00  0.00     0.202 C 
BRANCH   5   6
ATOM      6  C   UNL     1       4.561   1.484   0.476  1.00  0.00     0.261 C 
BRANCH   6   7
ATOM      7  O   UNL     1       3.180   1.596   0.782  1.00  0.00    -0.460 OA
BRANCH   7   8
ATOM      8  C   UNL     1       2.129   1.616  -0.060  1.00  0.00     0.338 C 
ATOM      9  O   UNL     1       1.008   1.774   0.422  1.00  0.00    -0.246 OA
BRANCH   8  10
ATOM     10  C   UNL     1       2.229   1.374  -1.527  1.00  0.00     0.060 A 
ATOM     11  C   UNL     1       3.402   1.318  -2.285  1.00  0.00     0.016 A 
ATOM     12  C   UNL     1       0.996   1.190  -2.182  1.00  0.00     0.016 A 
ATOM     13  C   UNL     1       3.348   1.259  -3.662  1.00  0.00     0.010 A 
ATOM     14  C   UNL     1       0.933   1.101  -3.559  1.00  0.00     0.010 A 
ATOM     15  C   UNL     1       2.110   1.230  -4.285  1.00  0.00    -0.014 A 
BRANCH  15  16
ATOM     16  C   UNL     1       2.111   1.426  -5.718  1.00  0.00     0.031 A 
ATOM     17  C   UNL     1       2.723   0.339  -6.523  1.00  0.00     0.074 A 
ATOM     18  C   UNL     1       1.567   2.543  -6.233  1.00  0.00     0.049 A 
ATOM     19  N   UNL     1       3.704   0.415  -7.364  1.00  0.00    -0.248 NA
ATOM     20  C   UNL     1       2.236  -1.029  -6.287  1.00  0.00     0.031 C 
ATOM     21  C   UNL     1       0.748   3.548  -5.544  1.00  0.00     0.029 A 
ATOM     22  N   UNL     1       1.542   2.961  -7.522  1.00  0.00    -0.354 N 
ATOM     23  C   UNL     1       3.835  -0.861  -7.906  1.00  0.00     0.074 A 
ATOM     24  C   UNL     1       2.998  -1.733  -7.124  1.00  0.00     0.031 C 
ATOM     25  C   UNL     1       0.108   4.301  -6.463  1.00  0.00     0.029 A 
ATOM     26  C   UNL     1       0.576   3.918  -7.783  1.00  0.00     0.049 A 
ATOM     27  H   UNL     1       2.154   2.615  -8.211  1.00  0.00     0.167 HD
ATOM     28  C   UNL     1       4.452  -1.074  -9.099  1.00  0.00     0.037 A 
ATOM     29  C   UNL     1       0.129   4.287  -9.006  1.00  0.00     0.037 A 
ATOM     30  C   UNL     1       5.362  -0.014  -9.432  1.00  0.00     0.049 A 
ATOM     31  C   UNL     1       1.139   3.855 -10.004  1.00  0.00     0.074 A 
ATOM     32  C   UNL     1       6.498   0.504  -8.841  1.00  0.00     0.029 A 
ATOM     33  N   UNL     1       4.974   0.917 -10.363  1.00  0.00    -0.354 N 
ATOM     34  N   UNL     1       2.327   4.383 -10.114  1.00  0.00    -0.248 NA
ATOM     35  C   UNL     1       0.992   2.528 -10.585  1.00  0.00     0.031 C 
ATOM     36  C   UNL     1       6.436   1.907  -9.087  1.00  0.00     0.029 A 
ATOM     37  C   UNL     1       5.293   2.148  -9.850  1.00  0.00     0.049 A 
ATOM     38  H   UNL     1       4.548   0.736 -11.232  1.00  0.00     0.167 HD
ATOM     39  C   UNL     1       3.168   3.314 -10.395  1.00  0.00     0.074 A 
ATOM     40  C   UNL     1       2.278   2.216 -10.764  1.00  0.00     0.031 C 
ATOM     41  C   UNL     1       4.484   3.331 -10.031  1.00  0.00     0.037 A 
BRANCH  28  42
ATOM     42  C   UNL     1       3.960  -2.079 -10.106  1.00  0.00     0.057 A 
ATOM     43  C   UNL     1       4.749  -2.399 -11.223  1.00  0.00     0.134 A 
ATOM     44  C   UNL     1       2.623  -2.526 -10.166  1.00  0.00     0.134 A 
ATOM     45  F   UNL     1       6.027  -2.000 -11.300  1.00  0.00    -0.206 F 
ATOM     46  C   UNL     1       4.230  -3.073 -12.337  1.00  0.00     0.040 A 
ATOM     47  C   UNL     1       2.109  -3.242 -11.248  1.00  0.00     0.040 A 
ATOM     48  F   UNL     1       1.720  -2.205  -9.229  1.00  0.00    -0.206 F 
ATOM     49  C   UNL     1       2.906  -3.494 -12.353  1.00  0.00     0.006 A 
ENDBRANCH  28  42
BRANCH  29  50
ATOM     50  C   UNL     1      -1.254   4.665  -9.369  1.00  0.00     0.057 A 
ATOM     51  C   UNL     1      -1.530   5.328 -10.570  1.00  0.00     0.134 A 
ATOM     52  C   UNL     1      -2.368   4.167  -8.667  1.00  0.00     0.134 A 
ATOM     53  F   UNL     1      -0.531   5.796 -11.332  1.00  0.00    -0.206 F 
ATOM     54  C   UNL     1      -2.837   5.477 -11.052  1.00  0.00     0.040 A 
ATOM     55  C   UNL     1      -3.678   4.319  -9.130  1.00  0.00     0.040 A 
ATOM     56  F   UNL     1      -2.221   3.439  -7.550  1.00  0.00    -0.206 F 
ATOM     57  C   UNL     1      -3.915   4.966 -10.335  1.00  0.00     0.006 A 
ENDBRANCH  29  50
BRANCH  41  58
ATOM     58  C   UNL     1       5.056   4.626  -9.523  1.00  0.00     0.057 A 
ATOM     59  C   UNL     1       4.626   5.257  -8.345  1.00  0.00     0.134 A 
ATOM     60  C   UNL     1       6.179   5.169 -10.156  1.00  0.00     0.134 A 
ATOM     61  F   UNL     1       3.632   4.748  -7.609  1.00  0.00    -0.206 F 
ATOM     62  C   UNL     1       5.254   6.405  -7.851  1.00  0.00     0.040 A 
ATOM     63  C   UNL     1       6.837   6.294  -9.653  1.00  0.00     0.040 A 
ATOM     64  F   UNL     1       6.688   4.582 -11.251  1.00  0.00    -0.206 F 
ATOM     65  C   UNL     1       6.367   6.923  -8.503  1.00  0.00     0.006 A 
ENDBRANCH  41  58
ENDBRANCH  15  16
ENDBRANCH   8  10
ENDBRANCH   7   8
ENDBRANCH   6   7
ENDBRANCH   5   6
ENDBRANCH   4   5
ENDBRANCH   3   4
ENDBRANCH   2   3
ENDBRANCH   1   2
BRANCH   1  66
ATOM     66  C   UNL     1       4.186  -1.638   2.893  1.00  0.00     0.188 C 
BRANCH  66  67
ATOM     67  C   UNL     1       5.276  -2.617   2.401  1.00  0.00     0.188 C 
BRANCH  67  68
ATOM     68  O   UNL     1       4.976  -3.876   1.807  1.00  0.00    -0.376 OA
BRANCH  68  69
ATOM     69  C   UNL     1       3.747  -4.542   2.029  1.00  0.00     0.202 C 
BRANCH  69  70
ATOM     70  C   UNL     1       3.442  -5.039   3.443  1.00  0.00     0.261 C 
BRANCH  70  71
ATOM     71  O   UNL     1       3.693  -4.081   4.473  1.00  0.00    -0.458 OA
BRANCH  71  72
ATOM     72  C   UNL     1       4.939  -4.104   5.023  1.00  0.00     0.361 C 
ATOM     73  O   UNL     1       5.814  -4.923   4.777  1.00  0.00    -0.244 OA
BRANCH  72  74
ATOM     74  C   UNL     1       5.105  -3.015   5.966  1.00  0.00     0.198 A 
ATOM     75  N   UNL     1       5.875  -1.896   5.755  1.00  0.00    -0.122 NA
ATOM     76  C   UNL     1       4.425  -2.888   7.157  1.00  0.00     0.109 A 
ATOM     77  N   UNL     1       5.666  -1.056   6.764  1.00  0.00    -0.061 NA
ATOM     78  N   UNL     1       4.926  -1.713   7.684  1.00  0.00    -0.212 N 
BRANCH  76  79
ATOM     79  C   UNL     1       3.438  -3.771   7.766  1.00  0.00     0.004 A 
ATOM     80  C   UNL     1       2.212  -3.280   8.234  1.00  0.00     0.010 A 
ATOM     81  C   UNL     1       3.708  -5.142   7.848  1.00  0.00     0.031 A 
ATOM     82  C   UNL     1       1.274  -4.152   8.790  1.00  0.00     0.002 A 
ATOM     83  C   UNL     1       2.765  -6.007   8.392  1.00  0.00     0.041 A 
ATOM     84  C   UNL     1       1.552  -5.518   8.867  1.00  0.00     0.020 A 
ATOM     85  Cl  UNL     1       3.110  -7.689   8.469  1.00  0.00    -0.084 Cl
ENDBRANCH  76  79
BRANCH  78  86
ATOM     86  C   UNL     1       4.869  -1.314   9.029  1.00  0.00     0.067 A 
ATOM     87  C   UNL     1       4.473  -0.024   9.380  1.00  0.00     0.029 A 
ATOM     88  C   UNL     1       5.120  -2.288  10.003  1.00  0.00     0.029 A 
ATOM     89  C   UNL     1       4.209   0.243  10.728  1.00  0.00     0.015 A 
ATOM     90  C   UNL     1       4.888  -2.005  11.339  1.00  0.00     0.015 A 
ATOM     91  C   UNL     1       4.388  -0.752  11.712  1.00  0.00     0.056 A 
BRANCH  91  92
ATOM     92  C   UNL     1       4.004  -0.498  13.148  1.00  0.00     0.416 C 
ATOM     93  F   UNL     1       4.677   0.547  13.698  1.00  0.00    -0.166 F 
ATOM     94  F   UNL     1       2.679  -0.211  13.281  1.00  0.00    -0.166 F 
ATOM     95  F   UNL     1       4.234  -1.565  13.964  1.00  0.00    -0.166 F 
ENDBRANCH  91  92
ENDBRANCH  78  86
ENDBRANCH  72  74
ENDBRANCH  71  72
ENDBRANCH  70  71
ENDBRANCH  69  70
ENDBRANCH  68  69
ENDBRANCH  67  68
ENDBRANCH  66  67
ENDBRANCH   1  66
TORSDOF 23
