REMARK SMILES O=C(OCCOCCOCCOCCOC(=O)[C@@H]1[C@@H](C(=O)Nc2ccc(F)c(F)c2)[C@H]2CC[C@@H]1O2)c1ccc(-c2c3nc(c(-c4c(F)cccc4F)c4ccc([nH]4)c(-c4c(F)cccc4F)c4nc(c(-c5c(F)cccc5F)c5ccc2[nH]5)C=C4)C=C3)cc1
REMARK SMILES IDX 9 1 8 2 7 3 6 4 5 5 4 6 3 7 2 8 1 9 36 10 37 11 89 12 38 13
REMARK SMILES IDX 88 14 39 15 40 16 41 17 82 18 42 19 87 20 81 21 83 22 43 23
REMARK SMILES IDX 86 24 80 25 79 26 44 28 70 29 53 30 69 31 54 32 57 33 68 34
REMARK SMILES IDX 84 35 55 36 56 37 67 39 85 40 58 41 45 42 46 43 51 44 47 45
REMARK SMILES IDX 48 46 50 47 52 48 49 49 71 50 72 51 77 52 73 53 74 54 76 55
REMARK SMILES IDX 78 56 75 57 59 58 60 59 65 60 61 61 62 62 64 63 66 64 63 65
REMARK SMILES IDX 10 66 11 67 12 68 13 69 14 70 15 71 16 72 17 73 18 74 19 75
REMARK SMILES IDX 34 76 31 77 33 78 35 79 32 80 20 81 21 82 22 83 23 85 24 86
REMARK SMILES IDX 30 87 25 88 28 89 26 90 29 91 27 92
REMARK H PARENT 83 27 57 38 22 84
REMARK Flexibility Score: inf
ROOT
ATOM      1  O   UNL     1       2.536  -3.377   0.115  1.00  0.00    -0.377 OA
ENDROOT
BRANCH   1   2
ATOM      2  C   UNL     1       1.949  -2.101   0.234  1.00  0.00     0.188 C 
BRANCH   2   3
ATOM      3  C   UNL     1       2.711  -1.040  -0.528  1.00  0.00     0.188 C 
BRANCH   3   4
ATOM      4  O   UNL     1       4.082  -0.851  -0.175  1.00  0.00    -0.376 OA
BRANCH   4   5
ATOM      5  C   UNL     1       4.456  -0.292   1.077  1.00  0.00     0.202 C 
BRANCH   5   6
ATOM      6  C   UNL     1       4.301   1.215   1.261  1.00  0.00     0.261 C 
BRANCH   6   7
ATOM      7  O   UNL     1       3.014   1.706   0.877  1.00  0.00    -0.460 OA
BRANCH   7   8
ATOM      8  C   UNL     1       2.681   2.262  -0.317  1.00  0.00     0.338 C 
ATOM      9  O   UNL     1       1.690   2.987  -0.367  1.00  0.00    -0.246 OA
BRANCH   8  10
ATOM     10  C   UNL     1       3.319   1.844  -1.614  1.00  0.00     0.060 A 
ATOM     11  C   UNL     1       4.598   1.300  -1.755  1.00  0.00     0.016 A 
ATOM     12  C   UNL     1       2.515   1.937  -2.769  1.00  0.00     0.016 A 
ATOM     13  C   UNL     1       5.037   0.778  -2.962  1.00  0.00     0.010 A 
ATOM     14  C   UNL     1       2.989   1.513  -4.015  1.00  0.00     0.010 A 
ATOM     15  C   UNL     1       4.264   0.948  -4.104  1.00  0.00    -0.014 A 
BRANCH  15  16
ATOM     16  C   UNL     1       5.002   0.864  -5.372  1.00  0.00     0.031 A 
ATOM     17  C   UNL     1       5.750   2.102  -5.776  1.00  0.00     0.074 A 
ATOM     18  C   UNL     1       5.173  -0.311  -5.995  1.00  0.00     0.049 A 
ATOM     19  N   UNL     1       6.546   2.304  -6.788  1.00  0.00    -0.248 NA
ATOM     20  C   UNL     1       5.617   3.266  -4.876  1.00  0.00     0.031 C 
ATOM     21  C   UNL     1       4.627  -1.593  -5.549  1.00  0.00     0.029 A 
ATOM     22  N   UNL     1       5.887  -0.619  -7.120  1.00  0.00    -0.354 N 
ATOM     23  C   UNL     1       7.004   3.607  -6.644  1.00  0.00     0.074 A 
ATOM     24  C   UNL     1       6.410   4.152  -5.449  1.00  0.00     0.031 C 
ATOM     25  C   UNL     1       5.016  -2.552  -6.409  1.00  0.00     0.029 A 
ATOM     26  C   UNL     1       5.796  -1.940  -7.480  1.00  0.00     0.049 A 
ATOM     27  H   UNL     1       6.414   0.043  -7.623  1.00  0.00     0.167 HD
ATOM     28  C   UNL     1       7.835   4.294  -7.457  1.00  0.00     0.037 A 
ATOM     29  C   UNL     1       6.269  -2.556  -8.580  1.00  0.00     0.037 A 
ATOM     30  C   UNL     1       8.363   3.737  -8.669  1.00  0.00     0.049 A 
ATOM     31  C   UNL     1       7.059  -1.726  -9.561  1.00  0.00     0.074 A 
ATOM     32  C   UNL     1       9.124   4.347  -9.644  1.00  0.00     0.029 A 
ATOM     33  N   UNL     1       8.155   2.424  -9.072  1.00  0.00    -0.354 N 
ATOM     34  N   UNL     1       7.434  -0.470  -9.469  1.00  0.00    -0.248 NA
ATOM     35  C   UNL     1       7.482  -2.388 -10.801  1.00  0.00     0.031 C 
ATOM     36  C   UNL     1       9.326   3.417 -10.669  1.00  0.00     0.029 A 
ATOM     37  C   UNL     1       8.748   2.209 -10.300  1.00  0.00     0.049 A 
ATOM     38  H   UNL     1       7.659   1.746  -8.558  1.00  0.00     0.167 HD
ATOM     39  C   UNL     1       8.153  -0.196 -10.624  1.00  0.00     0.074 A 
ATOM     40  C   UNL     1       8.175  -1.425 -11.394  1.00  0.00     0.031 C 
ATOM     41  C   UNL     1       8.743   0.960 -11.022  1.00  0.00     0.037 A 
BRANCH  28  42
ATOM     42  C   UNL     1       8.094   5.727  -7.101  1.00  0.00     0.057 A 
ATOM     43  C   UNL     1       8.875   6.099  -5.998  1.00  0.00     0.134 A 
ATOM     44  C   UNL     1       7.472   6.752  -7.825  1.00  0.00     0.134 A 
ATOM     45  F   UNL     1       9.462   5.165  -5.234  1.00  0.00    -0.206 F 
ATOM     46  C   UNL     1       9.003   7.435  -5.612  1.00  0.00     0.040 A 
ATOM     47  C   UNL     1       7.612   8.092  -7.463  1.00  0.00     0.040 A 
ATOM     48  F   UNL     1       6.694   6.465  -8.879  1.00  0.00    -0.206 F 
ATOM     49  C   UNL     1       8.371   8.436  -6.347  1.00  0.00     0.006 A 
ENDBRANCH  28  42
BRANCH  29  50
ATOM     50  C   UNL     1       5.949  -3.984  -8.846  1.00  0.00     0.057 A 
ATOM     51  C   UNL     1       6.943  -4.965  -8.922  1.00  0.00     0.134 A 
ATOM     52  C   UNL     1       4.627  -4.398  -9.065  1.00  0.00     0.134 A 
ATOM     53  F   UNL     1       8.232  -4.636  -8.748  1.00  0.00    -0.206 F 
ATOM     54  C   UNL     1       6.640  -6.296  -9.223  1.00  0.00     0.040 A 
ATOM     55  C   UNL     1       4.306  -5.729  -9.339  1.00  0.00     0.040 A 
ATOM     56  F   UNL     1       3.621  -3.511  -9.015  1.00  0.00    -0.206 F 
ATOM     57  C   UNL     1       5.316  -6.682  -9.427  1.00  0.00     0.006 A 
ENDBRANCH  29  50
BRANCH  41  58
ATOM     58  C   UNL     1       9.483   0.932 -12.324  1.00  0.00     0.057 A 
ATOM     59  C   UNL     1       8.815   0.885 -13.553  1.00  0.00     0.134 A 
ATOM     60  C   UNL     1      10.880   1.027 -12.343  1.00  0.00     0.134 A 
ATOM     61  F   UNL     1       7.477   0.784 -13.598  1.00  0.00    -0.206 F 
ATOM     62  C   UNL     1       9.514   0.914 -14.759  1.00  0.00     0.040 A 
ATOM     63  C   UNL     1      11.587   1.089 -13.542  1.00  0.00     0.040 A 
ATOM     64  F   UNL     1      11.575   1.090 -11.197  1.00  0.00    -0.206 F 
ATOM     65  C   UNL     1      10.904   1.026 -14.755  1.00  0.00     0.006 A 
ENDBRANCH  41  58
ENDBRANCH  15  16
ENDBRANCH   8  10
ENDBRANCH   7   8
ENDBRANCH   6   7
ENDBRANCH   5   6
ENDBRANCH   4   5
ENDBRANCH   3   4
ENDBRANCH   2   3
ENDBRANCH   1   2
BRANCH   1  66
ATOM     66  C   UNL     1       3.790  -3.503   0.752  1.00  0.00     0.188 C 
BRANCH  66  67
ATOM     67  C   UNL     1       4.999  -3.735  -0.171  1.00  0.00     0.188 C 
BRANCH  67  68
ATOM     68  O   UNL     1       4.898  -4.587  -1.302  1.00  0.00    -0.376 OA
BRANCH  68  69
ATOM     69  C   UNL     1       3.714  -5.332  -1.498  1.00  0.00     0.202 C 
BRANCH  69  70
ATOM     70  C   UNL     1       3.453  -6.510  -0.536  1.00  0.00     0.261 C 
BRANCH  70  71
ATOM     71  O   UNL     1       3.750  -6.324   0.872  1.00  0.00    -0.463 OA
BRANCH  71  72
ATOM     72  C   UNL     1       5.022  -6.592   1.275  1.00  0.00     0.312 C 
ATOM     73  O   UNL     1       5.868  -7.043   0.507  1.00  0.00    -0.252 OA
BRANCH  72  74
ATOM     74  C   UNL     1       5.243  -6.353   2.795  1.00  0.00     0.143 C 
ATOM     75  C   UNL     1       5.518  -4.901   3.287  1.00  0.00     0.124 C 
ATOM     76  C   UNL     1       6.598  -7.028   3.091  1.00  0.00     0.133 C 
ATOM     77  C   UNL     1       7.012  -5.003   3.717  1.00  0.00     0.132 C 
ATOM     78  C   UNL     1       6.810  -7.194   4.592  1.00  0.00     0.036 C 
ATOM     79  O   UNL     1       7.521  -5.961   2.770  1.00  0.00    -0.373 OA
ATOM     80  C   UNL     1       7.238  -5.794   5.006  1.00  0.00     0.035 C 
BRANCH  75  81
ATOM     81  C   UNL     1       4.775  -4.124   4.398  1.00  0.00     0.231 C 
ATOM     82  O   UNL     1       5.440  -3.556   5.282  1.00  0.00    -0.274 OA
ATOM     83  N   UNL     1       3.479  -3.731   4.422  1.00  0.00    -0.326 N 
ATOM     84  H   UNL     1       3.337  -3.016   5.083  1.00  0.00     0.169 HD
BRANCH  83  85
ATOM     85  C   UNL     1       2.291  -4.057   3.771  1.00  0.00     0.044 A 
ATOM     86  C   UNL     1       1.995  -5.319   3.276  1.00  0.00     0.029 A 
ATOM     87  C   UNL     1       1.328  -3.043   3.661  1.00  0.00     0.068 A 
ATOM     88  C   UNL     1       0.816  -5.544   2.557  1.00  0.00     0.044 A 
ATOM     89  C   UNL     1       0.156  -3.268   2.941  1.00  0.00     0.160 A 
ATOM     90  C   UNL     1      -0.086  -4.507   2.369  1.00  0.00     0.158 A 
ATOM     91  F   UNL     1      -0.703  -2.257   2.756  1.00  0.00    -0.204 F 
ATOM     92  F   UNL     1      -1.186  -4.712   1.633  1.00  0.00    -0.204 F 
ENDBRANCH  83  85
ENDBRANCH  75  81
ENDBRANCH  72  74
ENDBRANCH  71  72
ENDBRANCH  70  71
ENDBRANCH  69  70
ENDBRANCH  68  69
ENDBRANCH  67  68
ENDBRANCH  66  67
ENDBRANCH   1  66
TORSDOF 22
