REMARK SMILES Cc1cc([N+](=O)[O-])ccc1NC(=O)[C@@H]1[C@@H](C(=O)OCCOCCOCCOCCOC(=O)c2ccc(-c3c4nc(c(-c5c(F)cccc5F)c5ccc([nH]5)c(-c5c(F)cccc5F)c5nc(c(-c6c(F)cccc6F)c6ccc3[nH]6)C=C5)C=C4)cc2)[C@H]2C=C[C@@H]1C2
REMARK SMILES IDX 23 1 22 2 21 3 20 4 19 5 18 6 16 7 17 8 15 9 14 10 90 11
REMARK SMILES IDX 87 12 89 13 91 14 88 15 12 16 11 17 13 19 10 20 1 21 2 22
REMARK SMILES IDX 3 23 4 24 9 25 8 26 5 27 6 28 7 29 24 30 25 31 26 32 27 33
REMARK SMILES IDX 28 34 29 35 30 36 31 37 32 38 33 39 34 40 86 41 35 42 85 43
REMARK SMILES IDX 36 44 37 45 38 46 79 47 39 48 84 49 78 50 80 51 40 52 83 53
REMARK SMILES IDX 77 54 76 55 41 57 67 58 50 59 66 60 51 61 54 62 65 63 81 64
REMARK SMILES IDX 52 65 53 66 64 68 82 69 55 70 42 71 43 72 48 73 44 74 45 75
REMARK SMILES IDX 47 76 49 77 46 78 68 79 69 80 74 81 70 82 71 83 73 84 75 85
REMARK SMILES IDX 72 86 56 87 57 88 62 89 58 90 59 91 61 92 63 93 60 94
REMARK H PARENT 11 18 80 56 54 67
REMARK Flexibility Score: inf
ROOT
ATOM      1  C   UNL     1       0.580   6.840  -1.129  1.00  0.00     0.188 C 
ENDROOT
BRANCH   1   2
ATOM      2  C   UNL     1      -0.259   5.687  -1.663  1.00  0.00     0.188 C 
BRANCH   2   3
ATOM      3  O   UNL     1      -1.085   5.856  -2.811  1.00  0.00    -0.376 OA
BRANCH   3   4
ATOM      4  C   UNL     1      -1.744   4.638  -3.219  1.00  0.00     0.202 C 
BRANCH   4   5
ATOM      5  C   UNL     1      -2.877   3.978  -2.356  1.00  0.00     0.261 C 
BRANCH   5   6
ATOM      6  O   UNL     1      -2.893   4.090  -0.919  1.00  0.00    -0.463 OA
BRANCH   6   7
ATOM      7  C   UNL     1      -1.789   3.595  -0.405  1.00  0.00     0.310 C 
ATOM      8  O   UNL     1      -0.951   3.066  -1.133  1.00  0.00    -0.252 OA
BRANCH   7   9
ATOM      9  C   UNL     1      -1.477   3.908   1.024  1.00  0.00     0.119 C 
ATOM     10  C   UNL     1      -0.820   2.575   1.458  1.00  0.00     0.100 C 
ATOM     11  C   UNL     1      -1.269   2.423   2.905  1.00  0.00     0.025 C 
ATOM     12  C   UNL     1      -2.430   4.214   2.189  1.00  0.00     0.027 C 
ATOM     13  C   UNL     1      -2.747   2.030   2.800  1.00  0.00    -0.027 C 
ATOM     14  C   UNL     1      -1.478   3.864   3.360  1.00  0.00     0.017 C 
ATOM     15  C   UNL     1      -3.427   3.108   2.378  1.00  0.00    -0.027 C 
BRANCH  10  16
ATOM     16  C   UNL     1       0.628   2.631   1.007  1.00  0.00     0.228 C 
ATOM     17  N   UNL     1       1.115   1.671   0.144  1.00  0.00    -0.326 N 
ATOM     18  H   UNL     1       1.970   1.886  -0.293  1.00  0.00     0.169 HD
ATOM     19  O   UNL     1       1.367   3.567   1.324  1.00  0.00    -0.274 OA
BRANCH  17  20
ATOM     20  C   UNL     1       0.552   0.420  -0.198  1.00  0.00     0.044 A 
ATOM     21  C   UNL     1       2.822  -0.683   0.165  1.00  0.00     0.047 C 
ATOM     22  C   UNL     1       1.331  -0.725  -0.012  1.00  0.00    -0.021 A 
ATOM     23  C   UNL     1       0.679  -1.974   0.040  1.00  0.00     0.091 A 
ATOM     24  C   UNL     1      -0.707  -2.073  -0.160  1.00  0.00     0.269 A 
ATOM     25  C   UNL     1      -0.780   0.253  -0.614  1.00  0.00     0.033 A 
ATOM     26  C   UNL     1      -1.435  -0.967  -0.555  1.00  0.00     0.088 A 
BRANCH  24  27
ATOM     27  N   UNL     1      -1.409  -3.336   0.056  1.00  0.00     0.062 N 
ATOM     28  O   UNL     1      -0.723  -4.358   0.180  1.00  0.00    -0.258 OA
ATOM     29  O   UNL     1      -2.647  -3.303   0.117  1.00  0.00    -0.258 OA
ENDBRANCH  24  27
ENDBRANCH  17  20
ENDBRANCH  10  16
ENDBRANCH   7   9
ENDBRANCH   6   7
ENDBRANCH   5   6
ENDBRANCH   4   5
ENDBRANCH   3   4
ENDBRANCH   2   3
ENDBRANCH   1   2
BRANCH   1  30
ATOM     30  O   UNL     1      -0.206   7.882  -0.546  1.00  0.00    -0.377 OA
BRANCH  30  31
ATOM     31  C   UNL     1      -0.955   8.635  -1.495  1.00  0.00     0.188 C 
BRANCH  31  32
ATOM     32  C   UNL     1      -0.052   9.408  -2.437  1.00  0.00     0.188 C 
BRANCH  32  33
ATOM     33  O   UNL     1       0.357   8.560  -3.511  1.00  0.00    -0.376 OA
BRANCH  33  34
ATOM     34  C   UNL     1       1.592   8.919  -4.124  1.00  0.00     0.202 C 
BRANCH  34  35
ATOM     35  C   UNL     1       1.618  10.361  -4.645  1.00  0.00     0.261 C 
BRANCH  35  36
ATOM     36  O   UNL     1       0.649  10.496  -5.707  1.00  0.00    -0.460 OA
BRANCH  36  37
ATOM     37  C   UNL     1      -0.457  11.213  -5.401  1.00  0.00     0.338 C 
ATOM     38  O   UNL     1      -0.454  12.342  -4.896  1.00  0.00    -0.246 OA
BRANCH  37  39
ATOM     39  C   UNL     1      -1.671  10.358  -5.476  1.00  0.00     0.060 A 
ATOM     40  C   UNL     1      -2.897  10.833  -4.977  1.00  0.00     0.016 A 
ATOM     41  C   UNL     1      -1.505   8.996  -5.709  1.00  0.00     0.016 A 
ATOM     42  C   UNL     1      -3.894   9.933  -4.577  1.00  0.00     0.010 A 
ATOM     43  C   UNL     1      -2.430   8.116  -5.187  1.00  0.00     0.010 A 
ATOM     44  C   UNL     1      -3.625   8.564  -4.603  1.00  0.00    -0.014 A 
BRANCH  44  45
ATOM     45  C   UNL     1      -4.375   7.541  -3.848  1.00  0.00     0.031 A 
ATOM     46  C   UNL     1      -4.719   6.220  -4.509  1.00  0.00     0.074 A 
ATOM     47  C   UNL     1      -4.300   7.700  -2.505  1.00  0.00     0.049 A 
ATOM     48  N   UNL     1      -5.340   5.210  -3.984  1.00  0.00    -0.248 NA
ATOM     49  C   UNL     1      -4.429   5.967  -5.925  1.00  0.00     0.031 C 
ATOM     50  C   UNL     1      -3.924   6.701  -1.541  1.00  0.00     0.029 A 
ATOM     51  N   UNL     1      -4.311   8.820  -1.702  1.00  0.00    -0.354 N 
ATOM     52  C   UNL     1      -5.184   4.098  -4.824  1.00  0.00     0.074 A 
ATOM     53  C   UNL     1      -4.740   4.675  -6.065  1.00  0.00     0.031 C 
ATOM     54  C   UNL     1      -4.025   7.104  -0.276  1.00  0.00     0.029 A 
ATOM     55  C   UNL     1      -4.504   8.440  -0.359  1.00  0.00     0.049 A 
ATOM     56  H   UNL     1      -4.200   9.746  -2.019  1.00  0.00     0.167 HD
ATOM     57  C   UNL     1      -5.287   2.813  -4.331  1.00  0.00     0.037 A 
ATOM     58  C   UNL     1      -5.576   8.880   0.334  1.00  0.00     0.037 A 
ATOM     59  C   UNL     1      -5.763   2.815  -2.921  1.00  0.00     0.049 A 
ATOM     60  C   UNL     1      -6.619   7.771   0.429  1.00  0.00     0.074 A 
ATOM     61  C   UNL     1      -5.332   2.206  -1.750  1.00  0.00     0.029 A 
ATOM     62  N   UNL     1      -6.750   3.724  -2.512  1.00  0.00    -0.354 N 
ATOM     63  N   UNL     1      -6.632   6.703  -0.351  1.00  0.00    -0.248 NA
ATOM     64  C   UNL     1      -7.618   7.672   1.491  1.00  0.00     0.031 C 
ATOM     65  C   UNL     1      -5.909   2.897  -0.650  1.00  0.00     0.029 A 
ATOM     66  C   UNL     1      -6.790   3.847  -1.138  1.00  0.00     0.049 A 
ATOM     67  H   UNL     1      -7.341   4.213  -3.129  1.00  0.00     0.167 HD
ATOM     68  C   UNL     1      -7.585   5.814   0.078  1.00  0.00     0.074 A 
ATOM     69  C   UNL     1      -8.172   6.472   1.235  1.00  0.00     0.031 C 
ATOM     70  C   UNL     1      -7.852   4.590  -0.476  1.00  0.00     0.037 A 
BRANCH  57  71
ATOM     71  C   UNL     1      -4.711   1.514  -4.997  1.00  0.00     0.057 A 
ATOM     72  C   UNL     1      -4.819   0.249  -4.361  1.00  0.00     0.134 A 
ATOM     73  C   UNL     1      -3.956   1.437  -6.189  1.00  0.00     0.134 A 
ATOM     74  F   UNL     1      -5.565   0.074  -3.264  1.00  0.00    -0.206 F 
ATOM     75  C   UNL     1      -4.181  -0.929  -4.812  1.00  0.00     0.040 A 
ATOM     76  C   UNL     1      -3.363   0.253  -6.685  1.00  0.00     0.040 A 
ATOM     77  F   UNL     1      -3.706   2.499  -6.955  1.00  0.00    -0.206 F 
ATOM     78  C   UNL     1      -3.449  -0.934  -5.984  1.00  0.00     0.006 A 
ENDBRANCH  57  71
BRANCH  58  79
ATOM     79  C   UNL     1      -5.507  10.385   0.311  1.00  0.00     0.057 A 
ATOM     80  C   UNL     1      -4.350  10.865   0.990  1.00  0.00     0.134 A 
ATOM     81  C   UNL     1      -5.827  11.065  -0.880  1.00  0.00     0.134 A 
ATOM     82  F   UNL     1      -3.976  10.291   2.147  1.00  0.00    -0.206 F 
ATOM     83  C   UNL     1      -3.406  11.697   0.364  1.00  0.00     0.040 A 
ATOM     84  C   UNL     1      -4.895  11.930  -1.499  1.00  0.00     0.040 A 
ATOM     85  F   UNL     1      -6.894  10.692  -1.601  1.00  0.00    -0.206 F 
ATOM     86  C   UNL     1      -3.653  12.184  -0.913  1.00  0.00     0.006 A 
ENDBRANCH  58  79
BRANCH  70  87
ATOM     87  C   UNL     1      -9.199   3.898  -0.380  1.00  0.00     0.057 A 
ATOM     88  C   UNL     1     -10.396   4.606  -0.218  1.00  0.00     0.134 A 
ATOM     89  C   UNL     1      -9.357   2.525  -0.694  1.00  0.00     0.134 A 
ATOM     90  F   UNL     1     -10.408   5.934  -0.036  1.00  0.00    -0.206 F 
ATOM     91  C   UNL     1     -11.650   3.993  -0.304  1.00  0.00     0.040 A 
ATOM     92  C   UNL     1     -10.605   1.916  -0.840  1.00  0.00     0.040 A 
ATOM     93  F   UNL     1      -8.316   1.711  -0.919  1.00  0.00    -0.206 F 
ATOM     94  C   UNL     1     -11.759   2.648  -0.631  1.00  0.00     0.006 A 
ENDBRANCH  70  87
ENDBRANCH  44  45
ENDBRANCH  37  39
ENDBRANCH  36  37
ENDBRANCH  35  36
ENDBRANCH  34  35
ENDBRANCH  33  34
ENDBRANCH  32  33
ENDBRANCH  31  32
ENDBRANCH  30  31
ENDBRANCH   1  30
TORSDOF 23
