REMARK SMILES O=C(OCCOCCOCCOCCOC(=O)c1cccnc1-c1ccccn1)c1ccc(-c2c3nc(c(-c4c(F)cccc4F)c4ccc([nH]4)c(-c4c(F)cccc4F)c4nc(c(-c5c(F)cccc5F)c5ccc2[nH]5)C=C4)C=C3)cc1
REMARK SMILES IDX 8 1 7 2 6 3 5 4 4 5 3 6 2 7 1 8 30 9 31 10 83 11 32 12 82 13
REMARK SMILES IDX 33 14 34 15 35 16 76 17 36 18 81 19 75 20 77 21 37 22 80 23
REMARK SMILES IDX 74 24 73 25 38 27 64 28 47 29 63 30 48 31 51 32 62 33 78 34
REMARK SMILES IDX 49 35 50 36 61 38 79 39 52 40 39 41 40 42 45 43 41 44 42 45
REMARK SMILES IDX 44 46 46 47 43 48 65 49 66 50 71 51 67 52 68 53 70 54 72 55
REMARK SMILES IDX 69 56 53 57 54 58 59 59 55 60 56 61 58 62 60 63 57 64 9 65
REMARK SMILES IDX 10 66 11 67 12 68 13 69 14 70 15 71 16 72 17 73 18 74 19 75
REMARK SMILES IDX 23 76 20 77 22 78 21 79 24 80 25 81 29 82 26 83 28 84 27 85
REMARK H PARENT 77 26 51 37
REMARK Flexibility Score: inf
ROOT
ATOM      1  C   UNL     1       1.518  -2.223  -1.435  1.00  0.00     0.188 C 
ENDROOT
BRANCH   1   2
ATOM      2  C   UNL     1       1.925  -0.832  -0.968  1.00  0.00     0.188 C 
BRANCH   2   3
ATOM      3  O   UNL     1       3.174  -0.786  -0.278  1.00  0.00    -0.376 OA
BRANCH   3   4
ATOM      4  C   UNL     1       3.214  -1.295   1.049  1.00  0.00     0.202 C 
BRANCH   4   5
ATOM      5  C   UNL     1       3.641  -0.191   2.018  1.00  0.00     0.261 C 
BRANCH   5   6
ATOM      6  O   UNL     1       2.634   0.813   2.235  1.00  0.00    -0.460 OA
BRANCH   6   7
ATOM      7  C   UNL     1       1.982   1.462   1.244  1.00  0.00     0.338 C 
ATOM      8  O   UNL     1       0.757   1.553   1.274  1.00  0.00    -0.246 OA
BRANCH   7   9
ATOM      9  C   UNL     1       2.745   2.271   0.242  1.00  0.00     0.060 A 
ATOM     10  C   UNL     1       3.962   1.915  -0.355  1.00  0.00     0.016 A 
ATOM     11  C   UNL     1       2.125   3.460  -0.170  1.00  0.00     0.016 A 
ATOM     12  C   UNL     1       4.555   2.713  -1.329  1.00  0.00     0.010 A 
ATOM     13  C   UNL     1       2.727   4.285  -1.117  1.00  0.00     0.010 A 
ATOM     14  C   UNL     1       3.958   3.920  -1.674  1.00  0.00    -0.014 A 
BRANCH  14  15
ATOM     15  C   UNL     1       4.741   4.932  -2.397  1.00  0.00     0.031 A 
ATOM     16  C   UNL     1       5.429   5.967  -1.564  1.00  0.00     0.074 A 
ATOM     17  C   UNL     1       4.816   4.928  -3.736  1.00  0.00     0.049 A 
ATOM     18  N   UNL     1       5.991   7.088  -1.921  1.00  0.00    -0.248 NA
ATOM     19  C   UNL     1       5.472   5.701  -0.114  1.00  0.00     0.031 C 
ATOM     20  C   UNL     1       4.265   3.896  -4.612  1.00  0.00     0.029 A 
ATOM     21  N   UNL     1       5.369   5.843  -4.589  1.00  0.00    -0.354 N 
ATOM     22  C   UNL     1       6.414   7.680  -0.738  1.00  0.00     0.074 A 
ATOM     23  C   UNL     1       6.042   6.801   0.346  1.00  0.00     0.031 C 
ATOM     24  C   UNL     1       4.477   4.256  -5.889  1.00  0.00     0.029 A 
ATOM     25  C   UNL     1       5.124   5.566  -5.911  1.00  0.00     0.049 A 
ATOM     26  H   UNL     1       5.889   6.622  -4.286  1.00  0.00     0.167 HD
ATOM     27  C   UNL     1       7.042   8.866  -0.581  1.00  0.00     0.037 A 
ATOM     28  C   UNL     1       5.355   6.324  -6.999  1.00  0.00     0.037 A 
ATOM     29  C   UNL     1       7.373   9.722  -1.686  1.00  0.00     0.049 A 
ATOM     30  C   UNL     1       5.984   7.679  -6.802  1.00  0.00     0.074 A 
ATOM     31  C   UNL     1       7.977  10.963  -1.672  1.00  0.00     0.029 A 
ATOM     32  N   UNL     1       7.108   9.412  -3.015  1.00  0.00    -0.354 N 
ATOM     33  N   UNL     1       6.353   8.265  -5.685  1.00  0.00    -0.248 NA
ATOM     34  C   UNL     1       6.224   8.482  -8.007  1.00  0.00     0.031 C 
ATOM     35  C   UNL     1       8.032  11.427  -2.991  1.00  0.00     0.029 A 
ATOM     36  C   UNL     1       7.522  10.447  -3.832  1.00  0.00     0.049 A 
ATOM     37  H   UNL     1       6.688   8.579  -3.328  1.00  0.00     0.167 HD
ATOM     38  C   UNL     1       6.897   9.488  -6.052  1.00  0.00     0.074 A 
ATOM     39  C   UNL     1       6.808   9.560  -7.498  1.00  0.00     0.031 C 
ATOM     40  C   UNL     1       7.430  10.462  -5.272  1.00  0.00     0.037 A 
BRANCH  27  41
ATOM     41  C   UNL     1       7.314   9.308   0.828  1.00  0.00     0.057 A 
ATOM     42  C   UNL     1       8.232   8.648   1.657  1.00  0.00     0.134 A 
ATOM     43  C   UNL     1       6.590  10.368   1.388  1.00  0.00     0.134 A 
ATOM     44  F   UNL     1       8.937   7.604   1.195  1.00  0.00    -0.206 F 
ATOM     45  C   UNL     1       8.384   8.994   3.001  1.00  0.00     0.040 A 
ATOM     46  C   UNL     1       6.756  10.744   2.722  1.00  0.00     0.040 A 
ATOM     47  F   UNL     1       5.689  11.041   0.656  1.00  0.00    -0.206 F 
ATOM     48  C   UNL     1       7.645  10.047   3.537  1.00  0.00     0.006 A 
ENDBRANCH  27  41
BRANCH  28  49
ATOM     49  C   UNL     1       4.963   5.831  -8.343  1.00  0.00     0.057 A 
ATOM     50  C   UNL     1       5.924   5.479  -9.297  1.00  0.00     0.134 A 
ATOM     51  C   UNL     1       3.617   5.671  -8.700  1.00  0.00     0.134 A 
ATOM     52  F   UNL     1       7.229   5.627  -9.025  1.00  0.00    -0.206 F 
ATOM     53  C   UNL     1       5.563   4.991 -10.555  1.00  0.00     0.040 A 
ATOM     54  C   UNL     1       3.242   5.162  -9.945  1.00  0.00     0.040 A 
ATOM     55  F   UNL     1       2.644   5.987  -7.832  1.00  0.00    -0.206 F 
ATOM     56  C   UNL     1       4.218   4.823 -10.879  1.00  0.00     0.006 A 
ENDBRANCH  28  49
BRANCH  40  57
ATOM     57  C   UNL     1       8.015  11.655  -5.967  1.00  0.00     0.057 A 
ATOM     58  C   UNL     1       7.215  12.651  -6.538  1.00  0.00     0.134 A 
ATOM     59  C   UNL     1       9.403  11.850  -5.974  1.00  0.00     0.134 A 
ATOM     60  F   UNL     1       5.880  12.517  -6.569  1.00  0.00    -0.206 F 
ATOM     61  C   UNL     1       7.777  13.797  -7.102  1.00  0.00     0.040 A 
ATOM     62  C   UNL     1       9.974  13.003  -6.509  1.00  0.00     0.040 A 
ATOM     63  F   UNL     1      10.222  10.936  -5.430  1.00  0.00    -0.206 F 
ATOM     64  C   UNL     1       9.159  13.980  -7.077  1.00  0.00     0.006 A 
ENDBRANCH  40  57
ENDBRANCH  14  15
ENDBRANCH   7   9
ENDBRANCH   6   7
ENDBRANCH   5   6
ENDBRANCH   4   5
ENDBRANCH   3   4
ENDBRANCH   2   3
ENDBRANCH   1   2
BRANCH   1  65
ATOM     65  O   UNL     1       2.398  -2.881  -2.329  1.00  0.00    -0.377 OA
BRANCH  65  66
ATOM     66  C   UNL     1       3.784  -2.762  -2.080  1.00  0.00     0.188 C 
BRANCH  66  67
ATOM     67  C   UNL     1       4.530  -1.752  -2.978  1.00  0.00     0.188 C 
BRANCH  67  68
ATOM     68  O   UNL     1       3.837  -1.095  -4.028  1.00  0.00    -0.376 OA
BRANCH  68  69
ATOM     69  C   UNL     1       2.965  -1.851  -4.856  1.00  0.00     0.202 C 
BRANCH  69  70
ATOM     70  C   UNL     1       3.404  -3.215  -5.432  1.00  0.00     0.261 C 
BRANCH  70  71
ATOM     71  O   UNL     1       3.919  -4.173  -4.487  1.00  0.00    -0.460 OA
BRANCH  71  72
ATOM     72  C   UNL     1       5.233  -4.538  -4.604  1.00  0.00     0.340 C 
ATOM     73  O   UNL     1       6.003  -4.182  -5.457  1.00  0.00    -0.246 OA
BRANCH  72  74
ATOM     74  C   UNL     1       5.549  -5.498  -3.510  1.00  0.00     0.088 A 
ATOM     75  C   UNL     1       4.795  -6.681  -3.444  1.00  0.00     0.019 A 
ATOM     76  C   UNL     1       6.481  -5.249  -2.490  1.00  0.00     0.103 A 
ATOM     77  C   UNL     1       5.018  -7.596  -2.418  1.00  0.00     0.021 A 
ATOM     78  N   UNL     1       6.696  -6.158  -1.483  1.00  0.00    -0.254 NA
ATOM     79  C   UNL     1       5.988  -7.304  -1.483  1.00  0.00     0.112 A 
BRANCH  76  80
ATOM     80  C   UNL     1       7.154  -3.960  -2.231  1.00  0.00     0.089 A 
ATOM     81  C   UNL     1       6.982  -3.316  -0.996  1.00  0.00     0.031 A 
ATOM     82  N   UNL     1       7.927  -3.426  -3.201  1.00  0.00    -0.255 NA
ATOM     83  C   UNL     1       7.586  -2.084  -0.763  1.00  0.00     0.004 A 
ATOM     84  C   UNL     1       8.532  -2.242  -2.938  1.00  0.00     0.112 A 
ATOM     85  C   UNL     1       8.384  -1.535  -1.754  1.00  0.00     0.020 A 
ENDBRANCH  76  80
ENDBRANCH  72  74
ENDBRANCH  71  72
ENDBRANCH  70  71
ENDBRANCH  69  70
ENDBRANCH  68  69
ENDBRANCH  67  68
ENDBRANCH  66  67
ENDBRANCH  65  66
ENDBRANCH   1  65
TORSDOF 21
