REMARK SMILES CCCCc1ncc(C[N@H+]2C[C@@H]3c4ccccc4OC[C@]3(C(=O)OCCOCCOCCOCCOC(=O)c3ccc(-c4c5nc(c(-c6c(F)cccc6F)c6ccc([nH]6)c(-c6c(F)cccc6F)c6nc(c(-c7c(F)cccc7F)c7ccc4[nH]7)C=C6)C=C5)cc3)C2)[nH]1
REMARK SMILES IDX 28 1 27 2 26 3 25 4 24 5 22 6 23 7 21 8 10 9 11 10 93 11
REMARK SMILES IDX 12 13 13 14 20 15 14 16 18 17 19 18 15 19 17 20 16 21 9 22
REMARK SMILES IDX 8 23 5 24 6 25 94 26 7 27 4 29 3 30 2 31 1 32 29 33 30 34
REMARK SMILES IDX 31 35 32 36 33 37 34 38 35 39 36 40 37 41 38 42 39 43 40 44
REMARK SMILES IDX 92 45 41 46 91 47 42 48 43 49 44 50 85 51 45 52 90 53 84 54
REMARK SMILES IDX 86 55 46 56 89 57 83 58 82 59 47 61 73 62 56 63 72 64 57 65
REMARK SMILES IDX 60 66 71 67 87 68 58 69 59 70 70 72 88 73 61 74 48 75 49 76
REMARK SMILES IDX 54 77 50 78 51 79 53 80 55 81 52 82 74 83 75 84 80 85 76 86
REMARK SMILES IDX 77 87 79 88 81 89 78 90 62 91 63 92 68 93 64 94 65 95 67 96
REMARK SMILES IDX 69 97 66 98
REMARK H PARENT 10 12 94 28 86 60 60 71
REMARK Flexibility Score: inf
ROOT
ATOM      1  C   UNL     1      -1.716  -7.618  -1.160  1.00  0.00     0.188 C 
ENDROOT
BRANCH   1   2
ATOM      2  O   UNL     1      -1.286  -8.344  -0.007  1.00  0.00    -0.376 OA
BRANCH   2   3
ATOM      3  C   UNL     1      -0.212  -7.743   0.715  1.00  0.00     0.202 C 
BRANCH   3   4
ATOM      4  C   UNL     1      -0.639  -6.617   1.680  1.00  0.00     0.261 C 
BRANCH   4   5
ATOM      5  O   UNL     1      -1.377  -5.607   0.967  1.00  0.00    -0.463 OA
BRANCH   5   6
ATOM      6  C   UNL     1      -1.361  -4.253   1.217  1.00  0.00     0.322 C 
ATOM      7  O   UNL     1      -0.659  -3.748   2.069  1.00  0.00    -0.251 OA
BRANCH   6   8
ATOM      8  C   UNL     1      -2.450  -3.612   0.309  1.00  0.00     0.162 C 
ATOM      9  N   UNL     1      -4.392  -2.972   1.668  1.00  0.00    -0.328 N 
ATOM     10  C   UNL     1      -4.340  -1.997   0.603  1.00  0.00     0.272 C 
ATOM     11  C   UNL     1      -3.700  -4.137   1.074  1.00  0.00     0.286 C 
ATOM     12  H   UNL     1      -5.324  -3.263   1.961  1.00  0.00     0.348 HD
ATOM     13  C   UNL     1      -2.930  -2.144  -0.017  1.00  0.00     0.105 C 
ATOM     14  C   UNL     1      -3.179  -1.847  -1.510  1.00  0.00     0.004 A 
ATOM     15  C   UNL     1      -1.871  -4.051  -1.054  1.00  0.00     0.255 C 
ATOM     16  C   UNL     1      -3.543  -0.575  -1.963  1.00  0.00     0.008 A 
ATOM     17  C   UNL     1      -3.185  -2.893  -2.443  1.00  0.00     0.123 A 
ATOM     18  O   UNL     1      -2.847  -4.158  -2.069  1.00  0.00    -0.492 OA
ATOM     19  C   UNL     1      -3.900  -0.379  -3.305  1.00  0.00     0.001 A 
ATOM     20  C   UNL     1      -3.530  -2.709  -3.776  1.00  0.00     0.047 A 
ATOM     21  C   UNL     1      -3.887  -1.441  -4.211  1.00  0.00     0.004 A 
BRANCH   9  22
ATOM     22  C   UNL     1      -3.988  -2.448   2.984  1.00  0.00     0.319 C 
BRANCH  22  23
ATOM     23  C   UNL     1      -2.906  -1.413   3.021  1.00  0.00     0.090 A 
ATOM     24  C   UNL     1      -0.858  -0.525   3.038  1.00  0.00     0.106 A 
ATOM     25  N   UNL     1      -1.679   0.495   2.897  1.00  0.00    -0.241 NA
ATOM     26  N   UNL     1      -1.573  -1.685   3.216  1.00  0.00    -0.341 N 
ATOM     27  C   UNL     1      -2.942  -0.036   2.917  1.00  0.00     0.140 A 
ATOM     28  H   UNL     1      -1.194  -2.564   3.445  1.00  0.00     0.168 HD
BRANCH  24  29
ATOM     29  C   UNL     1       0.636  -0.464   3.055  1.00  0.00     0.075 C 
BRANCH  29  30
ATOM     30  C   UNL     1       1.363  -1.377   2.061  1.00  0.00     0.008 C 
BRANCH  30  31
ATOM     31  C   UNL     1       0.933  -1.270   0.596  1.00  0.00    -0.003 C 
ATOM     32  C   UNL     1       1.240   0.077  -0.033  1.00  0.00     0.004 C 
ENDBRANCH  30  31
ENDBRANCH  29  30
ENDBRANCH  24  29
ENDBRANCH  22  23
ENDBRANCH   9  22
ENDBRANCH   6   8
ENDBRANCH   5   6
ENDBRANCH   4   5
ENDBRANCH   3   4
ENDBRANCH   2   3
ENDBRANCH   1   2
BRANCH   1  33
ATOM     33  C   UNL     1      -3.134  -7.059  -0.976  1.00  0.00     0.188 C 
BRANCH  33  34
ATOM     34  O   UNL     1      -4.054  -7.821  -0.216  1.00  0.00    -0.377 OA
BRANCH  34  35
ATOM     35  C   UNL     1      -4.097  -9.217  -0.440  1.00  0.00     0.188 C 
BRANCH  35  36
ATOM     36  C   UNL     1      -3.825  -9.755  -1.857  1.00  0.00     0.188 C 
BRANCH  36  37
ATOM     37  O   UNL     1      -3.876  -8.769  -2.881  1.00  0.00    -0.376 OA
BRANCH  37  38
ATOM     38  C   UNL     1      -5.001  -8.749  -3.744  1.00  0.00     0.202 C 
BRANCH  38  39
ATOM     39  C   UNL     1      -6.328  -8.284  -3.136  1.00  0.00     0.261 C 
BRANCH  39  40
ATOM     40  O   UNL     1      -6.765  -8.998  -1.974  1.00  0.00    -0.460 OA
BRANCH  40  41
ATOM     41  C   UNL     1      -6.993 -10.325  -2.084  1.00  0.00     0.338 C 
ATOM     42  O   UNL     1      -6.893 -11.016  -3.082  1.00  0.00    -0.246 OA
BRANCH  41  43
ATOM     43  C   UNL     1      -7.174 -10.831  -0.707  1.00  0.00     0.060 A 
ATOM     44  C   UNL     1      -8.036 -10.169   0.171  1.00  0.00     0.016 A 
ATOM     45  C   UNL     1      -6.386 -11.902  -0.261  1.00  0.00     0.016 A 
ATOM     46  C   UNL     1      -8.138 -10.602   1.490  1.00  0.00     0.010 A 
ATOM     47  C   UNL     1      -6.478 -12.327   1.066  1.00  0.00     0.010 A 
ATOM     48  C   UNL     1      -7.382 -11.701   1.937  1.00  0.00    -0.014 A 
BRANCH  48  49
ATOM     49  C   UNL     1      -7.752 -12.338   3.219  1.00  0.00     0.031 A 
ATOM     50  C   UNL     1      -6.999 -12.113   4.488  1.00  0.00     0.074 A 
ATOM     51  C   UNL     1      -8.836 -13.136   3.197  1.00  0.00     0.049 A 
ATOM     52  N   UNL     1      -7.323 -12.476   5.704  1.00  0.00    -0.248 NA
ATOM     53  C   UNL     1      -5.714 -11.411   4.386  1.00  0.00     0.031 C 
ATOM     54  C   UNL     1      -9.608 -13.464   1.995  1.00  0.00     0.029 A 
ATOM     55  N   UNL     1      -9.485 -13.796   4.204  1.00  0.00    -0.354 N 
ATOM     56  C   UNL     1      -6.298 -12.024   6.522  1.00  0.00     0.074 A 
ATOM     57  C   UNL     1      -5.313 -11.408   5.652  1.00  0.00     0.031 C 
ATOM     58  C   UNL     1     -10.649 -14.233   2.340  1.00  0.00     0.029 A 
ATOM     59  C   UNL     1     -10.608 -14.460   3.779  1.00  0.00     0.049 A 
ATOM     60  H   UNL     1      -9.178 -13.794   5.139  1.00  0.00     0.167 HD
ATOM     61  C   UNL     1      -6.202 -12.106   7.873  1.00  0.00     0.037 A 
ATOM     62  C   UNL     1     -11.520 -15.157   4.477  1.00  0.00     0.037 A 
ATOM     63  C   UNL     1      -7.177 -12.757   8.718  1.00  0.00     0.049 A 
ATOM     64  C   UNL     1     -11.383 -15.239   5.967  1.00  0.00     0.074 A 
ATOM     65  C   UNL     1      -7.199 -12.854  10.099  1.00  0.00     0.029 A 
ATOM     66  N   UNL     1      -8.292 -13.444   8.257  1.00  0.00    -0.354 N 
ATOM     67  N   UNL     1     -10.471 -14.709   6.745  1.00  0.00    -0.248 NA
ATOM     68  C   UNL     1     -12.416 -16.002   6.677  1.00  0.00     0.031 C 
ATOM     69  C   UNL     1      -8.296 -13.643  10.469  1.00  0.00     0.029 A 
ATOM     70  C   UNL     1      -8.991 -13.993   9.322  1.00  0.00     0.049 A 
ATOM     71  H   UNL     1      -8.550 -13.529   7.310  1.00  0.00     0.167 HD
ATOM     72  C   UNL     1     -10.832 -15.054   8.040  1.00  0.00     0.074 A 
ATOM     73  C   UNL     1     -12.061 -15.816   7.939  1.00  0.00     0.031 C 
ATOM     74  C   UNL     1     -10.203 -14.767   9.207  1.00  0.00     0.037 A 
BRANCH  61  75
ATOM     75  C   UNL     1      -4.999 -11.480   8.520  1.00  0.00     0.057 A 
ATOM     76  C   UNL     1      -4.023 -12.267   9.144  1.00  0.00     0.134 A 
ATOM     77  C   UNL     1      -4.824 -10.089   8.558  1.00  0.00     0.134 A 
ATOM     78  F   UNL     1      -4.131 -13.604   9.158  1.00  0.00    -0.206 F 
ATOM     79  C   UNL     1      -2.916 -11.695   9.776  1.00  0.00     0.040 A 
ATOM     80  C   UNL     1      -3.708  -9.507   9.165  1.00  0.00     0.040 A 
ATOM     81  F   UNL     1      -5.719  -9.275   7.979  1.00  0.00    -0.206 F 
ATOM     82  C   UNL     1      -2.752 -10.312   9.780  1.00  0.00     0.006 A 
ENDBRANCH  61  75
BRANCH  62  83
ATOM     83  C   UNL     1     -12.663 -15.784   3.774  1.00  0.00     0.057 A 
ATOM     84  C   UNL     1     -12.482 -16.884   2.928  1.00  0.00     0.134 A 
ATOM     85  C   UNL     1     -13.964 -15.293   3.929  1.00  0.00     0.134 A 
ATOM     86  F   UNL     1     -11.255 -17.388   2.725  1.00  0.00    -0.206 F 
ATOM     87  C   UNL     1     -13.554 -17.475   2.261  1.00  0.00     0.040 A 
ATOM     88  C   UNL     1     -15.049 -15.890   3.289  1.00  0.00     0.040 A 
ATOM     89  F   UNL     1     -14.198 -14.245   4.732  1.00  0.00    -0.206 F 
ATOM     90  C   UNL     1     -14.845 -16.984   2.450  1.00  0.00     0.006 A 
ENDBRANCH  62  83
BRANCH  74  91
ATOM     91  C   UNL     1     -10.858 -15.272  10.461  1.00  0.00     0.057 A 
ATOM     92  C   UNL     1     -11.469 -14.385  11.355  1.00  0.00     0.134 A 
ATOM     93  C   UNL     1     -10.907 -16.638  10.772  1.00  0.00     0.134 A 
ATOM     94  F   UNL     1     -11.454 -13.064  11.122  1.00  0.00    -0.206 F 
ATOM     95  C   UNL     1     -12.114 -14.838  12.507  1.00  0.00     0.040 A 
ATOM     96  C   UNL     1     -11.577 -17.106  11.904  1.00  0.00     0.040 A 
ATOM     97  F   UNL     1     -10.358 -17.544   9.948  1.00  0.00    -0.206 F 
ATOM     98  C   UNL     1     -12.181 -16.203  12.777  1.00  0.00     0.006 A 
ENDBRANCH  74  91
ENDBRANCH  48  49
ENDBRANCH  41  43
ENDBRANCH  40  41
ENDBRANCH  39  40
ENDBRANCH  38  39
ENDBRANCH  37  38
ENDBRANCH  36  37
ENDBRANCH  35  36
ENDBRANCH  34  35
ENDBRANCH  33  34
ENDBRANCH   1  33
TORSDOF 25
