REMARK SMILES C[C@H]1CN(C(=O)N2CC[NH+]([C@@H](C)C(=O)OCCOCCOCCOCCOC(=O)c3ccc(-c4c5nc(c(-c6c(F)cccc6F)c6ccc([nH]6)c(-c6c(F)cccc6F)c6nc(c(-c7c(F)cccc7F)c7ccc4[nH]7)C=C6)C=C5)cc3)CC2)C[C@@H]1C
REMARK SMILES IDX 22 1 21 2 20 3 19 4 18 5 17 6 16 7 15 8 13 9 14 10 11 11
REMARK SMILES IDX 12 12 10 13 1 14 2 15 3 16 87 17 4 18 86 19 88 20 5 21 6 22
REMARK SMILES IDX 7 23 8 24 85 25 9 26 84 27 23 29 24 30 25 31 26 32 27 33
REMARK SMILES IDX 28 34 29 35 30 36 31 37 83 38 32 39 82 40 33 41 34 42 35 43
REMARK SMILES IDX 76 44 36 45 81 46 75 47 77 48 37 49 80 50 74 51 73 52 38 54
REMARK SMILES IDX 64 55 47 56 63 57 48 58 51 59 62 60 78 61 49 62 50 63 61 65
REMARK SMILES IDX 79 66 52 67 39 68 40 69 45 70 41 71 42 72 44 73 46 74 43 75
REMARK SMILES IDX 65 76 66 77 71 78 67 79 68 80 70 81 72 82 69 83 53 84 54 85
REMARK SMILES IDX 59 86 55 87 56 88 58 89 60 90 57 91
REMARK H PARENT 10 28 77 53 51 64
REMARK Flexibility Score: inf
ROOT
ATOM      1  C   UNL     1      -4.325   0.248   7.164  1.00  0.00     0.188 C 
ENDROOT
BRANCH   1   2
ATOM      2  O   UNL     1      -4.412  -0.038   5.771  1.00  0.00    -0.377 OA
BRANCH   2   3
ATOM      3  C   UNL     1      -5.354   0.659   4.970  1.00  0.00     0.188 C 
BRANCH   3   4
ATOM      4  C   UNL     1      -6.846   0.485   5.306  1.00  0.00     0.188 C 
BRANCH   4   5
ATOM      5  O   UNL     1      -7.083   0.143   6.658  1.00  0.00    -0.376 OA
BRANCH   5   6
ATOM      6  C   UNL     1      -7.462  -1.173   7.018  1.00  0.00     0.202 C 
BRANCH   6   7
ATOM      7  C   UNL     1      -6.774  -2.413   6.432  1.00  0.00     0.261 C 
BRANCH   7   8
ATOM      8  O   UNL     1      -6.225  -2.255   5.127  1.00  0.00    -0.459 OA
BRANCH   8   9
ATOM      9  C   UNL     1      -7.015  -2.518   4.065  1.00  0.00     0.364 C 
ATOM     10  O   UNL     1      -8.189  -2.863   4.172  1.00  0.00    -0.245 OA
BRANCH   9  11
ATOM     11  C   UNL     1      -6.332  -2.276   2.699  1.00  0.00     0.292 C 
ATOM     12  C   UNL     1      -6.568  -3.498   1.822  1.00  0.00     0.088 C 
BRANCH  11  13
ATOM     13  N   UNL     1      -4.959  -1.708   2.717  1.00  0.00    -0.321 N 
ATOM     14  C   UNL     1       0.539  -1.247  -2.115  1.00  0.00     0.010 C 
ATOM     15  C   UNL     1       0.724  -1.357  -0.598  1.00  0.00     0.010 C 
ATOM     16  C   UNL     1      -0.611  -1.614   0.103  1.00  0.00     0.125 C 
ATOM     17  C   UNL     1       1.552  -2.594  -0.210  1.00  0.00     0.010 C 
ATOM     18  N   UNL     1      -0.726  -3.068   0.179  1.00  0.00    -0.324 N 
ATOM     19  C   UNL     1       0.508  -3.713  -0.253  1.00  0.00     0.125 C 
ATOM     20  C   UNL     1       2.147  -2.458   1.198  1.00  0.00     0.010 C 
ATOM     21  C   UNL     1      -1.636  -3.779   0.923  1.00  0.00     0.320 C 
ATOM     22  O   UNL     1      -1.471  -4.968   1.196  1.00  0.00    -0.248 OA
ATOM     23  N   UNL     1      -2.678  -3.063   1.464  1.00  0.00    -0.313 N 
ATOM     24  C   UNL     1      -3.163  -3.500   2.764  1.00  0.00     0.183 C 
ATOM     25  C   UNL     1      -3.678  -2.402   0.630  1.00  0.00     0.183 C 
ATOM     26  C   UNL     1      -3.891  -2.370   3.489  1.00  0.00     0.284 C 
ATOM     27  C   UNL     1      -4.436  -1.299   1.397  1.00  0.00     0.284 C 
ATOM     28  H   UNL     1      -5.186  -0.890   3.281  1.00  0.00     0.348 HD
ENDBRANCH  11  13
ENDBRANCH   9  11
ENDBRANCH   8   9
ENDBRANCH   7   8
ENDBRANCH   6   7
ENDBRANCH   5   6
ENDBRANCH   4   5
ENDBRANCH   3   4
ENDBRANCH   2   3
ENDBRANCH   1   2
BRANCH   1  29
ATOM     29  C   UNL     1      -4.973   1.502   7.803  1.00  0.00     0.188 C 
BRANCH  29  30
ATOM     30  O   UNL     1      -5.381   2.517   6.902  1.00  0.00    -0.376 OA
BRANCH  30  31
ATOM     31  C   UNL     1      -4.558   3.667   6.787  1.00  0.00     0.202 C 
BRANCH  31  32
ATOM     32  C   UNL     1      -3.148   3.450   6.216  1.00  0.00     0.261 C 
BRANCH  32  33
ATOM     33  O   UNL     1      -2.321   2.529   6.945  1.00  0.00    -0.460 OA
BRANCH  33  34
ATOM     34  C   UNL     1      -2.001   2.869   8.209  1.00  0.00     0.338 C 
ATOM     35  O   UNL     1      -2.304   3.899   8.797  1.00  0.00    -0.246 OA
BRANCH  34  36
ATOM     36  C   UNL     1      -1.377   1.702   8.858  1.00  0.00     0.060 A 
ATOM     37  C   UNL     1      -2.010   1.136   9.972  1.00  0.00     0.016 A 
ATOM     38  C   UNL     1      -0.175   1.175   8.380  1.00  0.00     0.016 A 
ATOM     39  C   UNL     1      -1.420   0.064  10.636  1.00  0.00     0.010 A 
ATOM     40  C   UNL     1       0.427   0.114   9.062  1.00  0.00     0.010 A 
ATOM     41  C   UNL     1      -0.175  -0.421  10.215  1.00  0.00    -0.014 A 
BRANCH  41  42
ATOM     42  C   UNL     1       0.562  -1.358  11.096  1.00  0.00     0.031 A 
ATOM     43  C   UNL     1       1.627  -0.808  12.005  1.00  0.00     0.074 A 
ATOM     44  C   UNL     1       0.252  -2.665  11.134  1.00  0.00     0.049 A 
ATOM     45  N   UNL     1       2.372  -1.428  12.885  1.00  0.00    -0.248 NA
ATOM     46  C   UNL     1       1.885   0.637  11.908  1.00  0.00     0.031 C 
ATOM     47  C   UNL     1      -0.776  -3.314  10.323  1.00  0.00     0.029 A 
ATOM     48  N   UNL     1       0.777  -3.681  11.892  1.00  0.00    -0.354 N 
ATOM     49  C   UNL     1       3.189  -0.452  13.441  1.00  0.00     0.074 A 
ATOM     50  C   UNL     1       2.873   0.794  12.776  1.00  0.00     0.031 C 
ATOM     51  C   UNL     1      -0.801  -4.624  10.622  1.00  0.00     0.029 A 
ATOM     52  C   UNL     1       0.225  -4.908  11.624  1.00  0.00     0.049 A 
ATOM     53  H   UNL     1       1.484  -3.543  12.564  1.00  0.00     0.167 HD
ATOM     54  C   UNL     1       4.113  -0.579  14.423  1.00  0.00     0.037 A 
ATOM     55  C   UNL     1       0.526  -6.125  12.120  1.00  0.00     0.037 A 
ATOM     56  C   UNL     1       4.429  -1.821  15.079  1.00  0.00     0.049 A 
ATOM     57  C   UNL     1       1.595  -6.251  13.173  1.00  0.00     0.074 A 
ATOM     58  C   UNL     1       5.326  -2.048  16.109  1.00  0.00     0.029 A 
ATOM     59  N   UNL     1       3.873  -3.051  14.758  1.00  0.00    -0.354 N 
ATOM     60  N   UNL     1       2.329  -5.316  13.727  1.00  0.00    -0.248 NA
ATOM     61  C   UNL     1       1.867  -7.603  13.679  1.00  0.00     0.031 C 
ATOM     62  C   UNL     1       5.361  -3.423  16.364  1.00  0.00     0.029 A 
ATOM     63  C   UNL     1       4.434  -4.046  15.543  1.00  0.00     0.049 A 
ATOM     64  H   UNL     1       3.181  -3.195  14.073  1.00  0.00     0.167 HD
ATOM     65  C   UNL     1       3.133  -5.962  14.659  1.00  0.00     0.074 A 
ATOM     66  C   UNL     1       2.776  -7.364  14.614  1.00  0.00     0.031 C 
ATOM     67  C   UNL     1       4.082  -5.443  15.479  1.00  0.00     0.037 A 
BRANCH  54  68
ATOM     68  C   UNL     1       4.878   0.653  14.814  1.00  0.00     0.057 A 
ATOM     69  C   UNL     1       4.276   1.726  15.486  1.00  0.00     0.134 A 
ATOM     70  C   UNL     1       6.245   0.760  14.526  1.00  0.00     0.134 A 
ATOM     71  F   UNL     1       2.967   1.698  15.779  1.00  0.00    -0.206 F 
ATOM     72  C   UNL     1       4.999   2.871  15.830  1.00  0.00     0.040 A 
ATOM     73  C   UNL     1       6.985   1.885  14.893  1.00  0.00     0.040 A 
ATOM     74  F   UNL     1       6.886  -0.231  13.888  1.00  0.00    -0.206 F 
ATOM     75  C   UNL     1       6.359   2.949  15.539  1.00  0.00     0.006 A 
ENDBRANCH  54  68
BRANCH  55  76
ATOM     76  C   UNL     1      -0.184  -7.326  11.612  1.00  0.00     0.057 A 
ATOM     77  C   UNL     1      -1.058  -8.059  12.422  1.00  0.00     0.134 A 
ATOM     78  C   UNL     1       0.010  -7.780  10.300  1.00  0.00     0.134 A 
ATOM     79  F   UNL     1      -1.267  -7.692  13.695  1.00  0.00    -0.206 F 
ATOM     80  C   UNL     1      -1.701  -9.207  11.955  1.00  0.00     0.040 A 
ATOM     81  C   UNL     1      -0.648  -8.908   9.810  1.00  0.00     0.040 A 
ATOM     82  F   UNL     1       0.835  -7.123   9.473  1.00  0.00    -0.206 F 
ATOM     83  C   UNL     1      -1.501  -9.630  10.642  1.00  0.00     0.006 A 
ENDBRANCH  55  76
BRANCH  67  84
ATOM     84  C   UNL     1       4.782  -6.397  16.408  1.00  0.00     0.057 A 
ATOM     85  C   UNL     1       5.659  -7.384  15.939  1.00  0.00     0.134 A 
ATOM     86  C   UNL     1       4.578  -6.325  17.793  1.00  0.00     0.134 A 
ATOM     87  F   UNL     1       5.895  -7.516  14.625  1.00  0.00    -0.206 F 
ATOM     88  C   UNL     1       6.272  -8.291  16.807  1.00  0.00     0.040 A 
ATOM     89  C   UNL     1       5.212  -7.203  18.673  1.00  0.00     0.040 A 
ATOM     90  F   UNL     1       3.763  -5.396  18.315  1.00  0.00    -0.206 F 
ATOM     91  C   UNL     1       6.051  -8.199  18.180  1.00  0.00     0.006 A 
ENDBRANCH  67  84
ENDBRANCH  41  42
ENDBRANCH  34  36
ENDBRANCH  33  34
ENDBRANCH  32  33
ENDBRANCH  31  32
ENDBRANCH  30  31
ENDBRANCH  29  30
ENDBRANCH   1  29
TORSDOF 21
