REMARK SMILES O=C(OCCOCCOCCOCCOC(=O)c1nn(Cc2ccc(F)cc2)c2ccccc12)c1ccc(-c2c3nc(c(-c4c(F)cccc4F)c4ccc([nH]4)c(-c4c(F)cccc4F)c4nc(c(-c5c(F)cccc5F)c5ccc2[nH]5)C=C4)C=C3)cc1
REMARK SMILES IDX 9 1 8 2 7 3 6 4 5 5 4 6 3 7 2 8 1 9 35 10 36 11 88 12 37 13
REMARK SMILES IDX 87 14 38 15 39 16 40 17 81 18 41 19 86 20 80 21 82 22 42 23
REMARK SMILES IDX 85 24 79 25 78 26 43 28 69 29 52 30 68 31 53 32 56 33 67 34
REMARK SMILES IDX 83 35 54 36 55 37 66 39 84 40 57 41 44 42 45 43 50 44 46 45
REMARK SMILES IDX 47 46 49 47 51 48 48 49 70 50 71 51 76 52 72 53 73 54 75 55
REMARK SMILES IDX 77 56 74 57 58 58 59 59 64 60 60 61 61 62 63 63 65 64 62 65
REMARK SMILES IDX 10 66 11 67 12 68 13 69 14 70 15 71 16 72 17 73 18 74 19 75
REMARK SMILES IDX 34 76 20 77 29 78 33 79 30 80 32 81 31 82 21 83 22 84 23 85
REMARK SMILES IDX 28 86 24 87 27 88 25 89 26 90
REMARK H PARENT 82 27 56 38
REMARK Flexibility Score: inf
ROOT
ATOM      1  O   UNL     1       1.623  -2.983   1.372  1.00  0.00    -0.377 OA
ENDROOT
BRANCH   1   2
ATOM      2  C   UNL     1       0.904  -1.842   0.900  1.00  0.00     0.188 C 
BRANCH   2   3
ATOM      3  C   UNL     1       1.502  -0.517   1.377  1.00  0.00     0.188 C 
BRANCH   3   4
ATOM      4  O   UNL     1       2.778  -0.333   0.773  1.00  0.00    -0.376 OA
BRANCH   4   5
ATOM      5  C   UNL     1       3.807   0.141   1.631  1.00  0.00     0.202 C 
BRANCH   5   6
ATOM      6  C   UNL     1       3.926   1.661   1.529  1.00  0.00     0.261 C 
BRANCH   6   7
ATOM      7  O   UNL     1       4.494   2.044   0.262  1.00  0.00    -0.460 OA
BRANCH   7   8
ATOM      8  C   UNL     1       3.700   1.786  -0.810  1.00  0.00     0.338 C 
ATOM      9  O   UNL     1       2.587   2.248  -0.992  1.00  0.00    -0.246 OA
BRANCH   8  10
ATOM     10  C   UNL     1       4.358   0.750  -1.656  1.00  0.00     0.060 A 
ATOM     11  C   UNL     1       3.622   0.136  -2.674  1.00  0.00     0.016 A 
ATOM     12  C   UNL     1       5.657   0.298  -1.360  1.00  0.00     0.016 A 
ATOM     13  C   UNL     1       4.188  -0.922  -3.384  1.00  0.00     0.010 A 
ATOM     14  C   UNL     1       6.209  -0.775  -2.046  1.00  0.00     0.010 A 
ATOM     15  C   UNL     1       5.483  -1.374  -3.071  1.00  0.00    -0.014 A 
BRANCH  15  16
ATOM     16  C   UNL     1       6.183  -2.232  -4.031  1.00  0.00     0.031 A 
ATOM     17  C   UNL     1       6.447  -1.531  -5.285  1.00  0.00     0.074 A 
ATOM     18  C   UNL     1       6.630  -3.494  -3.866  1.00  0.00     0.049 A 
ATOM     19  N   UNL     1       5.806  -1.720  -6.387  1.00  0.00    -0.248 NA
ATOM     20  C   UNL     1       7.417  -0.428  -5.307  1.00  0.00     0.031 C 
ATOM     21  C   UNL     1       6.537  -4.204  -2.612  1.00  0.00     0.029 A 
ATOM     22  N   UNL     1       7.266  -4.398  -4.697  1.00  0.00    -0.354 N 
ATOM     23  C   UNL     1       6.555  -1.039  -7.319  1.00  0.00     0.074 A 
ATOM     24  C   UNL     1       7.372  -0.090  -6.598  1.00  0.00     0.031 C 
ATOM     25  C   UNL     1       7.118  -5.411  -2.712  1.00  0.00     0.029 A 
ATOM     26  C   UNL     1       7.649  -5.574  -4.049  1.00  0.00     0.049 A 
ATOM     27  H   UNL     1       7.432  -4.230  -5.653  1.00  0.00     0.167 HD
ATOM     28  C   UNL     1       6.776  -1.644  -8.511  1.00  0.00     0.037 A 
ATOM     29  C   UNL     1       8.304  -6.678  -4.494  1.00  0.00     0.037 A 
ATOM     30  C   UNL     1       5.830  -2.694  -8.794  1.00  0.00     0.049 A 
ATOM     31  C   UNL     1       7.917  -6.889  -5.906  1.00  0.00     0.074 A 
ATOM     32  C   UNL     1       4.492  -2.764  -9.118  1.00  0.00     0.029 A 
ATOM     33  N   UNL     1       6.206  -3.945  -8.388  1.00  0.00    -0.354 N 
ATOM     34  N   UNL     1       6.733  -7.305  -6.268  1.00  0.00    -0.248 NA
ATOM     35  C   UNL     1       8.748  -6.364  -6.985  1.00  0.00     0.031 C 
ATOM     36  C   UNL     1       4.072  -4.104  -8.870  1.00  0.00     0.029 A 
ATOM     37  C   UNL     1       5.157  -4.833  -8.400  1.00  0.00     0.049 A 
ATOM     38  H   UNL     1       7.123  -4.182  -8.118  1.00  0.00     0.167 HD
ATOM     39  C   UNL     1       6.512  -6.652  -7.461  1.00  0.00     0.074 A 
ATOM     40  C   UNL     1       7.827  -6.261  -7.945  1.00  0.00     0.031 C 
ATOM     41  C   UNL     1       5.291  -6.124  -7.757  1.00  0.00     0.037 A 
BRANCH  28  42
ATOM     42  C   UNL     1       8.132  -1.624  -9.141  1.00  0.00     0.057 A 
ATOM     43  C   UNL     1       9.329  -1.697  -8.396  1.00  0.00     0.134 A 
ATOM     44  C   UNL     1       8.251  -1.801 -10.520  1.00  0.00     0.134 A 
ATOM     45  F   UNL     1       9.329  -1.725  -7.056  1.00  0.00    -0.206 F 
ATOM     46  C   UNL     1      10.577  -1.851  -8.996  1.00  0.00     0.040 A 
ATOM     47  C   UNL     1       9.491  -2.018 -11.127  1.00  0.00     0.040 A 
ATOM     48  F   UNL     1       7.160  -1.829 -11.300  1.00  0.00    -0.206 F 
ATOM     49  C   UNL     1      10.659  -2.028 -10.368  1.00  0.00     0.006 A 
ENDBRANCH  28  42
BRANCH  29  50
ATOM     50  C   UNL     1       9.087  -7.667  -3.703  1.00  0.00     0.057 A 
ATOM     51  C   UNL     1       9.717  -7.307  -2.493  1.00  0.00     0.134 A 
ATOM     52  C   UNL     1       9.419  -8.939  -4.193  1.00  0.00     0.134 A 
ATOM     53  F   UNL     1       9.568  -6.083  -1.968  1.00  0.00    -0.206 F 
ATOM     54  C   UNL     1      10.588  -8.158  -1.804  1.00  0.00     0.040 A 
ATOM     55  C   UNL     1      10.308  -9.795  -3.523  1.00  0.00     0.040 A 
ATOM     56  F   UNL     1       8.937  -9.370  -5.368  1.00  0.00    -0.206 F 
ATOM     57  C   UNL     1      10.898  -9.405  -2.325  1.00  0.00     0.006 A 
ENDBRANCH  29  50
BRANCH  41  58
ATOM     58  C   UNL     1       4.070  -6.853  -7.284  1.00  0.00     0.057 A 
ATOM     59  C   UNL     1       3.187  -7.341  -8.260  1.00  0.00     0.134 A 
ATOM     60  C   UNL     1       3.713  -7.070  -5.948  1.00  0.00     0.134 A 
ATOM     61  F   UNL     1       3.455  -7.164  -9.564  1.00  0.00    -0.206 F 
ATOM     62  C   UNL     1       2.003  -8.005  -7.933  1.00  0.00     0.040 A 
ATOM     63  C   UNL     1       2.549  -7.776  -5.610  1.00  0.00     0.040 A 
ATOM     64  F   UNL     1       4.448  -6.585  -4.937  1.00  0.00    -0.206 F 
ATOM     65  C   UNL     1       1.685  -8.233  -6.601  1.00  0.00     0.006 A 
ENDBRANCH  41  58
ENDBRANCH  15  16
ENDBRANCH   8  10
ENDBRANCH   7   8
ENDBRANCH   6   7
ENDBRANCH   5   6
ENDBRANCH   4   5
ENDBRANCH   3   4
ENDBRANCH   2   3
ENDBRANCH   1   2
BRANCH   1  66
ATOM     66  C   UNL     1       2.940  -3.169   0.841  1.00  0.00     0.188 C 
BRANCH  66  67
ATOM     67  C   UNL     1       3.114  -2.894  -0.656  1.00  0.00     0.188 C 
BRANCH  67  68
ATOM     68  O   UNL     1       2.077  -3.521  -1.405  1.00  0.00    -0.376 OA
BRANCH  68  69
ATOM     69  C   UNL     1       2.529  -4.350  -2.460  1.00  0.00     0.202 C 
BRANCH  69  70
ATOM     70  C   UNL     1       2.189  -5.809  -2.142  1.00  0.00     0.261 C 
BRANCH  70  71
ATOM     71  O   UNL     1       2.617  -6.386  -0.888  1.00  0.00    -0.458 OA
BRANCH  71  72
ATOM     72  C   UNL     1       3.890  -6.165  -0.468  1.00  0.00     0.359 C 
ATOM     73  O   UNL     1       4.661  -5.401  -1.013  1.00  0.00    -0.244 OA
BRANCH  72  74
ATOM     74  C   UNL     1       4.293  -6.937   0.702  1.00  0.00     0.178 A 
ATOM     75  N   UNL     1       5.235  -6.483   1.554  1.00  0.00    -0.164 NA
ATOM     76  C   UNL     1       3.890  -8.253   1.029  1.00  0.00     0.035 A 
ATOM     77  N   UNL     1       5.384  -7.482   2.445  1.00  0.00    -0.260 N 
ATOM     78  C   UNL     1       4.675  -8.616   2.121  1.00  0.00     0.070 A 
ATOM     79  C   UNL     1       2.996  -9.186   0.473  1.00  0.00     0.013 A 
ATOM     80  C   UNL     1       4.625  -9.902   2.673  1.00  0.00     0.028 A 
ATOM     81  C   UNL     1       2.919 -10.462   1.026  1.00  0.00     0.001 A 
ATOM     82  C   UNL     1       3.728 -10.815   2.104  1.00  0.00     0.002 A 
BRANCH  77  83
ATOM     83  C   UNL     1       6.228  -7.261   3.614  1.00  0.00     0.180 C 
BRANCH  83  84
ATOM     84  C   UNL     1       5.420  -6.696   4.763  1.00  0.00    -0.026 A 
ATOM     85  C   UNL     1       4.497  -7.506   5.447  1.00  0.00     0.008 A 
ATOM     86  C   UNL     1       5.537  -5.345   5.129  1.00  0.00     0.008 A 
ATOM     87  C   UNL     1       3.690  -6.973   6.451  1.00  0.00     0.039 A 
ATOM     88  C   UNL     1       4.736  -4.817   6.145  1.00  0.00     0.039 A 
ATOM     89  C   UNL     1       3.815  -5.633   6.790  1.00  0.00     0.123 A 
ATOM     90  F   UNL     1       3.033  -5.121   7.748  1.00  0.00    -0.207 F 
ENDBRANCH  83  84
ENDBRANCH  77  83
ENDBRANCH  72  74
ENDBRANCH  71  72
ENDBRANCH  70  71
ENDBRANCH  69  70
ENDBRANCH  68  69
ENDBRANCH  67  68
ENDBRANCH  66  67
ENDBRANCH   1  66
TORSDOF 22
