REMARK SMILES Nc1ccc2c(c1)C(=O)N(CCC(=O)OCCOCCOCCOCCOC(=O)c1ccc(-c3c4nc(c(-c5c(F)cccc5F)c5ccc([nH]5)c(-c5c(F)cccc5F)c5nc(c(-c6c(F)cccc6F)c6ccc3[nH]6)C=C5)C=C4)cc1)C2
REMARK SMILES IDX 20 1 19 2 18 3 17 4 16 5 15 6 13 7 14 8 12 9 11 10 10 11
REMARK SMILES IDX 2 12 3 13 7 14 4 15 6 16 5 17 8 18 84 19 9 20 1 21 21 24
REMARK SMILES IDX 22 25 23 26 24 27 25 28 26 29 27 30 28 31 29 32 30 33 31 34
REMARK SMILES IDX 83 35 32 36 82 37 33 38 34 39 35 40 76 41 36 42 81 43 75 44
REMARK SMILES IDX 77 45 37 46 80 47 74 48 73 49 38 51 64 52 47 53 63 54 48 55
REMARK SMILES IDX 51 56 62 57 78 58 49 59 50 60 61 62 79 63 52 64 39 65 40 66
REMARK SMILES IDX 45 67 41 68 42 69 44 70 46 71 43 72 65 73 66 74 71 75 67 76
REMARK SMILES IDX 68 77 70 78 72 79 69 80 53 81 54 82 59 83 55 84 56 85 58 86
REMARK SMILES IDX 60 87 57 88
REMARK H PARENT 1 22 1 23 77 50 51 61
REMARK Flexibility Score: inf
ROOT
ATOM      1  C   UNL     1      -5.068  -6.315   3.341  1.00  0.00     0.188 C 
ENDROOT
BRANCH   1   2
ATOM      2  C   UNL     1      -4.601  -7.671   3.896  1.00  0.00     0.188 C 
BRANCH   2   3
ATOM      3  O   UNL     1      -3.802  -7.549   5.051  1.00  0.00    -0.376 OA
BRANCH   3   4
ATOM      4  C   UNL     1      -2.428  -7.872   4.978  1.00  0.00     0.202 C 
BRANCH   4   5
ATOM      5  C   UNL     1      -1.550  -7.444   3.786  1.00  0.00     0.261 C 
BRANCH   5   6
ATOM      6  O   UNL     1      -2.211  -6.861   2.649  1.00  0.00    -0.463 OA
BRANCH   6   7
ATOM      7  C   UNL     1      -2.185  -7.579   1.503  1.00  0.00     0.307 C 
ATOM      8  O   UNL     1      -1.763  -8.731   1.437  1.00  0.00    -0.252 OA
BRANCH   7   9
ATOM      9  C   UNL     1      -2.762  -6.891   0.284  1.00  0.00     0.144 C 
BRANCH   9  10
ATOM     10  C   UNL     1      -3.231  -5.441   0.287  1.00  0.00     0.132 C 
BRANCH  10  11
ATOM     11  N   UNL     1      -2.228  -4.410   0.458  1.00  0.00    -0.334 N 
ATOM     12  C   UNL     1       0.372  -0.593   0.533  1.00  0.00     0.032 A 
ATOM     13  C   UNL     1       0.605  -1.056   1.843  1.00  0.00     0.026 A 
ATOM     14  C   UNL     1      -0.551  -1.258  -0.277  1.00  0.00     0.039 A 
ATOM     15  C   UNL     1       0.016  -2.225   2.325  1.00  0.00     0.008 A 
ATOM     16  C   UNL     1      -1.117  -2.418   0.215  1.00  0.00     0.047 A 
ATOM     17  C   UNL     1      -0.838  -2.904   1.487  1.00  0.00    -0.016 A 
ATOM     18  C   UNL     1      -2.044  -3.356  -0.427  1.00  0.00     0.254 C 
ATOM     19  C   UNL     1      -1.577  -4.168   1.731  1.00  0.00     0.156 C 
ATOM     20  O   UNL     1      -2.547  -3.191  -1.526  1.00  0.00    -0.269 OA
BRANCH  12  21
ATOM     21  N   UNL     1       0.982   0.575   0.103  1.00  0.00    -0.399 N 
ATOM     22  H   UNL     1       1.631   1.034   0.684  1.00  0.00     0.156 HD
ATOM     23  H   UNL     1       0.767   0.946  -0.784  1.00  0.00     0.156 HD
ENDBRANCH  12  21
ENDBRANCH  10  11
ENDBRANCH   9  10
ENDBRANCH   7   9
ENDBRANCH   6   7
ENDBRANCH   5   6
ENDBRANCH   4   5
ENDBRANCH   3   4
ENDBRANCH   2   3
ENDBRANCH   1   2
BRANCH   1  24
ATOM     24  O   UNL     1      -4.286  -5.148   3.580  1.00  0.00    -0.377 OA
BRANCH  24  25
ATOM     25  C   UNL     1      -3.869  -4.817   4.905  1.00  0.00     0.188 C 
BRANCH  25  26
ATOM     26  C   UNL     1      -4.759  -5.159   6.118  1.00  0.00     0.188 C 
BRANCH  26  27
ATOM     27  O   UNL     1      -6.044  -5.638   5.777  1.00  0.00    -0.376 OA
BRANCH  27  28
ATOM     28  C   UNL     1      -7.117  -4.710   5.794  1.00  0.00     0.202 C 
BRANCH  28  29
ATOM     29  C   UNL     1      -7.000  -3.428   4.953  1.00  0.00     0.261 C 
BRANCH  29  30
ATOM     30  O   UNL     1      -5.846  -2.599   5.174  1.00  0.00    -0.460 OA
BRANCH  30  31
ATOM     31  C   UNL     1      -5.669  -2.047   6.394  1.00  0.00     0.338 C 
ATOM     32  O   UNL     1      -6.381  -2.172   7.371  1.00  0.00    -0.246 OA
BRANCH  31  33
ATOM     33  C   UNL     1      -4.336  -1.399   6.389  1.00  0.00     0.060 A 
ATOM     34  C   UNL     1      -4.053  -0.383   5.474  1.00  0.00     0.016 A 
ATOM     35  C   UNL     1      -3.355  -1.822   7.296  1.00  0.00     0.016 A 
ATOM     36  C   UNL     1      -2.797   0.233   5.491  1.00  0.00     0.010 A 
ATOM     37  C   UNL     1      -2.098  -1.205   7.309  1.00  0.00     0.010 A 
ATOM     38  C   UNL     1      -1.816  -0.153   6.425  1.00  0.00    -0.014 A 
BRANCH  38  39
ATOM     39  C   UNL     1      -0.588   0.672   6.585  1.00  0.00     0.031 A 
ATOM     40  C   UNL     1       0.762   0.224   6.103  1.00  0.00     0.074 A 
ATOM     41  C   UNL     1      -0.708   1.870   7.189  1.00  0.00     0.049 A 
ATOM     42  N   UNL     1       1.874   0.910   6.006  1.00  0.00    -0.248 NA
ATOM     43  C   UNL     1       0.883  -1.173   5.671  1.00  0.00     0.031 C 
ATOM     44  C   UNL     1      -1.948   2.406   7.754  1.00  0.00     0.029 A 
ATOM     45  N   UNL     1       0.218   2.854   7.424  1.00  0.00    -0.354 N 
ATOM     46  C   UNL     1       2.805   0.056   5.430  1.00  0.00     0.074 A 
ATOM     47  C   UNL     1       2.149  -1.225   5.270  1.00  0.00     0.031 C 
ATOM     48  C   UNL     1      -1.712   3.631   8.248  1.00  0.00     0.029 A 
ATOM     49  C   UNL     1      -0.303   3.957   8.055  1.00  0.00     0.049 A 
ATOM     50  H   UNL     1       1.164   2.777   7.165  1.00  0.00     0.167 HD
ATOM     51  C   UNL     1       4.080   0.323   5.049  1.00  0.00     0.037 A 
ATOM     52  C   UNL     1       0.290   5.103   8.435  1.00  0.00     0.037 A 
ATOM     53  C   UNL     1       4.770   1.557   5.321  1.00  0.00     0.049 A 
ATOM     54  C   UNL     1       1.750   5.310   8.134  1.00  0.00     0.074 A 
ATOM     55  C   UNL     1       6.071   1.908   5.002  1.00  0.00     0.029 A 
ATOM     56  N   UNL     1       4.231   2.623   6.023  1.00  0.00    -0.354 N 
ATOM     57  N   UNL     1       2.577   4.546   7.463  1.00  0.00    -0.248 NA
ATOM     58  C   UNL     1       2.354   6.551   8.639  1.00  0.00     0.031 C 
ATOM     59  C   UNL     1       6.339   3.160   5.568  1.00  0.00     0.029 A 
ATOM     60  C   UNL     1       5.186   3.615   6.186  1.00  0.00     0.049 A 
ATOM     61  H   UNL     1       3.307   2.670   6.357  1.00  0.00     0.167 HD
ATOM     62  C   UNL     1       3.787   5.230   7.435  1.00  0.00     0.074 A 
ATOM     63  C   UNL     1       3.576   6.480   8.134  1.00  0.00     0.031 C 
ATOM     64  C   UNL     1       4.967   4.857   6.882  1.00  0.00     0.037 A 
BRANCH  51  65
ATOM     65  C   UNL     1       4.813  -0.745   4.290  1.00  0.00     0.057 A 
ATOM     66  C   UNL     1       5.855  -1.476   4.870  1.00  0.00     0.134 A 
ATOM     67  C   UNL     1       4.515  -1.005   2.945  1.00  0.00     0.134 A 
ATOM     68  F   UNL     1       6.219  -1.251   6.141  1.00  0.00    -0.206 F 
ATOM     69  C   UNL     1       6.559  -2.441   4.146  1.00  0.00     0.040 A 
ATOM     70  C   UNL     1       5.187  -1.991   2.221  1.00  0.00     0.040 A 
ATOM     71  F   UNL     1       3.570  -0.296   2.312  1.00  0.00    -0.206 F 
ATOM     72  C   UNL     1       6.216  -2.712   2.822  1.00  0.00     0.006 A 
ENDBRANCH  51  65
BRANCH  52  73
ATOM     73  C   UNL     1      -0.483   6.156   9.143  1.00  0.00     0.057 A 
ATOM     74  C   UNL     1      -0.971   5.954  10.439  1.00  0.00     0.134 A 
ATOM     75  C   UNL     1      -0.686   7.416   8.567  1.00  0.00     0.134 A 
ATOM     76  F   UNL     1      -0.817   4.768  11.045  1.00  0.00    -0.206 F 
ATOM     77  C   UNL     1      -1.621   6.969  11.142  1.00  0.00     0.040 A 
ATOM     78  C   UNL     1      -1.304   8.451   9.271  1.00  0.00     0.040 A 
ATOM     79  F   UNL     1      -0.226   7.677   7.334  1.00  0.00    -0.206 F 
ATOM     80  C   UNL     1      -1.773   8.228  10.563  1.00  0.00     0.006 A 
ENDBRANCH  52  73
BRANCH  64  81
ATOM     81  C   UNL     1       6.107   5.832   6.984  1.00  0.00     0.057 A 
ATOM     82  C   UNL     1       6.596   6.479   5.841  1.00  0.00     0.134 A 
ATOM     83  C   UNL     1       6.722   6.132   8.207  1.00  0.00     0.134 A 
ATOM     84  F   UNL     1       6.061   6.232   4.636  1.00  0.00    -0.206 F 
ATOM     85  C   UNL     1       7.648   7.393   5.912  1.00  0.00     0.040 A 
ATOM     86  C   UNL     1       7.753   7.070   8.295  1.00  0.00     0.040 A 
ATOM     87  F   UNL     1       6.295   5.558   9.342  1.00  0.00    -0.206 F 
ATOM     88  C   UNL     1       8.222   7.699   7.144  1.00  0.00     0.006 A 
ENDBRANCH  64  81
ENDBRANCH  38  39
ENDBRANCH  31  33
ENDBRANCH  30  31
ENDBRANCH  29  30
ENDBRANCH  28  29
ENDBRANCH  27  28
ENDBRANCH  26  27
ENDBRANCH  25  26
ENDBRANCH  24  25
ENDBRANCH   1  24
TORSDOF 23
