REMARK SMILES O=C(COc1ccccc1/C=C1/SC(=O)N(c2ccc(F)cc2)C1=O)OCCOCCOCCOCCOC(=O)c1ccc(-c2c3nc(c(-c4c(F)cccc4F)c4ccc([nH]4)c(-c4c(F)cccc4F)c4nc(c(-c5c(F)cccc5F)c5ccc2[nH]5)C=C4)C=C3)cc1
REMARK SMILES IDX 31 1 30 2 29 3 28 4 27 5 26 6 2 7 1 8 3 9 4 10 5 11 6 12
REMARK SMILES IDX 10 13 7 14 9 15 8 16 11 17 12 18 13 19 24 20 14 21 16 22
REMARK SMILES IDX 25 23 15 24 17 25 18 26 23 27 19 28 22 29 20 30 21 31 32 32
REMARK SMILES IDX 33 33 34 34 35 35 36 36 37 37 38 38 39 39 40 40 41 41 42 42
REMARK SMILES IDX 94 43 43 44 93 45 44 46 45 47 46 48 87 49 47 50 92 51 86 52
REMARK SMILES IDX 88 53 48 54 91 55 85 56 84 57 49 59 75 60 58 61 74 62 59 63
REMARK SMILES IDX 62 64 73 65 89 66 60 67 61 68 72 70 90 71 63 72 50 73 51 74
REMARK SMILES IDX 56 75 52 76 53 77 55 78 57 79 54 80 76 81 77 82 82 83 78 84
REMARK SMILES IDX 79 85 81 86 83 87 80 88 64 89 65 90 70 91 66 92 67 93 69 94
REMARK SMILES IDX 71 95 68 96
REMARK H PARENT 88 58 62 69
REMARK Flexibility Score: inf
ROOT
ATOM      1  C   UNL     1       2.088  -1.005   2.310  1.00  0.00     0.188 C 
ENDROOT
BRANCH   1   2
ATOM      2  C   UNL     1       2.740  -2.117   1.449  1.00  0.00     0.188 C 
BRANCH   2   3
ATOM      3  O   UNL     1       4.130  -2.055   1.170  1.00  0.00    -0.376 OA
BRANCH   3   4
ATOM      4  C   UNL     1       4.820  -1.208   0.285  1.00  0.00     0.202 C 
BRANCH   4   5
ATOM      5  C   UNL     1       4.324   0.186  -0.051  1.00  0.00     0.261 C 
BRANCH   5   6
ATOM      6  O   UNL     1       2.903   0.356  -0.099  1.00  0.00    -0.461 OA
BRANCH   6   7
ATOM      7  C   UNL     1       2.050  -0.344  -0.885  1.00  0.00     0.344 C 
ATOM      8  O   UNL     1       0.847  -0.361  -0.638  1.00  0.00    -0.248 OA
BRANCH   7   9
ATOM      9  C   UNL     1       2.642  -1.075  -2.052  1.00  0.00     0.351 C 
BRANCH   9  10
ATOM     10  O   UNL     1       3.577  -0.215  -2.696  1.00  0.00    -0.481 OA
BRANCH  10  11
ATOM     11  C   UNL     1       2.983   0.434  -3.742  1.00  0.00     0.127 A 
ATOM     12  C   UNL     1       3.275  -0.128  -4.987  1.00  0.00     0.047 A 
ATOM     13  C   UNL     1       2.134   1.552  -3.608  1.00  0.00     0.018 A 
ATOM     14  C   UNL     1       2.656   0.366  -6.123  1.00  0.00     0.004 A 
ATOM     15  C   UNL     1       1.505   2.017  -4.766  1.00  0.00     0.012 A 
ATOM     16  C   UNL     1       1.759   1.425  -6.009  1.00  0.00     0.001 A 
BRANCH  13  17
ATOM     17  C   UNL     1       1.786   2.239  -2.344  1.00  0.00     0.033 C 
ATOM     18  C   UNL     1       2.592   2.954  -1.542  1.00  0.00     0.084 C 
ATOM     19  S   UNL     1       2.124   3.523   0.021  1.00  0.00    -0.022 SA
ATOM     20  C   UNL     1       4.037   3.232  -1.749  1.00  0.00     0.272 C 
ATOM     21  C   UNL     1       3.801   3.640   0.554  1.00  0.00     0.298 C 
ATOM     22  N   UNL     1       4.640   3.564  -0.537  1.00  0.00    -0.236 N 
ATOM     23  O   UNL     1       4.580   3.098  -2.837  1.00  0.00    -0.268 OA
ATOM     24  O   UNL     1       4.089   3.765   1.736  1.00  0.00    -0.260 OA
BRANCH  22  25
ATOM     25  C   UNL     1       6.061   3.681  -0.444  1.00  0.00     0.053 A 
ATOM     26  C   UNL     1       6.787   4.241  -1.509  1.00  0.00     0.030 A 
ATOM     27  C   UNL     1       6.778   3.177   0.655  1.00  0.00     0.030 A 
ATOM     28  C   UNL     1       8.182   4.242  -1.514  1.00  0.00     0.041 A 
ATOM     29  C   UNL     1       8.179   3.154   0.637  1.00  0.00     0.041 A 
ATOM     30  C   UNL     1       8.866   3.677  -0.451  1.00  0.00     0.123 A 
ATOM     31  F   UNL     1      10.203   3.627  -0.480  1.00  0.00    -0.207 F 
ENDBRANCH  22  25
ENDBRANCH  13  17
ENDBRANCH  10  11
ENDBRANCH   9  10
ENDBRANCH   7   9
ENDBRANCH   6   7
ENDBRANCH   5   6
ENDBRANCH   4   5
ENDBRANCH   3   4
ENDBRANCH   2   3
ENDBRANCH   1   2
BRANCH   1  32
ATOM     32  O   UNL     1       2.688  -0.661   3.552  1.00  0.00    -0.377 OA
BRANCH  32  33
ATOM     33  C   UNL     1       4.041  -0.242   3.491  1.00  0.00     0.188 C 
BRANCH  33  34
ATOM     34  C   UNL     1       5.030  -1.385   3.768  1.00  0.00     0.188 C 
BRANCH  34  35
ATOM     35  O   UNL     1       4.459  -2.675   3.637  1.00  0.00    -0.376 OA
BRANCH  35  36
ATOM     36  C   UNL     1       3.903  -3.299   4.784  1.00  0.00     0.202 C 
BRANCH  36  37
ATOM     37  C   UNL     1       2.868  -2.555   5.652  1.00  0.00     0.261 C 
BRANCH  37  38
ATOM     38  O   UNL     1       3.265  -1.282   6.189  1.00  0.00    -0.460 OA
BRANCH  38  39
ATOM     39  C   UNL     1       4.414  -1.224   6.894  1.00  0.00     0.338 C 
ATOM     40  O   UNL     1       5.118  -2.145   7.243  1.00  0.00    -0.246 OA
BRANCH  39  41
ATOM     41  C   UNL     1       4.807   0.202   6.975  1.00  0.00     0.060 A 
ATOM     42  C   UNL     1       6.084   0.570   6.523  1.00  0.00     0.016 A 
ATOM     43  C   UNL     1       3.935   1.157   7.500  1.00  0.00     0.016 A 
ATOM     44  C   UNL     1       6.518   1.883   6.654  1.00  0.00     0.010 A 
ATOM     45  C   UNL     1       4.385   2.467   7.673  1.00  0.00     0.010 A 
ATOM     46  C   UNL     1       5.700   2.811   7.308  1.00  0.00    -0.014 A 
BRANCH  46  47
ATOM     47  C   UNL     1       6.351   3.990   7.918  1.00  0.00     0.031 A 
ATOM     48  C   UNL     1       6.816   3.854   9.344  1.00  0.00     0.074 A 
ATOM     49  C   UNL     1       6.594   5.109   7.218  1.00  0.00     0.049 A 
ATOM     50  N   UNL     1       7.424   4.720  10.112  1.00  0.00    -0.248 NA
ATOM     51  C   UNL     1       6.559   2.555   9.992  1.00  0.00     0.031 C 
ATOM     52  C   UNL     1       6.248   5.326   5.815  1.00  0.00     0.029 A 
ATOM     53  N   UNL     1       7.202   6.275   7.604  1.00  0.00    -0.354 N 
ATOM     54  C   UNL     1       7.604   4.076  11.331  1.00  0.00     0.074 A 
ATOM     55  C   UNL     1       7.016   2.762  11.215  1.00  0.00     0.031 C 
ATOM     56  C   UNL     1       6.651   6.559   5.457  1.00  0.00     0.029 A 
ATOM     57  C   UNL     1       7.253   7.222   6.613  1.00  0.00     0.049 A 
ATOM     58  H   UNL     1       7.567   6.418   8.507  1.00  0.00     0.167 HD
ATOM     59  C   UNL     1       8.213   4.535  12.448  1.00  0.00     0.037 A 
ATOM     60  C   UNL     1       7.723   8.483   6.652  1.00  0.00     0.037 A 
ATOM     61  C   UNL     1       8.796   5.845  12.555  1.00  0.00     0.049 A 
ATOM     62  C   UNL     1       8.329   9.001   7.932  1.00  0.00     0.074 A 
ATOM     63  C   UNL     1       9.447   6.414  13.633  1.00  0.00     0.029 A 
ATOM     64  N   UNL     1       8.785   6.794  11.543  1.00  0.00    -0.354 N 
ATOM     65  N   UNL     1       8.511   8.385   9.076  1.00  0.00    -0.248 NA
ATOM     66  C   UNL     1       8.804  10.392   7.920  1.00  0.00     0.031 C 
ATOM     67  C   UNL     1       9.775   7.731  13.296  1.00  0.00     0.029 A 
ATOM     68  C   UNL     1       9.396   7.956  11.981  1.00  0.00     0.049 A 
ATOM     69  H   UNL     1       8.400   6.661  10.647  1.00  0.00     0.167 HD
ATOM     70  C   UNL     1       9.163   9.294   9.902  1.00  0.00     0.074 A 
ATOM     71  C   UNL     1       9.346  10.502   9.124  1.00  0.00     0.031 C 
ATOM     72  C   UNL     1       9.582   9.143  11.184  1.00  0.00     0.037 A 
BRANCH  59  73
ATOM     73  C   UNL     1       8.225   3.631  13.647  1.00  0.00     0.057 A 
ATOM     74  C   UNL     1       8.972   2.446  13.687  1.00  0.00     0.134 A 
ATOM     75  C   UNL     1       7.465   3.950  14.779  1.00  0.00     0.134 A 
ATOM     76  F   UNL     1       9.705   2.067  12.628  1.00  0.00    -0.206 F 
ATOM     77  C   UNL     1       8.936   1.596  14.794  1.00  0.00     0.040 A 
ATOM     78  C   UNL     1       7.446   3.126  15.905  1.00  0.00     0.040 A 
ATOM     79  F   UNL     1       6.724   5.069  14.809  1.00  0.00    -0.206 F 
ATOM     80  C   UNL     1       8.176   1.939  15.910  1.00  0.00     0.006 A 
ENDBRANCH  59  73
BRANCH  60  81
ATOM     81  C   UNL     1       7.651   9.344   5.444  1.00  0.00     0.057 A 
ATOM     82  C   UNL     1       8.810   9.751   4.773  1.00  0.00     0.134 A 
ATOM     83  C   UNL     1       6.425   9.804   4.947  1.00  0.00     0.134 A 
ATOM     84  F   UNL     1      10.016   9.364   5.214  1.00  0.00    -0.206 F 
ATOM     85  C   UNL     1       8.756  10.599   3.665  1.00  0.00     0.040 A 
ATOM     86  C   UNL     1       6.354  10.629   3.823  1.00  0.00     0.040 A 
ATOM     87  F   UNL     1       5.277   9.452   5.544  1.00  0.00    -0.206 F 
ATOM     88  C   UNL     1       7.523  11.036   3.184  1.00  0.00     0.006 A 
ENDBRANCH  60  81
BRANCH  72  89
ATOM     89  C   UNL     1      10.343  10.283  11.800  1.00  0.00     0.057 A 
ATOM     90  C   UNL     1       9.737  11.502  12.128  1.00  0.00     0.134 A 
ATOM     91  C   UNL     1      11.706  10.139  12.099  1.00  0.00     0.134 A 
ATOM     92  F   UNL     1       8.438  11.709  11.863  1.00  0.00    -0.206 F 
ATOM     93  C   UNL     1      10.466  12.550  12.692  1.00  0.00     0.040 A 
ATOM     94  C   UNL     1      12.436  11.167  12.696  1.00  0.00     0.040 A 
ATOM     95  F   UNL     1      12.347   8.992  11.827  1.00  0.00    -0.206 F 
ATOM     96  C   UNL     1      11.819  12.381  12.984  1.00  0.00     0.006 A 
ENDBRANCH  72  89
ENDBRANCH  46  47
ENDBRANCH  39  41
ENDBRANCH  38  39
ENDBRANCH  37  38
ENDBRANCH  36  37
ENDBRANCH  35  36
ENDBRANCH  34  35
ENDBRANCH  33  34
ENDBRANCH  32  33
ENDBRANCH   1  32
TORSDOF 24
