REMARK SMILES Cc1c(Br)c(C)c2c(c1Br)O[C@H](C(F)(F)F)C(C(=O)OCCOCCOCCOCCOC(=O)c1ccc(-c3c4nc(c(-c5c(F)cccc5F)c5ccc([nH]5)c(-c5c(F)cccc5F)c5nc(c(-c6c(F)cccc6F)c6ccc3[nH]6)C=C5)C=C4)cc1)=C2
REMARK SMILES IDX 27 1 26 2 25 3 24 4 23 5 22 6 21 7 20 8 18 9 19 10 17 11
REMARK SMILES IDX 1 12 2 13 3 14 9 15 4 16 5 17 8 18 10 19 6 20 7 21 11 22
REMARK SMILES IDX 89 23 12 24 13 25 14 26 15 27 16 28 28 29 29 30 30 31 31 32
REMARK SMILES IDX 32 33 33 34 34 35 35 36 36 37 88 38 37 39 87 40 38 41 39 42
REMARK SMILES IDX 40 43 81 44 41 45 86 46 80 47 82 48 42 49 85 50 79 51 78 52
REMARK SMILES IDX 43 54 69 55 52 56 68 57 53 58 56 59 67 60 83 61 54 62 55 63
REMARK SMILES IDX 66 65 84 66 57 67 44 68 45 69 50 70 46 71 47 72 49 73 51 74
REMARK SMILES IDX 48 75 70 76 71 77 76 78 72 79 73 80 75 81 77 82 74 83 58 84
REMARK SMILES IDX 59 85 64 86 60 87 61 88 63 89 65 90 62 91
REMARK H PARENT 82 53 56 64
REMARK Flexibility Score: inf
ROOT
ATOM      1  C   UNL     1       1.858  -9.743   3.668  1.00  0.00     0.188 C 
ENDROOT
BRANCH   1   2
ATOM      2  O   UNL     1       1.359  -8.758   2.761  1.00  0.00    -0.377 OA
BRANCH   2   3
ATOM      3  C   UNL     1       0.734  -7.612   3.319  1.00  0.00     0.188 C 
BRANCH   3   4
ATOM      4  C   UNL     1      -0.761  -7.830   3.628  1.00  0.00     0.188 C 
BRANCH   4   5
ATOM      5  O   UNL     1      -1.158  -9.183   3.724  1.00  0.00    -0.376 OA
BRANCH   5   6
ATOM      6  C   UNL     1      -1.458  -9.979   2.590  1.00  0.00     0.202 C 
BRANCH   6   7
ATOM      7  C   UNL     1      -0.999  -9.724   1.140  1.00  0.00     0.261 C 
BRANCH   7   8
ATOM      8  O   UNL     1      -0.501  -8.430   0.814  1.00  0.00    -0.460 OA
BRANCH   8   9
ATOM      9  C   UNL     1      -1.404  -7.481   0.512  1.00  0.00     0.338 C 
ATOM     10  O   UNL     1      -2.614  -7.610   0.456  1.00  0.00    -0.246 OA
BRANCH   9  11
ATOM     11  C   UNL     1      -0.683  -6.192   0.435  1.00  0.00     0.087 C 
ATOM     12  C   UNL     1       1.037   0.067   0.092  1.00  0.00     0.047 C 
ATOM     13  C   UNL     1       0.527  -1.291   0.517  1.00  0.00    -0.019 A 
ATOM     14  C   UNL     1      -0.589  -1.441   1.377  1.00  0.00     0.025 A 
ATOM     15  C   UNL     1       1.112  -2.456  -0.022  1.00  0.00     0.064 A 
ATOM     16  Br  UNL     1      -1.447   0.123   2.087  1.00  0.00    -0.050 Br
ATOM     17  C   UNL     1      -1.118  -2.721   1.682  1.00  0.00    -0.026 A 
ATOM     18  C   UNL     1       0.572  -3.728   0.234  1.00  0.00     0.142 A 
ATOM     19  Br  UNL     1       2.626  -2.343  -1.197  1.00  0.00    -0.046 Br
ATOM     20  C   UNL     1      -2.245  -2.920   2.675  1.00  0.00     0.046 C 
ATOM     21  C   UNL     1      -0.570  -3.856   1.035  1.00  0.00     0.022 A 
ATOM     22  O   UNL     1       1.209  -4.798  -0.335  1.00  0.00    -0.474 OA
ATOM     23  C   UNL     1      -1.219  -5.164   1.101  1.00  0.00     0.027 C 
ATOM     24  C   UNL     1       0.621  -6.118  -0.299  1.00  0.00     0.316 C 
BRANCH  24  25
ATOM     25  C   UNL     1       0.513  -6.636  -1.740  1.00  0.00     0.430 C 
ATOM     26  F   UNL     1       1.682  -6.489  -2.407  1.00  0.00    -0.167 F 
ATOM     27  F   UNL     1       0.206  -7.954  -1.783  1.00  0.00    -0.167 F 
ATOM     28  F   UNL     1      -0.440  -5.977  -2.437  1.00  0.00    -0.167 F 
ENDBRANCH  24  25
ENDBRANCH   9  11
ENDBRANCH   8   9
ENDBRANCH   7   8
ENDBRANCH   6   7
ENDBRANCH   5   6
ENDBRANCH   4   5
ENDBRANCH   3   4
ENDBRANCH   2   3
ENDBRANCH   1   2
BRANCH   1  29
ATOM     29  C   UNL     1       1.242  -9.925   5.076  1.00  0.00     0.188 C 
BRANCH  29  30
ATOM     30  O   UNL     1       0.937  -8.706   5.740  1.00  0.00    -0.376 OA
BRANCH  30  31
ATOM     31  C   UNL     1       1.770  -8.274   6.801  1.00  0.00     0.202 C 
BRANCH  31  32
ATOM     32  C   UNL     1       3.194  -7.845   6.422  1.00  0.00     0.261 C 
BRANCH  32  33
ATOM     33  O   UNL     1       3.969  -8.818   5.708  1.00  0.00    -0.460 OA
BRANCH  33  34
ATOM     34  C   UNL     1       4.260  -9.968   6.350  1.00  0.00     0.338 C 
ATOM     35  O   UNL     1       3.957 -10.277   7.490  1.00  0.00    -0.246 OA
BRANCH  34  36
ATOM     36  C   UNL     1       4.859 -10.886   5.362  1.00  0.00     0.060 A 
ATOM     37  C   UNL     1       4.227 -12.107   5.090  1.00  0.00     0.016 A 
ATOM     38  C   UNL     1       6.038 -10.533   4.702  1.00  0.00     0.016 A 
ATOM     39  C   UNL     1       4.797 -12.997   4.180  1.00  0.00     0.010 A 
ATOM     40  C   UNL     1       6.619 -11.434   3.809  1.00  0.00     0.010 A 
ATOM     41  C   UNL     1       6.019 -12.683   3.571  1.00  0.00    -0.014 A 
BRANCH  41  42
ATOM     42  C   UNL     1       6.774 -13.729   2.844  1.00  0.00     0.031 A 
ATOM     43  C   UNL     1       7.856 -14.466   3.582  1.00  0.00     0.074 A 
ATOM     44  C   UNL     1       6.500 -14.027   1.562  1.00  0.00     0.049 A 
ATOM     45  N   UNL     1       8.701 -15.360   3.142  1.00  0.00    -0.248 NA
ATOM     46  C   UNL     1       8.002 -14.151   5.014  1.00  0.00     0.031 C 
ATOM     47  C   UNL     1       5.438 -13.422   0.761  1.00  0.00     0.029 A 
ATOM     48  N   UNL     1       7.106 -14.914   0.708  1.00  0.00    -0.354 N 
ATOM     49  C   UNL     1       9.479 -15.713   4.238  1.00  0.00     0.074 A 
ATOM     50  C   UNL     1       9.028 -14.915   5.356  1.00  0.00     0.031 C 
ATOM     51  C   UNL     1       5.473 -13.951  -0.474  1.00  0.00     0.029 A 
ATOM     52  C   UNL     1       6.582 -14.899  -0.561  1.00  0.00     0.049 A 
ATOM     53  H   UNL     1       7.845 -15.505   0.980  1.00  0.00     0.167 HD
ATOM     54  C   UNL     1      10.472 -16.629   4.306  1.00  0.00     0.037 A 
ATOM     55  C   UNL     1       6.973 -15.560  -1.669  1.00  0.00     0.037 A 
ATOM     56  C   UNL     1      10.920 -17.415   3.187  1.00  0.00     0.049 A 
ATOM     57  C   UNL     1       8.145 -16.504  -1.592  1.00  0.00     0.074 A 
ATOM     58  C   UNL     1      11.927 -18.363   3.152  1.00  0.00     0.029 A 
ATOM     59  N   UNL     1      10.393 -17.340   1.907  1.00  0.00    -0.354 N 
ATOM     60  N   UNL     1       8.879 -16.830  -0.554  1.00  0.00    -0.248 NA
ATOM     61  C   UNL     1       8.545 -17.173  -2.839  1.00  0.00     0.031 C 
ATOM     62  C   UNL     1      12.045 -18.824   1.839  1.00  0.00     0.029 A 
ATOM     63  C   UNL     1      11.068 -18.212   1.069  1.00  0.00     0.049 A 
ATOM     64  H   UNL     1       9.651 -16.755   1.634  1.00  0.00     0.167 HD
ATOM     65  C   UNL     1       9.798 -17.767  -1.013  1.00  0.00     0.074 A 
ATOM     66  C   UNL     1       9.526 -17.962  -2.422  1.00  0.00     0.031 C 
ATOM     67  C   UNL     1      10.776 -18.409  -0.328  1.00  0.00     0.037 A 
BRANCH  54  68
ATOM     68  C   UNL     1      11.154 -16.826   5.628  1.00  0.00     0.057 A 
ATOM     69  C   UNL     1      10.515 -17.460   6.701  1.00  0.00     0.134 A 
ATOM     70  C   UNL     1      12.488 -16.438   5.807  1.00  0.00     0.134 A 
ATOM     71  F   UNL     1       9.232 -17.839   6.601  1.00  0.00    -0.206 F 
ATOM     72  C   UNL     1      11.176 -17.696   7.907  1.00  0.00     0.040 A 
ATOM     73  C   UNL     1      13.168 -16.694   6.998  1.00  0.00     0.040 A 
ATOM     74  F   UNL     1      13.158 -15.826   4.820  1.00  0.00    -0.206 F 
ATOM     75  C   UNL     1      12.511 -17.324   8.053  1.00  0.00     0.006 A 
ENDBRANCH  54  68
BRANCH  55  76
ATOM     76  C   UNL     1       6.245 -15.356  -2.949  1.00  0.00     0.057 A 
ATOM     77  C   UNL     1       5.485 -16.383  -3.521  1.00  0.00     0.134 A 
ATOM     78  C   UNL     1       6.292 -14.134  -3.632  1.00  0.00     0.134 A 
ATOM     79  F   UNL     1       5.421 -17.585  -2.929  1.00  0.00    -0.206 F 
ATOM     80  C   UNL     1       4.806 -16.207  -4.728  1.00  0.00     0.040 A 
ATOM     81  C   UNL     1       5.595 -13.935  -4.825  1.00  0.00     0.040 A 
ATOM     82  F   UNL     1       7.004 -13.110  -3.140  1.00  0.00    -0.206 F 
ATOM     83  C   UNL     1       4.852 -14.976  -5.378  1.00  0.00     0.006 A 
ENDBRANCH  55  76
BRANCH  67  84
ATOM     84  C   UNL     1      11.599 -19.425  -1.069  1.00  0.00     0.057 A 
ATOM     85  C   UNL     1      12.545 -19.055  -2.033  1.00  0.00     0.134 A 
ATOM     86  C   UNL     1      11.496 -20.787  -0.754  1.00  0.00     0.134 A 
ATOM     87  F   UNL     1      12.691 -17.769  -2.385  1.00  0.00    -0.206 F 
ATOM     88  C   UNL     1      13.345 -20.006  -2.671  1.00  0.00     0.040 A 
ATOM     89  C   UNL     1      12.312 -21.742  -1.362  1.00  0.00     0.040 A 
ATOM     90  F   UNL     1      10.621 -21.209   0.171  1.00  0.00    -0.206 F 
ATOM     91  C   UNL     1      13.236 -21.352  -2.328  1.00  0.00     0.006 A 
ENDBRANCH  67  84
ENDBRANCH  41  42
ENDBRANCH  34  36
ENDBRANCH  33  34
ENDBRANCH  32  33
ENDBRANCH  31  32
ENDBRANCH  30  31
ENDBRANCH  29  30
ENDBRANCH   1  29
TORSDOF 21
