REMARK SMILES Cc1cc(C)c2c(CCCC(=O)OCCOCCOCCOCCOC(=O)c3ccc(-c4c5nc(c(-c6c(F)cccc6F)c6ccc([nH]6)c(-c6c(F)cccc6F)c6nc(c(-c7c(F)cccc7F)c7ccc4[nH]7)C=C6)C=C5)cc3)c(-c3ccccn3)[nH]c2c1
REMARK SMILES IDX 18 1 17 2 16 3 15 4 14 5 13 6 11 7 12 8 10 9 9 10 8 11 7 12
REMARK SMILES IDX 1 13 2 14 3 15 91 16 4 17 90 18 5 19 6 20 89 21 82 22 83 24
REMARK SMILES IDX 84 25 88 26 85 27 87 28 86 29 19 30 20 31 21 32 22 33 23 34
REMARK SMILES IDX 24 35 25 36 26 37 27 38 28 39 29 40 81 41 30 42 80 43 31 44
REMARK SMILES IDX 32 45 33 46 74 47 34 48 79 49 73 50 75 51 35 52 78 53 72 54
REMARK SMILES IDX 71 55 36 57 62 58 45 59 61 60 46 61 49 62 60 63 76 64 47 65
REMARK SMILES IDX 48 66 59 68 77 69 50 70 37 71 38 72 43 73 39 74 40 75 42 76
REMARK SMILES IDX 44 77 41 78 63 79 64 80 69 81 65 82 66 83 68 84 70 85 67 86
REMARK SMILES IDX 51 87 52 88 57 89 53 90 54 91 56 92 58 93 55 94
REMARK H PARENT 89 23 75 56 49 67
REMARK Flexibility Score: inf
ROOT
ATOM      1  C   UNL     1      -2.618  -0.873   9.876  1.00  0.00     0.188 C 
ENDROOT
BRANCH   1   2
ATOM      2  C   UNL     1      -3.186   0.272  10.739  1.00  0.00     0.188 C 
BRANCH   2   3
ATOM      3  O   UNL     1      -4.489   0.664  10.377  1.00  0.00    -0.376 OA
BRANCH   3   4
ATOM      4  C   UNL     1      -4.678   1.841   9.638  1.00  0.00     0.202 C 
BRANCH   4   5
ATOM      5  C   UNL     1      -3.778   2.194   8.455  1.00  0.00     0.261 C 
BRANCH   5   6
ATOM      6  O   UNL     1      -2.563   1.464   8.271  1.00  0.00    -0.463 OA
BRANCH   6   7
ATOM      7  C   UNL     1      -1.413   1.961   8.779  1.00  0.00     0.305 C 
ATOM      8  O   UNL     1      -1.374   2.880   9.591  1.00  0.00    -0.252 OA
BRANCH   7   9
ATOM      9  C   UNL     1      -0.166   1.201   8.337  1.00  0.00     0.123 C 
BRANCH   9  10
ATOM     10  C   UNL     1      -0.227   0.041   7.332  1.00  0.00     0.017 C 
BRANCH  10  11
ATOM     11  C   UNL     1      -1.233   0.076   6.182  1.00  0.00     0.039 C 
BRANCH  11  12
ATOM     12  C   UNL     1      -0.808   0.896   5.006  1.00  0.00    -0.013 A 
ATOM     13  C   UNL     1       1.054  -0.053  -0.335  1.00  0.00     0.044 C 
ATOM     14  C   UNL     1       0.536   0.098   1.064  1.00  0.00    -0.049 A 
ATOM     15  C   UNL     1       0.252  -1.029   1.836  1.00  0.00     0.007 A 
ATOM     16  C   UNL     1       0.398   1.371   1.619  1.00  0.00     0.030 A 
ATOM     17  C   UNL     1      -0.202  -0.937   3.171  1.00  0.00    -0.041 A 
ATOM     18  C   UNL     1      -0.060   1.468   2.934  1.00  0.00     0.047 A 
ATOM     19  C   UNL     1      -0.480  -2.231   3.894  1.00  0.00     0.045 C 
ATOM     20  C   UNL     1      -0.370   0.365   3.729  1.00  0.00     0.006 A 
ATOM     21  N   UNL     1      -0.273   2.595   3.682  1.00  0.00    -0.353 N 
ATOM     22  C   UNL     1      -0.787   2.287   4.911  1.00  0.00     0.068 A 
ATOM     23  H   UNL     1      -0.081   3.510   3.373  1.00  0.00     0.167 HD
BRANCH  22  24
ATOM     24  C   UNL     1      -1.128   3.367   5.823  1.00  0.00     0.087 A 
ATOM     25  C   UNL     1      -2.400   3.921   5.878  1.00  0.00     0.030 A 
ATOM     26  N   UNL     1      -0.097   3.809   6.574  1.00  0.00    -0.255 NA
ATOM     27  C   UNL     1      -2.639   4.939   6.801  1.00  0.00     0.004 A 
ATOM     28  C   UNL     1      -0.368   4.768   7.490  1.00  0.00     0.112 A 
ATOM     29  C   UNL     1      -1.614   5.349   7.648  1.00  0.00     0.020 A 
ENDBRANCH  22  24
ENDBRANCH  11  12
ENDBRANCH  10  11
ENDBRANCH   9  10
ENDBRANCH   7   9
ENDBRANCH   6   7
ENDBRANCH   5   6
ENDBRANCH   4   5
ENDBRANCH   3   4
ENDBRANCH   2   3
ENDBRANCH   1   2
BRANCH   1  30
ATOM     30  O   UNL     1      -3.333  -1.463   8.796  1.00  0.00    -0.377 OA
BRANCH  30  31
ATOM     31  C   UNL     1      -4.751  -1.549   8.837  1.00  0.00     0.188 C 
BRANCH  31  32
ATOM     32  C   UNL     1      -5.468  -1.920  10.157  1.00  0.00     0.188 C 
BRANCH  32  33
ATOM     33  O   UNL     1      -4.667  -1.893  11.326  1.00  0.00    -0.376 OA
BRANCH  33  34
ATOM     34  C   UNL     1      -4.045  -3.038  11.880  1.00  0.00     0.202 C 
BRANCH  34  35
ATOM     35  C   UNL     1      -3.224  -4.000  11.017  1.00  0.00     0.261 C 
BRANCH  35  36
ATOM     36  O   UNL     1      -3.746  -4.228   9.727  1.00  0.00    -0.460 OA
BRANCH  36  37
ATOM     37  C   UNL     1      -4.934  -4.852   9.743  1.00  0.00     0.338 C 
ATOM     38  O   UNL     1      -5.636  -5.095  10.707  1.00  0.00    -0.246 OA
BRANCH  37  39
ATOM     39  C   UNL     1      -5.221  -5.321   8.393  1.00  0.00     0.060 A 
ATOM     40  C   UNL     1      -6.502  -5.831   8.219  1.00  0.00     0.016 A 
ATOM     41  C   UNL     1      -4.137  -5.658   7.566  1.00  0.00     0.016 A 
ATOM     42  C   UNL     1      -6.622  -6.933   7.420  1.00  0.00     0.010 A 
ATOM     43  C   UNL     1      -4.261  -6.763   6.766  1.00  0.00     0.010 A 
ATOM     44  C   UNL     1      -5.471  -7.442   6.797  1.00  0.00    -0.014 A 
BRANCH  44  45
ATOM     45  C   UNL     1      -5.629  -8.689   6.096  1.00  0.00     0.031 A 
ATOM     46  C   UNL     1      -6.471  -8.529   4.902  1.00  0.00     0.074 A 
ATOM     47  C   UNL     1      -5.094  -9.849   6.511  1.00  0.00     0.049 A 
ATOM     48  N   UNL     1      -7.698  -8.900   4.768  1.00  0.00    -0.248 NA
ATOM     49  C   UNL     1      -5.972  -7.655   3.832  1.00  0.00     0.031 C 
ATOM     50  C   UNL     1      -4.065 -10.083   7.524  1.00  0.00     0.029 A 
ATOM     51  N   UNL     1      -5.345 -11.094   6.031  1.00  0.00    -0.354 N 
ATOM     52  C   UNL     1      -8.063  -8.492   3.495  1.00  0.00     0.074 A 
ATOM     53  C   UNL     1      -7.049  -7.573   3.052  1.00  0.00     0.031 C 
ATOM     54  C   UNL     1      -3.627 -11.361   7.421  1.00  0.00     0.029 A 
ATOM     55  C   UNL     1      -4.444 -12.063   6.444  1.00  0.00     0.049 A 
ATOM     56  H   UNL     1      -6.105 -11.292   5.437  1.00  0.00     0.167 HD
ATOM     57  C   UNL     1      -9.016  -9.177   2.812  1.00  0.00     0.037 A 
ATOM     58  C   UNL     1      -4.362 -13.321   5.947  1.00  0.00     0.037 A 
ATOM     59  C   UNL     1      -9.857  -9.929   3.713  1.00  0.00     0.049 A 
ATOM     60  C   UNL     1      -5.673 -13.629   5.316  1.00  0.00     0.074 A 
ATOM     61  C   UNL     1     -10.692  -9.604   4.765  1.00  0.00     0.029 A 
ATOM     62  N   UNL     1      -9.618 -11.276   3.826  1.00  0.00    -0.354 N 
ATOM     63  N   UNL     1      -6.781 -13.794   5.982  1.00  0.00    -0.248 NA
ATOM     64  C   UNL     1      -5.835 -13.326   3.902  1.00  0.00     0.031 C 
ATOM     65  C   UNL     1     -10.548 -10.669   5.702  1.00  0.00     0.029 A 
ATOM     66  C   UNL     1      -9.675 -11.609   5.154  1.00  0.00     0.049 A 
ATOM     67  H   UNL     1      -9.438 -11.896   3.083  1.00  0.00     0.167 HD
ATOM     68  C   UNL     1      -7.758 -13.200   5.196  1.00  0.00     0.074 A 
ATOM     69  C   UNL     1      -7.136 -13.021   3.887  1.00  0.00     0.031 C 
ATOM     70  C   UNL     1      -8.874 -12.650   5.759  1.00  0.00     0.037 A 
BRANCH  57  71
ATOM     71  C   UNL     1      -8.880  -9.514   1.347  1.00  0.00     0.057 A 
ATOM     72  C   UNL     1      -9.926 -10.212   0.720  1.00  0.00     0.134 A 
ATOM     73  C   UNL     1      -7.674  -9.464   0.616  1.00  0.00     0.134 A 
ATOM     74  F   UNL     1     -11.123 -10.339   1.313  1.00  0.00    -0.206 F 
ATOM     75  C   UNL     1      -9.753 -10.890  -0.491  1.00  0.00     0.040 A 
ATOM     76  C   UNL     1      -7.507 -10.094  -0.618  1.00  0.00     0.040 A 
ATOM     77  F   UNL     1      -6.557  -8.897   1.084  1.00  0.00    -0.206 F 
ATOM     78  C   UNL     1      -8.537 -10.842  -1.159  1.00  0.00     0.006 A 
ENDBRANCH  57  71
BRANCH  58  79
ATOM     79  C   UNL     1      -3.150 -14.125   5.661  1.00  0.00     0.057 A 
ATOM     80  C   UNL     1      -3.260 -15.478   5.301  1.00  0.00     0.134 A 
ATOM     81  C   UNL     1      -1.898 -13.529   5.435  1.00  0.00     0.134 A 
ATOM     82  F   UNL     1      -4.423 -16.128   5.446  1.00  0.00    -0.206 F 
ATOM     83  C   UNL     1      -2.204 -16.181   4.708  1.00  0.00     0.040 A 
ATOM     84  C   UNL     1      -0.832 -14.223   4.851  1.00  0.00     0.040 A 
ATOM     85  F   UNL     1      -1.691 -12.228   5.682  1.00  0.00    -0.206 F 
ATOM     86  C   UNL     1      -0.989 -15.549   4.467  1.00  0.00     0.006 A 
ENDBRANCH  58  79
BRANCH  70  87
ATOM     87  C   UNL     1      -9.163 -12.961   7.202  1.00  0.00     0.057 A 
ATOM     88  C   UNL     1      -8.357 -12.549   8.274  1.00  0.00     0.134 A 
ATOM     89  C   UNL     1     -10.395 -13.543   7.522  1.00  0.00     0.134 A 
ATOM     90  F   UNL     1      -7.200 -11.906   8.066  1.00  0.00    -0.206 F 
ATOM     91  C   UNL     1      -8.753 -12.731   9.603  1.00  0.00     0.040 A 
ATOM     92  C   UNL     1     -10.816 -13.699   8.844  1.00  0.00     0.040 A 
ATOM     93  F   UNL     1     -11.239 -13.918   6.548  1.00  0.00    -0.206 F 
ATOM     94  C   UNL     1      -9.992 -13.296   9.891  1.00  0.00     0.006 A 
ENDBRANCH  70  87
ENDBRANCH  44  45
ENDBRANCH  37  39
ENDBRANCH  36  37
ENDBRANCH  35  36
ENDBRANCH  34  35
ENDBRANCH  33  34
ENDBRANCH  32  33
ENDBRANCH  31  32
ENDBRANCH  30  31
ENDBRANCH   1  30
TORSDOF 24
