REMARK SMILES C[C@@H]1CC[C@@H](C(=O)OCCOCCOCCOCCOC(=O)c2ccc(-c3c4nc(c(-c5c(F)cccc5F)c5ccc([nH]5)c(-c5c(F)cccc5F)c5nc(c(-c6c(F)cccc6F)c6ccc3[nH]6)C=C5)C=C4)cc2)[C@H]2C(=O)N(c3ccccc3)C(=O)[C@@H]21
REMARK SMILES IDX 15 1 14 2 13 3 12 4 11 5 10 6 9 7 8 8 6 9 7 10 5 11 1 12
REMARK SMILES IDX 2 13 3 14 89 15 4 16 77 17 87 18 78 19 80 20 88 21 79 22
REMARK SMILES IDX 81 23 82 24 86 25 83 26 85 27 84 28 16 29 17 30 18 31 19 32
REMARK SMILES IDX 20 33 21 34 22 35 23 36 24 37 76 38 25 39 75 40 26 41 27 42
REMARK SMILES IDX 28 43 69 44 29 45 74 46 68 47 70 48 30 49 73 50 67 51 66 52
REMARK SMILES IDX 31 54 57 55 40 56 56 57 41 58 44 59 55 60 71 61 42 62 43 63
REMARK SMILES IDX 54 65 72 66 45 67 32 68 33 69 38 70 34 71 35 72 37 73 39 74
REMARK SMILES IDX 36 75 58 76 59 77 64 78 60 79 61 80 63 81 65 82 62 83 46 84
REMARK SMILES IDX 47 85 52 86 48 87 49 88 51 89 53 90 50 91
REMARK H PARENT 70 53 44 64
REMARK Flexibility Score: inf
ROOT
ATOM      1  C   UNL     1      -1.411  -5.058   6.147  1.00  0.00     0.188 C 
ENDROOT
BRANCH   1   2
ATOM      2  O   UNL     1      -0.921  -4.380   4.993  1.00  0.00    -0.377 OA
BRANCH   2   3
ATOM      3  C   UNL     1       0.478  -4.214   4.879  1.00  0.00     0.188 C 
BRANCH   3   4
ATOM      4  C   UNL     1       0.997  -2.994   5.664  1.00  0.00     0.188 C 
BRANCH   4   5
ATOM      5  O   UNL     1       0.146  -2.605   6.734  1.00  0.00    -0.376 OA
BRANCH   5   6
ATOM      6  C   UNL     1      -0.830  -1.583   6.587  1.00  0.00     0.202 C 
BRANCH   6   7
ATOM      7  C   UNL     1      -1.793  -1.517   5.389  1.00  0.00     0.261 C 
BRANCH   7   8
ATOM      8  O   UNL     1      -1.225  -1.806   4.114  1.00  0.00    -0.463 OA
BRANCH   8   9
ATOM      9  C   UNL     1      -0.261  -0.976   3.672  1.00  0.00     0.309 C 
ATOM     10  O   UNL     1       0.043   0.080   4.204  1.00  0.00    -0.252 OA
BRANCH   9  11
ATOM     11  C   UNL     1       0.418  -1.589   2.452  1.00  0.00     0.112 C 
ATOM     12  C   UNL     1       1.127   0.309  -0.836  1.00  0.00     0.008 C 
ATOM     13  C   UNL     1       0.559   0.698   0.528  1.00  0.00    -0.001 C 
ATOM     14  C   UNL     1       1.633   0.505   1.637  1.00  0.00     0.005 C 
ATOM     15  C   UNL     1      -0.726  -0.050   0.899  1.00  0.00     0.095 C 
ATOM     16  C   UNL     1       1.772  -0.931   2.164  1.00  0.00     0.016 C 
ATOM     17  C   UNL     1      -0.437  -1.496   1.219  1.00  0.00     0.106 C 
ATOM     18  C   UNL     1      -1.911  -0.207  -0.026  1.00  0.00     0.237 C 
ATOM     19  C   UNL     1      -1.795  -2.128   1.229  1.00  0.00     0.238 C 
ATOM     20  N   UNL     1      -2.594  -1.339   0.419  1.00  0.00    -0.250 N 
ATOM     21  O   UNL     1      -2.215   0.603  -0.885  1.00  0.00    -0.274 OA
ATOM     22  O   UNL     1      -2.020  -3.228   1.710  1.00  0.00    -0.274 OA
BRANCH  20  23
ATOM     23  C   UNL     1      -3.915  -1.707   0.051  1.00  0.00     0.052 A 
ATOM     24  C   UNL     1      -4.465  -1.315  -1.174  1.00  0.00     0.027 A 
ATOM     25  C   UNL     1      -4.715  -2.473   0.920  1.00  0.00     0.027 A 
ATOM     26  C   UNL     1      -5.765  -1.690  -1.528  1.00  0.00     0.002 A 
ATOM     27  C   UNL     1      -6.024  -2.823   0.579  1.00  0.00     0.002 A 
ATOM     28  C   UNL     1      -6.547  -2.435  -0.649  1.00  0.00     0.000 A 
ENDBRANCH  20  23
ENDBRANCH   9  11
ENDBRANCH   8   9
ENDBRANCH   7   8
ENDBRANCH   6   7
ENDBRANCH   5   6
ENDBRANCH   4   5
ENDBRANCH   3   4
ENDBRANCH   2   3
ENDBRANCH   1   2
BRANCH   1  29
ATOM     29  C   UNL     1      -0.574  -5.176   7.448  1.00  0.00     0.188 C 
BRANCH  29  30
ATOM     30  O   UNL     1       0.827  -5.328   7.262  1.00  0.00    -0.376 OA
BRANCH  30  31
ATOM     31  C   UNL     1       1.411  -6.607   7.430  1.00  0.00     0.202 C 
BRANCH  31  32
ATOM     32  C   UNL     1       1.032  -7.681   6.401  1.00  0.00     0.261 C 
BRANCH  32  33
ATOM     33  O   UNL     1      -0.372  -7.933   6.255  1.00  0.00    -0.460 OA
BRANCH  33  34
ATOM     34  C   UNL     1      -1.030  -8.393   7.346  1.00  0.00     0.338 C 
ATOM     35  O   UNL     1      -0.565  -8.663   8.427  1.00  0.00    -0.246 OA
BRANCH  34  36
ATOM     36  C   UNL     1      -2.478  -8.316   7.045  1.00  0.00     0.060 A 
ATOM     37  C   UNL     1      -3.298  -7.521   7.858  1.00  0.00     0.016 A 
ATOM     38  C   UNL     1      -3.011  -9.003   5.953  1.00  0.00     0.016 A 
ATOM     39  C   UNL     1      -4.665  -7.435   7.596  1.00  0.00     0.010 A 
ATOM     40  C   UNL     1      -4.384  -8.942   5.712  1.00  0.00     0.010 A 
ATOM     41  C   UNL     1      -5.219  -8.185   6.552  1.00  0.00    -0.014 A 
BRANCH  41  42
ATOM     42  C   UNL     1      -6.687  -8.360   6.473  1.00  0.00     0.031 A 
ATOM     43  C   UNL     1      -7.282  -9.590   7.100  1.00  0.00     0.074 A 
ATOM     44  C   UNL     1      -7.475  -7.454   5.870  1.00  0.00     0.049 A 
ATOM     45  N   UNL     1      -8.519 -10.013   7.094  1.00  0.00    -0.248 NA
ATOM     46  C   UNL     1      -6.349 -10.465   7.829  1.00  0.00     0.031 C 
ATOM     47  C   UNL     1      -7.022  -6.200   5.273  1.00  0.00     0.029 A 
ATOM     48  N   UNL     1      -8.830  -7.464   5.652  1.00  0.00    -0.354 N 
ATOM     49  C   UNL     1      -8.511 -11.205   7.808  1.00  0.00     0.074 A 
ATOM     50  C   UNL     1      -7.144 -11.453   8.208  1.00  0.00     0.031 C 
ATOM     51  C   UNL     1      -8.082  -5.568   4.737  1.00  0.00     0.029 A 
ATOM     52  C   UNL     1      -9.276  -6.391   4.921  1.00  0.00     0.049 A 
ATOM     53  H   UNL     1      -9.425  -8.173   5.988  1.00  0.00     0.167 HD
ATOM     54  C   UNL     1      -9.551 -12.017   8.107  1.00  0.00     0.037 A 
ATOM     55  C   UNL     1     -10.504  -6.126   4.432  1.00  0.00     0.037 A 
ATOM     56  C   UNL     1     -10.908 -11.769   7.699  1.00  0.00     0.049 A 
ATOM     57  C   UNL     1     -11.631  -7.092   4.701  1.00  0.00     0.074 A 
ATOM     58  C   UNL     1     -12.037 -12.524   7.961  1.00  0.00     0.029 A 
ATOM     59  N   UNL     1     -11.315 -10.689   6.931  1.00  0.00    -0.354 N 
ATOM     60  N   UNL     1     -11.622  -8.206   5.395  1.00  0.00    -0.248 NA
ATOM     61  C   UNL     1     -12.940  -6.765   4.117  1.00  0.00     0.031 C 
ATOM     62  C   UNL     1     -13.118 -11.932   7.302  1.00  0.00     0.029 A 
ATOM     63  C   UNL     1     -12.675 -10.773   6.683  1.00  0.00     0.049 A 
ATOM     64  H   UNL     1     -10.725  -9.969   6.610  1.00  0.00     0.167 HD
ATOM     65  C   UNL     1     -12.924  -8.692   5.358  1.00  0.00     0.074 A 
ATOM     66  C   UNL     1     -13.699  -7.746   4.582  1.00  0.00     0.031 C 
ATOM     67  C   UNL     1     -13.434  -9.817   5.917  1.00  0.00     0.037 A 
BRANCH  54  68
ATOM     68  C   UNL     1      -9.251 -13.266   8.882  1.00  0.00     0.057 A 
ATOM     69  C   UNL     1      -8.876 -13.233  10.232  1.00  0.00     0.134 A 
ATOM     70  C   UNL     1      -9.360 -14.523   8.273  1.00  0.00     0.134 A 
ATOM     71  F   UNL     1      -8.735 -12.061  10.870  1.00  0.00    -0.206 F 
ATOM     72  C   UNL     1      -8.598 -14.402  10.941  1.00  0.00     0.040 A 
ATOM     73  C   UNL     1      -9.113 -15.701   8.980  1.00  0.00     0.040 A 
ATOM     74  F   UNL     1      -9.715 -14.627   6.984  1.00  0.00    -0.206 F 
ATOM     75  C   UNL     1      -8.724 -15.642  10.316  1.00  0.00     0.006 A 
ENDBRANCH  54  68
BRANCH  55  76
ATOM     76  C   UNL     1     -10.736  -4.905   3.617  1.00  0.00     0.057 A 
ATOM     77  C   UNL     1     -11.552  -3.867   4.081  1.00  0.00     0.134 A 
ATOM     78  C   UNL     1     -10.174  -4.760   2.342  1.00  0.00     0.134 A 
ATOM     79  F   UNL     1     -12.140  -3.957   5.283  1.00  0.00    -0.206 F 
ATOM     80  C   UNL     1     -11.818  -2.740   3.300  1.00  0.00     0.040 A 
ATOM     81  C   UNL     1     -10.408  -3.626   1.563  1.00  0.00     0.040 A 
ATOM     82  F   UNL     1      -9.381  -5.717   1.837  1.00  0.00    -0.206 F 
ATOM     83  C   UNL     1     -11.240  -2.615   2.038  1.00  0.00     0.006 A 
ENDBRANCH  55  76
BRANCH  67  84
ATOM     84  C   UNL     1     -14.906 -10.070   5.753  1.00  0.00     0.057 A 
ATOM     85  C   UNL     1     -15.464 -10.447   4.524  1.00  0.00     0.134 A 
ATOM     86  C   UNL     1     -15.768  -9.990   6.855  1.00  0.00     0.134 A 
ATOM     87  F   UNL     1     -14.697 -10.533   3.427  1.00  0.00    -0.206 F 
ATOM     88  C   UNL     1     -16.828 -10.713   4.394  1.00  0.00     0.040 A 
ATOM     89  C   UNL     1     -17.128 -10.283   6.743  1.00  0.00     0.040 A 
ATOM     90  F   UNL     1     -15.298  -9.647   8.064  1.00  0.00    -0.206 F 
ATOM     91  C   UNL     1     -17.663 -10.639   5.508  1.00  0.00     0.006 A 
ENDBRANCH  67  84
ENDBRANCH  41  42
ENDBRANCH  34  36
ENDBRANCH  33  34
ENDBRANCH  32  33
ENDBRANCH  31  32
ENDBRANCH  30  31
ENDBRANCH  29  30
ENDBRANCH   1  29
TORSDOF 21
