REMARK SMILES COc1cccc(O[C@@H](C)c2nnc(SCC(=O)OCCOCCOCCOCCOC(=O)c3ccc(-c4c5nc(c(-c6c(F)cccc6F)c6ccc([nH]6)c(-c6c(F)cccc6F)c6nc(c(-c7c(F)cccc7F)c7ccc4[nH]7)C=C6)C=C5)cc3)n2C)c1
REMARK SMILES IDX 23 1 22 2 21 3 20 4 19 5 17 6 18 7 16 8 15 9 14 10 11 11
REMARK SMILES IDX 12 12 88 13 13 14 89 15 9 16 10 17 8 18 7 19 3 20 4 21 90 22
REMARK SMILES IDX 5 23 6 24 2 25 1 26 24 27 25 28 26 29 27 30 28 31 29 32
REMARK SMILES IDX 30 33 31 34 32 35 33 36 34 37 35 38 87 39 36 40 86 41 37 42
REMARK SMILES IDX 38 43 39 44 80 45 40 46 85 47 79 48 81 49 41 50 84 51 78 52
REMARK SMILES IDX 77 53 42 55 68 56 51 57 67 58 52 59 55 60 66 61 82 62 53 63
REMARK SMILES IDX 54 64 65 66 83 67 56 68 43 69 44 70 49 71 45 72 46 73 48 74
REMARK SMILES IDX 50 75 47 76 69 77 70 78 75 79 71 80 72 81 74 82 76 83 73 84
REMARK SMILES IDX 57 85 58 86 63 87 59 88 60 89 62 90 64 91 61 92
REMARK H PARENT 81 54 55 65
REMARK Flexibility Score: inf
ROOT
ATOM      1  C   UNL     1       7.523  -0.244  -0.046  1.00  0.00     0.188 C 
ENDROOT
BRANCH   1   2
ATOM      2  O   UNL     1       8.783   0.367  -0.134  1.00  0.00    -0.376 OA
BRANCH   2   3
ATOM      3  C   UNL     1       9.325   1.086   0.955  1.00  0.00     0.202 C 
BRANCH   3   4
ATOM      4  C   UNL     1       8.583   1.520   2.245  1.00  0.00     0.261 C 
BRANCH   4   5
ATOM      5  O   UNL     1       7.428   0.798   2.724  1.00  0.00    -0.463 OA
BRANCH   5   6
ATOM      6  C   UNL     1       6.201   1.331   2.473  1.00  0.00     0.316 C 
ATOM      7  O   UNL     1       6.035   2.329   1.778  1.00  0.00    -0.251 OA
BRANCH   6   8
ATOM      8  C   UNL     1       5.036   0.657   3.184  1.00  0.00     0.200 C 
BRANCH   8   9
ATOM      9  S   UNL     1       4.908  -1.123   3.167  1.00  0.00    -0.074 SA
BRANCH   9  10
ATOM     10  C   UNL     1       4.114  -1.839   1.785  1.00  0.00     0.191 A 
ATOM     11  C   UNL     1       3.796  -2.569  -0.293  1.00  0.00     0.174 A 
ATOM     12  N   UNL     1       3.648  -3.578   0.546  1.00  0.00    -0.130 NA
ATOM     13  N   UNL     1       3.970  -1.413   0.477  1.00  0.00    -0.306 N 
ATOM     14  N   UNL     1       3.829  -3.124   1.822  1.00  0.00    -0.123 NA
ATOM     15  C   UNL     1       4.009  -0.070  -0.025  1.00  0.00     0.154 C 
BRANCH  11  16
ATOM     16  C   UNL     1       3.876  -2.766  -1.803  1.00  0.00     0.238 C 
ATOM     17  C   UNL     1       4.214  -1.605  -2.720  1.00  0.00     0.062 C 
BRANCH  16  18
ATOM     18  O   UNL     1       2.800  -3.546  -2.366  1.00  0.00    -0.483 OA
BRANCH  18  19
ATOM     19  C   UNL     1       1.507  -3.327  -2.017  1.00  0.00     0.124 A 
ATOM     20  C   UNL     1      -0.272  -2.091  -0.951  1.00  0.00     0.122 A 
ATOM     21  C   UNL     1      -1.123  -3.180  -1.133  1.00  0.00     0.046 A 
ATOM     22  C   UNL     1       1.027  -2.157  -1.445  1.00  0.00     0.092 A 
ATOM     23  C   UNL     1      -0.681  -4.319  -1.809  1.00  0.00     0.008 A 
ATOM     24  C   UNL     1       0.638  -4.392  -2.248  1.00  0.00     0.047 A 
BRANCH  20  25
ATOM     25  O   UNL     1      -0.799  -1.024  -0.275  1.00  0.00    -0.497 OA
ATOM     26  C   UNL     1       0.106   0.024   0.056  1.00  0.00     0.278 C 
ENDBRANCH  20  25
ENDBRANCH  18  19
ENDBRANCH  16  18
ENDBRANCH  11  16
ENDBRANCH   9  10
ENDBRANCH   8   9
ENDBRANCH   6   8
ENDBRANCH   5   6
ENDBRANCH   4   5
ENDBRANCH   3   4
ENDBRANCH   2   3
ENDBRANCH   1   2
BRANCH   1  27
ATOM     27  C   UNL     1       7.389  -1.411   0.941  1.00  0.00     0.188 C 
BRANCH  27  28
ATOM     28  O   UNL     1       8.037  -2.634   0.709  1.00  0.00    -0.377 OA
BRANCH  28  29
ATOM     29  C   UNL     1       9.393  -2.523   0.392  1.00  0.00     0.188 C 
BRANCH  29  30
ATOM     30  C   UNL     1       9.624  -2.585  -1.117  1.00  0.00     0.188 C 
BRANCH  30  31
ATOM     31  O   UNL     1       8.580  -2.746  -2.069  1.00  0.00    -0.376 OA
BRANCH  31  32
ATOM     32  C   UNL     1       7.330  -3.348  -1.790  1.00  0.00     0.202 C 
BRANCH  32  33
ATOM     33  C   UNL     1       7.141  -4.748  -1.186  1.00  0.00     0.261 C 
BRANCH  33  34
ATOM     34  O   UNL     1       8.188  -5.212  -0.355  1.00  0.00    -0.460 OA
BRANCH  34  35
ATOM     35  C   UNL     1       9.178  -5.851  -1.002  1.00  0.00     0.338 C 
ATOM     36  O   UNL     1       9.270  -6.107  -2.191  1.00  0.00    -0.246 OA
BRANCH  35  37
ATOM     37  C   UNL     1      10.259  -5.981  -0.023  1.00  0.00     0.060 A 
ATOM     38  C   UNL     1      11.491  -5.411  -0.358  1.00  0.00     0.016 A 
ATOM     39  C   UNL     1      10.028  -6.543   1.238  1.00  0.00     0.016 A 
ATOM     40  C   UNL     1      12.498  -5.370   0.584  1.00  0.00     0.010 A 
ATOM     41  C   UNL     1      11.065  -6.569   2.162  1.00  0.00     0.010 A 
ATOM     42  C   UNL     1      12.302  -6.002   1.817  1.00  0.00    -0.014 A 
BRANCH  42  43
ATOM     43  C   UNL     1      13.509  -6.322   2.587  1.00  0.00     0.031 A 
ATOM     44  C   UNL     1      14.184  -7.620   2.265  1.00  0.00     0.074 A 
ATOM     45  C   UNL     1      14.030  -5.429   3.440  1.00  0.00     0.049 A 
ATOM     46  N   UNL     1      15.291  -8.119   2.740  1.00  0.00    -0.248 NA
ATOM     47  C   UNL     1      13.525  -8.468   1.252  1.00  0.00     0.031 C 
ATOM     48  C   UNL     1      13.460  -4.118   3.745  1.00  0.00     0.029 A 
ATOM     49  N   UNL     1      15.167  -5.493   4.193  1.00  0.00    -0.354 N 
ATOM     50  C   UNL     1      15.463  -9.328   2.080  1.00  0.00     0.074 A 
ATOM     51  C   UNL     1      14.335  -9.510   1.199  1.00  0.00     0.031 C 
ATOM     52  C   UNL     1      14.252  -3.501   4.639  1.00  0.00     0.029 A 
ATOM     53  C   UNL     1      15.361  -4.388   4.981  1.00  0.00     0.049 A 
ATOM     54  H   UNL     1      15.787  -6.257   4.172  1.00  0.00     0.167 HD
ATOM     55  C   UNL     1      16.486 -10.203   2.199  1.00  0.00     0.037 A 
ATOM     56  C   UNL     1      16.322  -4.149   5.891  1.00  0.00     0.037 A 
ATOM     57  C   UNL     1      17.582 -10.005   3.105  1.00  0.00     0.049 A 
ATOM     58  C   UNL     1      17.398  -5.187   6.078  1.00  0.00     0.074 A 
ATOM     59  C   UNL     1      18.666 -10.826   3.341  1.00  0.00     0.029 A 
ATOM     60  N   UNL     1      17.718  -8.902   3.938  1.00  0.00    -0.354 N 
ATOM     61  N   UNL     1      17.565  -6.330   5.452  1.00  0.00    -0.248 NA
ATOM     62  C   UNL     1      18.420  -4.903   7.091  1.00  0.00     0.031 C 
ATOM     63  C   UNL     1      19.429 -10.248   4.360  1.00  0.00     0.029 A 
ATOM     64  C   UNL     1      18.858  -9.033   4.710  1.00  0.00     0.049 A 
ATOM     65  H   UNL     1      17.096  -8.140   3.973  1.00  0.00     0.167 HD
ATOM     66  C   UNL     1      18.724  -6.888   5.975  1.00  0.00     0.074 A 
ATOM     67  C   UNL     1      19.226  -5.947   6.956  1.00  0.00     0.031 C 
ATOM     68  C   UNL     1      19.323  -8.069   5.676  1.00  0.00     0.037 A 
BRANCH  55  69
ATOM     69  C   UNL     1      16.422 -11.451   1.371  1.00  0.00     0.057 A 
ATOM     70  C   UNL     1      16.569 -11.429  -0.023  1.00  0.00     0.134 A 
ATOM     71  C   UNL     1      16.198 -12.693   1.977  1.00  0.00     0.134 A 
ATOM     72  F   UNL     1      16.755 -10.269  -0.670  1.00  0.00    -0.206 F 
ATOM     73  C   UNL     1      16.474 -12.595  -0.785  1.00  0.00     0.040 A 
ATOM     74  C   UNL     1      16.131 -13.869   1.229  1.00  0.00     0.040 A 
ATOM     75  F   UNL     1      16.038 -12.784   3.306  1.00  0.00    -0.206 F 
ATOM     76  C   UNL     1      16.262 -13.821  -0.158  1.00  0.00     0.006 A 
ENDBRANCH  55  69
BRANCH  56  77
ATOM     77  C   UNL     1      16.294  -2.904   6.698  1.00  0.00     0.057 A 
ATOM     78  C   UNL     1      17.284  -1.924   6.571  1.00  0.00     0.134 A 
ATOM     79  C   UNL     1      15.274  -2.670   7.631  1.00  0.00     0.134 A 
ATOM     80  F   UNL     1      18.295  -2.094   5.707  1.00  0.00    -0.206 F 
ATOM     81  C   UNL     1      17.274  -0.768   7.354  1.00  0.00     0.040 A 
ATOM     82  C   UNL     1      15.236  -1.506   8.400  1.00  0.00     0.040 A 
ATOM     83  F   UNL     1      14.290  -3.566   7.799  1.00  0.00    -0.206 F 
ATOM     84  C   UNL     1      16.244  -0.555   8.269  1.00  0.00     0.006 A 
ENDBRANCH  56  77
BRANCH  68  85
ATOM     85  C   UNL     1      20.603  -8.381   6.395  1.00  0.00     0.057 A 
ATOM     86  C   UNL     1      20.631  -8.701   7.757  1.00  0.00     0.134 A 
ATOM     87  C   UNL     1      21.819  -8.402   5.698  1.00  0.00     0.134 A 
ATOM     88  F   UNL     1      19.502  -8.689   8.482  1.00  0.00    -0.206 F 
ATOM     89  C   UNL     1      21.827  -9.001   8.410  1.00  0.00     0.040 A 
ATOM     90  C   UNL     1      23.016  -8.735   6.331  1.00  0.00     0.040 A 
ATOM     91  F   UNL     1      21.859  -8.120   4.387  1.00  0.00    -0.206 F 
ATOM     92  C   UNL     1      23.023  -9.025   7.694  1.00  0.00     0.006 A 
ENDBRANCH  68  85
ENDBRANCH  42  43
ENDBRANCH  35  37
ENDBRANCH  34  35
ENDBRANCH  33  34
ENDBRANCH  32  33
ENDBRANCH  31  32
ENDBRANCH  30  31
ENDBRANCH  29  30
ENDBRANCH  28  29
ENDBRANCH  27  28
ENDBRANCH   1  27
TORSDOF 26
