REMARK SMILES Cc1cc(=O)cc(C)n1-c1ccc(Cl)cc1C(=O)OCCOCCOCCOCCOC(=O)c1ccc(-c2c3nc(c(-c4c(F)cccc4F)c4ccc([nH]4)c(-c4c(F)cccc4F)c4nc(c(-c5c(F)cccc5F)c5ccc2[nH]5)C=C4)C=C3)cc1
REMARK SMILES IDX 26 1 25 2 24 3 23 4 22 5 21 6 20 7 19 8 17 9 18 10 16 11
REMARK SMILES IDX 10 12 11 13 12 14 15 15 13 16 14 17 9 18 1 19 2 20 3 21 4 22
REMARK SMILES IDX 7 23 5 24 6 25 8 26 27 27 28 28 29 29 30 30 31 31 32 32
REMARK SMILES IDX 33 33 34 34 35 35 87 36 36 37 86 38 37 39 38 40 39 41 80 42
REMARK SMILES IDX 40 43 85 44 79 45 81 46 41 47 84 48 78 49 77 50 42 52 68 53
REMARK SMILES IDX 51 54 67 55 52 56 55 57 66 58 82 59 53 60 54 61 65 63 83 64
REMARK SMILES IDX 56 65 43 66 44 67 49 68 45 69 46 70 48 71 50 72 47 73 69 74
REMARK SMILES IDX 70 75 75 76 71 77 72 78 74 79 76 80 73 81 57 82 58 83 63 84
REMARK SMILES IDX 59 85 60 86 62 87 64 88 61 89
REMARK H PARENT 81 51 55 62
REMARK Flexibility Score: inf
ROOT
ATOM      1  C   UNL     1       4.112   0.830  -4.721  1.00  0.00     0.188 C 
ENDROOT
BRANCH   1   2
ATOM      2  O   UNL     1       2.918   1.475  -4.289  1.00  0.00    -0.377 OA
BRANCH   2   3
ATOM      3  C   UNL     1       2.988   2.724  -3.612  1.00  0.00     0.188 C 
BRANCH   3   4
ATOM      4  C   UNL     1       4.067   2.975  -2.531  1.00  0.00     0.188 C 
BRANCH   4   5
ATOM      5  O   UNL     1       5.077   1.986  -2.469  1.00  0.00    -0.376 OA
BRANCH   5   6
ATOM      6  C   UNL     1       5.104   1.064  -1.399  1.00  0.00     0.202 C 
BRANCH   6   7
ATOM      7  C   UNL     1       3.853   0.246  -1.062  1.00  0.00     0.261 C 
BRANCH   7   8
ATOM      8  O   UNL     1       2.608   0.889  -1.335  1.00  0.00    -0.460 OA
BRANCH   8   9
ATOM      9  C   UNL     1       2.103   1.677  -0.367  1.00  0.00     0.340 C 
ATOM     10  O   UNL     1       2.644   1.958   0.690  1.00  0.00    -0.246 OA
BRANCH   9  11
ATOM     11  C   UNL     1       0.828   2.283  -0.818  1.00  0.00     0.085 A 
ATOM     12  C   UNL     1      -0.202   1.588  -1.499  1.00  0.00     0.060 A 
ATOM     13  C   UNL     1      -1.370   2.320  -1.811  1.00  0.00     0.029 A 
ATOM     14  C   UNL     1      -1.470   3.694  -1.565  1.00  0.00     0.023 A 
ATOM     15  C   UNL     1       0.717   3.664  -0.559  1.00  0.00     0.038 A 
ATOM     16  C   UNL     1      -0.414   4.364  -0.960  1.00  0.00     0.042 A 
ATOM     17  Cl  UNL     1      -0.500   6.064  -0.722  1.00  0.00    -0.084 Cl
BRANCH  12  18
ATOM     18  N   UNL     1      -0.112   0.212  -1.923  1.00  0.00    -0.317 N 
ATOM     19  C   UNL     1       0.246  -0.602   0.484  1.00  0.00     0.065 C 
ATOM     20  C   UNL     1       0.191  -0.833  -1.008  1.00  0.00     0.024 A 
ATOM     21  C   UNL     1       0.425  -2.097  -1.411  1.00  0.00     0.073 A 
ATOM     22  C   UNL     1       0.355  -2.444  -2.838  1.00  0.00     0.182 A 
ATOM     23  C   UNL     1      -0.236  -0.123  -3.308  1.00  0.00     0.024 A 
ATOM     24  O   UNL     1       0.597  -3.579  -3.230  1.00  0.00    -0.290 OA
ATOM     25  C   UNL     1      -0.028  -1.373  -3.767  1.00  0.00     0.073 A 
ATOM     26  C   UNL     1      -0.559   0.909  -4.369  1.00  0.00     0.065 C 
ENDBRANCH  12  18
ENDBRANCH   9  11
ENDBRANCH   8   9
ENDBRANCH   7   8
ENDBRANCH   6   7
ENDBRANCH   5   6
ENDBRANCH   4   5
ENDBRANCH   3   4
ENDBRANCH   2   3
ENDBRANCH   1   2
BRANCH   1  27
ATOM     27  C   UNL     1       5.346   1.656  -5.154  1.00  0.00     0.188 C 
BRANCH  27  28
ATOM     28  O   UNL     1       5.138   3.058  -5.165  1.00  0.00    -0.376 OA
BRANCH  28  29
ATOM     29  C   UNL     1       4.997   3.691  -6.424  1.00  0.00     0.202 C 
BRANCH  29  30
ATOM     30  C   UNL     1       3.817   3.256  -7.304  1.00  0.00     0.261 C 
BRANCH  30  31
ATOM     31  O   UNL     1       3.704   1.849  -7.567  1.00  0.00    -0.460 OA
BRANCH  31  32
ATOM     32  C   UNL     1       4.683   1.273  -8.295  1.00  0.00     0.338 C 
ATOM     33  O   UNL     1       5.663   1.815  -8.780  1.00  0.00    -0.246 OA
BRANCH  32  34
ATOM     34  C   UNL     1       4.465  -0.185  -8.248  1.00  0.00     0.060 A 
ATOM     35  C   UNL     1       5.432  -1.004  -7.648  1.00  0.00     0.016 A 
ATOM     36  C   UNL     1       3.300  -0.738  -8.786  1.00  0.00     0.016 A 
ATOM     37  C   UNL     1       5.250  -2.385  -7.613  1.00  0.00     0.010 A 
ATOM     38  C   UNL     1       3.134  -2.124  -8.779  1.00  0.00     0.010 A 
ATOM     39  C   UNL     1       4.126  -2.953  -8.227  1.00  0.00    -0.014 A 
BRANCH  39  40
ATOM     40  C   UNL     1       4.116  -4.406  -8.508  1.00  0.00     0.031 A 
ATOM     41  C   UNL     1       4.609  -4.863  -9.853  1.00  0.00     0.074 A 
ATOM     42  C   UNL     1       3.725  -5.303  -7.587  1.00  0.00     0.049 A 
ATOM     43  N   UNL     1       4.677  -6.071 -10.350  1.00  0.00    -0.248 NA
ATOM     44  C   UNL     1       5.094  -3.810 -10.762  1.00  0.00     0.031 C 
ATOM     45  C   UNL     1       3.282  -4.986  -6.233  1.00  0.00     0.029 A 
ATOM     46  N   UNL     1       3.644  -6.670  -7.661  1.00  0.00    -0.354 N 
ATOM     47  C   UNL     1       5.215  -5.922 -11.621  1.00  0.00     0.074 A 
ATOM     48  C   UNL     1       5.416  -4.507 -11.839  1.00  0.00     0.031 C 
ATOM     49  C   UNL     1       2.974  -6.131  -5.599  1.00  0.00     0.029 A 
ATOM     50  C   UNL     1       3.169  -7.256  -6.514  1.00  0.00     0.049 A 
ATOM     51  H   UNL     1       3.902  -7.183  -8.461  1.00  0.00     0.167 HD
ATOM     52  C   UNL     1       5.528  -6.881 -12.523  1.00  0.00     0.037 A 
ATOM     53  C   UNL     1       2.908  -8.550  -6.245  1.00  0.00     0.037 A 
ATOM     54  C   UNL     1       5.314  -8.286 -12.308  1.00  0.00     0.049 A 
ATOM     55  C   UNL     1       3.162  -9.592  -7.303  1.00  0.00     0.074 A 
ATOM     56  C   UNL     1       5.587  -9.338 -13.164  1.00  0.00     0.029 A 
ATOM     57  N   UNL     1       4.768  -8.835 -11.157  1.00  0.00    -0.354 N 
ATOM     58  N   UNL     1       3.672  -9.448  -8.503  1.00  0.00    -0.248 NA
ATOM     59  C   UNL     1       2.798 -10.978  -6.973  1.00  0.00     0.031 C 
ATOM     60  C   UNL     1       5.154 -10.518 -12.553  1.00  0.00     0.029 A 
ATOM     61  C   UNL     1       4.668 -10.209 -11.292  1.00  0.00     0.049 A 
ATOM     62  H   UNL     1       4.492  -8.323 -10.363  1.00  0.00     0.167 HD
ATOM     63  C   UNL     1       3.712 -10.721  -9.060  1.00  0.00     0.074 A 
ATOM     64  C   UNL     1       3.187 -11.629  -8.062  1.00  0.00     0.031 C 
ATOM     65  C   UNL     1       4.144 -11.102 -10.288  1.00  0.00     0.037 A 
BRANCH  52  66
ATOM     66  C   UNL     1       6.113  -6.435 -13.831  1.00  0.00     0.057 A 
ATOM     67  C   UNL     1       7.410  -5.911 -13.920  1.00  0.00     0.134 A 
ATOM     68  C   UNL     1       5.383  -6.556 -15.019  1.00  0.00     0.134 A 
ATOM     69  F   UNL     1       8.155  -5.749 -12.816  1.00  0.00    -0.206 F 
ATOM     70  C   UNL     1       7.951  -5.506 -15.141  1.00  0.00     0.040 A 
ATOM     71  C   UNL     1       5.924  -6.182 -16.250  1.00  0.00     0.040 A 
ATOM     72  F   UNL     1       4.135  -7.050 -15.005  1.00  0.00    -0.206 F 
ATOM     73  C   UNL     1       7.210  -5.650 -16.312  1.00  0.00     0.006 A 
ENDBRANCH  52  66
BRANCH  53  74
ATOM     74  C   UNL     1       2.384  -8.932  -4.909  1.00  0.00     0.057 A 
ATOM     75  C   UNL     1       3.167  -9.659  -4.006  1.00  0.00     0.134 A 
ATOM     76  C   UNL     1       1.097  -8.565  -4.496  1.00  0.00     0.134 A 
ATOM     77  F   UNL     1       4.397 -10.066  -4.355  1.00  0.00    -0.206 F 
ATOM     78  C   UNL     1       2.693 -10.006  -2.740  1.00  0.00     0.040 A 
ATOM     79  C   UNL     1       0.620  -8.881  -3.222  1.00  0.00     0.040 A 
ATOM     80  F   UNL     1       0.290  -7.881  -5.320  1.00  0.00    -0.206 F 
ATOM     81  C   UNL     1       1.419  -9.606  -2.341  1.00  0.00     0.006 A 
ENDBRANCH  53  74
BRANCH  65  82
ATOM     82  C   UNL     1       4.090 -12.565 -10.628  1.00  0.00     0.057 A 
ATOM     83  C   UNL     1       2.879 -13.219 -10.882  1.00  0.00     0.134 A 
ATOM     84  C   UNL     1       5.270 -13.304 -10.790  1.00  0.00     0.134 A 
ATOM     85  F   UNL     1       1.713 -12.571 -10.738  1.00  0.00    -0.206 F 
ATOM     86  C   UNL     1       2.841 -14.559 -11.273  1.00  0.00     0.040 A 
ATOM     87  C   UNL     1       5.247 -14.635 -11.209  1.00  0.00     0.040 A 
ATOM     88  F   UNL     1       6.466 -12.735 -10.578  1.00  0.00    -0.206 F 
ATOM     89  C   UNL     1       4.029 -15.267 -11.449  1.00  0.00     0.006 A 
ENDBRANCH  65  82
ENDBRANCH  39  40
ENDBRANCH  32  34
ENDBRANCH  31  32
ENDBRANCH  30  31
ENDBRANCH  29  30
ENDBRANCH  28  29
ENDBRANCH  27  28
ENDBRANCH   1  27
TORSDOF 21
