REMARK SMILES Cc1cc2c(c(C)c1Cl)C=C(C(=O)OCCOCCOCCOCCOC(=O)c1ccc(-c3c4nc(c(-c5c(F)cccc5F)c5ccc([nH]5)c(-c5c(F)cccc5F)c5nc(c(-c6c(F)cccc6F)c6ccc3[nH]6)C=C5)C=C4)cc1)[C@@H](C(F)(F)F)O2
REMARK SMILES IDX 21 1 20 2 19 3 18 4 17 5 16 6 15 7 14 8 12 9 13 10 11 11
REMARK SMILES IDX 1 12 2 13 3 14 8 15 4 16 6 17 9 18 5 19 88 20 7 21 10 22
REMARK SMILES IDX 83 23 84 24 85 25 86 26 87 27 22 28 23 29 24 30 25 31 26 32
REMARK SMILES IDX 27 33 28 34 29 35 30 36 82 37 31 38 81 39 32 40 33 41 34 42
REMARK SMILES IDX 75 43 35 44 80 45 74 46 76 47 36 48 79 49 73 50 72 51 37 53
REMARK SMILES IDX 63 54 46 55 62 56 47 57 50 58 61 59 77 60 48 61 49 62 60 64
REMARK SMILES IDX 78 65 51 66 38 67 39 68 44 69 40 70 41 71 43 72 45 73 42 74
REMARK SMILES IDX 64 75 65 76 70 77 66 78 67 79 69 80 71 81 68 82 52 83 53 84
REMARK SMILES IDX 58 85 54 86 55 87 57 88 59 89 56 90
REMARK H PARENT 76 52 50 63
REMARK Flexibility Score: inf
ROOT
ATOM      1  C   UNL     1       0.326  -0.109  10.373  1.00  0.00     0.188 C 
ENDROOT
BRANCH   1   2
ATOM      2  O   UNL     1      -0.050  -0.094   8.995  1.00  0.00    -0.377 OA
BRANCH   2   3
ATOM      3  C   UNL     1       0.340   1.012   8.199  1.00  0.00     0.188 C 
BRANCH   3   4
ATOM      4  C   UNL     1      -0.403   2.324   8.518  1.00  0.00     0.188 C 
BRANCH   4   5
ATOM      5  O   UNL     1      -1.100   2.282   9.757  1.00  0.00    -0.376 OA
BRANCH   5   6
ATOM      6  C   UNL     1      -2.513   2.150   9.724  1.00  0.00     0.202 C 
BRANCH   6   7
ATOM      7  C   UNL     1      -3.102   0.847   9.162  1.00  0.00     0.261 C 
BRANCH   7   8
ATOM      8  O   UNL     1      -2.600   0.443   7.881  1.00  0.00    -0.460 OA
BRANCH   8   9
ATOM      9  C   UNL     1      -2.946   1.188   6.814  1.00  0.00     0.338 C 
ATOM     10  O   UNL     1      -3.691   2.152   6.809  1.00  0.00    -0.246 OA
BRANCH   9  11
ATOM     11  C   UNL     1      -2.128   0.741   5.665  1.00  0.00     0.087 C 
ATOM     12  C   UNL     1       1.048  -0.057   0.085  1.00  0.00     0.046 C 
ATOM     13  C   UNL     1       0.513   0.439   1.402  1.00  0.00    -0.028 A 
ATOM     14  C   UNL     1      -0.050  -0.484   2.289  1.00  0.00     0.052 A 
ATOM     15  C   UNL     1       0.556   1.798   1.771  1.00  0.00     0.047 A 
ATOM     16  C   UNL     1      -0.659  -0.060   3.469  1.00  0.00     0.128 A 
ATOM     17  C   UNL     1      -0.038   2.244   2.976  1.00  0.00    -0.021 A 
ATOM     18  Cl  UNL     1       1.336   2.920   0.697  1.00  0.00    -0.084 Cl
ATOM     19  C   UNL     1      -0.711   1.300   3.792  1.00  0.00     0.022 A 
ATOM     20  O   UNL     1      -1.193  -1.060   4.228  1.00  0.00    -0.475 OA
ATOM     21  C   UNL     1       0.046   3.688   3.416  1.00  0.00     0.047 C 
ATOM     22  C   UNL     1      -1.530   1.694   4.938  1.00  0.00     0.027 C 
ATOM     23  C   UNL     1      -1.944  -0.732   5.425  1.00  0.00     0.316 C 
BRANCH  23  24
ATOM     24  C   UNL     1      -3.277  -1.489   5.357  1.00  0.00     0.430 C 
ATOM     25  F   UNL     1      -3.083  -2.802   5.079  1.00  0.00    -0.167 F 
ATOM     26  F   UNL     1      -3.958  -1.439   6.525  1.00  0.00    -0.167 F 
ATOM     27  F   UNL     1      -4.089  -0.989   4.397  1.00  0.00    -0.167 F 
ENDBRANCH  23  24
ENDBRANCH   9  11
ENDBRANCH   8   9
ENDBRANCH   7   8
ENDBRANCH   6   7
ENDBRANCH   5   6
ENDBRANCH   4   5
ENDBRANCH   3   4
ENDBRANCH   2   3
ENDBRANCH   1   2
BRANCH   1  28
ATOM     28  C   UNL     1       1.057   1.073  11.060  1.00  0.00     0.188 C 
BRANCH  28  29
ATOM     29  O   UNL     1       1.956   1.782  10.218  1.00  0.00    -0.376 OA
BRANCH  29  30
ATOM     30  C   UNL     1       3.342   1.616  10.472  1.00  0.00     0.202 C 
BRANCH  30  31
ATOM     31  C   UNL     1       3.911   0.259  10.043  1.00  0.00     0.261 C 
BRANCH  31  32
ATOM     32  O   UNL     1       3.316  -0.886  10.674  1.00  0.00    -0.460 OA
BRANCH  32  33
ATOM     33  C   UNL     1       3.442  -0.991  12.020  1.00  0.00     0.338 C 
ATOM     34  O   UNL     1       4.042  -0.255  12.764  1.00  0.00    -0.246 OA
BRANCH  33  35
ATOM     35  C   UNL     1       2.527  -2.074  12.450  1.00  0.00     0.060 A 
ATOM     36  C   UNL     1       1.490  -1.770  13.341  1.00  0.00     0.016 A 
ATOM     37  C   UNL     1       2.671  -3.367  11.941  1.00  0.00     0.016 A 
ATOM     38  C   UNL     1       0.604  -2.769  13.742  1.00  0.00     0.010 A 
ATOM     39  C   UNL     1       1.800  -4.373  12.365  1.00  0.00     0.010 A 
ATOM     40  C   UNL     1       0.782  -4.084  13.290  1.00  0.00    -0.014 A 
BRANCH  40  41
ATOM     41  C   UNL     1       0.063  -5.185  13.974  1.00  0.00     0.031 A 
ATOM     42  C   UNL     1       0.744  -5.843  15.143  1.00  0.00     0.074 A 
ATOM     43  C   UNL     1      -1.174  -5.563  13.609  1.00  0.00     0.049 A 
ATOM     44  N   UNL     1       0.316  -6.800  15.922  1.00  0.00    -0.248 NA
ATOM     45  C   UNL     1       2.090  -5.346  15.479  1.00  0.00     0.031 C 
ATOM     46  C   UNL     1      -1.955  -4.977  12.522  1.00  0.00     0.029 A 
ATOM     47  N   UNL     1      -1.994  -6.536  14.128  1.00  0.00    -0.354 N 
ATOM     48  C   UNL     1       1.329  -7.006  16.849  1.00  0.00     0.074 A 
ATOM     49  C   UNL     1       2.412  -6.112  16.509  1.00  0.00     0.031 C 
ATOM     50  C   UNL     1      -3.145  -5.601  12.457  1.00  0.00     0.029 A 
ATOM     51  C   UNL     1      -3.201  -6.644  13.482  1.00  0.00     0.049 A 
ATOM     52  H   UNL     1      -1.740  -7.102  14.892  1.00  0.00     0.167 HD
ATOM     53  C   UNL     1       1.348  -7.851  17.905  1.00  0.00     0.037 A 
ATOM     54  C   UNL     1      -4.227  -7.494  13.693  1.00  0.00     0.037 A 
ATOM     55  C   UNL     1       0.278  -8.748  18.239  1.00  0.00     0.049 A 
ATOM     56  C   UNL     1      -4.133  -8.509  14.805  1.00  0.00     0.074 A 
ATOM     57  C   UNL     1       0.200  -9.635  19.297  1.00  0.00     0.029 A 
ATOM     58  N   UNL     1      -0.894  -8.882  17.511  1.00  0.00    -0.354 N 
ATOM     59  N   UNL     1      -3.191  -8.667  15.703  1.00  0.00    -0.248 NA
ATOM     60  C   UNL     1      -5.241  -9.470  14.928  1.00  0.00     0.031 C 
ATOM     61  C   UNL     1      -0.997 -10.345  19.180  1.00  0.00     0.029 A 
ATOM     62  C   UNL     1      -1.685  -9.867  18.075  1.00  0.00     0.049 A 
ATOM     63  H   UNL     1      -1.128  -8.356  16.713  1.00  0.00     0.167 HD
ATOM     64  C   UNL     1      -3.598  -9.729  16.504  1.00  0.00     0.074 A 
ATOM     65  C   UNL     1      -4.881 -10.167  15.998  1.00  0.00     0.031 C 
ATOM     66  C   UNL     1      -2.962 -10.292  17.560  1.00  0.00     0.037 A 
BRANCH  53  67
ATOM     67  C   UNL     1       2.570  -7.845  18.772  1.00  0.00     0.057 A 
ATOM     68  C   UNL     1       2.847  -6.782  19.641  1.00  0.00     0.134 A 
ATOM     69  C   UNL     1       3.454  -8.930  18.769  1.00  0.00     0.134 A 
ATOM     70  F   UNL     1       2.047  -5.706  19.676  1.00  0.00    -0.206 F 
ATOM     71  C   UNL     1       3.971  -6.792  20.468  1.00  0.00     0.040 A 
ATOM     72  C   UNL     1       4.568  -8.963  19.610  1.00  0.00     0.040 A 
ATOM     73  F   UNL     1       3.244  -9.979  17.960  1.00  0.00    -0.206 F 
ATOM     74  C   UNL     1       4.830  -7.890  20.460  1.00  0.00     0.006 A 
ENDBRANCH  53  67
BRANCH  54  75
ATOM     75  C   UNL     1      -5.437  -7.431  12.833  1.00  0.00     0.057 A 
ATOM     76  C   UNL     1      -6.670  -7.013  13.347  1.00  0.00     0.134 A 
ATOM     77  C   UNL     1      -5.396  -7.803  11.483  1.00  0.00     0.134 A 
ATOM     78  F   UNL     1      -6.780  -6.670  14.639  1.00  0.00    -0.206 F 
ATOM     79  C   UNL     1      -7.819  -6.973  12.555  1.00  0.00     0.040 A 
ATOM     80  C   UNL     1      -6.532  -7.746  10.673  1.00  0.00     0.040 A 
ATOM     81  F   UNL     1      -4.248  -8.221  10.930  1.00  0.00    -0.206 F 
ATOM     82  C   UNL     1      -7.750  -7.334  11.210  1.00  0.00     0.006 A 
ENDBRANCH  54  75
BRANCH  66  83
ATOM     83  C   UNL     1      -3.623 -11.450  18.248  1.00  0.00     0.057 A 
ATOM     84  C   UNL     1      -3.646 -12.725  17.670  1.00  0.00     0.134 A 
ATOM     85  C   UNL     1      -4.130 -11.319  19.549  1.00  0.00     0.134 A 
ATOM     86  F   UNL     1      -3.183 -12.914  16.425  1.00  0.00    -0.206 F 
ATOM     87  C   UNL     1      -4.146 -13.829  18.361  1.00  0.00     0.040 A 
ATOM     88  C   UNL     1      -4.609 -12.421  20.259  1.00  0.00     0.040 A 
ATOM     89  F   UNL     1      -4.124 -10.128  20.165  1.00  0.00    -0.206 F 
ATOM     90  C   UNL     1      -4.616 -13.681  19.665  1.00  0.00     0.006 A 
ENDBRANCH  66  83
ENDBRANCH  40  41
ENDBRANCH  33  35
ENDBRANCH  32  33
ENDBRANCH  31  32
ENDBRANCH  30  31
ENDBRANCH  29  30
ENDBRANCH  28  29
ENDBRANCH   1  28
TORSDOF 21
