REMARK SMILES O=C(OCCOCCOCCOCCOC(=O)c1ccccc1C(=O)Nc1ccc(N2C(=O)[C@H]3[C@@H]4CC[C@@H](C4)[C@@H]3C2=O)cc1)c1ccc(-c2c3nc(c(-c4c(F)cccc4F)c4ccc([nH]4)c(-c4c(F)cccc4F)c4nc(c(-c5c(F)cccc5F)c5ccc2[nH]5)C=C4)C=C3)cc1
REMARK SMILES IDX 10 1 9 2 8 3 7 4 6 5 5 6 4 7 3 8 2 9 1 10 45 11 46 12 98 13
REMARK SMILES IDX 47 14 97 15 48 16 49 17 50 18 91 19 51 20 96 21 90 22 92 23
REMARK SMILES IDX 52 24 95 25 89 26 88 27 53 29 79 30 62 31 78 32 63 33 66 34
REMARK SMILES IDX 77 35 93 36 64 37 65 38 76 40 94 41 67 42 54 43 55 44 60 45
REMARK SMILES IDX 56 46 57 47 59 48 61 49 58 50 80 51 81 52 86 53 82 54 83 55
REMARK SMILES IDX 85 56 87 57 84 58 68 59 69 60 74 61 70 62 71 63 73 64 75 65
REMARK SMILES IDX 72 66 11 67 12 68 13 69 14 70 15 71 16 72 17 73 18 74 19 75
REMARK SMILES IDX 23 76 20 77 22 78 21 79 24 80 25 81 26 82 27 84 28 85 44 86
REMARK SMILES IDX 29 87 43 88 30 89 31 90 32 91 41 92 33 93 34 94 40 95 42 96
REMARK SMILES IDX 35 97 38 98 36 99 39 100 37 101
REMARK H PARENT 92 28 66 39 26 83
REMARK Flexibility Score: inf
ROOT
ATOM      1  C   UNL     1       6.803  -1.742   2.441  1.00  0.00     0.188 C 
ENDROOT
BRANCH   1   2
ATOM      2  O   UNL     1       5.396  -1.405   2.413  1.00  0.00    -0.377 OA
BRANCH   2   3
ATOM      3  C   UNL     1       4.859  -0.095   2.647  1.00  0.00     0.188 C 
BRANCH   3   4
ATOM      4  C   UNL     1       3.406   0.145   2.090  1.00  0.00     0.188 C 
BRANCH   4   5
ATOM      5  O   UNL     1       3.262   0.615   0.750  1.00  0.00    -0.376 OA
BRANCH   5   6
ATOM      6  C   UNL     1       3.978   1.799   0.437  1.00  0.00     0.202 C 
BRANCH   6   7
ATOM      7  C   UNL     1       3.779   2.143  -1.041  1.00  0.00     0.261 C 
BRANCH   7   8
ATOM      8  O   UNL     1       2.373   2.314  -1.334  1.00  0.00    -0.460 OA
BRANCH   8   9
ATOM      9  C   UNL     1       1.621   1.531  -2.146  1.00  0.00     0.338 C 
ATOM     10  O   UNL     1       0.467   1.841  -2.428  1.00  0.00    -0.246 OA
BRANCH   9  11
ATOM     11  C   UNL     1       2.183   0.316  -2.780  1.00  0.00     0.060 A 
ATOM     12  C   UNL     1       2.490  -0.810  -2.034  1.00  0.00     0.016 A 
ATOM     13  C   UNL     1       2.248   0.228  -4.173  1.00  0.00     0.016 A 
ATOM     14  C   UNL     1       2.998  -1.957  -2.666  1.00  0.00     0.010 A 
ATOM     15  C   UNL     1       2.731  -0.942  -4.798  1.00  0.00     0.010 A 
ATOM     16  C   UNL     1       3.209  -2.035  -4.054  1.00  0.00    -0.014 A 
BRANCH  16  17
ATOM     17  C   UNL     1       4.036  -3.134  -4.710  1.00  0.00     0.031 A 
ATOM     18  C   UNL     1       5.144  -2.755  -5.697  1.00  0.00     0.074 A 
ATOM     19  C   UNL     1       3.983  -4.447  -4.374  1.00  0.00     0.049 A 
ATOM     20  N   UNL     1       5.846  -3.517  -6.505  1.00  0.00    -0.248 NA
ATOM     21  C   UNL     1       5.538  -1.336  -5.751  1.00  0.00     0.031 C 
ATOM     22  C   UNL     1       3.136  -5.041  -3.344  1.00  0.00     0.029 A 
ATOM     23  N   UNL     1       4.731  -5.524  -4.826  1.00  0.00    -0.354 N 
ATOM     24  C   UNL     1       6.677  -2.661  -7.224  1.00  0.00     0.074 A 
ATOM     25  C   UNL     1       6.426  -1.325  -6.734  1.00  0.00     0.031 C 
ATOM     26  C   UNL     1       3.492  -6.323  -3.158  1.00  0.00     0.029 A 
ATOM     27  C   UNL     1       4.486  -6.704  -4.156  1.00  0.00     0.049 A 
ATOM     28  H   UNL     1       5.381  -5.451  -5.562  1.00  0.00     0.167 HD
ATOM     29  C   UNL     1       7.568  -2.943  -8.206  1.00  0.00     0.037 A 
ATOM     30  C   UNL     1       4.948  -7.962  -4.342  1.00  0.00     0.037 A 
ATOM     31  C   UNL     1       7.943  -4.261  -8.640  1.00  0.00     0.049 A 
ATOM     32  C   UNL     1       5.841  -8.273  -5.518  1.00  0.00     0.074 A 
ATOM     33  C   UNL     1       8.804  -4.619  -9.666  1.00  0.00     0.029 A 
ATOM     34  N   UNL     1       7.519  -5.434  -8.048  1.00  0.00    -0.354 N 
ATOM     35  N   UNL     1       6.471  -7.455  -6.324  1.00  0.00    -0.248 NA
ATOM     36  C   UNL     1       6.028  -9.698  -5.854  1.00  0.00     0.031 C 
ATOM     37  C   UNL     1       8.870  -6.015  -9.718  1.00  0.00     0.029 A 
ATOM     38  C   UNL     1       8.072  -6.520  -8.707  1.00  0.00     0.049 A 
ATOM     39  H   UNL     1       6.914  -5.491  -7.274  1.00  0.00     0.167 HD
ATOM     40  C   UNL     1       7.097  -8.262  -7.270  1.00  0.00     0.074 A 
ATOM     41  C   UNL     1       6.827  -9.634  -6.910  1.00  0.00     0.031 C 
ATOM     42  C   UNL     1       7.802  -7.888  -8.364  1.00  0.00     0.037 A 
BRANCH  29  43
ATOM     43  C   UNL     1       8.157  -1.787  -8.955  1.00  0.00     0.057 A 
ATOM     44  C   UNL     1       9.241  -1.047  -8.474  1.00  0.00     0.134 A 
ATOM     45  C   UNL     1       7.652  -1.458 -10.221  1.00  0.00     0.134 A 
ATOM     46  F   UNL     1       9.758  -1.306  -7.264  1.00  0.00    -0.206 F 
ATOM     47  C   UNL     1       9.798  -0.009  -9.225  1.00  0.00     0.040 A 
ATOM     48  C   UNL     1       8.211  -0.436 -10.987  1.00  0.00     0.040 A 
ATOM     49  F   UNL     1       6.619  -2.140 -10.738  1.00  0.00    -0.206 F 
ATOM     50  C   UNL     1       9.287   0.293 -10.488  1.00  0.00     0.006 A 
ENDBRANCH  29  43
BRANCH  30  51
ATOM     51  C   UNL     1       4.487  -9.091  -3.478  1.00  0.00     0.057 A 
ATOM     52  C   UNL     1       5.396  -9.862  -2.740  1.00  0.00     0.134 A 
ATOM     53  C   UNL     1       3.145  -9.493  -3.449  1.00  0.00     0.134 A 
ATOM     54  F   UNL     1       6.707  -9.576  -2.770  1.00  0.00    -0.206 F 
ATOM     55  C   UNL     1       4.990 -10.987  -2.017  1.00  0.00     0.040 A 
ATOM     56  C   UNL     1       2.719 -10.591  -2.700  1.00  0.00     0.040 A 
ATOM     57  F   UNL     1       2.222  -8.830  -4.162  1.00  0.00    -0.206 F 
ATOM     58  C   UNL     1       3.645 -11.349  -1.988  1.00  0.00     0.006 A 
ENDBRANCH  30  51
BRANCH  42  59
ATOM     59  C   UNL     1       8.297  -8.963  -9.285  1.00  0.00     0.057 A 
ATOM     60  C   UNL     1       7.417  -9.634 -10.145  1.00  0.00     0.134 A 
ATOM     61  C   UNL     1       9.656  -9.286  -9.372  1.00  0.00     0.134 A 
ATOM     62  F   UNL     1       6.101  -9.377 -10.106  1.00  0.00    -0.206 F 
ATOM     63  C   UNL     1       7.871 -10.593 -11.053  1.00  0.00     0.040 A 
ATOM     64  C   UNL     1      10.125 -10.230 -10.289  1.00  0.00     0.040 A 
ATOM     65  F   UNL     1      10.554  -8.674  -8.584  1.00  0.00    -0.206 F 
ATOM     66  C   UNL     1       9.230 -10.887 -11.132  1.00  0.00     0.006 A 
ENDBRANCH  42  59
ENDBRANCH  16  17
ENDBRANCH   9  11
ENDBRANCH   8   9
ENDBRANCH   7   8
ENDBRANCH   6   7
ENDBRANCH   5   6
ENDBRANCH   4   5
ENDBRANCH   3   4
ENDBRANCH   2   3
ENDBRANCH   1   2
BRANCH   1  67
ATOM     67  C   UNL     1       7.416  -3.396   2.446  1.00  0.00     0.188 C 
BRANCH  67  68
ATOM     68  O   UNL     1       6.857  -4.770   1.887  1.00  0.00    -0.376 OA
BRANCH  68  69
ATOM     69  C   UNL     1       5.660  -5.815   2.347  1.00  0.00     0.202 C 
BRANCH  69  70
ATOM     70  C   UNL     1       3.926  -5.306   2.963  1.00  0.00     0.261 C 
BRANCH  70  71
ATOM     71  O   UNL     1       3.702  -3.481   3.883  1.00  0.00    -0.460 OA
BRANCH  71  72
ATOM     72  C   UNL     1       4.350  -2.464   4.763  1.00  0.00     0.339 C 
ATOM     73  O   UNL     1       5.583  -2.263   4.814  1.00  0.00    -0.246 OA
BRANCH  72  74
ATOM     74  C   UNL     1       3.776  -1.852   5.999  1.00  0.00     0.072 A 
ATOM     75  C   UNL     1       4.531  -0.657   6.309  1.00  0.00     0.016 A 
ATOM     76  C   UNL     1       3.319  -2.609   7.090  1.00  0.00     0.054 A 
ATOM     77  C   UNL     1       4.957  -0.310   7.587  1.00  0.00     0.001 A 
ATOM     78  C   UNL     1       3.733  -2.200   8.396  1.00  0.00     0.015 A 
ATOM     79  C   UNL     1       4.574  -1.105   8.639  1.00  0.00     0.001 A 
BRANCH  76  80
ATOM     80  C   UNL     1       2.270  -3.686   7.107  1.00  0.00     0.256 C 
ATOM     81  O   UNL     1       1.556  -3.750   8.115  1.00  0.00    -0.269 OA
ATOM     82  N   UNL     1       1.938  -4.525   6.069  1.00  0.00    -0.322 N 
ATOM     83  H   UNL     1       1.087  -5.012   6.159  1.00  0.00     0.170 HD
BRANCH  82  84
ATOM     84  C   UNL     1       2.661  -4.766   4.906  1.00  0.00     0.041 A 
ATOM     85  C   UNL     1       1.891  -4.141   3.443  1.00  0.00     0.028 A 
ATOM     86  C   UNL     1       4.412  -4.883   5.053  1.00  0.00     0.028 A 
ATOM     87  C   UNL     1       2.822  -3.493   2.091  1.00  0.00     0.029 A 
ATOM     88  C   UNL     1       5.408  -4.207   3.694  1.00  0.00     0.029 A 
ATOM     89  C   UNL     1       4.587  -3.545   2.110  1.00  0.00     0.052 A 
BRANCH  89  90
ATOM     90  N   UNL     1       5.171  -3.416   0.666  1.00  0.00    -0.250 N 
ATOM     91  C   UNL     1       5.735  -4.430  -0.153  1.00  0.00     0.237 C 
ATOM     92  C   UNL     1       5.260  -2.266  -0.131  1.00  0.00     0.237 C 
ATOM     93  O   UNL     1       5.277  -5.518  -0.461  1.00  0.00    -0.274 OA
ATOM     94  C   UNL     1       6.894  -3.712  -0.825  1.00  0.00     0.095 C 
ATOM     95  C   UNL     1       5.995  -2.655  -1.390  1.00  0.00     0.095 C 
ATOM     96  O   UNL     1       4.841  -1.133  -0.024  1.00  0.00    -0.274 OA
ATOM     97  C   UNL     1       7.978  -3.824  -1.904  1.00  0.00     0.002 C 
ATOM     98  C   UNL     1       6.912  -1.881  -2.325  1.00  0.00     0.002 C 
ATOM     99  C   UNL     1       9.036  -2.734  -1.529  1.00  0.00     0.005 C 
ATOM    100  C   UNL     1       7.410  -3.102  -3.133  1.00  0.00     0.009 C 
ATOM    101  C   UNL     1       8.223  -1.419  -1.661  1.00  0.00     0.005 C 
ENDBRANCH  89  90
ENDBRANCH  82  84
ENDBRANCH  76  80
ENDBRANCH  72  74
ENDBRANCH  71  72
ENDBRANCH  70  71
ENDBRANCH  69  70
ENDBRANCH  68  69
ENDBRANCH  67  68
ENDBRANCH   1  67
TORSDOF 23
