REMARK SMILES Cc1nc2ncnn2c(O)c1CCC(=O)OCCOCCOCCOCCOC(=O)c1ccc(-c2c3nc(c(-c4c(F)cccc4F)c4ccc([nH]4)c(-c4c(F)cccc4F)c4nc(c(-c5c(F)cccc5F)c5ccc2[nH]5)C=C4)C=C3)cc1
REMARK SMILES IDX 21 1 20 2 19 3 18 4 17 5 16 6 14 7 15 8 13 9 12 10 11 11
REMARK SMILES IDX 1 12 2 13 3 14 4 15 9 16 5 17 8 18 6 19 7 20 10 21 22 23
REMARK SMILES IDX 23 24 24 25 25 26 26 27 27 28 28 29 29 30 30 31 31 32 32 33
REMARK SMILES IDX 84 34 33 35 83 36 34 37 35 38 36 39 77 40 37 41 82 42 76 43
REMARK SMILES IDX 78 44 38 45 81 46 75 47 74 48 39 50 65 51 48 52 64 53 49 54
REMARK SMILES IDX 52 55 63 56 79 57 50 58 51 59 62 61 80 62 53 63 40 64 41 65
REMARK SMILES IDX 46 66 42 67 43 68 45 69 47 70 44 71 66 72 67 73 72 74 68 75
REMARK SMILES IDX 69 76 71 77 73 78 70 79 54 80 55 81 60 82 56 83 57 84 59 85
REMARK SMILES IDX 61 86 58 87
REMARK H PARENT 10 22 78 49 52 60
REMARK Flexibility Score: inf
ROOT
ATOM      1  C   UNL     1       2.579   5.409  -0.208  1.00  0.00     0.188 C 
ENDROOT
BRANCH   1   2
ATOM      2  C   UNL     1       2.242   6.778  -0.806  1.00  0.00     0.188 C 
BRANCH   2   3
ATOM      3  O   UNL     1       1.603   7.731   0.025  1.00  0.00    -0.376 OA
BRANCH   3   4
ATOM      4  C   UNL     1       0.269   7.557   0.486  1.00  0.00     0.202 C 
BRANCH   4   5
ATOM      5  C   UNL     1      -0.725   6.810  -0.401  1.00  0.00     0.261 C 
BRANCH   5   6
ATOM      6  O   UNL     1      -0.436   5.390  -0.442  1.00  0.00    -0.463 OA
BRANCH   6   7
ATOM      7  C   UNL     1      -0.727   4.748  -1.596  1.00  0.00     0.306 C 
ATOM      8  O   UNL     1      -1.125   5.313  -2.607  1.00  0.00    -0.252 OA
BRANCH   7   9
ATOM      9  C   UNL     1      -0.602   3.236  -1.511  1.00  0.00     0.128 C 
BRANCH   9  10
ATOM     10  C   UNL     1       0.399   2.518  -0.585  1.00  0.00     0.055 C 
BRANCH  10  11
ATOM     11  C   UNL     1       0.032   2.148   0.849  1.00  0.00     0.036 A 
ATOM     12  C   UNL     1       0.592  -0.363   0.290  1.00  0.00     0.067 C 
ATOM     13  C   UNL     1       0.073   0.671   1.271  1.00  0.00     0.050 A 
ATOM     14  N   UNL     1      -0.248   0.198   2.439  1.00  0.00    -0.216 NA
ATOM     15  C   UNL     1      -0.594   1.091   3.399  1.00  0.00     0.255 A 
ATOM     16  C   UNL     1      -0.233   2.975   1.891  1.00  0.00     0.220 A 
ATOM     17  N   UNL     1      -0.949   0.879   4.648  1.00  0.00    -0.197 NA
ATOM     18  N   UNL     1      -0.553   2.458   3.158  1.00  0.00    -0.163 N 
ATOM     19  C   UNL     1      -1.100   2.134   5.149  1.00  0.00     0.249 A 
ATOM     20  N   UNL     1      -0.868   3.130   4.298  1.00  0.00    -0.150 NA
BRANCH  16  21
ATOM     21  O   UNL     1      -0.205   4.349   1.821  1.00  0.00    -0.493 OA
ATOM     22  H   UNL     1      -0.398   4.861   2.582  1.00  0.00     0.295 HD
ENDBRANCH  16  21
ENDBRANCH  10  11
ENDBRANCH   9  10
ENDBRANCH   7   9
ENDBRANCH   6   7
ENDBRANCH   5   6
ENDBRANCH   4   5
ENDBRANCH   3   4
ENDBRANCH   2   3
ENDBRANCH   1   2
BRANCH   1  23
ATOM     23  O   UNL     1       3.374   5.317   0.953  1.00  0.00    -0.377 OA
BRANCH  23  24
ATOM     24  C   UNL     1       2.916   5.988   2.110  1.00  0.00     0.188 C 
BRANCH  24  25
ATOM     25  C   UNL     1       3.551   7.372   2.338  1.00  0.00     0.188 C 
BRANCH  25  26
ATOM     26  O   UNL     1       4.865   7.707   1.886  1.00  0.00    -0.376 OA
BRANCH  26  27
ATOM     27  C   UNL     1       5.524   6.966   0.870  1.00  0.00     0.202 C 
BRANCH  27  28
ATOM     28  C   UNL     1       6.298   5.729   1.339  1.00  0.00     0.261 C 
BRANCH  28  29
ATOM     29  O   UNL     1       5.686   5.077   2.441  1.00  0.00    -0.460 OA
BRANCH  29  30
ATOM     30  C   UNL     1       5.847   5.715   3.605  1.00  0.00     0.338 C 
ATOM     31  O   UNL     1       6.534   6.731   3.820  1.00  0.00    -0.246 OA
BRANCH  30  32
ATOM     32  C   UNL     1       5.187   4.973   4.673  1.00  0.00     0.060 A 
ATOM     33  C   UNL     1       5.211   5.576   5.932  1.00  0.00     0.016 A 
ATOM     34  C   UNL     1       4.986   3.595   4.496  1.00  0.00     0.016 A 
ATOM     35  C   UNL     1       5.416   4.763   7.015  1.00  0.00     0.010 A 
ATOM     36  C   UNL     1       5.206   2.783   5.576  1.00  0.00     0.010 A 
ATOM     37  C   UNL     1       5.557   3.394   6.779  1.00  0.00    -0.014 A 
BRANCH  37  38
ATOM     38  C   UNL     1       6.301   2.644   7.761  1.00  0.00     0.031 A 
ATOM     39  C   UNL     1       5.506   2.092   8.867  1.00  0.00     0.074 A 
ATOM     40  C   UNL     1       7.612   2.401   7.576  1.00  0.00     0.049 A 
ATOM     41  N   UNL     1       5.622   2.333  10.129  1.00  0.00    -0.248 NA
ATOM     42  C   UNL     1       4.369   1.235   8.504  1.00  0.00     0.031 C 
ATOM     43  C   UNL     1       8.414   2.620   6.365  1.00  0.00     0.029 A 
ATOM     44  N   UNL     1       8.480   1.773   8.408  1.00  0.00    -0.354 N 
ATOM     45  C   UNL     1       4.677   1.522  10.741  1.00  0.00     0.074 A 
ATOM     46  C   UNL     1       3.837   0.990   9.699  1.00  0.00     0.031 C 
ATOM     47  C   UNL     1       9.561   1.911   6.467  1.00  0.00     0.029 A 
ATOM     48  C   UNL     1       9.612   1.286   7.778  1.00  0.00     0.049 A 
ATOM     49  H   UNL     1       8.319   1.673   9.374  1.00  0.00     0.167 HD
ATOM     50  C   UNL     1       4.777   1.155  12.044  1.00  0.00     0.037 A 
ATOM     51  C   UNL     1      10.435   0.331   8.273  1.00  0.00     0.037 A 
ATOM     52  C   UNL     1       5.668   1.998  12.790  1.00  0.00     0.049 A 
ATOM     53  C   UNL     1      10.188   0.242   9.740  1.00  0.00     0.074 A 
ATOM     54  C   UNL     1       5.708   3.355  13.052  1.00  0.00     0.029 A 
ATOM     55  N   UNL     1       6.919   1.522  13.098  1.00  0.00    -0.354 N 
ATOM     56  N   UNL     1      10.500   1.175  10.600  1.00  0.00    -0.248 NA
ATOM     57  C   UNL     1       9.181  -0.707  10.197  1.00  0.00     0.031 C 
ATOM     58  C   UNL     1       7.091   3.695  13.035  1.00  0.00     0.029 A 
ATOM     59  C   UNL     1       7.806   2.523  12.788  1.00  0.00     0.049 A 
ATOM     60  H   UNL     1       7.136   0.637  13.470  1.00  0.00     0.167 HD
ATOM     61  C   UNL     1       9.465   1.173  11.527  1.00  0.00     0.074 A 
ATOM     62  C   UNL     1       8.731  -0.063  11.277  1.00  0.00     0.031 C 
ATOM     63  C   UNL     1       9.117   2.299  12.220  1.00  0.00     0.037 A 
BRANCH  50  64
ATOM     64  C   UNL     1       4.279  -0.166  12.537  1.00  0.00     0.057 A 
ATOM     65  C   UNL     1       4.026  -0.361  13.900  1.00  0.00     0.134 A 
ATOM     66  C   UNL     1       4.253  -1.327  11.735  1.00  0.00     0.134 A 
ATOM     67  F   UNL     1       4.085   0.664  14.762  1.00  0.00    -0.206 F 
ATOM     68  C   UNL     1       3.762  -1.629  14.428  1.00  0.00     0.040 A 
ATOM     69  C   UNL     1       3.931  -2.585  12.239  1.00  0.00     0.040 A 
ATOM     70  F   UNL     1       4.625  -1.306  10.447  1.00  0.00    -0.206 F 
ATOM     71  C   UNL     1       3.703  -2.743  13.596  1.00  0.00     0.006 A 
ENDBRANCH  50  64
BRANCH  51  72
ATOM     72  C   UNL     1      11.130  -0.729   7.501  1.00  0.00     0.057 A 
ATOM     73  C   UNL     1      12.153  -1.493   8.079  1.00  0.00     0.134 A 
ATOM     74  C   UNL     1      10.663  -1.181   6.251  1.00  0.00     0.134 A 
ATOM     75  F   UNL     1      12.629  -1.183   9.293  1.00  0.00    -0.206 F 
ATOM     76  C   UNL     1      12.679  -2.632   7.452  1.00  0.00     0.040 A 
ATOM     77  C   UNL     1      11.191  -2.303   5.606  1.00  0.00     0.040 A 
ATOM     78  F   UNL     1       9.617  -0.603   5.643  1.00  0.00    -0.206 F 
ATOM     79  C   UNL     1      12.197  -3.041   6.212  1.00  0.00     0.006 A 
ENDBRANCH  51  72
BRANCH  63  80
ATOM     80  C   UNL     1      10.017   3.502  12.133  1.00  0.00     0.057 A 
ATOM     81  C   UNL     1      10.255   4.199  10.939  1.00  0.00     0.134 A 
ATOM     82  C   UNL     1      10.485   4.092  13.312  1.00  0.00     0.134 A 
ATOM     83  F   UNL     1       9.749   3.772   9.776  1.00  0.00    -0.206 F 
ATOM     84  C   UNL     1      10.958   5.407  10.916  1.00  0.00     0.040 A 
ATOM     85  C   UNL     1      11.161   5.316  13.307  1.00  0.00     0.040 A 
ATOM     86  F   UNL     1      10.238   3.519  14.501  1.00  0.00    -0.206 F 
ATOM     87  C   UNL     1      11.405   5.975  12.104  1.00  0.00     0.006 A 
ENDBRANCH  63  80
ENDBRANCH  37  38
ENDBRANCH  30  32
ENDBRANCH  29  30
ENDBRANCH  28  29
ENDBRANCH  27  28
ENDBRANCH  26  27
ENDBRANCH  25  26
ENDBRANCH  24  25
ENDBRANCH  23  24
ENDBRANCH   1  23
TORSDOF 23
