REMARK SMILES O=C(OCCOCCOCCOCCOC(=O)[C@]1([NH2+]C2CC2)CCC[C@H](SC[C@H](O)CO)C1)c1ccc(-c2c3nc(c(-c4c(F)cccc4F)c4ccc([nH]4)c(-c4c(F)cccc4F)c4nc(c(-c5c(F)cccc5F)c5ccc2[nH]5)C=C4)C=C3)cc1
REMARK SMILES IDX 10 1 9 2 8 3 7 4 6 5 5 6 4 7 3 8 2 9 1 10 34 11 35 12 87 13
REMARK SMILES IDX 36 14 86 15 37 16 38 17 39 18 80 19 40 20 85 21 79 22 81 23
REMARK SMILES IDX 41 24 84 25 78 26 77 27 42 29 68 30 51 31 67 32 52 33 55 34
REMARK SMILES IDX 66 35 82 36 53 37 54 38 65 40 83 41 56 42 43 43 44 44 49 45
REMARK SMILES IDX 45 46 46 47 48 48 50 49 47 50 69 51 70 52 75 53 71 54 72 55
REMARK SMILES IDX 74 56 76 57 73 58 57 59 58 60 63 61 59 62 60 63 62 64 64 65
REMARK SMILES IDX 61 66 11 67 12 68 13 69 14 70 15 71 16 72 17 73 18 74 23 75
REMARK SMILES IDX 33 76 24 77 26 78 25 79 19 80 20 83 21 84 22 85 27 86 28 87
REMARK SMILES IDX 29 88 31 89 32 90 30 92
REMARK H PARENT 81 28 55 39 19 81 19 82 32 91 30 93
REMARK Flexibility Score: inf
ROOT
ATOM      1  C   UNL     1       4.254   3.310  -3.268  1.00  0.00     0.188 C 
ENDROOT
BRANCH   1   2
ATOM      2  O   UNL     1       4.637   2.330  -2.328  1.00  0.00    -0.377 OA
BRANCH   2   3
ATOM      3  C   UNL     1       5.288   1.143  -2.752  1.00  0.00     0.188 C 
BRANCH   3   4
ATOM      4  C   UNL     1       6.679   1.449  -3.228  1.00  0.00     0.188 C 
BRANCH   4   5
ATOM      5  O   UNL     1       6.701   2.128  -4.478  1.00  0.00    -0.376 OA
BRANCH   5   6
ATOM      6  C   UNL     1       6.208   1.452  -5.624  1.00  0.00     0.202 C 
BRANCH   6   7
ATOM      7  C   UNL     1       6.616  -0.018  -5.758  1.00  0.00     0.261 C 
BRANCH   7   8
ATOM      8  O   UNL     1       8.004  -0.138  -6.162  1.00  0.00    -0.460 OA
BRANCH   8   9
ATOM      9  C   UNL     1       8.984  -0.101  -5.215  1.00  0.00     0.338 C 
ATOM     10  O   UNL     1       9.193  -0.923  -4.340  1.00  0.00    -0.246 OA
BRANCH   9  11
ATOM     11  C   UNL     1       9.738   1.157  -5.422  1.00  0.00     0.060 A 
ATOM     12  C   UNL     1       9.374   2.250  -4.658  1.00  0.00     0.016 A 
ATOM     13  C   UNL     1      10.480   1.353  -6.575  1.00  0.00     0.016 A 
ATOM     14  C   UNL     1       9.260   3.477  -5.289  1.00  0.00     0.010 A 
ATOM     15  C   UNL     1      10.659   2.656  -7.045  1.00  0.00     0.010 A 
ATOM     16  C   UNL     1       9.887   3.707  -6.508  1.00  0.00    -0.014 A 
BRANCH  16  17
ATOM     17  C   UNL     1       9.590   4.923  -7.324  1.00  0.00     0.031 A 
ATOM     18  C   UNL     1       9.314   4.724  -8.795  1.00  0.00     0.074 A 
ATOM     19  C   UNL     1       9.465   6.163  -6.803  1.00  0.00     0.049 A 
ATOM     20  N   UNL     1       9.504   5.536  -9.798  1.00  0.00    -0.248 NA
ATOM     21  C   UNL     1       8.796   3.400  -9.191  1.00  0.00     0.031 C 
ATOM     22  C   UNL     1       9.488   6.517  -5.382  1.00  0.00     0.029 A 
ATOM     23  N   UNL     1       9.283   7.375  -7.428  1.00  0.00    -0.354 N 
ATOM     24  C   UNL     1       9.258   4.782 -10.942  1.00  0.00     0.074 A 
ATOM     25  C   UNL     1       8.890   3.453 -10.511  1.00  0.00     0.031 C 
ATOM     26  C   UNL     1       9.272   7.832  -5.240  1.00  0.00     0.029 A 
ATOM     27  C   UNL     1       9.297   8.441  -6.557  1.00  0.00     0.049 A 
ATOM     28  H   UNL     1       9.155   7.470  -8.400  1.00  0.00     0.167 HD
ATOM     29  C   UNL     1       9.360   5.178 -12.232  1.00  0.00     0.037 A 
ATOM     30  C   UNL     1       9.444   9.758  -6.790  1.00  0.00     0.037 A 
ATOM     31  C   UNL     1       9.641   6.542 -12.593  1.00  0.00     0.049 A 
ATOM     32  C   UNL     1       9.646  10.184  -8.217  1.00  0.00     0.074 A 
ATOM     33  C   UNL     1       9.858   7.096 -13.839  1.00  0.00     0.029 A 
ATOM     34  N   UNL     1       9.702   7.582 -11.671  1.00  0.00    -0.354 N 
ATOM     35  N   UNL     1       9.644   9.450  -9.306  1.00  0.00    -0.248 NA
ATOM     36  C   UNL     1       9.911  11.607  -8.447  1.00  0.00     0.031 C 
ATOM     37  C   UNL     1      10.080   8.468 -13.665  1.00  0.00     0.029 A 
ATOM     38  C   UNL     1       9.948   8.777 -12.318  1.00  0.00     0.049 A 
ATOM     39  H   UNL     1       9.586   7.481 -10.699  1.00  0.00     0.167 HD
ATOM     40  C   UNL     1       9.897  10.322 -10.354  1.00  0.00     0.074 A 
ATOM     41  C   UNL     1      10.014  11.645  -9.767  1.00  0.00     0.031 C 
ATOM     42  C   UNL     1      10.037  10.066 -11.679  1.00  0.00     0.037 A 
BRANCH  29  43
ATOM     43  C   UNL     1       9.246   4.123 -13.296  1.00  0.00     0.057 A 
ATOM     44  C   UNL     1       8.045   3.465 -13.590  1.00  0.00     0.134 A 
ATOM     45  C   UNL     1      10.385   3.719 -14.008  1.00  0.00     0.134 A 
ATOM     46  F   UNL     1       6.920   3.776 -12.927  1.00  0.00    -0.206 F 
ATOM     47  C   UNL     1       7.987   2.424 -14.522  1.00  0.00     0.040 A 
ATOM     48  C   UNL     1      10.335   2.700 -14.962  1.00  0.00     0.040 A 
ATOM     49  F   UNL     1      11.573   4.298 -13.778  1.00  0.00    -0.206 F 
ATOM     50  C   UNL     1       9.135   2.040 -15.213  1.00  0.00     0.006 A 
ENDBRANCH  29  43
BRANCH  30  51
ATOM     51  C   UNL     1       9.552  10.728  -5.661  1.00  0.00     0.057 A 
ATOM     52  C   UNL     1       8.628  11.767  -5.497  1.00  0.00     0.134 A 
ATOM     53  C   UNL     1      10.595  10.655  -4.724  1.00  0.00     0.134 A 
ATOM     54  F   UNL     1       7.617  11.913  -6.365  1.00  0.00    -0.206 F 
ATOM     55  C   UNL     1       8.747  12.702  -4.464  1.00  0.00     0.040 A 
ATOM     56  C   UNL     1      10.703  11.557  -3.663  1.00  0.00     0.040 A 
ATOM     57  F   UNL     1      11.522   9.690  -4.813  1.00  0.00    -0.206 F 
ATOM     58  C   UNL     1       9.783  12.593  -3.538  1.00  0.00     0.006 A 
ENDBRANCH  30  51
BRANCH  42  59
ATOM     59  C   UNL     1      10.270  11.251 -12.561  1.00  0.00     0.057 A 
ATOM     60  C   UNL     1      11.492  11.935 -12.576  1.00  0.00     0.134 A 
ATOM     61  C   UNL     1       9.258  11.698 -13.419  1.00  0.00     0.134 A 
ATOM     62  F   UNL     1      12.490  11.562 -11.761  1.00  0.00    -0.206 F 
ATOM     63  C   UNL     1      11.688  13.045 -13.395  1.00  0.00     0.040 A 
ATOM     64  C   UNL     1       9.455  12.786 -14.266  1.00  0.00     0.040 A 
ATOM     65  F   UNL     1       8.069  11.077 -13.453  1.00  0.00    -0.206 F 
ATOM     66  C   UNL     1      10.670  13.469 -14.248  1.00  0.00     0.006 A 
ENDBRANCH  42  59
ENDBRANCH  16  17
ENDBRANCH   9  11
ENDBRANCH   8   9
ENDBRANCH   7   8
ENDBRANCH   6   7
ENDBRANCH   5   6
ENDBRANCH   4   5
ENDBRANCH   3   4
ENDBRANCH   2   3
ENDBRANCH   1   2
BRANCH   1  67
ATOM     67  C   UNL     1       4.478   4.642  -2.569  1.00  0.00     0.188 C 
BRANCH  67  68
ATOM     68  O   UNL     1       5.807   4.693  -2.033  1.00  0.00    -0.376 OA
BRANCH  68  69
ATOM     69  C   UNL     1       6.076   5.896  -1.321  1.00  0.00     0.202 C 
BRANCH  69  70
ATOM     70  C   UNL     1       5.647   5.902   0.155  1.00  0.00     0.261 C 
BRANCH  70  71
ATOM     71  O   UNL     1       4.359   5.285   0.407  1.00  0.00    -0.459 OA
BRANCH  71  72
ATOM     72  C   UNL     1       3.651   5.813   1.443  1.00  0.00     0.368 C 
ATOM     73  O   UNL     1       4.027   6.819   2.045  1.00  0.00    -0.245 OA
BRANCH  72  74
ATOM     74  C   UNL     1       2.261   5.133   1.731  1.00  0.00     0.195 C 
ATOM     75  C   UNL     1       1.738   5.711   3.072  1.00  0.00     0.081 C 
ATOM     76  C   UNL     1       2.123   3.604   1.949  1.00  0.00     0.095 C 
ATOM     77  C   UNL     1       2.564   5.164   4.260  1.00  0.00     0.008 C 
ATOM     78  C   UNL     1       2.793   2.886   3.153  1.00  0.00     0.053 C 
ATOM     79  C   UNL     1       2.436   3.651   4.432  1.00  0.00     0.015 C 
BRANCH  74  80
ATOM     80  N   UNL     1       1.353   5.392   0.559  1.00  0.00    -0.330 N 
ATOM     81  H   UNL     1       0.409   5.137   0.846  1.00  0.00     0.347 HD
ATOM     82  H   UNL     1       1.756   4.838  -0.197  1.00  0.00     0.347 HD
BRANCH  80  83
ATOM     83  C   UNL     1       1.289   6.750   0.016  1.00  0.00     0.183 C 
ATOM     84  C   UNL     1       2.087   7.143  -1.196  1.00  0.00     0.071 C 
ATOM     85  C   UNL     1       0.615   6.922  -1.328  1.00  0.00     0.071 C 
ENDBRANCH  80  83
ENDBRANCH  74  80
BRANCH  78  86
ATOM     86  S   UNL     1       4.510   2.193   3.420  1.00  0.00    -0.156 SA
BRANCH  86  87
ATOM     87  C   UNL     1       5.548   2.674   2.015  1.00  0.00     0.104 C 
BRANCH  87  88
ATOM     88  C   UNL     1       5.376   1.929   0.680  1.00  0.00     0.149 C 
BRANCH  88  89
ATOM     89  C   UNL     1       3.906   1.969   0.276  1.00  0.00     0.188 C 
BRANCH  89  90
ATOM     90  O   UNL     1       3.359   1.119  -0.714  1.00  0.00    -0.394 OA
ATOM     91  H   UNL     1       3.723   1.357  -1.581  1.00  0.00     0.210 HD
ENDBRANCH  89  90
ENDBRANCH  88  89
BRANCH  88  92
ATOM     92  O   UNL     1       6.267   2.601  -0.220  1.00  0.00    -0.390 OA
ATOM     93  H   UNL     1       6.048   3.545  -0.247  1.00  0.00     0.211 HD
ENDBRANCH  88  92
ENDBRANCH  87  88
ENDBRANCH  86  87
ENDBRANCH  78  86
ENDBRANCH  72  74
ENDBRANCH  71  72
ENDBRANCH  70  71
ENDBRANCH  69  70
ENDBRANCH  68  69
ENDBRANCH  67  68
ENDBRANCH   1  67
TORSDOF 28
