REMARK SMILES CC(=O)Nc1ccc(/C(=C\c2ccc(S(C)(=O)=O)cc2)C(=O)OCCOCCOCCOCCOC(=O)c2ccc(-c3c4nc(c(-c5c(F)cccc5F)c5ccc([nH]5)c(-c5c(F)cccc5F)c5nc(c(-c6c(F)cccc6F)c6ccc3[nH]6)C=C5)C=C4)cc2)cc1
REMARK SMILES IDX 29 1 28 2 27 3 26 4 25 5 24 6 23 7 21 8 22 9 9 10 10 11 8 12
REMARK SMILES IDX 5 13 6 14 93 15 7 16 92 17 4 18 1 19 2 20 3 21 11 23 12 24
REMARK SMILES IDX 20 25 13 26 19 27 14 28 15 29 16 30 17 31 18 32 30 33 31 34
REMARK SMILES IDX 32 35 33 36 34 37 35 38 36 39 37 40 38 41 39 42 91 43 40 44
REMARK SMILES IDX 90 45 41 46 42 47 43 48 84 49 44 50 89 51 83 52 85 53 45 54
REMARK SMILES IDX 88 55 82 56 81 57 46 59 72 60 55 61 71 62 56 63 59 64 70 65
REMARK SMILES IDX 86 66 57 67 58 68 69 70 87 71 60 72 47 73 48 74 53 75 49 76
REMARK SMILES IDX 50 77 52 78 54 79 51 80 73 81 74 82 79 83 75 84 76 85 78 86
REMARK SMILES IDX 80 87 77 88 61 89 62 90 67 91 63 92 64 93 66 94 68 95 65 96
REMARK H PARENT 4 22 85 58 59 69
REMARK Flexibility Score: inf
ROOT
ATOM      1  O   UNL     1       5.187   5.949   3.300  1.00  0.00    -0.377 OA
ENDROOT
BRANCH   1   2
ATOM      2  C   UNL     1       4.605   4.864   2.595  1.00  0.00     0.188 C 
BRANCH   2   3
ATOM      3  C   UNL     1       5.484   3.647   2.245  1.00  0.00     0.188 C 
BRANCH   3   4
ATOM      4  O   UNL     1       6.790   3.682   2.793  1.00  0.00    -0.376 OA
BRANCH   4   5
ATOM      5  C   UNL     1       7.876   3.872   1.903  1.00  0.00     0.202 C 
BRANCH   5   6
ATOM      6  C   UNL     1       7.906   5.166   1.076  1.00  0.00     0.261 C 
BRANCH   6   7
ATOM      7  O   UNL     1       6.663   5.535   0.460  1.00  0.00    -0.460 OA
BRANCH   7   8
ATOM      8  C   UNL     1       6.294   4.896  -0.681  1.00  0.00     0.338 C 
ATOM      9  O   UNL     1       6.961   4.056  -1.263  1.00  0.00    -0.246 OA
BRANCH   8  10
ATOM     10  C   UNL     1       4.863   5.250  -1.024  1.00  0.00     0.067 C 
ATOM     11  C   UNL     1       4.544   6.555  -0.819  1.00  0.00     0.024 C 
BRANCH  10  12
ATOM     12  C   UNL     1       3.912   4.165  -1.445  1.00  0.00    -0.011 A 
ATOM     13  C   UNL     1       1.897   2.167  -1.805  1.00  0.00     0.041 A 
ATOM     14  C   UNL     1       1.808   3.406  -2.442  1.00  0.00     0.027 A 
ATOM     15  C   UNL     1       3.053   1.884  -1.095  1.00  0.00     0.027 A 
ATOM     16  C   UNL     1       2.807   4.381  -2.275  1.00  0.00     0.011 A 
ATOM     17  C   UNL     1       4.051   2.859  -0.946  1.00  0.00     0.011 A 
BRANCH  13  18
ATOM     18  N   UNL     1       0.847   1.257  -2.002  1.00  0.00    -0.326 N 
ATOM     19  C   UNL     1       0.975  -0.151   0.057  1.00  0.00     0.114 C 
ATOM     20  C   UNL     1       0.461   0.135  -1.328  1.00  0.00     0.221 C 
ATOM     21  O   UNL     1      -0.376  -0.608  -1.847  1.00  0.00    -0.275 OA
ATOM     22  H   UNL     1       0.277   1.470  -2.777  1.00  0.00     0.169 HD
ENDBRANCH  13  18
ENDBRANCH  10  12
BRANCH  11  23
ATOM     23  C   UNL     1       3.273   7.239  -1.103  1.00  0.00    -0.025 A 
ATOM     24  C   UNL     1       3.298   8.210  -2.113  1.00  0.00     0.009 A 
ATOM     25  C   UNL     1       2.050   6.871  -0.524  1.00  0.00     0.009 A 
ATOM     26  C   UNL     1       2.109   8.692  -2.654  1.00  0.00     0.021 A 
ATOM     27  C   UNL     1       0.852   7.344  -1.071  1.00  0.00     0.021 A 
ATOM     28  C   UNL     1       0.892   8.219  -2.161  1.00  0.00     0.067 A 
BRANCH  28  29
ATOM     29  S   UNL     1      -0.587   8.581  -3.079  1.00  0.00     0.175 S 
ATOM     30  C   UNL     1      -0.929  10.278  -2.711  1.00  0.00     0.163 C 
ATOM     31  O   UNL     1      -0.236   8.485  -4.484  1.00  0.00    -0.224 OA
ATOM     32  O   UNL     1      -1.658   7.774  -2.527  1.00  0.00    -0.224 OA
ENDBRANCH  28  29
ENDBRANCH  11  23
ENDBRANCH   8  10
ENDBRANCH   7   8
ENDBRANCH   6   7
ENDBRANCH   5   6
ENDBRANCH   4   5
ENDBRANCH   3   4
ENDBRANCH   2   3
ENDBRANCH   1   2
BRANCH   1  33
ATOM     33  C   UNL     1       6.037   5.678   4.413  1.00  0.00     0.188 C 
BRANCH  33  34
ATOM     34  C   UNL     1       5.858   4.399   5.271  1.00  0.00     0.188 C 
BRANCH  34  35
ATOM     35  O   UNL     1       4.747   3.592   4.918  1.00  0.00    -0.376 OA
BRANCH  35  36
ATOM     36  C   UNL     1       3.624   3.583   5.779  1.00  0.00     0.202 C 
BRANCH  36  37
ATOM     37  C   UNL     1       2.874   4.908   5.977  1.00  0.00     0.261 C 
BRANCH  37  38
ATOM     38  O   UNL     1       3.679   6.043   6.330  1.00  0.00    -0.460 OA
BRANCH  38  39
ATOM     39  C   UNL     1       4.279   6.019   7.537  1.00  0.00     0.338 C 
ATOM     40  O   UNL     1       4.211   5.137   8.380  1.00  0.00    -0.246 OA
BRANCH  39  41
ATOM     41  C   UNL     1       5.202   7.168   7.601  1.00  0.00     0.060 A 
ATOM     42  C   UNL     1       6.571   6.936   7.800  1.00  0.00     0.016 A 
ATOM     43  C   UNL     1       4.716   8.469   7.457  1.00  0.00     0.016 A 
ATOM     44  C   UNL     1       7.450   8.011   7.908  1.00  0.00     0.010 A 
ATOM     45  C   UNL     1       5.593   9.546   7.591  1.00  0.00     0.010 A 
ATOM     46  C   UNL     1       6.954   9.320   7.865  1.00  0.00    -0.014 A 
BRANCH  46  47
ATOM     47  C   UNL     1       7.796  10.431   8.366  1.00  0.00     0.031 A 
ATOM     48  C   UNL     1       7.598  10.871   9.792  1.00  0.00     0.074 A 
ATOM     49  C   UNL     1       8.731  11.017   7.599  1.00  0.00     0.049 A 
ATOM     50  N   UNL     1       8.169  11.843  10.453  1.00  0.00    -0.248 NA
ATOM     51  C   UNL     1       6.612  10.108  10.576  1.00  0.00     0.031 C 
ATOM     52  C   UNL     1       9.050  10.649   6.222  1.00  0.00     0.029 A 
ATOM     53  N   UNL     1       9.580  12.057   7.878  1.00  0.00    -0.354 N 
ATOM     54  C   UNL     1       7.606  11.814  11.723  1.00  0.00     0.074 A 
ATOM     55  C   UNL     1       6.621  10.755  11.729  1.00  0.00     0.031 C 
ATOM     56  C   UNL     1      10.021  11.463   5.770  1.00  0.00     0.029 A 
ATOM     57  C   UNL     1      10.366  12.426   6.815  1.00  0.00     0.049 A 
ATOM     58  H   UNL     1       9.622  12.498   8.758  1.00  0.00     0.167 HD
ATOM     59  C   UNL     1       7.889  12.593  12.793  1.00  0.00     0.037 A 
ATOM     60  C   UNL     1      11.246  13.440   6.698  1.00  0.00     0.037 A 
ATOM     61  C   UNL     1       8.866  13.649  12.781  1.00  0.00     0.049 A 
ATOM     62  C   UNL     1      11.492  14.344   7.880  1.00  0.00     0.074 A 
ATOM     63  C   UNL     1       9.235  14.494  13.812  1.00  0.00     0.029 A 
ATOM     64  N   UNL     1       9.624  14.008  11.676  1.00  0.00    -0.354 N 
ATOM     65  N   UNL     1      10.968  14.302   9.082  1.00  0.00    -0.248 NA
ATOM     66  C   UNL     1      12.463  15.432   7.690  1.00  0.00     0.031 C 
ATOM     67  C   UNL     1      10.173  15.404  13.315  1.00  0.00     0.029 A 
ATOM     68  C   UNL     1      10.443  15.078  11.995  1.00  0.00     0.049 A 
ATOM     69  H   UNL     1       9.585  13.569  10.796  1.00  0.00     0.167 HD
ATOM     70  C   UNL     1      11.575  15.325   9.802  1.00  0.00     0.074 A 
ATOM     71  C   UNL     1      12.511  15.966   8.902  1.00  0.00     0.031 C 
ATOM     72  C   UNL     1      11.383  15.696  11.092  1.00  0.00     0.037 A 
BRANCH  59  73
ATOM     73  C   UNL     1       7.104  12.351  14.049  1.00  0.00     0.057 A 
ATOM     74  C   UNL     1       7.261  11.188  14.815  1.00  0.00     0.134 A 
ATOM     75  C   UNL     1       6.181  13.302  14.504  1.00  0.00     0.134 A 
ATOM     76  F   UNL     1       8.114  10.228  14.427  1.00  0.00    -0.206 F 
ATOM     77  C   UNL     1       6.509  10.967  15.971  1.00  0.00     0.040 A 
ATOM     78  C   UNL     1       5.447  13.107  15.675  1.00  0.00     0.040 A 
ATOM     79  F   UNL     1       5.980  14.438  13.820  1.00  0.00    -0.206 F 
ATOM     80  C   UNL     1       5.604  11.932  16.407  1.00  0.00     0.006 A 
ENDBRANCH  59  73
BRANCH  60  81
ATOM     81  C   UNL     1      11.959  13.666   5.414  1.00  0.00     0.057 A 
ATOM     82  C   UNL     1      13.343  13.480   5.308  1.00  0.00     0.134 A 
ATOM     83  C   UNL     1      11.280  14.104   4.271  1.00  0.00     0.134 A 
ATOM     84  F   UNL     1      14.054  13.084   6.374  1.00  0.00    -0.206 F 
ATOM     85  C   UNL     1      14.028  13.743   4.121  1.00  0.00     0.040 A 
ATOM     86  C   UNL     1      11.948  14.344   3.069  1.00  0.00     0.040 A 
ATOM     87  F   UNL     1       9.954  14.302   4.304  1.00  0.00    -0.206 F 
ATOM     88  C   UNL     1      13.329  14.172   2.994  1.00  0.00     0.006 A 
ENDBRANCH  60  81
BRANCH  72  89
ATOM     89  C   UNL     1      12.248  16.800  11.634  1.00  0.00     0.057 A 
ATOM     90  C   UNL     1      12.110  18.132  11.224  1.00  0.00     0.134 A 
ATOM     91  C   UNL     1      13.213  16.523  12.613  1.00  0.00     0.134 A 
ATOM     92  F   UNL     1      11.212  18.466  10.285  1.00  0.00    -0.206 F 
ATOM     93  C   UNL     1      12.923  19.142  11.742  1.00  0.00     0.040 A 
ATOM     94  C   UNL     1      14.008  17.530  13.163  1.00  0.00     0.040 A 
ATOM     95  F   UNL     1      13.390  15.272  13.062  1.00  0.00    -0.206 F 
ATOM     96  C   UNL     1      13.870  18.843  12.720  1.00  0.00     0.006 A 
ENDBRANCH  72  89
ENDBRANCH  46  47
ENDBRANCH  39  41
ENDBRANCH  38  39
ENDBRANCH  37  38
ENDBRANCH  36  37
ENDBRANCH  35  36
ENDBRANCH  34  35
ENDBRANCH  33  34
ENDBRANCH   1  33
TORSDOF 24
