REMARK SMILES O=C(C[C@@H](C(=O)N(c1ccccc1)c1ccccc1)[NH+]1CCOCC1)OCCOCCOCCOCCOC(=O)c1ccc(-c2c3nc(c(-c4c(F)cccc4F)c4ccc([nH]4)c(-c4c(F)cccc4F)c4nc(c(-c5c(F)cccc5F)c5ccc2[nH]5)C=C4)C=C3)cc1
REMARK SMILES IDX 31 1 30 2 29 3 28 4 27 5 26 6 2 7 1 8 3 9 4 10 5 11 6 12
REMARK SMILES IDX 7 13 8 14 9 15 13 16 10 17 12 18 11 19 14 20 15 21 19 22
REMARK SMILES IDX 16 23 18 24 17 25 20 26 21 27 25 28 22 30 24 31 23 32 32 33
REMARK SMILES IDX 33 34 34 35 35 36 36 37 37 38 38 39 39 40 40 41 41 42 42 43
REMARK SMILES IDX 94 44 43 45 93 46 44 47 45 48 46 49 87 50 47 51 92 52 86 53
REMARK SMILES IDX 88 54 48 55 91 56 85 57 84 58 49 60 75 61 58 62 74 63 59 64
REMARK SMILES IDX 62 65 73 66 89 67 60 68 61 69 72 71 90 72 63 73 50 74 51 75
REMARK SMILES IDX 56 76 52 77 53 78 55 79 57 80 54 81 76 82 77 83 82 84 78 85
REMARK SMILES IDX 79 86 81 87 83 88 80 89 64 90 65 91 70 92 66 93 67 94 69 95
REMARK SMILES IDX 71 96 68 97
REMARK H PARENT 20 29 88 59 62 70
REMARK Flexibility Score: inf
ROOT
ATOM      1  C   UNL     1       2.055  -2.313   1.794  1.00  0.00     0.188 C 
ENDROOT
BRANCH   1   2
ATOM      2  C   UNL     1       2.836  -2.624   0.513  1.00  0.00     0.188 C 
BRANCH   2   3
ATOM      3  O   UNL     1       4.222  -2.339   0.486  1.00  0.00    -0.376 OA
BRANCH   3   4
ATOM      4  C   UNL     1       4.843  -1.082   0.604  1.00  0.00     0.202 C 
BRANCH   4   5
ATOM      5  C   UNL     1       4.174   0.169   1.131  1.00  0.00     0.261 C 
BRANCH   5   6
ATOM      6  O   UNL     1       2.803   0.466   0.853  1.00  0.00    -0.463 OA
BRANCH   6   7
ATOM      7  C   UNL     1       2.111   0.241  -0.268  1.00  0.00     0.312 C 
ATOM      8  O   UNL     1       0.891   0.086  -0.216  1.00  0.00    -0.252 OA
BRANCH   7   9
ATOM      9  C   UNL     1       2.827   0.026  -1.552  1.00  0.00     0.198 C 
BRANCH   9  10
ATOM     10  C   UNL     1       3.602   1.077  -2.317  1.00  0.00     0.286 C 
BRANCH  10  11
ATOM     11  C   UNL     1       4.538   2.042  -1.463  1.00  0.00     0.290 C 
ATOM     12  O   UNL     1       5.763   1.855  -1.593  1.00  0.00    -0.267 OA
ATOM     13  N   UNL     1       4.061   3.002  -0.492  1.00  0.00    -0.276 N 
BRANCH  13  14
ATOM     14  C   UNL     1       2.686   3.439  -0.185  1.00  0.00     0.049 A 
ATOM     15  C   UNL     1       2.428   4.354   0.864  1.00  0.00     0.027 A 
ATOM     16  C   UNL     1       1.533   2.957  -0.797  1.00  0.00     0.027 A 
ATOM     17  C   UNL     1       1.197   4.413   1.531  1.00  0.00     0.002 A 
ATOM     18  C   UNL     1       0.283   3.007  -0.144  1.00  0.00     0.002 A 
ATOM     19  C   UNL     1       0.136   3.663   1.067  1.00  0.00     0.000 A 
ENDBRANCH  13  14
BRANCH  13  20
ATOM     20  C   UNL     1       5.069   3.411   0.531  1.00  0.00     0.049 A 
ATOM     21  C   UNL     1       4.816   3.235   1.919  1.00  0.00     0.027 A 
ATOM     22  C   UNL     1       6.358   3.838   0.188  1.00  0.00     0.027 A 
ATOM     23  C   UNL     1       5.767   3.513   2.905  1.00  0.00     0.002 A 
ATOM     24  C   UNL     1       7.325   4.099   1.176  1.00  0.00     0.002 A 
ATOM     25  C   UNL     1       7.029   3.946   2.530  1.00  0.00     0.000 A 
ENDBRANCH  13  20
ENDBRANCH  10  11
BRANCH  10  26
ATOM     26  N   UNL     1       4.379   0.348  -3.428  1.00  0.00    -0.320 N 
ATOM     27  C   UNL     1       3.573  -0.091  -4.592  1.00  0.00     0.291 C 
ATOM     28  C   UNL     1       5.294  -0.777  -3.074  1.00  0.00     0.291 C 
ATOM     29  H   UNL     1       4.977   1.140  -3.667  1.00  0.00     0.348 HD
ATOM     30  C   UNL     1       3.008  -1.531  -4.551  1.00  0.00     0.221 C 
ATOM     31  C   UNL     1       4.700  -2.217  -3.073  1.00  0.00     0.221 C 
ATOM     32  O   UNL     1       4.032  -2.497  -4.306  1.00  0.00    -0.370 OA
ENDBRANCH  10  26
ENDBRANCH   9  10
ENDBRANCH   7   9
ENDBRANCH   6   7
ENDBRANCH   5   6
ENDBRANCH   4   5
ENDBRANCH   3   4
ENDBRANCH   2   3
ENDBRANCH   1   2
BRANCH   1  33
ATOM     33  O   UNL     1       2.564  -2.892   2.985  1.00  0.00    -0.377 OA
BRANCH  33  34
ATOM     34  C   UNL     1       3.920  -2.607   3.263  1.00  0.00     0.188 C 
BRANCH  34  35
ATOM     35  C   UNL     1       4.941  -3.671   2.797  1.00  0.00     0.188 C 
BRANCH  35  36
ATOM     36  O   UNL     1       4.532  -4.879   2.179  1.00  0.00    -0.376 OA
BRANCH  36  37
ATOM     37  C   UNL     1       3.297  -5.485   2.510  1.00  0.00     0.202 C 
BRANCH  37  38
ATOM     38  C   UNL     1       2.909  -5.767   3.971  1.00  0.00     0.261 C 
BRANCH  38  39
ATOM     39  O   UNL     1       3.295  -4.795   4.950  1.00  0.00    -0.460 OA
BRANCH  39  40
ATOM     40  C   UNL     1       4.497  -5.006   5.543  1.00  0.00     0.338 C 
ATOM     41  O   UNL     1       5.240  -5.948   5.383  1.00  0.00    -0.246 OA
BRANCH  40  42
ATOM     42  C   UNL     1       4.886  -3.775   6.279  1.00  0.00     0.060 A 
ATOM     43  C   UNL     1       6.162  -3.238   6.038  1.00  0.00     0.016 A 
ATOM     44  C   UNL     1       4.015  -3.150   7.174  1.00  0.00     0.016 A 
ATOM     45  C   UNL     1       6.602  -2.128   6.747  1.00  0.00     0.010 A 
ATOM     46  C   UNL     1       4.475  -2.068   7.929  1.00  0.00     0.010 A 
ATOM     47  C   UNL     1       5.796  -1.611   7.766  1.00  0.00    -0.014 A 
BRANCH  47  48
ATOM     48  C   UNL     1       6.482  -0.922   8.882  1.00  0.00     0.031 A 
ATOM     49  C   UNL     1       6.949  -1.787  10.025  1.00  0.00     0.074 A 
ATOM     50  C   UNL     1       6.765   0.389   8.850  1.00  0.00     0.049 A 
ATOM     51  N   UNL     1       7.587  -1.458  11.117  1.00  0.00    -0.248 NA
ATOM     52  C   UNL     1       6.656  -3.228   9.916  1.00  0.00     0.031 C 
ATOM     53  C   UNL     1       6.430   1.306   7.763  1.00  0.00     0.029 A 
ATOM     54  N   UNL     1       7.413   1.172   9.769  1.00  0.00    -0.354 N 
ATOM     55  C   UNL     1       7.754  -2.644  11.824  1.00  0.00     0.074 A 
ATOM     56  C   UNL     1       7.127  -3.694  11.059  1.00  0.00     0.031 C 
ATOM     57  C   UNL     1       6.871   2.536   8.084  1.00  0.00     0.029 A 
ATOM     58  C   UNL     1       7.493   2.493   9.407  1.00  0.00     0.049 A 
ATOM     59  H   UNL     1       7.785   0.820  10.610  1.00  0.00     0.167 HD
ATOM     60  C   UNL     1       8.383  -2.844  13.004  1.00  0.00     0.037 A 
ATOM     61  C   UNL     1       8.000   3.541  10.084  1.00  0.00     0.037 A 
ATOM     62  C   UNL     1       9.007  -1.794  13.759  1.00  0.00     0.049 A 
ATOM     63  C   UNL     1       8.623   3.307  11.438  1.00  0.00     0.074 A 
ATOM     64  C   UNL     1       9.682  -1.882  14.962  1.00  0.00     0.029 A 
ATOM     65  N   UNL     1       9.020  -0.459  13.384  1.00  0.00    -0.354 N 
ATOM     66  N   UNL     1       8.793   2.183  12.093  1.00  0.00    -0.248 NA
ATOM     67  C   UNL     1       9.133   4.492  12.142  1.00  0.00     0.031 C 
ATOM     68  C   UNL     1      10.048  -0.589  15.348  1.00  0.00     0.029 A 
ATOM     69  C   UNL     1       9.666   0.294  14.349  1.00  0.00     0.049 A 
ATOM     70  H   UNL     1       8.628  -0.101  12.555  1.00  0.00     0.167 HD
ATOM     71  C   UNL     1       9.466   2.518  13.263  1.00  0.00     0.074 A 
ATOM     72  C   UNL     1       9.680   3.950  13.221  1.00  0.00     0.031 C 
ATOM     73  C   UNL     1       9.878   1.718  14.279  1.00  0.00     0.037 A 
BRANCH  60  74
ATOM     74  C   UNL     1       8.376  -4.238  13.562  1.00  0.00     0.057 A 
ATOM     75  C   UNL     1       9.097  -5.286  12.974  1.00  0.00     0.134 A 
ATOM     76  C   UNL     1       7.630  -4.534  14.710  1.00  0.00     0.134 A 
ATOM     77  F   UNL     1       9.812  -5.078  11.858  1.00  0.00    -0.206 F 
ATOM     78  C   UNL     1       9.053  -6.583  13.491  1.00  0.00     0.040 A 
ATOM     79  C   UNL     1       7.604  -5.818  15.255  1.00  0.00     0.040 A 
ATOM     80  F   UNL     1       6.912  -3.579  15.321  1.00  0.00    -0.206 F 
ATOM     81  C   UNL     1       8.311  -6.849  14.640  1.00  0.00     0.006 A 
ENDBRANCH  60  74
BRANCH  61  82
ATOM     82  C   UNL     1       7.944   4.907   9.502  1.00  0.00     0.057 A 
ATOM     83  C   UNL     1       9.111   5.587   9.133  1.00  0.00     0.134 A 
ATOM     84  C   UNL     1       6.728   5.579   9.334  1.00  0.00     0.134 A 
ATOM     85  F   UNL     1      10.309   5.006   9.290  1.00  0.00    -0.206 F 
ATOM     86  C   UNL     1       9.072   6.893   8.640  1.00  0.00     0.040 A 
ATOM     87  C   UNL     1       6.672   6.874   8.816  1.00  0.00     0.040 A 
ATOM     88  F   UNL     1       5.572   4.984   9.665  1.00  0.00    -0.206 F 
ATOM     89  C   UNL     1       7.848   7.538   8.476  1.00  0.00     0.006 A 
ENDBRANCH  61  82
BRANCH  73  90
ATOM     90  C   UNL     1      10.653   2.361  15.394  1.00  0.00     0.057 A 
ATOM     91  C   UNL     1      10.060   3.243  16.306  1.00  0.00     0.134 A 
ATOM     92  C   UNL     1      12.011   2.064  15.573  1.00  0.00     0.134 A 
ATOM     93  F   UNL     1       8.765   3.575  16.189  1.00  0.00    -0.206 F 
ATOM     94  C   UNL     1      10.798   3.836  17.332  1.00  0.00     0.040 A 
ATOM     95  C   UNL     1      12.750   2.623  16.616  1.00  0.00     0.040 A 
ATOM     96  F   UNL     1      12.639   1.215  14.746  1.00  0.00    -0.206 F 
ATOM     97  C   UNL     1      12.146   3.521  17.492  1.00  0.00     0.006 A 
ENDBRANCH  73  90
ENDBRANCH  47  48
ENDBRANCH  40  42
ENDBRANCH  39  40
ENDBRANCH  38  39
ENDBRANCH  37  38
ENDBRANCH  36  37
ENDBRANCH  35  36
ENDBRANCH  34  35
ENDBRANCH  33  34
ENDBRANCH   1  33
TORSDOF 25
