REMARK SMILES O=C(OCCOCCOCCOCCOC(=O)c1ccc(-c2c3nc(c(-c4c(F)cccc4F)c4ccc([nH]4)c(-c4c(F)cccc4F)c4nc(c(-c5c(F)cccc5F)c5ccc2[nH]5)C=C4)C=C3)cc1)C1=Cc2cc(S(F)(F)(F)(F)F)cc(Br)c2O[C@H]1C(F)(F)F
REMARK SMILES IDX 10 1 9 2 8 3 7 4 6 5 5 6 4 7 3 8 2 9 1 10 72 11 73 12 88 13
REMARK SMILES IDX 74 14 87 15 75 16 86 17 76 18 84 19 83 20 85 21 89 22 90 23
REMARK SMILES IDX 91 24 92 25 77 26 78 27 79 28 80 29 81 30 82 31 11 32 12 33
REMARK SMILES IDX 13 34 14 35 15 36 16 37 17 38 18 39 19 40 71 41 20 42 70 43
REMARK SMILES IDX 21 44 22 45 23 46 64 47 24 48 69 49 63 50 65 51 25 52 68 53
REMARK SMILES IDX 62 54 61 55 26 57 52 58 35 59 51 60 36 61 39 62 50 63 66 64
REMARK SMILES IDX 37 65 38 66 49 68 67 69 40 70 27 71 28 72 33 73 29 74 30 75
REMARK SMILES IDX 32 76 34 77 31 78 53 79 54 80 59 81 55 82 56 83 58 84 60 85
REMARK SMILES IDX 57 86 41 87 42 88 47 89 43 90 44 91 46 92 48 93 45 94
REMARK H PARENT 65 56 39 67
REMARK Flexibility Score: inf
ROOT
ATOM      1  C   UNL     1       4.343   2.629   0.580  1.00  0.00     0.188 C 
ENDROOT
BRANCH   1   2
ATOM      2  O   UNL     1       2.923   2.629   0.580  1.00  0.00    -0.377 OA
BRANCH   2   3
ATOM      3  C   UNL     1       2.450   1.799   1.630  1.00  0.00     0.188 C 
BRANCH   3   4
ATOM      4  C   UNL     1       2.956   0.381   1.423  1.00  0.00     0.188 C 
BRANCH   4   5
ATOM      5  O   UNL     1       4.376   0.381   1.423  1.00  0.00    -0.376 OA
BRANCH   5   6
ATOM      6  C   UNL     1       4.850   1.211   0.372  1.00  0.00     0.202 C 
BRANCH   6   7
ATOM      7  C   UNL     1       4.343   0.681  -0.959  1.00  0.00     0.261 C 
BRANCH   7   8
ATOM      8  O   UNL     1       2.923   0.681  -0.959  1.00  0.00    -0.460 OA
BRANCH   8   9
ATOM      9  C   UNL     1       2.213  -0.081   0.006  1.00  0.00     0.338 C 
ATOM     10  O   UNL     1       0.942  -0.081   0.006  1.00  0.00    -0.246 OA
BRANCH   9  11
ATOM     11  C   UNL     1       2.973  -0.897   1.038  1.00  0.00     0.087 C 
ATOM     12  C   UNL     1       4.333  -0.897   1.038  1.00  0.00     0.027 C 
ATOM     13  C   UNL     1       2.213  -1.714   2.071  1.00  0.00     0.316 C 
ATOM     14  C   UNL     1       5.093  -0.081   0.006  1.00  0.00     0.020 A 
ATOM     15  O   UNL     1       3.509   1.618   0.505  1.00  0.00    -0.474 OA
ATOM     16  C   UNL     1       6.107  -0.619  -0.770  1.00  0.00     0.036 A 
ATOM     17  C   UNL     1       4.653   1.155  -0.197  1.00  0.00     0.142 A 
ATOM     18  C   UNL     1       6.796   0.335  -1.555  1.00  0.00     0.109 A 
ATOM     19  C   UNL     1       5.294   1.990  -1.080  1.00  0.00     0.062 A 
ATOM     20  C   UNL     1       6.341   1.542  -1.837  1.00  0.00     0.044 A 
ATOM     21  Br  UNL     1       4.699   3.849  -1.258  1.00  0.00    -0.047 Br
BRANCH  13  22
ATOM     22  C   UNL     1       0.719  -1.541   1.853  1.00  0.00     0.430 C 
ATOM     23  F   UNL     1       0.354  -2.105   0.705  1.00  0.00    -0.167 F 
ATOM     24  F   UNL     1       0.092  -2.143   2.861  1.00  0.00    -0.167 F 
ATOM     25  F   UNL     1       0.394  -0.252   1.837  1.00  0.00    -0.167 F 
ENDBRANCH  13  22
BRANCH  18  26
ATOM     26  S   UNL     1       8.415  -0.131  -2.217  1.00  0.00     0.310 S 
ATOM     27  F   UNL     1       9.074  -0.188  -0.776  1.00  0.00    -0.094 F 
ATOM     28  F   UNL     1       8.814   1.393  -2.264  1.00  0.00    -0.094 F 
ATOM     29  F   UNL     1       9.798  -0.539  -2.799  1.00  0.00    -0.094 F 
ATOM     30  F   UNL     1       8.051  -1.656  -2.032  1.00  0.00    -0.094 F 
ATOM     31  F   UNL     1       7.052   0.264  -1.521  1.00  0.00    -0.094 F 
ENDBRANCH  18  26
ENDBRANCH   9  11
ENDBRANCH   8   9
ENDBRANCH   7   8
ENDBRANCH   6   7
ENDBRANCH   5   6
ENDBRANCH   4   5
ENDBRANCH   3   4
ENDBRANCH   2   3
ENDBRANCH   1   2
BRANCH   1  32
ATOM     32  C   UNL     1       4.850   3.158   1.911  1.00  0.00     0.188 C 
BRANCH  32  33
ATOM     33  O   UNL     1       4.376   2.328   2.962  1.00  0.00    -0.376 OA
BRANCH  33  34
ATOM     34  C   UNL     1       2.956   2.328   2.962  1.00  0.00     0.202 C 
BRANCH  34  35
ATOM     35  C   UNL     1       2.450   3.746   3.169  1.00  0.00     0.261 C 
BRANCH  35  36
ATOM     36  O   UNL     1       2.923   4.576   2.119  1.00  0.00    -0.460 OA
BRANCH  36  37
ATOM     37  C   UNL     1       4.319   4.737   1.915  1.00  0.00     0.338 C 
ATOM     38  O   UNL     1       5.145   4.138   2.673  1.00  0.00    -0.246 OA
BRANCH  37  39
ATOM     39  C   UNL     1       4.826   5.626   0.790  1.00  0.00     0.060 A 
ATOM     40  C   UNL     1       5.747   5.198  -0.151  1.00  0.00     0.016 A 
ATOM     41  C   UNL     1       4.215   6.799   0.674  1.00  0.00     0.016 A 
ATOM     42  C   UNL     1       6.175   6.215  -1.037  1.00  0.00     0.010 A 
ATOM     43  C   UNL     1       4.593   7.690  -0.302  1.00  0.00     0.010 A 
ATOM     44  C   UNL     1       5.540   7.356  -1.230  1.00  0.00    -0.014 A 
BRANCH  44  45
ATOM     45  C   UNL     1       5.845   8.251  -2.420  1.00  0.00     0.031 A 
ATOM     46  C   UNL     1       6.290   9.539  -2.117  1.00  0.00     0.074 A 
ATOM     47  C   UNL     1       5.535   7.821  -3.699  1.00  0.00     0.049 A 
ATOM     48  N   UNL     1       6.523  10.541  -2.966  1.00  0.00    -0.248 NA
ATOM     49  C   UNL     1       6.588  10.009  -0.755  1.00  0.00     0.031 C 
ATOM     50  C   UNL     1       5.093   6.521  -4.014  1.00  0.00     0.029 A 
ATOM     51  N   UNL     1       5.591   8.543  -4.870  1.00  0.00    -0.354 N 
ATOM     52  C   UNL     1       6.958  11.615  -2.304  1.00  0.00     0.074 A 
ATOM     53  C   UNL     1       7.000  11.290  -0.872  1.00  0.00     0.031 C 
ATOM     54  C   UNL     1       4.875   6.463  -5.354  1.00  0.00     0.029 A 
ATOM     55  C   UNL     1       5.177   7.726  -5.899  1.00  0.00     0.049 A 
ATOM     56  H   UNL     1       5.877   9.481  -4.957  1.00  0.00     0.167 HD
ATOM     57  C   UNL     1       7.323  12.851  -2.839  1.00  0.00     0.037 A 
ATOM     58  C   UNL     1       5.062   8.046  -7.243  1.00  0.00     0.037 A 
ATOM     59  C   UNL     1       7.249  13.158  -4.189  1.00  0.00     0.049 A 
ATOM     60  C   UNL     1       5.372   9.301  -7.770  1.00  0.00     0.074 A 
ATOM     61  C   UNL     1       7.620  14.396  -4.745  1.00  0.00     0.029 A 
ATOM     62  N   UNL     1       6.812  12.348  -5.214  1.00  0.00    -0.354 N 
ATOM     63  N   UNL     1       5.844  10.362  -7.114  1.00  0.00    -0.248 NA
ATOM     64  C   UNL     1       5.222   9.661  -9.187  1.00  0.00     0.031 C 
ATOM     65  C   UNL     1       7.402  14.339  -6.086  1.00  0.00     0.029 A 
ATOM     66  C   UNL     1       6.890  13.063  -6.389  1.00  0.00     0.049 A 
ATOM     67  H   UNL     1       6.498  11.419  -5.123  1.00  0.00     0.167 HD
ATOM     68  C   UNL     1       6.037  11.377  -7.959  1.00  0.00     0.074 A 
ATOM     69  C   UNL     1       5.633  10.943  -9.303  1.00  0.00     0.031 C 
ATOM     70  C   UNL     1       6.538  12.646  -7.663  1.00  0.00     0.037 A 
BRANCH  57  71
ATOM     71  C   UNL     1       7.831  13.923  -1.888  1.00  0.00     0.057 A 
ATOM     72  C   UNL     1       8.855  13.655  -0.994  1.00  0.00     0.134 A 
ATOM     73  C   UNL     1       7.148  15.060  -1.832  1.00  0.00     0.134 A 
ATOM     74  F   UNL     1       9.723  12.662  -1.162  1.00  0.00    -0.206 F 
ATOM     75  C   UNL     1       8.893  14.534   0.114  1.00  0.00     0.040 A 
ATOM     76  C   UNL     1       7.334  15.937  -0.791  1.00  0.00     0.040 A 
ATOM     77  F   UNL     1       6.276  15.353  -2.792  1.00  0.00    -0.206 F 
ATOM     78  C   UNL     1       8.288  15.706   0.161  1.00  0.00     0.006 A 
ENDBRANCH  57  71
BRANCH  58  79
ATOM     79  C   UNL     1       4.569   6.969  -8.196  1.00  0.00     0.057 A 
ATOM     80  C   UNL     1       5.355   6.400  -9.185  1.00  0.00     0.134 A 
ATOM     81  C   UNL     1       3.357   6.500  -7.924  1.00  0.00     0.134 A 
ATOM     82  F   UNL     1       6.651   6.663  -9.323  1.00  0.00    -0.206 F 
ATOM     83  C   UNL     1       4.653   5.514 -10.036  1.00  0.00     0.040 A 
ATOM     84  C   UNL     1       2.786   5.535  -8.719  1.00  0.00     0.040 A 
ATOM     85  F   UNL     1       2.691   6.968  -6.873  1.00  0.00    -0.206 F 
ATOM     86  C   UNL     1       3.483   4.971  -9.751  1.00  0.00     0.006 A 
ENDBRANCH  58  79
BRANCH  70  87
ATOM     87  C   UNL     1       6.707  13.631  -8.809  1.00  0.00     0.057 A 
ATOM     88  C   UNL     1       5.631  14.111  -9.537  1.00  0.00     0.134 A 
ATOM     89  C   UNL     1       7.939  14.078  -9.024  1.00  0.00     0.134 A 
ATOM     90  F   UNL     1       4.365  13.888  -9.193  1.00  0.00    -0.206 F 
ATOM     91  C   UNL     1       6.000  14.859 -10.680  1.00  0.00     0.040 A 
ATOM     92  C   UNL     1       8.204  14.915 -10.081  1.00  0.00     0.040 A 
ATOM     93  F   UNL     1       8.925  13.711  -8.211  1.00  0.00    -0.206 F 
ATOM     94  C   UNL     1       7.196  15.382 -10.878  1.00  0.00     0.006 A 
ENDBRANCH  70  87
ENDBRANCH  44  45
ENDBRANCH  37  39
ENDBRANCH  36  37
ENDBRANCH  35  36
ENDBRANCH  34  35
ENDBRANCH  33  34
ENDBRANCH  32  33
ENDBRANCH   1  32
TORSDOF 22
