REMARK SMILES CN1C(=O)C[C@H](C(=O)OCCOCCOCCOCCOC(=O)c2ccc(-c3c4nc(c(-c5c(F)cccc5F)c5ccc([nH]5)c(-c5c(F)cccc5F)c5nc(c(-c6c(F)cccc6F)c6ccc3[nH]6)C=C5)C=C4)cc2)C12CC[NH+](Cc1ccc(Cl)c(F)c1)CC2
REMARK SMILES IDX 15 1 14 2 13 3 12 4 11 5 10 6 9 7 7 8 8 9 6 10 1 11 2 12
REMARK SMILES IDX 3 13 78 14 4 15 5 16 79 17 92 18 80 19 91 20 81 21 82 23
REMARK SMILES IDX 83 24 84 25 90 26 85 27 88 28 86 29 89 30 87 31 16 32 17 33
REMARK SMILES IDX 18 34 19 35 20 36 21 37 22 38 23 39 24 40 25 41 77 42 26 43
REMARK SMILES IDX 76 44 27 45 28 46 29 47 70 48 30 49 75 50 69 51 71 52 31 53
REMARK SMILES IDX 74 54 68 55 67 56 32 58 58 59 41 60 57 61 42 62 45 63 56 64
REMARK SMILES IDX 72 65 43 66 44 67 55 69 73 70 46 71 33 72 34 73 39 74 35 75
REMARK SMILES IDX 36 76 38 77 40 78 37 79 59 80 60 81 65 82 61 83 62 84 64 85
REMARK SMILES IDX 66 86 63 87 47 88 48 89 53 90 49 91 50 92 52 93 54 94 51 95
REMARK H PARENT 81 22 71 57 45 68
REMARK Flexibility Score: inf
ROOT
ATOM      1  O   UNL     1      -3.460   5.421   3.842  1.00  0.00    -0.377 OA
ENDROOT
BRANCH   1   2
ATOM      2  C   UNL     1      -2.277   4.690   3.587  1.00  0.00     0.188 C 
BRANCH   2   3
ATOM      3  C   UNL     1      -0.954   5.423   3.262  1.00  0.00     0.188 C 
BRANCH   3   4
ATOM      4  O   UNL     1      -1.044   6.815   3.014  1.00  0.00    -0.376 OA
BRANCH   4   5
ATOM      5  C   UNL     1      -0.766   7.267   1.700  1.00  0.00     0.202 C 
BRANCH   5   6
ATOM      6  C   UNL     1      -1.776   6.796   0.648  1.00  0.00     0.261 C 
BRANCH   6   7
ATOM      7  O   UNL     1      -1.900   5.364   0.584  1.00  0.00    -0.463 OA
BRANCH   7   8
ATOM      8  C   UNL     1      -0.817   4.677   0.120  1.00  0.00     0.311 C 
ATOM      9  O   UNL     1       0.145   5.202  -0.415  1.00  0.00    -0.252 OA
BRANCH   8  10
ATOM     10  C   UNL     1      -1.024   3.190   0.370  1.00  0.00     0.134 C 
ATOM     11  C   UNL     1       0.871  -0.036  -0.196  1.00  0.00     0.147 C 
ATOM     12  N   UNL     1       0.057   1.169  -0.202  1.00  0.00    -0.339 N 
ATOM     13  C   UNL     1      -0.965   1.314  -1.118  1.00  0.00     0.223 C 
ATOM     14  C   UNL     1       0.187   2.281   0.784  1.00  0.00     0.067 C 
ATOM     15  O   UNL     1      -1.310   0.504  -1.964  1.00  0.00    -0.275 OA
ATOM     16  C   UNL     1      -1.589   2.651  -0.943  1.00  0.00     0.118 C 
ATOM     17  C   UNL     1       0.040   1.665   2.212  1.00  0.00     0.091 C 
ATOM     18  C   UNL     1       1.573   2.937   0.685  1.00  0.00     0.091 C 
ATOM     19  C   UNL     1       0.624   2.422   3.407  1.00  0.00     0.265 C 
ATOM     20  C   UNL     1       1.943   3.846   1.864  1.00  0.00     0.265 C 
ATOM     21  N   UNL     1       1.805   3.238   3.182  1.00  0.00    -0.331 N 
ATOM     22  H   UNL     1       1.580   4.056   3.750  1.00  0.00     0.348 HD
BRANCH  21  23
ATOM     23  C   UNL     1       3.049   2.766   3.808  1.00  0.00     0.299 C 
BRANCH  23  24
ATOM     24  C   UNL     1       3.699   1.621   3.066  1.00  0.00     0.009 A 
ATOM     25  C   UNL     1       3.379   0.293   3.377  1.00  0.00     0.011 A 
ATOM     26  C   UNL     1       4.499   1.885   1.944  1.00  0.00     0.050 A 
ATOM     27  C   UNL     1       3.746  -0.740   2.511  1.00  0.00     0.024 A 
ATOM     28  C   UNL     1       4.821   0.861   1.062  1.00  0.00     0.142 A 
ATOM     29  C   UNL     1       4.428  -0.447   1.330  1.00  0.00     0.076 A 
ATOM     30  F   UNL     1       5.429   1.177  -0.090  1.00  0.00    -0.205 F 
ATOM     31  Cl  UNL     1       4.709  -1.697   0.183  1.00  0.00    -0.081 Cl
ENDBRANCH  23  24
ENDBRANCH  21  23
ENDBRANCH   8  10
ENDBRANCH   7   8
ENDBRANCH   6   7
ENDBRANCH   5   6
ENDBRANCH   4   5
ENDBRANCH   3   4
ENDBRANCH   2   3
ENDBRANCH   1   2
BRANCH   1  32
ATOM     32  C   UNL     1      -3.316   6.732   4.357  1.00  0.00     0.188 C 
BRANCH  32  33
ATOM     33  C   UNL     1      -2.358   6.954   5.554  1.00  0.00     0.188 C 
BRANCH  33  34
ATOM     34  O   UNL     1      -1.543   5.834   5.874  1.00  0.00    -0.376 OA
BRANCH  34  35
ATOM     35  C   UNL     1      -1.781   5.147   7.088  1.00  0.00     0.202 C 
BRANCH  35  36
ATOM     36  C   UNL     1      -3.098   4.367   7.213  1.00  0.00     0.261 C 
BRANCH  36  37
ATOM     37  O   UNL     1      -4.281   5.064   6.806  1.00  0.00    -0.460 OA
BRANCH  37  38
ATOM     38  C   UNL     1      -4.682   6.106   7.564  1.00  0.00     0.338 C 
ATOM     39  O   UNL     1      -4.160   6.518   8.586  1.00  0.00    -0.246 OA
BRANCH  38  40
ATOM     40  C   UNL     1      -5.738   6.809   6.807  1.00  0.00     0.060 A 
ATOM     41  C   UNL     1      -5.556   8.163   6.482  1.00  0.00     0.016 A 
ATOM     42  C   UNL     1      -6.854   6.111   6.337  1.00  0.00     0.016 A 
ATOM     43  C   UNL     1      -6.485   8.819   5.677  1.00  0.00     0.010 A 
ATOM     44  C   UNL     1      -7.814   6.783   5.581  1.00  0.00     0.010 A 
ATOM     45  C   UNL     1      -7.643   8.144   5.272  1.00  0.00    -0.014 A 
BRANCH  45  46
ATOM     46  C   UNL     1      -8.804   8.927   4.798  1.00  0.00     0.031 A 
ATOM     47  C   UNL     1      -9.775   9.398   5.844  1.00  0.00     0.074 A 
ATOM     48  C   UNL     1      -8.997   9.214   3.501  1.00  0.00     0.049 A 
ATOM     49  N   UNL     1     -10.911  10.027   5.705  1.00  0.00    -0.248 NA
ATOM     50  C   UNL     1      -9.411   9.110   7.243  1.00  0.00     0.031 C 
ATOM     51  C   UNL     1      -8.098   8.856   2.407  1.00  0.00     0.029 A 
ATOM     52  N   UNL     1     -10.035   9.869   2.888  1.00  0.00    -0.354 N 
ATOM     53  C   UNL     1     -11.397  10.202   6.994  1.00  0.00     0.074 A 
ATOM     54  C   UNL     1     -10.453   9.590   7.899  1.00  0.00     0.031 C 
ATOM     55  C   UNL     1      -8.636   9.280   1.248  1.00  0.00     0.029 A 
ATOM     56  C   UNL     1      -9.930   9.905   1.519  1.00  0.00     0.049 A 
ATOM     57  H   UNL     1     -10.783  10.275   3.382  1.00  0.00     0.167 HD
ATOM     58  C   UNL     1     -12.532  10.822   7.390  1.00  0.00     0.037 A 
ATOM     59  C   UNL     1     -10.800  10.364   0.599  1.00  0.00     0.037 A 
ATOM     60  C   UNL     1     -13.478  11.409   6.482  1.00  0.00     0.049 A 
ATOM     61  C   UNL     1     -12.104  10.969   1.056  1.00  0.00     0.074 A 
ATOM     62  C   UNL     1     -14.660  12.063   6.774  1.00  0.00     0.029 A 
ATOM     63  N   UNL     1     -13.354  11.396   5.101  1.00  0.00    -0.354 N 
ATOM     64  N   UNL     1     -12.552  11.151   2.276  1.00  0.00    -0.248 NA
ATOM     65  C   UNL     1     -13.026  11.431   0.008  1.00  0.00     0.031 C 
ATOM     66  C   UNL     1     -15.281  12.395   5.566  1.00  0.00     0.029 A 
ATOM     67  C   UNL     1     -14.453  12.008   4.524  1.00  0.00     0.049 A 
ATOM     68  H   UNL     1     -12.596  11.010   4.605  1.00  0.00     0.167 HD
ATOM     69  C   UNL     1     -13.785  11.780   2.143  1.00  0.00     0.074 A 
ATOM     70  C   UNL     1     -14.011  11.954   0.723  1.00  0.00     0.031 C 
ATOM     71  C   UNL     1     -14.652  12.182   3.107  1.00  0.00     0.037 A 
BRANCH  58  72
ATOM     72  C   UNL     1     -12.820  10.850   8.861  1.00  0.00     0.057 A 
ATOM     73  C   UNL     1     -12.057  11.614   9.755  1.00  0.00     0.134 A 
ATOM     74  C   UNL     1     -13.874  10.096   9.393  1.00  0.00     0.134 A 
ATOM     75  F   UNL     1     -11.017  12.338   9.315  1.00  0.00    -0.206 F 
ATOM     76  C   UNL     1     -12.316  11.606  11.127  1.00  0.00     0.040 A 
ATOM     77  C   UNL     1     -14.162  10.104  10.758  1.00  0.00     0.040 A 
ATOM     78  F   UNL     1     -14.640   9.338   8.594  1.00  0.00    -0.206 F 
ATOM     79  C   UNL     1     -13.376  10.855  11.630  1.00  0.00     0.006 A 
ENDBRANCH  58  72
BRANCH  59  80
ATOM     80  C   UNL     1     -10.483  10.259  -0.849  1.00  0.00     0.057 A 
ATOM     81  C   UNL     1     -10.253  11.400  -1.627  1.00  0.00     0.134 A 
ATOM     82  C   UNL     1     -10.432   9.019  -1.498  1.00  0.00     0.134 A 
ATOM     83  F   UNL     1     -10.314  12.619  -1.071  1.00  0.00    -0.206 F 
ATOM     84  C   UNL     1     -10.001  11.314  -2.998  1.00  0.00     0.040 A 
ATOM     85  C   UNL     1     -10.154   8.916  -2.862  1.00  0.00     0.040 A 
ATOM     86  F   UNL     1     -10.646   7.886  -0.812  1.00  0.00    -0.206 F 
ATOM     87  C   UNL     1      -9.946  10.068  -3.618  1.00  0.00     0.006 A 
ENDBRANCH  59  80
BRANCH  71  88
ATOM     88  C   UNL     1     -15.898  12.896   2.666  1.00  0.00     0.057 A 
ATOM     89  C   UNL     1     -16.948  12.233   2.018  1.00  0.00     0.134 A 
ATOM     90  C   UNL     1     -16.070  14.258   2.947  1.00  0.00     0.134 A 
ATOM     91  F   UNL     1     -16.845  10.931   1.712  1.00  0.00    -0.206 F 
ATOM     92  C   UNL     1     -18.112  12.906   1.643  1.00  0.00     0.040 A 
ATOM     93  C   UNL     1     -17.242  14.933   2.606  1.00  0.00     0.040 A 
ATOM     94  F   UNL     1     -15.109  14.950   3.578  1.00  0.00    -0.206 F 
ATOM     95  C   UNL     1     -18.265  14.258   1.945  1.00  0.00     0.006 A 
ENDBRANCH  71  88
ENDBRANCH  45  46
ENDBRANCH  38  40
ENDBRANCH  37  38
ENDBRANCH  36  37
ENDBRANCH  35  36
ENDBRANCH  34  35
ENDBRANCH  33  34
ENDBRANCH  32  33
ENDBRANCH   1  32
TORSDOF 22
