REMARK SMILES Cc1cc(F)cc(N[C@@](C)(C(=O)OCCOCCOCCOCCOC(=O)c2ccc(-c3c4nc(c(-c5c(F)cccc5F)c5ccc([nH]5)c(-c5c(F)cccc5F)c5nc(c(-c6c(F)cccc6F)c6ccc3[nH]6)C=C5)C=C4)cc2)c2ccc(O)cc2)c1
REMARK SMILES IDX 19 1 18 2 17 3 16 4 15 5 14 6 13 7 11 8 12 9 9 10 10 11 8 12
REMARK SMILES IDX 7 14 1 15 2 16 3 17 89 18 4 19 5 20 6 21 82 22 83 23 88 24
REMARK SMILES IDX 84 25 87 26 85 27 86 28 20 30 21 31 22 32 23 33 24 34 25 35
REMARK SMILES IDX 26 36 27 37 28 38 29 39 81 40 30 41 80 42 31 43 32 44 33 45
REMARK SMILES IDX 74 46 34 47 79 48 73 49 75 50 35 51 78 52 72 53 71 54 36 56
REMARK SMILES IDX 62 57 45 58 61 59 46 60 49 61 60 62 76 63 47 64 48 65 59 67
REMARK SMILES IDX 77 68 50 69 37 70 38 71 43 72 39 73 40 74 42 75 44 76 41 77
REMARK SMILES IDX 63 78 64 79 69 80 65 81 66 82 68 83 70 84 67 85 51 86 52 87
REMARK SMILES IDX 57 88 53 89 54 90 56 91 58 92 55 93
REMARK H PARENT 8 13 86 29 75 55 49 66
REMARK Flexibility Score: inf
ROOT
ATOM      1  O   UNL     1       1.244  -4.800   3.114  1.00  0.00    -0.377 OA
ENDROOT
BRANCH   1   2
ATOM      2  C   UNL     1       0.306  -3.774   2.860  1.00  0.00     0.188 C 
BRANCH   2   3
ATOM      3  C   UNL     1      -1.147  -4.095   3.254  1.00  0.00     0.188 C 
BRANCH   3   4
ATOM      4  O   UNL     1      -1.508  -5.375   3.767  1.00  0.00    -0.376 OA
BRANCH   4   5
ATOM      5  C   UNL     1      -0.751  -6.522   3.420  1.00  0.00     0.202 C 
BRANCH   5   6
ATOM      6  C   UNL     1      -0.466  -6.840   1.935  1.00  0.00     0.261 C 
BRANCH   6   7
ATOM      7  O   UNL     1      -0.361  -5.706   1.047  1.00  0.00    -0.461 OA
BRANCH   7   8
ATOM      8  C   UNL     1      -1.361  -5.533   0.146  1.00  0.00     0.336 C 
ATOM      9  O   UNL     1      -2.229  -6.388  -0.037  1.00  0.00    -0.249 OA
BRANCH   8  10
ATOM     10  C   UNL     1      -1.302  -4.172  -0.673  1.00  0.00     0.158 C 
ATOM     11  C   UNL     1      -1.072  -4.695  -2.112  1.00  0.00     0.053 C 
BRANCH  10  12
ATOM     12  N   UNL     1      -0.092  -3.305  -0.377  1.00  0.00    -0.366 N 
ATOM     13  H   UNL     1       0.758  -3.795  -0.459  1.00  0.00     0.162 HD
BRANCH  12  14
ATOM     14  C   UNL     1       0.086  -1.974  -0.015  1.00  0.00     0.038 A 
ATOM     15  C   UNL     1       2.824   0.738  -0.350  1.00  0.00     0.044 C 
ATOM     16  C   UNL     1       1.515   0.057  -0.067  1.00  0.00    -0.046 A 
ATOM     17  C   UNL     1       0.467   0.818   0.446  1.00  0.00     0.042 A 
ATOM     18  C   UNL     1       1.303  -1.320  -0.324  1.00  0.00     0.029 A 
ATOM     19  C   UNL     1      -0.706   0.184   0.808  1.00  0.00     0.125 A 
ATOM     20  F   UNL     1      -1.700   0.904   1.346  1.00  0.00    -0.207 F 
ATOM     21  C   UNL     1      -0.872  -1.190   0.631  1.00  0.00     0.065 A 
ENDBRANCH  12  14
ENDBRANCH  10  12
BRANCH  10  22
ATOM     22  C   UNL     1      -2.646  -3.408  -0.605  1.00  0.00    -0.011 A 
ATOM     23  C   UNL     1      -2.835  -2.222  -1.343  1.00  0.00     0.010 A 
ATOM     24  C   UNL     1      -3.694  -3.798   0.258  1.00  0.00     0.010 A 
ATOM     25  C   UNL     1      -3.931  -1.387  -1.100  1.00  0.00     0.046 A 
ATOM     26  C   UNL     1      -4.820  -2.994   0.456  1.00  0.00     0.046 A 
ATOM     27  C   UNL     1      -4.904  -1.771  -0.190  1.00  0.00     0.115 A 
BRANCH  27  28
ATOM     28  O   UNL     1      -5.926  -0.907   0.067  1.00  0.00    -0.508 OA
ATOM     29  H   UNL     1      -5.967  -0.085  -0.379  1.00  0.00     0.293 HD
ENDBRANCH  27  28
ENDBRANCH  10  22
ENDBRANCH   8  10
ENDBRANCH   7   8
ENDBRANCH   6   7
ENDBRANCH   5   6
ENDBRANCH   4   5
ENDBRANCH   3   4
ENDBRANCH   2   3
ENDBRANCH   1   2
BRANCH   1  30
ATOM     30  C   UNL     1       2.063  -4.619   4.248  1.00  0.00     0.188 C 
BRANCH  30  31
ATOM     31  C   UNL     1       1.366  -4.117   5.522  1.00  0.00     0.188 C 
BRANCH  31  32
ATOM     32  O   UNL     1       0.610  -2.927   5.336  1.00  0.00    -0.376 OA
BRANCH  32  33
ATOM     33  C   UNL     1       1.199  -1.672   5.645  1.00  0.00     0.202 C 
BRANCH  33  34
ATOM     34  C   UNL     1       2.359  -1.165   4.769  1.00  0.00     0.261 C 
BRANCH  34  35
ATOM     35  O   UNL     1       3.509  -2.017   4.648  1.00  0.00    -0.460 OA
BRANCH  35  36
ATOM     36  C   UNL     1       4.148  -2.388   5.782  1.00  0.00     0.338 C 
ATOM     37  O   UNL     1       3.909  -2.028   6.910  1.00  0.00    -0.246 OA
BRANCH  36  38
ATOM     38  C   UNL     1       5.070  -3.496   5.427  1.00  0.00     0.060 A 
ATOM     39  C   UNL     1       4.911  -4.732   6.068  1.00  0.00     0.016 A 
ATOM     40  C   UNL     1       6.059  -3.328   4.455  1.00  0.00     0.016 A 
ATOM     41  C   UNL     1       5.762  -5.794   5.764  1.00  0.00     0.010 A 
ATOM     42  C   UNL     1       6.932  -4.383   4.174  1.00  0.00     0.010 A 
ATOM     43  C   UNL     1       6.809  -5.608   4.854  1.00  0.00    -0.014 A 
BRANCH  43  44
ATOM     44  C   UNL     1       7.902  -6.607   4.789  1.00  0.00     0.031 A 
ATOM     45  C   UNL     1       9.147  -6.346   5.591  1.00  0.00     0.074 A 
ATOM     46  C   UNL     1       7.795  -7.727   4.055  1.00  0.00     0.049 A 
ATOM     47  N   UNL     1      10.254  -7.038   5.664  1.00  0.00    -0.248 NA
ATOM     48  C   UNL     1       9.139  -5.130   6.420  1.00  0.00     0.031 C 
ATOM     49  C   UNL     1       6.629  -8.113   3.266  1.00  0.00     0.029 A 
ATOM     50  N   UNL     1       8.698  -8.740   3.847  1.00  0.00    -0.354 N 
ATOM     51  C   UNL     1      11.079  -6.334   6.531  1.00  0.00     0.074 A 
ATOM     52  C   UNL     1      10.358  -5.148   6.935  1.00  0.00     0.031 C 
ATOM     53  C   UNL     1       6.895  -9.271   2.638  1.00  0.00     0.029 A 
ATOM     54  C   UNL     1       8.261  -9.689   2.956  1.00  0.00     0.049 A 
ATOM     55  H   UNL     1       9.574  -8.782   4.293  1.00  0.00     0.167 HD
ATOM     56  C   UNL     1      12.326  -6.649   6.956  1.00  0.00     0.037 A 
ATOM     57  C   UNL     1       8.902 -10.753   2.435  1.00  0.00     0.037 A 
ATOM     58  C   UNL     1      13.041  -7.828   6.546  1.00  0.00     0.049 A 
ATOM     59  C   UNL     1      10.313 -11.056   2.870  1.00  0.00     0.074 A 
ATOM     60  C   UNL     1      14.293  -8.259   6.946  1.00  0.00     0.029 A 
ATOM     61  N   UNL     1      12.574  -8.755   5.625  1.00  0.00    -0.354 N 
ATOM     62  N   UNL     1      11.073 -10.409   3.721  1.00  0.00    -0.248 NA
ATOM     63  C   UNL     1      10.951 -12.240   2.278  1.00  0.00     0.031 C 
ATOM     64  C   UNL     1      14.613  -9.407   6.214  1.00  0.00     0.029 A 
ATOM     65  C   UNL     1      13.530  -9.734   5.412  1.00  0.00     0.049 A 
ATOM     66  H   UNL     1      11.693  -8.721   5.187  1.00  0.00     0.167 HD
ATOM     67  C   UNL     1      12.268 -11.118   3.785  1.00  0.00     0.074 A 
ATOM     68  C   UNL     1      12.125 -12.252   2.895  1.00  0.00     0.031 C 
ATOM     69  C   UNL     1      13.379 -10.857   4.519  1.00  0.00     0.037 A 
BRANCH  56  70
ATOM     70  C   UNL     1      13.007  -5.669   7.868  1.00  0.00     0.057 A 
ATOM     71  C   UNL     1      12.572  -5.437   9.180  1.00  0.00     0.134 A 
ATOM     72  C   UNL     1      14.114  -4.938   7.419  1.00  0.00     0.134 A 
ATOM     73  F   UNL     1      11.507  -6.090   9.670  1.00  0.00    -0.206 F 
ATOM     74  C   UNL     1      13.187  -4.485   9.996  1.00  0.00     0.040 A 
ATOM     75  C   UNL     1      14.758  -4.008   8.236  1.00  0.00     0.040 A 
ATOM     76  F   UNL     1      14.587  -5.111   6.175  1.00  0.00    -0.206 F 
ATOM     77  C   UNL     1      14.286  -3.770   9.525  1.00  0.00     0.006 A 
ENDBRANCH  56  70
BRANCH  57  78
ATOM     78  C   UNL     1       8.216 -11.599   1.425  1.00  0.00     0.057 A 
ATOM     79  C   UNL     1       7.814 -12.907   1.718  1.00  0.00     0.134 A 
ATOM     80  C   UNL     1       7.936 -11.110   0.143  1.00  0.00     0.134 A 
ATOM     81  F   UNL     1       8.077 -13.441   2.919  1.00  0.00    -0.206 F 
ATOM     82  C   UNL     1       7.162 -13.700   0.771  1.00  0.00     0.040 A 
ATOM     83  C   UNL     1       7.261 -11.882  -0.804  1.00  0.00     0.040 A 
ATOM     84  F   UNL     1       8.296  -9.865  -0.201  1.00  0.00    -0.206 F 
ATOM     85  C   UNL     1       6.875 -13.184  -0.491  1.00  0.00     0.006 A 
ENDBRANCH  57  78
BRANCH  69  86
ATOM     86  C   UNL     1      14.521 -11.829   4.420  1.00  0.00     0.057 A 
ATOM     87  C   UNL     1      15.310 -11.938   3.267  1.00  0.00     0.134 A 
ATOM     88  C   UNL     1      14.868 -12.632   5.515  1.00  0.00     0.134 A 
ATOM     89  F   UNL     1      15.029 -11.206   2.179  1.00  0.00    -0.206 F 
ATOM     90  C   UNL     1      16.385 -12.827   3.200  1.00  0.00     0.040 A 
ATOM     91  C   UNL     1      15.959 -13.501   5.471  1.00  0.00     0.040 A 
ATOM     92  F   UNL     1      14.163 -12.570   6.655  1.00  0.00    -0.206 F 
ATOM     93  C   UNL     1      16.717 -13.606   4.307  1.00  0.00     0.006 A 
ENDBRANCH  69  86
ENDBRANCH  43  44
ENDBRANCH  36  38
ENDBRANCH  35  36
ENDBRANCH  34  35
ENDBRANCH  33  34
ENDBRANCH  32  33
ENDBRANCH  31  32
ENDBRANCH  30  31
ENDBRANCH   1  30
TORSDOF 24
