REMARK SMILES COc1cccc([C@@H]2[NH2+][C@@](C)(C(=O)OCCOCCOCCOCCOC(=O)c3ccc(-c4c5nc(c(-c6c(F)cccc6F)c6ccc([nH]6)c(-c6c(F)cccc6F)c6nc(c(-c7c(F)cccc7F)c7ccc4[nH]7)C=C6)C=C5)cc3)[C@@H]3C(=O)N(C)C(=O)[C@@H]32)c1O
REMARK SMILES IDX 20 1 19 2 18 3 17 4 16 5 15 6 14 7 12 8 13 9 10 10 8 11 9 12
REMARK SMILES IDX 90 13 83 16 88 17 11 18 84 19 86 20 89 21 85 22 87 23 7 24
REMARK SMILES IDX 3 25 4 26 91 27 5 28 6 29 2 30 1 31 92 32 21 34 22 35 23 36
REMARK SMILES IDX 24 37 25 38 26 39 27 40 28 41 29 42 30 43 82 44 31 45 81 46
REMARK SMILES IDX 32 47 33 48 34 49 75 50 35 51 80 52 74 53 76 54 36 55 79 56
REMARK SMILES IDX 73 57 72 58 37 60 63 61 46 62 62 63 47 64 50 65 61 66 77 67
REMARK SMILES IDX 48 68 49 69 60 71 78 72 51 73 38 74 39 75 44 76 40 77 41 78
REMARK SMILES IDX 43 79 45 80 42 81 64 82 65 83 70 84 66 85 67 86 69 87 71 88
REMARK SMILES IDX 68 89 52 90 53 91 58 92 54 93 55 94 57 95 59 96 56 97
REMARK H PARENT 9 14 9 15 92 33 76 59 50 70
REMARK Flexibility Score: inf
ROOT
ATOM      1  O   UNL     1      -5.205  -4.002  -6.065  1.00  0.00    -0.377 OA
ENDROOT
BRANCH   1   2
ATOM      2  C   UNL     1      -3.872  -3.582  -5.865  1.00  0.00     0.188 C 
BRANCH   2   3
ATOM      3  C   UNL     1      -2.817  -4.577  -6.391  1.00  0.00     0.188 C 
BRANCH   3   4
ATOM      4  O   UNL     1      -3.161  -5.927  -6.681  1.00  0.00    -0.376 OA
BRANCH   4   5
ATOM      5  C   UNL     1      -4.290  -6.509  -6.054  1.00  0.00     0.202 C 
BRANCH   5   6
ATOM      6  C   UNL     1      -4.377  -6.538  -4.513  1.00  0.00     0.261 C 
BRANCH   6   7
ATOM      7  O   UNL     1      -3.790  -5.439  -3.782  1.00  0.00    -0.459 OA
BRANCH   7   8
ATOM      8  C   UNL     1      -2.496  -5.601  -3.403  1.00  0.00     0.368 C 
ATOM      9  O   UNL     1      -1.870  -6.638  -3.615  1.00  0.00    -0.245 OA
BRANCH   8  10
ATOM     10  C   UNL     1      -1.865  -4.401  -2.615  1.00  0.00     0.204 C 
ATOM     11  C   UNL     1      -1.510  -2.224  -3.682  1.00  0.00     0.232 C 
ATOM     12  N   UNL     1      -2.454  -3.043  -2.878  1.00  0.00    -0.325 N 
ATOM     13  C   UNL     1      -0.325  -3.113  -4.022  1.00  0.00     0.161 C 
ATOM     14  H   UNL     1      -3.330  -3.148  -3.390  1.00  0.00     0.347 HD
ATOM     15  H   UNL     1      -2.627  -2.576  -1.988  1.00  0.00     0.347 HD
ATOM     16  C   UNL     1      -0.413  -4.304  -3.080  1.00  0.00     0.170 C 
ATOM     17  C   UNL     1       1.043  -2.562  -3.762  1.00  0.00     0.239 C 
ATOM     18  C   UNL     1      -2.125  -4.771  -1.151  1.00  0.00     0.093 C 
ATOM     19  C   UNL     1       0.660  -4.035  -2.065  1.00  0.00     0.240 C 
ATOM     20  N   UNL     1       1.509  -3.103  -2.599  1.00  0.00    -0.285 N 
ATOM     21  O   UNL     1       1.621  -1.767  -4.488  1.00  0.00    -0.274 OA
ATOM     22  O   UNL     1       0.807  -4.633  -1.011  1.00  0.00    -0.274 OA
ATOM     23  C   UNL     1       2.778  -2.745  -2.026  1.00  0.00     0.156 C 
BRANCH  11  24
ATOM     24  C   UNL     1      -1.193  -0.832  -3.148  1.00  0.00     0.056 A 
ATOM     25  C   UNL     1      -0.301   0.698  -1.461  1.00  0.00     0.161 A 
ATOM     26  C   UNL     1      -0.358   1.761  -2.359  1.00  0.00     0.050 A 
ATOM     27  C   UNL     1      -0.765  -0.572  -1.842  1.00  0.00     0.166 A 
ATOM     28  C   UNL     1      -0.843   1.545  -3.646  1.00  0.00     0.005 A 
ATOM     29  C   UNL     1      -1.242   0.262  -4.039  1.00  0.00     0.014 A 
BRANCH  25  30
ATOM     30  O   UNL     1       0.123   0.973  -0.187  1.00  0.00    -0.493 OA
ATOM     31  C   UNL     1       1.290   0.245   0.203  1.00  0.00     0.278 C 
ENDBRANCH  25  30
BRANCH  27  32
ATOM     32  O   UNL     1      -0.836  -1.574  -0.915  1.00  0.00    -0.504 OA
ATOM     33  H   UNL     1      -0.554  -1.419  -0.035  1.00  0.00     0.293 HD
ENDBRANCH  27  32
ENDBRANCH  11  24
ENDBRANCH   8  10
ENDBRANCH   7   8
ENDBRANCH   6   7
ENDBRANCH   5   6
ENDBRANCH   4   5
ENDBRANCH   3   4
ENDBRANCH   2   3
ENDBRANCH   1   2
BRANCH   1  34
ATOM     34  C   UNL     1      -5.878  -3.390  -7.143  1.00  0.00     0.188 C 
BRANCH  34  35
ATOM     35  C   UNL     1      -5.132  -3.355  -8.486  1.00  0.00     0.188 C 
BRANCH  35  36
ATOM     36  O   UNL     1      -3.835  -2.772  -8.401  1.00  0.00    -0.376 OA
BRANCH  36  37
ATOM     37  C   UNL     1      -3.644  -1.441  -8.850  1.00  0.00     0.202 C 
BRANCH  37  38
ATOM     38  C   UNL     1      -4.162  -0.313  -7.941  1.00  0.00     0.261 C 
BRANCH  38  39
ATOM     39  O   UNL     1      -5.541  -0.382  -7.557  1.00  0.00    -0.460 OA
BRANCH  39  40
ATOM     40  C   UNL     1      -6.468  -0.323  -8.536  1.00  0.00     0.338 C 
ATOM     41  O   UNL     1      -6.269  -0.181  -9.730  1.00  0.00    -0.246 OA
BRANCH  40  42
ATOM     42  C   UNL     1      -7.774  -0.672  -7.934  1.00  0.00     0.060 A 
ATOM     43  C   UNL     1      -8.460  -1.794  -8.420  1.00  0.00     0.016 A 
ATOM     44  C   UNL     1      -8.290   0.064  -6.865  1.00  0.00     0.016 A 
ATOM     45  C   UNL     1      -9.674  -2.173  -7.847  1.00  0.00     0.010 A 
ATOM     46  C   UNL     1      -9.526  -0.292  -6.318  1.00  0.00     0.010 A 
ATOM     47  C   UNL     1     -10.235  -1.395  -6.827  1.00  0.00    -0.014 A 
BRANCH  47  48
ATOM     48  C   UNL     1     -11.660  -1.589  -6.467  1.00  0.00     0.031 A 
ATOM     49  C   UNL     1     -12.678  -0.727  -7.162  1.00  0.00     0.074 A 
ATOM     50  C   UNL     1     -12.048  -2.523  -5.580  1.00  0.00     0.049 A 
ATOM     51  N   UNL     1     -13.972  -0.660  -6.988  1.00  0.00    -0.248 NA
ATOM     52  C   UNL     1     -12.162   0.184  -8.199  1.00  0.00     0.031 C 
ATOM     53  C   UNL     1     -11.163  -3.451  -4.881  1.00  0.00     0.029 A 
ATOM     54  N   UNL     1     -13.301  -2.833  -5.111  1.00  0.00    -0.354 N 
ATOM     55  C   UNL     1     -14.423   0.289  -7.897  1.00  0.00     0.074 A 
ATOM     56  C   UNL     1     -13.264   0.803  -8.591  1.00  0.00     0.031 C 
ATOM     57  C   UNL     1     -11.899  -4.213  -4.051  1.00  0.00     0.029 A 
ATOM     58  C   UNL     1     -13.300  -3.804  -4.139  1.00  0.00     0.049 A 
ATOM     59  H   UNL     1     -14.122  -2.400  -5.440  1.00  0.00     0.167 HD
ATOM     60  C   UNL     1     -15.692   0.687  -8.142  1.00  0.00     0.037 A 
ATOM     61  C   UNL     1     -14.315  -4.280  -3.389  1.00  0.00     0.037 A 
ATOM     62  C   UNL     1     -16.842   0.189  -7.438  1.00  0.00     0.049 A 
ATOM     63  C   UNL     1     -15.709  -3.743  -3.611  1.00  0.00     0.074 A 
ATOM     64  C   UNL     1     -18.169   0.546  -7.593  1.00  0.00     0.029 A 
ATOM     65  N   UNL     1     -16.797  -0.774  -6.441  1.00  0.00    -0.354 N 
ATOM     66  N   UNL     1     -16.128  -2.852  -4.478  1.00  0.00    -0.248 NA
ATOM     67  C   UNL     1     -16.773  -4.281  -2.749  1.00  0.00     0.031 C 
ATOM     68  C   UNL     1     -18.923  -0.168  -6.657  1.00  0.00     0.029 A 
ATOM     69  C   UNL     1     -18.073  -1.012  -5.961  1.00  0.00     0.049 A 
ATOM     70  H   UNL     1     -15.980  -1.220  -6.122  1.00  0.00     0.167 HD
ATOM     71  C   UNL     1     -17.503  -2.755  -4.293  1.00  0.00     0.074 A 
ATOM     72  C   UNL     1     -17.849  -3.687  -3.242  1.00  0.00     0.031 C 
ATOM     73  C   UNL     1     -18.400  -1.964  -4.931  1.00  0.00     0.037 A 
BRANCH  60  74
ATOM     74  C   UNL     1     -15.900   1.720  -9.209  1.00  0.00     0.057 A 
ATOM     75  C   UNL     1     -15.739   1.416 -10.568  1.00  0.00     0.134 A 
ATOM     76  C   UNL     1     -16.307   3.018  -8.880  1.00  0.00     0.134 A 
ATOM     77  F   UNL     1     -15.331   0.196 -10.948  1.00  0.00    -0.206 F 
ATOM     78  C   UNL     1     -15.965   2.371 -11.560  1.00  0.00     0.040 A 
ATOM     79  C   UNL     1     -16.561   3.974  -9.865  1.00  0.00     0.040 A 
ATOM     80  F   UNL     1     -16.477   3.375  -7.598  1.00  0.00    -0.206 F 
ATOM     81  C   UNL     1     -16.388   3.652 -11.210  1.00  0.00     0.006 A 
ENDBRANCH  60  74
BRANCH  61  82
ATOM     82  C   UNL     1     -14.065  -5.291  -2.327  1.00  0.00     0.057 A 
ATOM     83  C   UNL     1     -14.619  -6.575  -2.393  1.00  0.00     0.134 A 
ATOM     84  C   UNL     1     -13.327  -4.971  -1.180  1.00  0.00     0.134 A 
ATOM     85  F   UNL     1     -15.358  -6.938  -3.452  1.00  0.00    -0.206 F 
ATOM     86  C   UNL     1     -14.483  -7.489  -1.345  1.00  0.00     0.040 A 
ATOM     87  C   UNL     1     -13.155  -5.885  -0.139  1.00  0.00     0.040 A 
ATOM     88  F   UNL     1     -12.769  -3.758  -1.049  1.00  0.00    -0.206 F 
ATOM     89  C   UNL     1     -13.747  -7.144  -0.213  1.00  0.00     0.006 A 
ENDBRANCH  61  82
BRANCH  73  90
ATOM     90  C   UNL     1     -19.848  -2.114  -4.557  1.00  0.00     0.057 A 
ATOM     91  C   UNL     1     -20.348  -1.674  -3.325  1.00  0.00     0.134 A 
ATOM     92  C   UNL     1     -20.761  -2.665  -5.466  1.00  0.00     0.134 A 
ATOM     93  F   UNL     1     -19.526  -1.145  -2.407  1.00  0.00    -0.206 F 
ATOM     94  C   UNL     1     -21.699  -1.802  -3.000  1.00  0.00     0.040 A 
ATOM     95  C   UNL     1     -22.119  -2.769  -5.165  1.00  0.00     0.040 A 
ATOM     96  F   UNL     1     -20.351  -3.094  -6.669  1.00  0.00    -0.206 F 
ATOM     97  C   UNL     1     -22.590  -2.345  -3.925  1.00  0.00     0.006 A 
ENDBRANCH  73  90
ENDBRANCH  47  48
ENDBRANCH  40  42
ENDBRANCH  39  40
ENDBRANCH  38  39
ENDBRANCH  37  38
ENDBRANCH  36  37
ENDBRANCH  35  36
ENDBRANCH  34  35
ENDBRANCH   1  34
TORSDOF 23
