REMARK SMILES CCc1ccccc1NC(=O)c1cc(S(=O)(=O)N2CCC[C@H](C(=O)OCCOCCOCCOCCOC(=O)c3ccc(-c4c5nc(c(-c6c(F)cccc6F)c6ccc([nH]6)c(-c6c(F)cccc6F)c6nc(c(-c7c(F)cccc7F)c7ccc4[nH]7)C=C6)C=C5)cc3)C2)ccc1F
REMARK SMILES IDX 29 1 28 2 27 3 26 4 25 5 23 6 24 7 22 8 18 9 19 10 94 11
REMARK SMILES IDX 20 12 21 13 15 14 16 15 17 16 14 17 12 18 13 19 97 20 96 21
REMARK SMILES IDX 98 22 95 23 10 24 9 25 11 27 8 28 3 29 4 30 5 31 7 32 6 33
REMARK SMILES IDX 2 34 1 35 30 36 31 37 32 38 33 39 34 40 35 41 36 42 37 43
REMARK SMILES IDX 38 44 39 45 40 46 41 47 93 48 42 49 92 50 43 51 44 52 45 53
REMARK SMILES IDX 86 54 46 55 91 56 85 57 87 58 47 59 90 60 84 61 83 62 48 64
REMARK SMILES IDX 74 65 57 66 73 67 58 68 61 69 72 70 88 71 59 72 60 73 71 75
REMARK SMILES IDX 89 76 62 77 49 78 50 79 55 80 51 81 52 82 54 83 56 84 53 85
REMARK SMILES IDX 75 86 76 87 81 88 77 89 78 90 80 91 82 92 79 93 63 94 64 95
REMARK SMILES IDX 69 96 65 97 66 98 68 99 70 100 67 101
REMARK H PARENT 9 26 87 63 61 74
REMARK Flexibility Score: inf
ROOT
ATOM      1  C   UNL     1       0.618  13.855  -8.880  1.00  0.00     0.188 C 
ENDROOT
BRANCH   1   2
ATOM      2  O   UNL     1       1.415  14.810  -8.189  1.00  0.00    -0.376 OA
BRANCH   2   3
ATOM      3  C   UNL     1       1.009  15.077  -6.854  1.00  0.00     0.202 C 
BRANCH   3   4
ATOM      4  C   UNL     1       1.658  14.156  -5.817  1.00  0.00     0.261 C 
BRANCH   4   5
ATOM      5  O   UNL     1       1.631  12.755  -6.122  1.00  0.00    -0.463 OA
BRANCH   5   6
ATOM      6  C   UNL     1       0.428  12.155  -6.098  1.00  0.00     0.310 C 
ATOM      7  O   UNL     1      -0.641  12.746  -5.971  1.00  0.00    -0.252 OA
BRANCH   6   8
ATOM      8  C   UNL     1       0.508  10.646  -6.098  1.00  0.00     0.114 C 
ATOM      9  N   UNL     1       1.648   9.983  -3.934  1.00  0.00    -0.197 NA
ATOM     10  C   UNL     1       2.846   9.495  -4.654  1.00  0.00     0.102 C 
ATOM     11  C   UNL     1       0.365  10.239  -4.646  1.00  0.00     0.117 C 
ATOM     12  C   UNL     1       2.968  10.039  -6.061  1.00  0.00     0.018 C 
ATOM     13  C   UNL     1       1.653   9.926  -6.803  1.00  0.00     0.018 C 
BRANCH   9  14
ATOM     14  S   UNL     1       1.462   9.362  -2.356  1.00  0.00     0.243 S 
ATOM     15  O   UNL     1       0.486  10.188  -1.680  1.00  0.00    -0.207 OA
ATOM     16  O   UNL     1       2.777   9.119  -1.801  1.00  0.00    -0.207 OA
BRANCH  14  17
ATOM     17  C   UNL     1       0.696   7.762  -2.556  1.00  0.00     0.083 A 
ATOM     18  C   UNL     1      -0.336   5.883  -1.486  1.00  0.00     0.077 A 
ATOM     19  C   UNL     1       0.297   7.122  -1.385  1.00  0.00     0.038 A 
ATOM     20  C   UNL     1      -0.714   5.363  -2.724  1.00  0.00     0.136 A 
ATOM     21  C   UNL     1      -0.294   5.987  -3.889  1.00  0.00     0.041 A 
ATOM     22  F   UNL     1      -1.389   4.210  -2.816  1.00  0.00    -0.206 F 
ATOM     23  C   UNL     1       0.462   7.156  -3.802  1.00  0.00     0.025 A 
BRANCH  18  24
ATOM     24  C   UNL     1      -0.424   5.065  -0.278  1.00  0.00     0.258 C 
ATOM     25  N   UNL     1       0.225   3.850  -0.213  1.00  0.00    -0.322 N 
ATOM     26  H   UNL     1       0.038   3.338   0.607  1.00  0.00     0.170 HD
ATOM     27  O   UNL     1      -1.088   5.484   0.667  1.00  0.00    -0.269 OA
BRANCH  25  28
ATOM     28  C   UNL     1       1.113   3.204  -1.112  1.00  0.00     0.044 A 
ATOM     29  C   UNL     1       1.198   1.796  -1.086  1.00  0.00    -0.025 A 
ATOM     30  C   UNL     1       1.889   1.145  -2.128  1.00  0.00     0.006 A 
ATOM     31  C   UNL     1       2.554   1.864  -3.121  1.00  0.00     0.000 A 
ATOM     32  C   UNL     1       1.895   3.905  -2.042  1.00  0.00     0.026 A 
ATOM     33  C   UNL     1       2.589   3.246  -3.057  1.00  0.00     0.002 A 
BRANCH  29  34
ATOM     34  C   UNL     1       0.519   1.003   0.014  1.00  0.00     0.034 C 
ATOM     35  C   UNL     1       0.956  -0.446   0.184  1.00  0.00     0.009 C 
ENDBRANCH  29  34
ENDBRANCH  25  28
ENDBRANCH  18  24
ENDBRANCH  14  17
ENDBRANCH   9  14
ENDBRANCH   6   8
ENDBRANCH   5   6
ENDBRANCH   4   5
ENDBRANCH   3   4
ENDBRANCH   2   3
ENDBRANCH   1   2
BRANCH   1  36
ATOM     36  C   UNL     1       1.362  12.582  -9.308  1.00  0.00     0.188 C 
BRANCH  36  37
ATOM     37  O   UNL     1       2.677  12.354  -8.821  1.00  0.00    -0.377 OA
BRANCH  37  38
ATOM     38  C   UNL     1       3.652  13.387  -8.951  1.00  0.00     0.188 C 
BRANCH  38  39
ATOM     39  C   UNL     1       3.567  14.352 -10.150  1.00  0.00     0.188 C 
BRANCH  39  40
ATOM     40  O   UNL     1       2.854  13.837 -11.265  1.00  0.00    -0.376 OA
BRANCH  40  41
ATOM     41  C   UNL     1       3.624  13.269 -12.315  1.00  0.00     0.202 C 
BRANCH  41  42
ATOM     42  C   UNL     1       4.421  12.012 -11.941  1.00  0.00     0.261 C 
BRANCH  42  43
ATOM     43  O   UNL     1       5.525  12.234 -11.045  1.00  0.00    -0.460 OA
BRANCH  43  44
ATOM     44  C   UNL     1       6.464  13.126 -11.422  1.00  0.00     0.338 C 
ATOM     45  O   UNL     1       6.545  13.726 -12.477  1.00  0.00    -0.246 OA
BRANCH  44  46
ATOM     46  C   UNL     1       7.325  13.388 -10.257  1.00  0.00     0.060 A 
ATOM     47  C   UNL     1       7.386  14.686  -9.736  1.00  0.00     0.016 A 
ATOM     48  C   UNL     1       8.104  12.362  -9.720  1.00  0.00     0.016 A 
ATOM     49  C   UNL     1       8.269  14.972  -8.696  1.00  0.00     0.010 A 
ATOM     50  C   UNL     1       9.002  12.654  -8.693  1.00  0.00     0.010 A 
ATOM     51  C   UNL     1       9.115  13.968  -8.207  1.00  0.00    -0.014 A 
BRANCH  51  52
ATOM     52  C   UNL     1      10.268  14.334  -7.354  1.00  0.00     0.031 A 
ATOM     53  C   UNL     1      11.589  14.595  -8.022  1.00  0.00     0.074 A 
ATOM     54  C   UNL     1      10.146  14.439  -6.020  1.00  0.00     0.049 A 
ATOM     55  N   UNL     1      12.747  14.888  -7.490  1.00  0.00    -0.248 NA
ATOM     56  C   UNL     1      11.605  14.511  -9.493  1.00  0.00     0.031 C 
ATOM     57  C   UNL     1       8.912  14.243  -5.263  1.00  0.00     0.029 A 
ATOM     58  N   UNL     1      11.088  14.731  -5.066  1.00  0.00    -0.354 N 
ATOM     59  C   UNL     1      13.626  15.023  -8.556  1.00  0.00     0.074 A 
ATOM     60  C   UNL     1      12.878  14.752  -9.764  1.00  0.00     0.031 C 
ATOM     61  C   UNL     1       9.177  14.407  -3.954  1.00  0.00     0.029 A 
ATOM     62  C   UNL     1      10.600  14.694  -3.784  1.00  0.00     0.049 A 
ATOM     63  H   UNL     1      12.024  14.946  -5.281  1.00  0.00     0.167 HD
ATOM     64  C   UNL     1      14.938  15.353  -8.533  1.00  0.00     0.037 A 
ATOM     65  C   UNL     1      11.240  14.856  -2.610  1.00  0.00     0.037 A 
ATOM     66  C   UNL     1      15.684  15.613  -7.333  1.00  0.00     0.049 A 
ATOM     67  C   UNL     1      12.717  15.152  -2.606  1.00  0.00     0.074 A 
ATOM     68  C   UNL     1      17.017  15.962  -7.204  1.00  0.00     0.029 A 
ATOM     69  N   UNL     1      15.161  15.542  -6.051  1.00  0.00    -0.354 N 
ATOM     70  N   UNL     1      13.534  15.306  -3.620  1.00  0.00    -0.248 NA
ATOM     71  C   UNL     1      13.360  15.300  -1.292  1.00  0.00     0.031 C 
ATOM     72  C   UNL     1      17.310  16.063  -5.840  1.00  0.00     0.029 A 
ATOM     73  C   UNL     1      16.149  15.820  -5.123  1.00  0.00     0.049 A 
ATOM     74  H   UNL     1      14.225  15.326  -5.834  1.00  0.00     0.167 HD
ATOM     75  C   UNL     1      14.777  15.596  -3.069  1.00  0.00     0.074 A 
ATOM     76  C   UNL     1      14.605  15.605  -1.631  1.00  0.00     0.031 C 
ATOM     77  C   UNL     1      15.955  15.835  -3.696  1.00  0.00     0.037 A 
BRANCH  64  78
ATOM     78  C   UNL     1      15.649  15.426  -9.851  1.00  0.00     0.057 A 
ATOM     79  C   UNL     1      15.430  16.478 -10.749  1.00  0.00     0.134 A 
ATOM     80  C   UNL     1      16.572  14.440 -10.218  1.00  0.00     0.134 A 
ATOM     81  F   UNL     1      14.543  17.442 -10.464  1.00  0.00    -0.206 F 
ATOM     82  C   UNL     1      16.091  16.536 -11.977  1.00  0.00     0.040 A 
ATOM     83  C   UNL     1      17.256  14.499 -11.433  1.00  0.00     0.040 A 
ATOM     84  F   UNL     1      16.825  13.405  -9.403  1.00  0.00    -0.206 F 
ATOM     85  C   UNL     1      17.012  15.547 -12.319  1.00  0.00     0.006 A 
ENDBRANCH  64  78
BRANCH  65  86
ATOM     86  C   UNL     1      10.494  14.732  -1.333  1.00  0.00     0.057 A 
ATOM     87  C   UNL     1      10.260  15.847  -0.519  1.00  0.00     0.134 A 
ATOM     88  C   UNL     1      10.024  13.493  -0.882  1.00  0.00     0.134 A 
ATOM     89  F   UNL     1      10.709  17.056  -0.886  1.00  0.00    -0.206 F 
ATOM     90  C   UNL     1       9.599  15.732   0.705  1.00  0.00     0.040 A 
ATOM     91  C   UNL     1       9.341  13.367   0.329  1.00  0.00     0.040 A 
ATOM     92  F   UNL     1      10.220  12.387  -1.615  1.00  0.00    -0.206 F 
ATOM     93  C   UNL     1       9.134  14.489   1.130  1.00  0.00     0.006 A 
ENDBRANCH  65  86
BRANCH  77  94
ATOM     94  C   UNL     1      17.139  16.163  -2.836  1.00  0.00     0.057 A 
ATOM     95  C   UNL     1      17.799  15.185  -2.082  1.00  0.00     0.134 A 
ATOM     96  C   UNL     1      17.655  17.465  -2.802  1.00  0.00     0.134 A 
ATOM     97  F   UNL     1      17.348  13.921  -2.064  1.00  0.00    -0.206 F 
ATOM     98  C   UNL     1      18.918  15.495  -1.307  1.00  0.00     0.040 A 
ATOM     99  C   UNL     1      18.787  17.782  -2.051  1.00  0.00     0.040 A 
ATOM    100  F   UNL     1      17.075  18.446  -3.511  1.00  0.00    -0.206 F 
ATOM    101  C   UNL     1      19.419  16.796  -1.297  1.00  0.00     0.006 A 
ENDBRANCH  77  94
ENDBRANCH  51  52
ENDBRANCH  44  46
ENDBRANCH  43  44
ENDBRANCH  42  43
ENDBRANCH  41  42
ENDBRANCH  40  41
ENDBRANCH  39  40
ENDBRANCH  38  39
ENDBRANCH  37  38
ENDBRANCH  36  37
ENDBRANCH   1  36
TORSDOF 25
