REMARK SMILES C[C@@H](C(=O)OCCOCCOCCOCCOC(=O)c1ccc(-c2c3nc(c(-c4c(F)cccc4F)c4ccc([nH]4)c(-c4c(F)cccc4F)c4nc(c(-c5c(F)cccc5F)c5ccc2[nH]5)C=C4)C=C3)cc1)c1cc(/C=C/S(C)(=O)=O)cc(C(=O)c2ccccc2)c1
REMARK SMILES IDX 10 1 9 2 8 3 7 4 6 5 5 6 3 7 4 8 2 9 1 10 74 11 75 12 93 13
REMARK SMILES IDX 76 14 84 15 83 16 77 17 78 18 79 19 80 20 81 21 82 22 85 23
REMARK SMILES IDX 86 24 87 25 88 26 92 27 89 28 91 29 90 30 11 31 12 32 13 33
REMARK SMILES IDX 14 34 15 35 16 36 17 37 18 38 19 39 20 40 21 41 73 42 22 43
REMARK SMILES IDX 72 44 23 45 24 46 25 47 66 48 26 49 71 50 65 51 67 52 27 53
REMARK SMILES IDX 70 54 64 55 63 56 28 58 54 59 37 60 53 61 38 62 41 63 52 64
REMARK SMILES IDX 68 65 39 66 40 67 51 69 69 70 42 71 29 72 30 73 35 74 31 75
REMARK SMILES IDX 32 76 34 77 36 78 33 79 55 80 56 81 61 82 57 83 58 84 60 85
REMARK SMILES IDX 62 86 59 87 43 88 44 89 49 90 45 91 46 92 48 93 50 94 47 95
REMARK H PARENT 67 57 41 68
REMARK Flexibility Score: inf
ROOT
ATOM      1  C   UNL     1       0.936  -1.963   1.830  1.00  0.00     0.188 C 
ENDROOT
BRANCH   1   2
ATOM      2  C   UNL     1       0.197  -3.249   1.453  1.00  0.00     0.188 C 
BRANCH   2   3
ATOM      3  O   UNL     1       0.913  -4.456   1.614  1.00  0.00    -0.376 OA
BRANCH   3   4
ATOM      4  C   UNL     1       1.864  -4.881   0.649  1.00  0.00     0.202 C 
BRANCH   4   5
ATOM      5  C   UNL     1       2.407  -4.032  -0.522  1.00  0.00     0.261 C 
BRANCH   5   6
ATOM      6  O   UNL     1       1.789  -2.760  -0.735  1.00  0.00    -0.463 OA
BRANCH   6   7
ATOM      7  C   UNL     1       1.088  -2.552  -1.873  1.00  0.00     0.313 C 
ATOM      8  O   UNL     1       0.940  -3.390  -2.755  1.00  0.00    -0.252 OA
BRANCH   7   9
ATOM      9  C   UNL     1       0.394  -1.181  -1.882  1.00  0.00     0.126 C 
ATOM     10  C   UNL     1       1.272  -0.081  -1.238  1.00  0.00     0.025 C 
BRANCH   9  11
ATOM     11  C   UNL     1      -1.062  -1.213  -1.382  1.00  0.00    -0.033 A 
ATOM     12  C   UNL     1      -1.729  -0.020  -1.037  1.00  0.00     0.012 A 
ATOM     13  C   UNL     1      -1.803  -2.411  -1.314  1.00  0.00     0.016 A 
ATOM     14  C   UNL     1      -3.059  -0.009  -0.580  1.00  0.00    -0.024 A 
ATOM     15  C   UNL     1      -3.120  -2.433  -0.832  1.00  0.00     0.023 A 
ATOM     16  C   UNL     1      -3.743  -1.229  -0.482  1.00  0.00     0.020 A 
BRANCH  14  17
ATOM     17  C   UNL     1      -3.788   1.230  -0.242  1.00  0.00     0.020 C 
ATOM     18  C   UNL     1      -3.230   2.437  -0.059  1.00  0.00     0.106 C 
BRANCH  18  19
ATOM     19  S   UNL     1      -4.229   3.812   0.308  1.00  0.00     0.168 S 
ATOM     20  C   UNL     1      -3.433   4.450   1.762  1.00  0.00     0.163 C 
ATOM     21  O   UNL     1      -4.046   4.794  -0.743  1.00  0.00    -0.225 OA
ATOM     22  O   UNL     1      -5.558   3.386   0.703  1.00  0.00    -0.225 OA
ENDBRANCH  18  19
ENDBRANCH  14  17
BRANCH  15  23
ATOM     23  C   UNL     1      -3.903  -3.701  -0.720  1.00  0.00     0.193 C 
ATOM     24  O   UNL     1      -5.129  -3.676  -0.719  1.00  0.00    -0.289 OA
BRANCH  23  25
ATOM     25  C   UNL     1      -3.222  -5.010  -0.612  1.00  0.00     0.022 A 
ATOM     26  C   UNL     1      -3.450  -5.986  -1.583  1.00  0.00     0.012 A 
ATOM     27  C   UNL     1      -2.373  -5.278   0.464  1.00  0.00     0.012 A 
ATOM     28  C   UNL     1      -2.771  -7.204  -1.511  1.00  0.00     0.001 A 
ATOM     29  C   UNL     1      -1.683  -6.489   0.524  1.00  0.00     0.001 A 
ATOM     30  C   UNL     1      -1.874  -7.448  -0.469  1.00  0.00     0.000 A 
ENDBRANCH  23  25
ENDBRANCH  15  23
ENDBRANCH   9  11
ENDBRANCH   7   9
ENDBRANCH   6   7
ENDBRANCH   5   6
ENDBRANCH   4   5
ENDBRANCH   3   4
ENDBRANCH   2   3
ENDBRANCH   1   2
BRANCH   1  31
ATOM     31  O   UNL     1       2.342  -2.109   1.858  1.00  0.00    -0.377 OA
BRANCH  31  32
ATOM     32  C   UNL     1       2.918  -2.648   3.044  1.00  0.00     0.188 C 
BRANCH  32  33
ATOM     33  C   UNL     1       2.082  -3.473   4.053  1.00  0.00     0.188 C 
BRANCH  33  34
ATOM     34  O   UNL     1       0.761  -2.996   4.278  1.00  0.00    -0.376 OA
BRANCH  34  35
ATOM     35  C   UNL     1       0.502  -2.248   5.456  1.00  0.00     0.202 C 
BRANCH  35  36
ATOM     36  C   UNL     1       1.145  -0.856   5.538  1.00  0.00     0.261 C 
BRANCH  36  37
ATOM     37  O   UNL     1       2.578  -0.823   5.452  1.00  0.00    -0.460 OA
BRANCH  37  38
ATOM     38  C   UNL     1       3.273  -1.501   6.389  1.00  0.00     0.338 C 
ATOM     39  O   UNL     1       2.825  -2.097   7.353  1.00  0.00    -0.246 OA
BRANCH  38  40
ATOM     40  C   UNL     1       4.678  -1.581   5.938  1.00  0.00     0.060 A 
ATOM     41  C   UNL     1       5.257  -2.843   5.746  1.00  0.00     0.016 A 
ATOM     42  C   UNL     1       5.413  -0.419   5.689  1.00  0.00     0.016 A 
ATOM     43  C   UNL     1       6.588  -2.947   5.343  1.00  0.00     0.010 A 
ATOM     44  C   UNL     1       6.753  -0.524   5.310  1.00  0.00     0.010 A 
ATOM     45  C   UNL     1       7.356  -1.788   5.173  1.00  0.00    -0.014 A 
BRANCH  45  46
ATOM     46  C   UNL     1       8.831  -1.896   5.070  1.00  0.00     0.031 A 
ATOM     47  C   UNL     1       9.643  -1.692   6.320  1.00  0.00     0.074 A 
ATOM     48  C   UNL     1       9.439  -2.191   3.909  1.00  0.00     0.049 A 
ATOM     49  N   UNL     1      10.941  -1.679   6.477  1.00  0.00    -0.248 NA
ATOM     50  C   UNL     1       8.883  -1.469   7.561  1.00  0.00     0.031 C 
ATOM     51  C   UNL     1       8.762  -2.457   2.642  1.00  0.00     0.029 A 
ATOM     52  N   UNL     1      10.774  -2.304   3.611  1.00  0.00    -0.354 N 
ATOM     53  C   UNL     1      11.152  -1.440   7.830  1.00  0.00     0.074 A 
ATOM     54  C   UNL     1       9.852  -1.279   8.442  1.00  0.00     0.031 C 
ATOM     55  C   UNL     1       9.689  -2.687   1.695  1.00  0.00     0.029 A 
ATOM     56  C   UNL     1      11.022  -2.550   2.283  1.00  0.00     0.049 A 
ATOM     57  H   UNL     1      11.486  -2.217   4.285  1.00  0.00     0.167 HD
ATOM     58  C   UNL     1      12.324  -1.371   8.504  1.00  0.00     0.037 A 
ATOM     59  C   UNL     1      12.191  -2.628   1.617  1.00  0.00     0.037 A 
ATOM     60  C   UNL     1      13.617  -1.523   7.891  1.00  0.00     0.049 A 
ATOM     61  C   UNL     1      13.485  -2.462   2.372  1.00  0.00     0.074 A 
ATOM     62  C   UNL     1      14.864  -1.478   8.487  1.00  0.00     0.029 A 
ATOM     63  N   UNL     1      13.827  -1.738   6.537  1.00  0.00    -0.354 N 
ATOM     64  N   UNL     1      13.677  -2.256   3.654  1.00  0.00    -0.248 NA
ATOM     65  C   UNL     1      14.726  -2.541   1.588  1.00  0.00     0.031 C 
ATOM     66  C   UNL     1      15.831  -1.606   7.485  1.00  0.00     0.029 A 
ATOM     67  C   UNL     1      15.186  -1.799   6.274  1.00  0.00     0.049 A 
ATOM     68  H   UNL     1      13.117  -1.833   5.862  1.00  0.00     0.167 HD
ATOM     69  C   UNL     1      15.056  -2.214   3.833  1.00  0.00     0.074 A 
ATOM     70  C   UNL     1      15.652  -2.428   2.531  1.00  0.00     0.031 C 
ATOM     71  C   UNL     1      15.765  -2.019   4.973  1.00  0.00     0.037 A 
BRANCH  58  72
ATOM     72  C   UNL     1      12.256  -1.084   9.976  1.00  0.00     0.057 A 
ATOM     73  C   UNL     1      11.757  -2.018  10.894  1.00  0.00     0.134 A 
ATOM     74  C   UNL     1      12.712   0.140  10.484  1.00  0.00     0.134 A 
ATOM     75  F   UNL     1      11.287  -3.202  10.473  1.00  0.00    -0.206 F 
ATOM     76  C   UNL     1      11.686  -1.734  12.259  1.00  0.00     0.040 A 
ATOM     77  C   UNL     1      12.675   0.422  11.850  1.00  0.00     0.040 A 
ATOM     78  F   UNL     1      13.204   1.078   9.662  1.00  0.00    -0.206 F 
ATOM     79  C   UNL     1      12.154  -0.513  12.741  1.00  0.00     0.006 A 
ENDBRANCH  58  72
BRANCH  59  80
ATOM     80  C   UNL     1      12.198  -2.856   0.148  1.00  0.00     0.057 A 
ATOM     81  C   UNL     1      12.696  -4.043  -0.402  1.00  0.00     0.134 A 
ATOM     82  C   UNL     1      11.731  -1.881  -0.742  1.00  0.00     0.134 A 
ATOM     83  F   UNL     1      13.182  -5.005   0.396  1.00  0.00    -0.206 F 
ATOM     84  C   UNL     1      12.747  -4.245  -1.783  1.00  0.00     0.040 A 
ATOM     85  C   UNL     1      11.749  -2.081  -2.123  1.00  0.00     0.040 A 
ATOM     86  F   UNL     1      11.242  -0.721  -0.280  1.00  0.00    -0.206 F 
ATOM     87  C   UNL     1      12.266  -3.263  -2.647  1.00  0.00     0.006 A 
ENDBRANCH  59  80
BRANCH  71  88
ATOM     88  C   UNL     1      17.264  -2.073   4.875  1.00  0.00     0.057 A 
ATOM     89  C   UNL     1      18.007  -1.066   4.246  1.00  0.00     0.134 A 
ATOM     90  C   UNL     1      17.977  -3.127   5.463  1.00  0.00     0.134 A 
ATOM     91  F   UNL     1      17.388  -0.033   3.654  1.00  0.00    -0.206 F 
ATOM     92  C   UNL     1      19.401  -1.118   4.182  1.00  0.00     0.040 A 
ATOM     93  C   UNL     1      19.371  -3.174   5.434  1.00  0.00     0.040 A 
ATOM     94  F   UNL     1      17.330  -4.119   6.093  1.00  0.00    -0.206 F 
ATOM     95  C   UNL     1      20.087  -2.171   4.784  1.00  0.00     0.006 A 
ENDBRANCH  71  88
ENDBRANCH  45  46
ENDBRANCH  38  40
ENDBRANCH  37  38
ENDBRANCH  36  37
ENDBRANCH  35  36
ENDBRANCH  34  35
ENDBRANCH  33  34
ENDBRANCH  32  33
ENDBRANCH  31  32
ENDBRANCH   1  31
TORSDOF 25
