REMARK SMILES COc1ccc([C@H](C)[N@H+]2CC[C@H](C(=O)OCCOCCOCCOCCOC(=O)c3ccc(-c4c5nc(c(-c6c(F)cccc6F)c6ccc([nH]6)c(-c6c(F)cccc6F)c6nc(c(-c7c(F)cccc7F)c7ccc4[nH]7)C=C6)C=C5)cc3)[C@@H]2C)cc1
REMARK SMILES IDX 20 1 19 2 18 3 17 4 16 5 15 6 13 7 14 8 12 9 9 10 10 11
REMARK SMILES IDX 84 12 11 14 85 15 7 16 8 17 6 18 3 19 4 20 87 21 5 22 86 23
REMARK SMILES IDX 2 24 1 25 21 26 22 27 23 28 24 29 25 30 26 31 27 32 28 33
REMARK SMILES IDX 29 34 30 35 31 36 83 37 32 38 82 39 33 40 34 41 35 42 76 43
REMARK SMILES IDX 36 44 81 45 75 46 77 47 37 48 80 49 74 50 73 51 38 53 64 54
REMARK SMILES IDX 47 55 63 56 48 57 51 58 62 59 78 60 49 61 50 62 61 64 79 65
REMARK SMILES IDX 52 66 39 67 40 68 45 69 41 70 42 71 44 72 46 73 43 74 65 75
REMARK SMILES IDX 66 76 71 77 67 78 68 79 70 80 72 81 69 82 53 83 54 84 59 85
REMARK SMILES IDX 55 86 56 87 58 88 60 89 57 90
REMARK H PARENT 9 13 77 52 51 63
REMARK Flexibility Score: inf
ROOT
ATOM      1  C   UNL     1      -0.660  -8.130   5.865  1.00  0.00     0.188 C 
ENDROOT
BRANCH   1   2
ATOM      2  C   UNL     1      -1.966  -8.223   5.053  1.00  0.00     0.188 C 
BRANCH   2   3
ATOM      3  O   UNL     1      -2.218  -9.522   4.538  1.00  0.00    -0.376 OA
BRANCH   3   4
ATOM      4  C   UNL     1      -1.950  -9.688   3.154  1.00  0.00     0.202 C 
BRANCH   4   5
ATOM      5  C   UNL     1      -0.481  -9.516   2.742  1.00  0.00     0.261 C 
BRANCH   5   6
ATOM      6  O   UNL     1       0.108  -8.230   3.041  1.00  0.00    -0.463 OA
BRANCH   6   7
ATOM      7  C   UNL     1      -0.337  -7.140   2.383  1.00  0.00     0.315 C 
ATOM      8  O   UNL     1      -1.206  -7.188   1.518  1.00  0.00    -0.252 OA
BRANCH   7   9
ATOM      9  C   UNL     1       0.250  -5.814   2.869  1.00  0.00     0.162 C 
ATOM     10  N   UNL     1       1.353  -4.986   4.887  1.00  0.00    -0.326 N 
ATOM     11  C   UNL     1      -0.082  -4.771   5.052  1.00  0.00     0.264 C 
ATOM     12  C   UNL     1       1.600  -5.682   3.599  1.00  0.00     0.196 C 
ATOM     13  H   UNL     1       1.688  -5.603   5.628  1.00  0.00     0.348 HD
ATOM     14  C   UNL     1      -0.737  -5.003   3.707  1.00  0.00     0.083 C 
ATOM     15  C   UNL     1       2.472  -6.920   3.791  1.00  0.00     0.076 C 
BRANCH  10  16
ATOM     16  C   UNL     1       2.160  -3.757   5.109  1.00  0.00     0.212 C 
ATOM     17  C   UNL     1       1.865  -2.660   4.061  1.00  0.00     0.081 C 
BRANCH  16  18
ATOM     18  C   UNL     1       2.040  -3.255   6.564  1.00  0.00     0.009 A 
ATOM     19  C   UNL     1       1.699  -2.433   9.266  1.00  0.00     0.118 A 
ATOM     20  C   UNL     1       2.172  -3.710   8.964  1.00  0.00     0.047 A 
ATOM     21  C   UNL     1       1.443  -1.549   8.224  1.00  0.00     0.047 A 
ATOM     22  C   UNL     1       2.336  -4.120   7.632  1.00  0.00     0.013 A 
ATOM     23  C   UNL     1       1.620  -1.953   6.893  1.00  0.00     0.013 A 
BRANCH  19  24
ATOM     24  O   UNL     1       1.559  -2.150  10.597  1.00  0.00    -0.497 OA
ATOM     25  C   UNL     1       0.641  -1.111  10.925  1.00  0.00     0.278 C 
ENDBRANCH  19  24
ENDBRANCH  16  18
ENDBRANCH  10  16
ENDBRANCH   7   9
ENDBRANCH   6   7
ENDBRANCH   5   6
ENDBRANCH   4   5
ENDBRANCH   3   4
ENDBRANCH   2   3
ENDBRANCH   1   2
BRANCH   1  26
ATOM     26  O   UNL     1      -0.089  -9.312   6.405  1.00  0.00    -0.377 OA
BRANCH  26  27
ATOM     27  C   UNL     1      -0.965 -10.322   6.875  1.00  0.00     0.188 C 
BRANCH  27  28
ATOM     28  C   UNL     1      -2.247  -9.910   7.630  1.00  0.00     0.188 C 
BRANCH  28  29
ATOM     29  O   UNL     1      -2.413  -8.514   7.815  1.00  0.00    -0.376 OA
BRANCH  29  30
ATOM     30  C   UNL     1      -2.129  -7.936   9.075  1.00  0.00     0.202 C 
BRANCH  30  31
ATOM     31  C   UNL     1      -0.705  -8.049   9.635  1.00  0.00     0.261 C 
BRANCH  31  32
ATOM     32  O   UNL     1      -0.126  -9.359   9.635  1.00  0.00    -0.460 OA
BRANCH  32  33
ATOM     33  C   UNL     1      -0.687 -10.293  10.430  1.00  0.00     0.338 C 
ATOM     34  O   UNL     1      -1.647 -10.164  11.169  1.00  0.00    -0.246 OA
BRANCH  33  35
ATOM     35  C   UNL     1      -0.045 -11.577  10.082  1.00  0.00     0.060 A 
ATOM     36  C   UNL     1      -0.829 -12.607   9.544  1.00  0.00     0.016 A 
ATOM     37  C   UNL     1       1.339 -11.726  10.208  1.00  0.00     0.016 A 
ATOM     38  C   UNL     1      -0.227 -13.791   9.125  1.00  0.00     0.010 A 
ATOM     39  C   UNL     1       1.935 -12.929   9.831  1.00  0.00     0.010 A 
ATOM     40  C   UNL     1       1.150 -13.972   9.309  1.00  0.00    -0.014 A 
BRANCH  40  41
ATOM     41  C   UNL     1       1.720 -15.331   9.190  1.00  0.00     0.031 A 
ATOM     42  C   UNL     1       1.774 -16.169  10.435  1.00  0.00     0.074 A 
ATOM     43  C   UNL     1       2.156 -15.816   8.016  1.00  0.00     0.049 A 
ATOM     44  N   UNL     1       2.258 -17.370  10.610  1.00  0.00    -0.248 NA
ATOM     45  C   UNL     1       1.201 -15.565  11.651  1.00  0.00     0.031 C 
ATOM     46  C   UNL     1       2.109 -15.112   6.737  1.00  0.00     0.029 A 
ATOM     47  N   UNL     1       2.735 -17.024   7.719  1.00  0.00    -0.354 N 
ATOM     48  C   UNL     1       2.048 -17.663  11.951  1.00  0.00     0.074 A 
ATOM     49  C   UNL     1       1.423 -16.507  12.552  1.00  0.00     0.031 C 
ATOM     50  C   UNL     1       2.654 -15.898   5.790  1.00  0.00     0.029 A 
ATOM     51  C   UNL     1       3.114 -17.143   6.405  1.00  0.00     0.049 A 
ATOM     52  H   UNL     1       2.865 -17.737   8.384  1.00  0.00     0.167 HD
ATOM     53  C   UNL     1       2.346 -18.800  12.621  1.00  0.00     0.037 A 
ATOM     54  C   UNL     1       3.779 -18.137   5.784  1.00  0.00     0.037 A 
ATOM     55  C   UNL     1       2.985 -19.939  12.022  1.00  0.00     0.049 A 
ATOM     56  C   UNL     1       4.182 -19.358   6.573  1.00  0.00     0.074 A 
ATOM     57  C   UNL     1       3.330 -21.142  12.611  1.00  0.00     0.029 A 
ATOM     58  N   UNL     1       3.388 -20.009  10.697  1.00  0.00    -0.354 N 
ATOM     59  N   UNL     1       3.959 -19.641   7.834  1.00  0.00    -0.248 NA
ATOM     60  C   UNL     1       4.927 -20.399   5.850  1.00  0.00     0.031 C 
ATOM     61  C   UNL     1       3.993 -21.918  11.656  1.00  0.00     0.029 A 
ATOM     62  C   UNL     1       4.003 -21.225  10.455  1.00  0.00     0.049 A 
ATOM     63  H   UNL     1       3.256 -19.299  10.028  1.00  0.00     0.167 HD
ATOM     64  C   UNL     1       4.504 -20.903   8.046  1.00  0.00     0.074 A 
ATOM     65  C   UNL     1       5.059 -21.334   6.780  1.00  0.00     0.031 C 
ATOM     66  C   UNL     1       4.538 -21.641   9.183  1.00  0.00     0.037 A 
BRANCH  53  67
ATOM     67  C   UNL     1       2.017 -18.842  14.084  1.00  0.00     0.057 A 
ATOM     68  C   UNL     1       0.695 -18.904  14.546  1.00  0.00     0.134 A 
ATOM     69  C   UNL     1       3.037 -18.830  15.043  1.00  0.00     0.134 A 
ATOM     70  F   UNL     1      -0.330 -18.895  13.679  1.00  0.00    -0.206 F 
ATOM     71  C   UNL     1       0.400 -18.931  15.909  1.00  0.00     0.040 A 
ATOM     72  C   UNL     1       2.755 -18.886  16.408  1.00  0.00     0.040 A 
ATOM     73  F   UNL     1       4.323 -18.768  14.668  1.00  0.00    -0.206 F 
ATOM     74  C   UNL     1       1.433 -18.930  16.845  1.00  0.00     0.006 A 
ENDBRANCH  53  67
BRANCH  54  75
ATOM     75  C   UNL     1       4.125 -18.021   4.343  1.00  0.00     0.057 A 
ATOM     76  C   UNL     1       3.547 -18.863   3.386  1.00  0.00     0.134 A 
ATOM     77  C   UNL     1       5.069 -17.090   3.894  1.00  0.00     0.134 A 
ATOM     78  F   UNL     1       2.655 -19.794   3.756  1.00  0.00    -0.206 F 
ATOM     79  C   UNL     1       3.909 -18.798   2.039  1.00  0.00     0.040 A 
ATOM     80  C   UNL     1       5.421 -16.995   2.546  1.00  0.00     0.040 A 
ATOM     81  F   UNL     1       5.663 -16.255   4.759  1.00  0.00    -0.206 F 
ATOM     82  C   UNL     1       4.846 -17.857   1.615  1.00  0.00     0.006 A 
ENDBRANCH  54  75
BRANCH  66  83
ATOM     83  C   UNL     1       5.149 -23.011   9.103  1.00  0.00     0.057 A 
ATOM     84  C   UNL     1       6.528 -23.203   8.957  1.00  0.00     0.134 A 
ATOM     85  C   UNL     1       4.347 -24.153   9.229  1.00  0.00     0.134 A 
ATOM     86  F   UNL     1       7.352 -22.153   8.821  1.00  0.00    -0.206 F 
ATOM     87  C   UNL     1       7.085 -24.483   8.915  1.00  0.00     0.040 A 
ATOM     88  C   UNL     1       4.895 -25.436   9.220  1.00  0.00     0.040 A 
ATOM     89  F   UNL     1       3.019 -24.040   9.386  1.00  0.00    -0.206 F 
ATOM     90  C   UNL     1       6.268 -25.604   9.056  1.00  0.00     0.006 A 
ENDBRANCH  66  83
ENDBRANCH  40  41
ENDBRANCH  33  35
ENDBRANCH  32  33
ENDBRANCH  31  32
ENDBRANCH  30  31
ENDBRANCH  29  30
ENDBRANCH  28  29
ENDBRANCH  27  28
ENDBRANCH  26  27
ENDBRANCH   1  26
TORSDOF 23
