REMARK SMILES O=C(OCCOCCOCCOCCOC(=O)C1([C@H]2CCC[C@H]2O)CCCCC1)c1ccc(-c2c3nc(c(-c4c(F)cccc4F)c4ccc([nH]4)c(-c4c(F)cccc4F)c4nc(c(-c5c(F)cccc5F)c5ccc2[nH]5)C=C4)C=C3)cc1
REMARK SMILES IDX 9 1 8 2 7 3 6 4 5 5 4 6 3 7 2 8 1 9 30 10 31 11 83 12 32 13
REMARK SMILES IDX 82 14 33 15 34 16 35 17 76 18 36 19 81 20 75 21 77 22 37 23
REMARK SMILES IDX 80 24 74 25 73 26 38 28 64 29 47 30 63 31 48 32 51 33 62 34
REMARK SMILES IDX 78 35 49 36 50 37 61 39 79 40 52 41 39 42 40 43 45 44 41 45
REMARK SMILES IDX 42 46 44 47 46 48 43 49 65 50 66 51 71 52 67 53 68 54 70 55
REMARK SMILES IDX 72 56 69 57 53 58 54 59 59 60 55 61 56 62 58 63 60 64 57 65
REMARK SMILES IDX 10 66 11 67 12 68 13 69 14 70 15 71 16 72 17 73 18 74 25 75
REMARK SMILES IDX 29 76 26 77 28 78 27 79 19 80 20 81 23 82 21 83 22 84 24 85
REMARK H PARENT 77 27 51 38 24 86
REMARK Flexibility Score: inf
ROOT
ATOM      1  O   UNL     1       2.954  -3.532  -0.830  1.00  0.00    -0.377 OA
ENDROOT
BRANCH   1   2
ATOM      2  C   UNL     1       2.040  -2.452  -0.851  1.00  0.00     0.188 C 
BRANCH   2   3
ATOM      3  C   UNL     1       2.419  -1.322   0.087  1.00  0.00     0.188 C 
BRANCH   3   4
ATOM      4  O   UNL     1       3.693  -0.814  -0.275  1.00  0.00    -0.376 OA
BRANCH   4   5
ATOM      5  C   UNL     1       4.632  -0.534   0.753  1.00  0.00     0.202 C 
BRANCH   5   6
ATOM      6  C   UNL     1       4.233   0.538   1.746  1.00  0.00     0.261 C 
BRANCH   6   7
ATOM      7  O   UNL     1       2.932   1.133   1.605  1.00  0.00    -0.460 OA
BRANCH   7   8
ATOM      8  C   UNL     1       2.261   1.729   0.604  1.00  0.00     0.338 C 
ATOM      9  O   UNL     1       1.046   1.879   0.744  1.00  0.00    -0.246 OA
BRANCH   8  10
ATOM     10  C   UNL     1       2.859   2.273  -0.645  1.00  0.00     0.060 A 
ATOM     11  C   UNL     1       3.924   1.733  -1.362  1.00  0.00     0.016 A 
ATOM     12  C   UNL     1       2.200   3.385  -1.195  1.00  0.00     0.016 A 
ATOM     13  C   UNL     1       4.348   2.259  -2.564  1.00  0.00     0.010 A 
ATOM     14  C   UNL     1       2.632   3.952  -2.391  1.00  0.00     0.010 A 
ATOM     15  C   UNL     1       3.729   3.395  -3.052  1.00  0.00    -0.014 A 
BRANCH  15  16
ATOM     16  C   UNL     1       4.458   4.134  -4.078  1.00  0.00     0.031 A 
ATOM     17  C   UNL     1       5.261   5.298  -3.605  1.00  0.00     0.074 A 
ATOM     18  C   UNL     1       4.513   3.667  -5.332  1.00  0.00     0.049 A 
ATOM     19  N   UNL     1       5.830   6.245  -4.289  1.00  0.00    -0.248 NA
ATOM     20  C   UNL     1       5.447   5.407  -2.145  1.00  0.00     0.031 C 
ATOM     21  C   UNL     1       3.932   2.403  -5.792  1.00  0.00     0.029 A 
ATOM     22  N   UNL     1       5.093   4.200  -6.444  1.00  0.00    -0.354 N 
ATOM     23  C   UNL     1       6.373   7.101  -3.342  1.00  0.00     0.074 A 
ATOM     24  C   UNL     1       6.094   6.553  -2.038  1.00  0.00     0.031 C 
ATOM     25  C   UNL     1       4.159   2.276  -7.109  1.00  0.00     0.029 A 
ATOM     26  C   UNL     1       4.810   3.491  -7.583  1.00  0.00     0.049 A 
ATOM     27  H   UNL     1       5.655   5.009  -6.432  1.00  0.00     0.167 HD
ATOM     28  C   UNL     1       7.016   8.266  -3.572  1.00  0.00     0.037 A 
ATOM     29  C   UNL     1       4.985   3.852  -8.865  1.00  0.00     0.037 A 
ATOM     30  C   UNL     1       7.250   8.745  -4.906  1.00  0.00     0.049 A 
ATOM     31  C   UNL     1       5.598   5.202  -9.115  1.00  0.00     0.074 A 
ATOM     32  C   UNL     1       7.817   9.931  -5.321  1.00  0.00     0.029 A 
ATOM     33  N   UNL     1       6.910   8.030  -6.052  1.00  0.00    -0.354 N 
ATOM     34  N   UNL     1       6.013   6.091  -8.239  1.00  0.00    -0.248 NA
ATOM     35  C   UNL     1       5.750   5.615 -10.512  1.00  0.00     0.031 C 
ATOM     36  C   UNL     1       7.767   9.956  -6.720  1.00  0.00     0.029 A 
ATOM     37  C   UNL     1       7.233   8.757  -7.178  1.00  0.00     0.049 A 
ATOM     38  H   UNL     1       6.498   7.136  -6.057  1.00  0.00     0.167 HD
ATOM     39  C   UNL     1       6.500   7.160  -8.974  1.00  0.00     0.074 A 
ATOM     40  C   UNL     1       6.324   6.803 -10.372  1.00  0.00     0.031 C 
ATOM     41  C   UNL     1       7.046   8.326  -8.545  1.00  0.00     0.037 A 
BRANCH  28  42
ATOM     42  C   UNL     1       7.350   9.101  -2.372  1.00  0.00     0.057 A 
ATOM     43  C   UNL     1       8.299   8.712  -1.416  1.00  0.00     0.134 A 
ATOM     44  C   UNL     1       6.616  10.265  -2.109  1.00  0.00     0.134 A 
ATOM     45  F   UNL     1       9.009   7.585  -1.581  1.00  0.00    -0.206 F 
ATOM     46  C   UNL     1       8.470   9.422  -0.224  1.00  0.00     0.040 A 
ATOM     47  C   UNL     1       6.800  10.999  -0.936  1.00  0.00     0.040 A 
ATOM     48  F   UNL     1       5.679  10.689  -2.971  1.00  0.00    -0.206 F 
ATOM     49  C   UNL     1       7.718  10.569   0.018  1.00  0.00     0.006 A 
ENDBRANCH  28  42
BRANCH  29  50
ATOM     50  C   UNL     1       4.497   2.967  -9.951  1.00  0.00     0.057 A 
ATOM     51  C   UNL     1       5.380   2.308 -10.810  1.00  0.00     0.134 A 
ATOM     52  C   UNL     1       3.127   2.707 -10.115  1.00  0.00     0.134 A 
ATOM     53  F   UNL     1       6.700   2.520 -10.713  1.00  0.00    -0.206 F 
ATOM     54  C   UNL     1       4.923   1.423 -11.791  1.00  0.00     0.040 A 
ATOM     55  C   UNL     1       2.658   1.806 -11.073  1.00  0.00     0.040 A 
ATOM     56  F   UNL     1       2.224   3.298  -9.318  1.00  0.00    -0.206 F 
ATOM     57  C   UNL     1       3.559   1.163 -11.917  1.00  0.00     0.006 A 
ENDBRANCH  29  50
BRANCH  41  58
ATOM     58  C   UNL     1       7.548   9.262  -9.598  1.00  0.00     0.057 A 
ATOM     59  C   UNL     1       6.681  10.057 -10.354  1.00  0.00     0.134 A 
ATOM     60  C   UNL     1       8.926   9.448  -9.763  1.00  0.00     0.134 A 
ATOM     61  F   UNL     1       5.352   9.912 -10.242  1.00  0.00    -0.206 F 
ATOM     62  C   UNL     1       7.171  11.010 -11.244  1.00  0.00     0.040 A 
ATOM     63  C   UNL     1       9.427  10.417 -10.628  1.00  0.00     0.040 A 
ATOM     64  F   UNL     1       9.802   8.720  -9.053  1.00  0.00    -0.206 F 
ATOM     65  C   UNL     1       8.547  11.202 -11.371  1.00  0.00     0.006 A 
ENDBRANCH  41  58
ENDBRANCH  15  16
ENDBRANCH   8  10
ENDBRANCH   7   8
ENDBRANCH   6   7
ENDBRANCH   5   6
ENDBRANCH   4   5
ENDBRANCH   3   4
ENDBRANCH   2   3
ENDBRANCH   1   2
BRANCH   1  66
ATOM     66  C   UNL     1       4.324  -3.242  -1.075  1.00  0.00     0.188 C 
BRANCH  66  67
ATOM     67  C   UNL     1       4.825  -2.741  -2.428  1.00  0.00     0.188 C 
BRANCH  67  68
ATOM     68  O   UNL     1       3.828  -2.159  -3.223  1.00  0.00    -0.376 OA
BRANCH  68  69
ATOM     69  C   UNL     1       3.106  -2.999  -4.109  1.00  0.00     0.202 C 
BRANCH  69  70
ATOM     70  C   UNL     1       2.943  -4.538  -3.971  1.00  0.00     0.261 C 
BRANCH  70  71
ATOM     71  O   UNL     1       3.336  -5.194  -2.747  1.00  0.00    -0.463 OA
BRANCH  71  72
ATOM     72  C   UNL     1       4.379  -6.066  -2.820  1.00  0.00     0.312 C 
ATOM     73  O   UNL     1       4.960  -6.285  -3.868  1.00  0.00    -0.252 OA
BRANCH  72  74
ATOM     74  C   UNL     1       4.790  -6.757  -1.457  1.00  0.00     0.073 C 
ATOM     75  C   UNL     1       3.853  -6.411  -0.244  1.00  0.00     0.019 C 
ATOM     76  C   UNL     1       4.547  -8.257  -1.759  1.00  0.00     0.019 C 
ATOM     77  C   UNL     1       3.902  -7.347   0.962  1.00  0.00     0.001 C 
ATOM     78  C   UNL     1       4.641  -9.210  -0.575  1.00  0.00     0.001 C 
ATOM     79  C   UNL     1       3.740  -8.802   0.581  1.00  0.00     0.000 C 
BRANCH  74  80
ATOM     80  C   UNL     1       6.294  -6.311  -1.173  1.00  0.00     0.035 C 
ATOM     81  C   UNL     1       7.021  -6.790   0.100  1.00  0.00     0.007 C 
ATOM     82  C   UNL     1       7.354  -6.422  -2.292  1.00  0.00     0.118 C 
ATOM     83  C   UNL     1       8.499  -6.933  -0.266  1.00  0.00     0.003 C 
ATOM     84  C   UNL     1       8.666  -6.155  -1.560  1.00  0.00     0.032 C 
BRANCH  82  85
ATOM     85  O   UNL     1       7.403  -7.696  -2.902  1.00  0.00    -0.393 OA
ATOM     86  H   UNL     1       7.597  -8.369  -2.231  1.00  0.00     0.210 HD
ENDBRANCH  82  85
ENDBRANCH  74  80
ENDBRANCH  72  74
ENDBRANCH  71  72
ENDBRANCH  70  71
ENDBRANCH  69  70
ENDBRANCH  68  69
ENDBRANCH  67  68
ENDBRANCH  66  67
ENDBRANCH   1  66
TORSDOF 22
