REMARK SMILES O=C(OCCOCCOCCOCCOC(=O)c1cc(Br)ccc1OCc1ccc(O)cc1)c1ccc(-c2c3nc(c(-c4c(F)cccc4F)c4ccc([nH]4)c(-c4c(F)cccc4F)c4nc(c(-c5c(F)cccc5F)c5ccc2[nH]5)C=C4)C=C3)cc1
REMARK SMILES IDX 10 1 9 2 8 3 7 4 6 5 5 6 4 7 3 8 2 9 1 10 34 11 35 12 87 13
REMARK SMILES IDX 36 14 86 15 37 16 38 17 39 18 80 19 40 20 85 21 79 22 81 23
REMARK SMILES IDX 41 24 84 25 78 26 77 27 42 29 68 30 51 31 67 32 52 33 55 34
REMARK SMILES IDX 66 35 82 36 53 37 54 38 65 40 83 41 56 42 43 43 44 44 49 45
REMARK SMILES IDX 45 46 46 47 48 48 50 49 47 50 69 51 70 52 75 53 71 54 72 55
REMARK SMILES IDX 74 56 76 57 73 58 57 59 58 60 63 61 59 62 60 63 62 64 64 65
REMARK SMILES IDX 61 66 11 67 12 68 13 69 14 70 15 71 16 72 17 73 18 74 19 75
REMARK SMILES IDX 24 76 20 77 23 78 21 79 22 80 25 81 26 82 27 83 28 84 33 85
REMARK SMILES IDX 29 86 32 87 30 88 31 89
REMARK H PARENT 81 28 55 39 31 90
REMARK Flexibility Score: inf
ROOT
ATOM      1  C   UNL     1       3.165  -0.396   3.713  1.00  0.00     0.188 C 
ENDROOT
BRANCH   1   2
ATOM      2  O   UNL     1       1.793  -0.018   3.649  1.00  0.00    -0.377 OA
BRANCH   2   3
ATOM      3  C   UNL     1       1.200  -0.030   2.351  1.00  0.00     0.188 C 
BRANCH   3   4
ATOM      4  C   UNL     1       1.845   0.971   1.394  1.00  0.00     0.188 C 
BRANCH   4   5
ATOM      5  O   UNL     1       3.154   0.511   1.032  1.00  0.00    -0.376 OA
BRANCH   5   6
ATOM      6  C   UNL     1       4.063   1.545   0.667  1.00  0.00     0.202 C 
BRANCH   6   7
ATOM      7  C   UNL     1       4.104   1.805  -0.840  1.00  0.00     0.261 C 
BRANCH   7   8
ATOM      8  O   UNL     1       2.808   1.659  -1.438  1.00  0.00    -0.460 OA
BRANCH   8   9
ATOM      9  C   UNL     1       2.256   0.533  -1.956  1.00  0.00     0.338 C 
ATOM     10  O   UNL     1       1.084   0.572  -2.328  1.00  0.00    -0.246 OA
BRANCH   9  11
ATOM     11  C   UNL     1       3.014  -0.737  -2.189  1.00  0.00     0.060 A 
ATOM     12  C   UNL     1       4.038  -1.241  -1.382  1.00  0.00     0.016 A 
ATOM     13  C   UNL     1       2.597  -1.515  -3.283  1.00  0.00     0.016 A 
ATOM     14  C   UNL     1       4.693  -2.433  -1.700  1.00  0.00     0.010 A 
ATOM     15  C   UNL     1       3.219  -2.730  -3.584  1.00  0.00     0.010 A 
ATOM     16  C   UNL     1       4.294  -3.178  -2.808  1.00  0.00    -0.014 A 
BRANCH  16  17
ATOM     17  C   UNL     1       5.071  -4.366  -3.220  1.00  0.00     0.031 A 
ATOM     18  C   UNL     1       5.960  -4.253  -4.423  1.00  0.00     0.074 A 
ATOM     19  C   UNL     1       5.005  -5.507  -2.512  1.00  0.00     0.049 A 
ATOM     20  N   UNL     1       6.618  -5.184  -5.060  1.00  0.00    -0.248 NA
ATOM     21  C   UNL     1       6.131  -2.901  -4.984  1.00  0.00     0.031 C 
ATOM     22  C   UNL     1       4.234  -5.697  -1.283  1.00  0.00     0.029 A 
ATOM     23  N   UNL     1       5.594  -6.726  -2.729  1.00  0.00    -0.354 N 
ATOM     24  C   UNL     1       7.246  -4.540  -6.119  1.00  0.00     0.074 A 
ATOM     25  C   UNL     1       6.901  -3.139  -6.035  1.00  0.00     0.031 C 
ATOM     26  C   UNL     1       4.396  -6.961  -0.856  1.00  0.00     0.029 A 
ATOM     27  C   UNL     1       5.228  -7.683  -1.813  1.00  0.00     0.049 A 
ATOM     28  H   UNL     1       6.219  -6.899  -3.470  1.00  0.00     0.167 HD
ATOM     29  C   UNL     1       8.030  -5.079  -7.080  1.00  0.00     0.037 A 
ATOM     30  C   UNL     1       5.499  -9.003  -1.788  1.00  0.00     0.037 A 
ATOM     31  C   UNL     1       8.374  -6.473  -7.137  1.00  0.00     0.049 A 
ATOM     32  C   UNL     1       6.319  -9.590  -2.907  1.00  0.00     0.074 A 
ATOM     33  C   UNL     1       9.150  -7.136  -8.069  1.00  0.00     0.029 A 
ATOM     34  N   UNL     1       7.957  -7.418  -6.211  1.00  0.00    -0.354 N 
ATOM     35  N   UNL     1       6.882  -8.983  -3.925  1.00  0.00    -0.248 NA
ATOM     36  C   UNL     1       6.518 -11.046  -2.891  1.00  0.00     0.031 C 
ATOM     37  C   UNL     1       9.173  -8.492  -7.726  1.00  0.00     0.029 A 
ATOM     38  C   UNL     1       8.438  -8.665  -6.562  1.00  0.00     0.049 A 
ATOM     39  H   UNL     1       7.401  -7.228  -5.421  1.00  0.00     0.167 HD
ATOM     40  C   UNL     1       7.499  -9.980  -4.670  1.00  0.00     0.074 A 
ATOM     41  C   UNL     1       7.267 -11.227  -3.970  1.00  0.00     0.031 C 
ATOM     42  C   UNL     1       8.184  -9.882  -5.835  1.00  0.00     0.037 A 
BRANCH  29  43
ATOM     43  C   UNL     1       8.510  -4.168  -8.166  1.00  0.00     0.057 A 
ATOM     44  C   UNL     1       9.544  -3.246  -7.962  1.00  0.00     0.134 A 
ATOM     45  C   UNL     1       7.922  -4.212  -9.436  1.00  0.00     0.134 A 
ATOM     46  F   UNL     1      10.130  -3.136  -6.760  1.00  0.00    -0.206 F 
ATOM     47  C   UNL     1       9.966  -2.389  -8.981  1.00  0.00     0.040 A 
ATOM     48  C   UNL     1       8.346  -3.373 -10.467  1.00  0.00     0.040 A 
ATOM     49  F   UNL     1       6.921  -5.068  -9.693  1.00  0.00    -0.206 F 
ATOM     50  C   UNL     1       9.369  -2.454 -10.239  1.00  0.00     0.006 A 
ENDBRANCH  29  43
BRANCH  30  51
ATOM     51  C   UNL     1       4.937  -9.871  -0.720  1.00  0.00     0.057 A 
ATOM     52  C   UNL     1       5.763 -10.511   0.211  1.00  0.00     0.134 A 
ATOM     53  C   UNL     1       3.560 -10.113  -0.627  1.00  0.00     0.134 A 
ATOM     54  F   UNL     1       7.093 -10.343   0.160  1.00  0.00    -0.206 F 
ATOM     55  C   UNL     1       5.245 -11.371   1.182  1.00  0.00     0.040 A 
ATOM     56  C   UNL     1       3.026 -10.949   0.355  1.00  0.00     0.040 A 
ATOM     57  F   UNL     1       2.711  -9.535  -1.489  1.00  0.00    -0.206 F 
ATOM     58  C   UNL     1       3.871 -11.588   1.259  1.00  0.00     0.006 A 
ENDBRANCH  30  51
BRANCH  42  59
ATOM     59  C   UNL     1       8.723 -11.153  -6.414  1.00  0.00     0.057 A 
ATOM     60  C   UNL     1       7.888 -12.062  -7.076  1.00  0.00     0.134 A 
ATOM     61  C   UNL     1      10.091 -11.442  -6.359  1.00  0.00     0.134 A 
ATOM     62  F   UNL     1       6.567 -11.843  -7.149  1.00  0.00    -0.206 F 
ATOM     63  C   UNL     1       8.397 -13.224  -7.656  1.00  0.00     0.040 A 
ATOM     64  C   UNL     1      10.614 -12.590  -6.953  1.00  0.00     0.040 A 
ATOM     65  F   UNL     1      10.940 -10.604  -5.745  1.00  0.00    -0.206 F 
ATOM     66  C   UNL     1       9.765 -13.486  -7.601  1.00  0.00     0.006 A 
ENDBRANCH  42  59
ENDBRANCH  16  17
ENDBRANCH   9  11
ENDBRANCH   8   9
ENDBRANCH   7   8
ENDBRANCH   6   7
ENDBRANCH   5   6
ENDBRANCH   4   5
ENDBRANCH   3   4
ENDBRANCH   2   3
ENDBRANCH   1   2
BRANCH   1  67
ATOM     67  C   UNL     1       3.549  -1.730   3.045  1.00  0.00     0.188 C 
BRANCH  67  68
ATOM     68  O   UNL     1       2.526  -2.724   3.095  1.00  0.00    -0.376 OA
BRANCH  68  69
ATOM     69  C   UNL     1       2.841  -3.861   3.897  1.00  0.00     0.202 C 
BRANCH  69  70
ATOM     70  C   UNL     1       2.649  -3.587   5.384  1.00  0.00     0.261 C 
BRANCH  70  71
ATOM     71  O   UNL     1       3.473  -2.489   5.811  1.00  0.00    -0.460 OA
BRANCH  71  72
ATOM     72  C   UNL     1       4.647  -2.721   6.443  1.00  0.00     0.342 C 
ATOM     73  O   UNL     1       5.117  -3.800   6.727  1.00  0.00    -0.246 OA
BRANCH  72  74
ATOM     74  C   UNL     1       5.125  -1.385   6.873  1.00  0.00     0.103 A 
ATOM     75  C   UNL     1       4.240  -0.753   7.778  1.00  0.00     0.035 A 
ATOM     76  C   UNL     1       6.313  -0.735   6.503  1.00  0.00     0.134 A 
ATOM     77  C   UNL     1       4.518   0.509   8.289  1.00  0.00     0.019 A 
ATOM     78  C   UNL     1       6.562   0.547   7.028  1.00  0.00     0.048 A 
ATOM     79  Br  UNL     1       3.330   1.305   9.521  1.00  0.00    -0.051 Br
ATOM     80  C   UNL     1       5.673   1.172   7.906  1.00  0.00     0.019 A 
BRANCH  76  81
ATOM     81  O   UNL     1       7.390  -1.189   5.800  1.00  0.00    -0.488 OA
BRANCH  81  82
ATOM     82  C   UNL     1       7.234  -1.808   4.524  1.00  0.00     0.265 C 
BRANCH  82  83
ATOM     83  C   UNL     1       7.339  -3.305   4.644  1.00  0.00    -0.010 A 
ATOM     84  C   UNL     1       6.633  -4.148   3.776  1.00  0.00     0.011 A 
ATOM     85  C   UNL     1       8.111  -3.877   5.668  1.00  0.00     0.011 A 
ATOM     86  C   UNL     1       6.557  -5.518   4.039  1.00  0.00     0.046 A 
ATOM     87  C   UNL     1       8.052  -5.244   5.920  1.00  0.00     0.046 A 
ATOM     88  C   UNL     1       7.233  -6.041   5.136  1.00  0.00     0.115 A 
BRANCH  88  89
ATOM     89  O   UNL     1       7.077  -7.347   5.495  1.00  0.00    -0.508 OA
ATOM     90  H   UNL     1       6.530  -7.911   4.985  1.00  0.00     0.293 HD
ENDBRANCH  88  89
ENDBRANCH  82  83
ENDBRANCH  81  82
ENDBRANCH  76  81
ENDBRANCH  72  74
ENDBRANCH  71  72
ENDBRANCH  70  71
ENDBRANCH  69  70
ENDBRANCH  68  69
ENDBRANCH  67  68
ENDBRANCH   1  67
TORSDOF 24
