REMARK SMILES N#Cc1ccc(C[N@H+]2CCCC[C@H]2C(=O)OCCOCCOCCOCCOC(=O)c2ccc(-c3c4nc(c(-c5c(F)cccc5F)c5ccc([nH]5)c(-c5c(F)cccc5F)c5nc(c(-c6c(F)cccc6F)c6ccc3[nH]6)C=C5)C=C4)cc2)c(F)c1
REMARK SMILES IDX 21 1 20 2 19 3 18 4 17 5 16 6 14 7 15 8 13 9 8 10 9 11 10 13
REMARK SMILES IDX 12 14 11 15 7 16 6 17 3 18 4 19 87 20 5 21 85 22 86 23 2 24
REMARK SMILES IDX 1 25 22 26 23 27 24 28 25 29 26 30 27 31 28 32 29 33 30 34
REMARK SMILES IDX 31 35 32 36 84 37 33 38 83 39 34 40 35 41 36 42 77 43 37 44
REMARK SMILES IDX 82 45 76 46 78 47 38 48 81 49 75 50 74 51 39 53 65 54 48 55
REMARK SMILES IDX 64 56 49 57 52 58 63 59 79 60 50 61 51 62 62 64 80 65 53 66
REMARK SMILES IDX 40 67 41 68 46 69 42 70 43 71 45 72 47 73 44 74 66 75 67 76
REMARK SMILES IDX 72 77 68 78 69 79 71 80 73 81 70 82 54 83 55 84 60 85 56 86
REMARK SMILES IDX 57 87 59 88 61 89 58 90
REMARK H PARENT 8 12 78 52 52 63
REMARK Flexibility Score: inf
ROOT
ATOM      1  C   UNL     1       1.281  -0.569   3.466  1.00  0.00     0.188 C 
ENDROOT
BRANCH   1   2
ATOM      2  C   UNL     1      -0.024  -0.538   2.697  1.00  0.00     0.188 C 
BRANCH   2   3
ATOM      3  O   UNL     1      -0.616  -1.817   2.611  1.00  0.00    -0.376 OA
BRANCH   3   4
ATOM      4  C   UNL     1      -0.357  -2.636   1.486  1.00  0.00     0.202 C 
BRANCH   4   5
ATOM      5  C   UNL     1       1.029  -3.268   1.105  1.00  0.00     0.261 C 
BRANCH   5   6
ATOM      6  O   UNL     1       2.314  -2.671   1.417  1.00  0.00    -0.459 OA
BRANCH   6   7
ATOM      7  C   UNL     1       2.477  -1.460   0.846  1.00  0.00     0.364 C 
ATOM      8  O   UNL     1       1.507  -0.956   0.309  1.00  0.00    -0.245 OA
BRANCH   7   9
ATOM      9  C   UNL     1       3.885  -0.812   0.848  1.00  0.00     0.295 C 
ATOM     10  N   UNL     1       3.891   0.683   0.753  1.00  0.00    -0.319 N 
ATOM     11  C   UNL     1       3.703   1.436   1.984  1.00  0.00     0.263 C 
ATOM     12  H   UNL     1       4.895   0.756   0.587  1.00  0.00     0.349 HD
ATOM     13  C   UNL     1       4.566   0.958   3.159  1.00  0.00     0.062 C 
ATOM     14  C   UNL     1       4.843  -1.282   1.962  1.00  0.00     0.078 C 
ATOM     15  C   UNL     1       4.738  -0.550   3.296  1.00  0.00     0.013 C 
BRANCH  10  16
ATOM     16  C   UNL     1       3.411   1.348  -0.484  1.00  0.00     0.302 C 
BRANCH  16  17
ATOM     17  C   UNL     1       1.923   1.366  -0.807  1.00  0.00     0.042 A 
ATOM     18  C   UNL     1      -0.841   0.822  -0.940  1.00  0.00     0.055 A 
ATOM     19  C   UNL     1      -0.369   1.887  -0.162  1.00  0.00     0.020 A 
ATOM     20  C   UNL     1       0.039   0.148  -1.788  1.00  0.00     0.059 A 
ATOM     21  C   UNL     1       1.009   2.155  -0.090  1.00  0.00     0.014 A 
ATOM     22  C   UNL     1       1.404   0.452  -1.744  1.00  0.00     0.133 A 
ATOM     23  F   UNL     1       2.244  -0.329  -2.442  1.00  0.00    -0.206 F 
BRANCH  18  24
ATOM     24  C   UNL     1      -2.180   0.328  -0.754  1.00  0.00     0.099 C 
ATOM     25  N   UNL     1      -3.233  -0.108  -0.564  1.00  0.00    -0.192 NA
ENDBRANCH  18  24
ENDBRANCH  16  17
ENDBRANCH  10  16
ENDBRANCH   7   9
ENDBRANCH   6   7
ENDBRANCH   5   6
ENDBRANCH   4   5
ENDBRANCH   3   4
ENDBRANCH   2   3
ENDBRANCH   1   2
BRANCH   1  26
ATOM     26  O   UNL     1       1.717  -1.815   3.980  1.00  0.00    -0.377 OA
BRANCH  26  27
ATOM     27  C   UNL     1       0.806  -2.541   4.783  1.00  0.00     0.188 C 
BRANCH  27  28
ATOM     28  C   UNL     1      -0.179  -1.715   5.623  1.00  0.00     0.188 C 
BRANCH  28  29
ATOM     29  O   UNL     1       0.279  -0.569   6.334  1.00  0.00    -0.376 OA
BRANCH  29  30
ATOM     30  C   UNL     1       1.629  -0.481   6.762  1.00  0.00     0.202 C 
BRANCH  30  31
ATOM     31  C   UNL     1       2.102  -1.414   7.875  1.00  0.00     0.261 C 
BRANCH  31  32
ATOM     32  O   UNL     1       1.926  -2.805   7.591  1.00  0.00    -0.460 OA
BRANCH  32  33
ATOM     33  C   UNL     1       0.792  -3.359   8.082  1.00  0.00     0.338 C 
ATOM     34  O   UNL     1      -0.059  -2.825   8.770  1.00  0.00    -0.246 OA
BRANCH  33  35
ATOM     35  C   UNL     1       0.647  -4.715   7.521  1.00  0.00     0.060 A 
ATOM     36  C   UNL     1      -0.534  -5.060   6.845  1.00  0.00     0.016 A 
ATOM     37  C   UNL     1       1.661  -5.654   7.709  1.00  0.00     0.016 A 
ATOM     38  C   UNL     1      -0.728  -6.363   6.403  1.00  0.00     0.010 A 
ATOM     39  C   UNL     1       1.454  -6.966   7.293  1.00  0.00     0.010 A 
ATOM     40  C   UNL     1       0.239  -7.331   6.685  1.00  0.00    -0.014 A 
BRANCH  40  41
ATOM     41  C   UNL     1      -0.106  -8.762   6.566  1.00  0.00     0.031 A 
ATOM     42  C   UNL     1      -0.492  -9.499   7.817  1.00  0.00     0.074 A 
ATOM     43  C   UNL     1      -0.081  -9.383   5.378  1.00  0.00     0.049 A 
ATOM     44  N   UNL     1      -0.738 -10.770   7.991  1.00  0.00    -0.248 NA
ATOM     45  C   UNL     1      -0.603  -8.689   9.043  1.00  0.00     0.031 C 
ATOM     46  C   UNL     1       0.222  -8.748   4.097  1.00  0.00     0.029 A 
ATOM     47  N   UNL     1      -0.302 -10.698   5.064  1.00  0.00    -0.354 N 
ATOM     48  C   UNL     1      -1.019 -10.914   9.344  1.00  0.00     0.074 A 
ATOM     49  C   UNL     1      -0.871  -9.611   9.953  1.00  0.00     0.031 C 
ATOM     50  C   UNL     1       0.179  -9.682   3.131  1.00  0.00     0.029 A 
ATOM     51  C   UNL     1      -0.111 -10.981   3.736  1.00  0.00     0.049 A 
ATOM     52  H   UNL     1      -0.573 -11.373   5.727  1.00  0.00     0.167 HD
ATOM     53  C   UNL     1      -1.377 -12.034  10.015  1.00  0.00     0.037 A 
ATOM     54  C   UNL     1      -0.140 -12.164   3.095  1.00  0.00     0.037 A 
ATOM     55  C   UNL     1      -1.507 -13.326   9.396  1.00  0.00     0.049 A 
ATOM     56  C   UNL     1      -0.439 -13.414   3.882  1.00  0.00     0.074 A 
ATOM     57  C   UNL     1      -1.868 -14.528   9.976  1.00  0.00     0.029 A 
ATOM     58  N   UNL     1      -1.266 -13.585   8.054  1.00  0.00    -0.354 N 
ATOM     59  N   UNL     1      -0.720 -13.546   5.157  1.00  0.00    -0.248 NA
ATOM     60  C   UNL     1      -0.426 -14.680   3.138  1.00  0.00     0.031 C 
ATOM     61  C   UNL     1      -1.779 -15.526   9.001  1.00  0.00     0.029 A 
ATOM     62  C   UNL     1      -1.439 -14.934   7.794  1.00  0.00     0.049 A 
ATOM     63  H   UNL     1      -1.011 -12.908   7.385  1.00  0.00     0.167 HD
ATOM     64  C   UNL     1      -0.957 -14.901   5.358  1.00  0.00     0.074 A 
ATOM     65  C   UNL     1      -0.797 -15.545   4.070  1.00  0.00     0.031 C 
ATOM     66  C   UNL     1      -1.282 -15.555   6.502  1.00  0.00     0.037 A 
BRANCH  53  67
ATOM     67  C   UNL     1      -1.608 -11.909  11.494  1.00  0.00     0.057 A 
ATOM     68  C   UNL     1      -2.683 -11.179  12.023  1.00  0.00     0.134 A 
ATOM     69  C   UNL     1      -0.745 -12.531  12.405  1.00  0.00     0.134 A 
ATOM     70  F   UNL     1      -3.540 -10.544  11.209  1.00  0.00    -0.206 F 
ATOM     71  C   UNL     1      -2.867 -11.042  13.400  1.00  0.00     0.040 A 
ATOM     72  C   UNL     1      -0.940 -12.431  13.784  1.00  0.00     0.040 A 
ATOM     73  F   UNL     1       0.302 -13.249  11.972  1.00  0.00    -0.206 F 
ATOM     74  C   UNL     1      -1.998 -11.676  14.285  1.00  0.00     0.006 A 
ENDBRANCH  53  67
BRANCH  54  75
ATOM     75  C   UNL     1       0.121 -12.229   1.635  1.00  0.00     0.057 A 
ATOM     76  C   UNL     1      -0.887 -12.606   0.739  1.00  0.00     0.134 A 
ATOM     77  C   UNL     1       1.382 -11.938   1.099  1.00  0.00     0.134 A 
ATOM     78  F   UNL     1      -2.110 -12.916   1.192  1.00  0.00    -0.206 F 
ATOM     79  C   UNL     1      -0.645 -12.716  -0.631  1.00  0.00     0.040 A 
ATOM     80  C   UNL     1       1.629 -12.013  -0.272  1.00  0.00     0.040 A 
ATOM     81  F   UNL     1       2.390 -11.565   1.901  1.00  0.00    -0.206 F 
ATOM     82  C   UNL     1       0.616 -12.414  -1.140  1.00  0.00     0.006 A 
ENDBRANCH  54  75
BRANCH  66  83
ATOM     83  C   UNL     1      -1.541 -17.033   6.403  1.00  0.00     0.057 A 
ATOM     84  C   UNL     1      -0.519 -17.955   6.143  1.00  0.00     0.134 A 
ATOM     85  C   UNL     1      -2.830 -17.542   6.614  1.00  0.00     0.134 A 
ATOM     86  F   UNL     1       0.736 -17.536   5.922  1.00  0.00    -0.206 F 
ATOM     87  C   UNL     1      -0.776 -19.325   6.064  1.00  0.00     0.040 A 
ATOM     88  C   UNL     1      -3.092 -18.911   6.574  1.00  0.00     0.040 A 
ATOM     89  F   UNL     1      -3.854 -16.717   6.881  1.00  0.00    -0.206 F 
ATOM     90  C   UNL     1      -2.064 -19.807   6.288  1.00  0.00     0.006 A 
ENDBRANCH  66  83
ENDBRANCH  40  41
ENDBRANCH  33  35
ENDBRANCH  32  33
ENDBRANCH  31  32
ENDBRANCH  30  31
ENDBRANCH  29  30
ENDBRANCH  28  29
ENDBRANCH  27  28
ENDBRANCH  26  27
ENDBRANCH   1  26
TORSDOF 23
