REMARK SMILES CC1(C)C(C(=O)Nc2ccc(CC(=O)OCCOCCOCCOCCOC(=O)c3ccc(-c4c5nc(c(-c6c(F)cccc6F)c6ccc([nH]6)c(-c6c(F)cccc6F)c6nc(c(-c7c(F)cccc7F)c7ccc4[nH]7)C=C6)C=C5)cc3)cc2)C1(C)C
REMARK SMILES IDX 20 1 19 2 18 3 17 4 16 5 15 6 13 7 14 8 12 9 11 10 8 11 9 12
REMARK SMILES IDX 85 13 10 14 84 15 7 16 5 17 6 18 4 20 1 21 2 22 3 23 86 24
REMARK SMILES IDX 87 25 88 26 21 27 22 28 23 29 24 30 25 31 26 32 27 33 28 34
REMARK SMILES IDX 29 35 30 36 31 37 83 38 32 39 82 40 33 41 34 42 35 43 76 44
REMARK SMILES IDX 36 45 81 46 75 47 77 48 37 49 80 50 74 51 73 52 38 54 64 55
REMARK SMILES IDX 47 56 63 57 48 58 51 59 62 60 78 61 49 62 50 63 61 65 79 66
REMARK SMILES IDX 52 67 39 68 40 69 45 70 41 71 42 72 44 73 46 74 43 75 65 76
REMARK SMILES IDX 66 77 71 78 67 79 68 80 70 81 72 82 69 83 53 84 54 85 59 86
REMARK SMILES IDX 55 87 56 88 58 89 60 90 57 91
REMARK H PARENT 7 19 77 53 51 64
REMARK Flexibility Score: inf
ROOT
ATOM      1  C   UNL     1      -0.209   0.943   8.439  1.00  0.00     0.188 C 
ENDROOT
BRANCH   1   2
ATOM      2  C   UNL     1      -1.485   0.325   9.051  1.00  0.00     0.188 C 
BRANCH   2   3
ATOM      3  O   UNL     1      -1.424  -0.809   9.917  1.00  0.00    -0.376 OA
BRANCH   3   4
ATOM      4  C   UNL     1      -0.182  -1.457  10.133  1.00  0.00     0.202 C 
BRANCH   4   5
ATOM      5  C   UNL     1       0.355  -2.289   8.957  1.00  0.00     0.261 C 
BRANCH   5   6
ATOM      6  O   UNL     1       0.038  -1.780   7.648  1.00  0.00    -0.463 OA
BRANCH   6   7
ATOM      7  C   UNL     1      -1.114  -2.221   7.089  1.00  0.00     0.310 C 
ATOM      8  O   UNL     1      -1.784  -3.147   7.537  1.00  0.00    -0.252 OA
BRANCH   7   9
ATOM      9  C   UNL     1      -1.514  -1.504   5.814  1.00  0.00     0.158 C 
BRANCH   9  10
ATOM     10  C   UNL     1      -0.918  -0.155   5.450  1.00  0.00    -0.037 A 
ATOM     11  C   UNL     1      -0.008   2.185   4.210  1.00  0.00     0.041 A 
ATOM     12  C   UNL     1      -1.244   2.194   4.851  1.00  0.00     0.026 A 
ATOM     13  C   UNL     1       0.874   1.132   4.431  1.00  0.00     0.026 A 
ATOM     14  C   UNL     1      -1.716   1.007   5.428  1.00  0.00     0.006 A 
ATOM     15  C   UNL     1       0.415  -0.046   5.033  1.00  0.00     0.006 A 
BRANCH  11  16
ATOM     16  N   UNL     1       0.238   3.167   3.230  1.00  0.00    -0.326 N 
ATOM     17  C   UNL     1       0.942   2.953   2.060  1.00  0.00     0.228 C 
ATOM     18  O   UNL     1       1.982   3.583   1.868  1.00  0.00    -0.274 OA
ATOM     19  H   UNL     1      -0.118   4.071   3.390  1.00  0.00     0.169 HD
BRANCH  17  20
ATOM     20  C   UNL     1       0.309   2.279   0.863  1.00  0.00     0.091 C 
ATOM     21  C   UNL     1       0.870   0.449  -0.908  1.00  0.00     0.012 C 
ATOM     22  C   UNL     1       0.407   0.795   0.494  1.00  0.00    -0.017 C 
ATOM     23  C   UNL     1       0.880  -0.268   1.444  1.00  0.00     0.012 C 
ATOM     24  C   UNL     1      -0.973   1.467   0.704  1.00  0.00    -0.017 C 
ATOM     25  C   UNL     1      -1.839   1.762  -0.508  1.00  0.00     0.012 C 
ATOM     26  C   UNL     1      -1.853   1.131   1.876  1.00  0.00     0.012 C 
ENDBRANCH  17  20
ENDBRANCH  11  16
ENDBRANCH   9  10
ENDBRANCH   7   9
ENDBRANCH   6   7
ENDBRANCH   5   6
ENDBRANCH   4   5
ENDBRANCH   3   4
ENDBRANCH   2   3
ENDBRANCH   1   2
BRANCH   1  27
ATOM     27  O   UNL     1       0.934   0.866   9.272  1.00  0.00    -0.377 OA
BRANCH  27  28
ATOM     28  C   UNL     1       1.396   2.113   9.743  1.00  0.00     0.188 C 
BRANCH  28  29
ATOM     29  C   UNL     1       0.378   2.824  10.643  1.00  0.00     0.188 C 
BRANCH  29  30
ATOM     30  O   UNL     1      -0.861   3.014   9.977  1.00  0.00    -0.376 OA
BRANCH  30  31
ATOM     31  C   UNL     1      -1.226   4.279   9.467  1.00  0.00     0.202 C 
BRANCH  31  32
ATOM     32  C   UNL     1      -0.393   4.965   8.369  1.00  0.00     0.261 C 
BRANCH  32  33
ATOM     33  O   UNL     1       1.024   4.775   8.385  1.00  0.00    -0.460 OA
BRANCH  33  34
ATOM     34  C   UNL     1       1.733   5.451   9.312  1.00  0.00     0.338 C 
ATOM     35  O   UNL     1       1.294   6.203  10.167  1.00  0.00    -0.246 OA
BRANCH  34  36
ATOM     36  C   UNL     1       3.129   4.965   9.249  1.00  0.00     0.060 A 
ATOM     37  C   UNL     1       3.675   4.345  10.381  1.00  0.00     0.016 A 
ATOM     38  C   UNL     1       3.878   5.078   8.075  1.00  0.00     0.016 A 
ATOM     39  C   UNL     1       4.975   3.845  10.347  1.00  0.00     0.010 A 
ATOM     40  C   UNL     1       5.198   4.616   8.055  1.00  0.00     0.010 A 
ATOM     41  C   UNL     1       5.759   4.024   9.201  1.00  0.00    -0.014 A 
BRANCH  41  42
ATOM     42  C   UNL     1       7.222   3.812   9.289  1.00  0.00     0.031 A 
ATOM     43  C   UNL     1       8.084   5.002   9.606  1.00  0.00     0.074 A 
ATOM     44  C   UNL     1       7.771   2.596   9.127  1.00  0.00     0.049 A 
ATOM     45  N   UNL     1       9.385   5.088   9.701  1.00  0.00    -0.248 NA
ATOM     46  C   UNL     1       7.375   6.269   9.849  1.00  0.00     0.031 C 
ATOM     47  C   UNL     1       7.036   1.362   8.865  1.00  0.00     0.029 A 
ATOM     48  N   UNL     1       9.088   2.209   9.150  1.00  0.00    -0.354 N 
ATOM     49  C   UNL     1       9.649   6.415  10.012  1.00  0.00     0.074 A 
ATOM     50  C   UNL     1       8.380   7.106  10.055  1.00  0.00     0.031 C 
ATOM     51  C   UNL     1       7.916   0.353   8.729  1.00  0.00     0.029 A 
ATOM     52  C   UNL     1       9.274   0.879   8.864  1.00  0.00     0.049 A 
ATOM     53  H   UNL     1       9.828   2.826   9.352  1.00  0.00     0.167 HD
ATOM     54  C   UNL     1      10.844   7.005  10.251  1.00  0.00     0.037 A 
ATOM     55  C   UNL     1      10.414   0.179   8.703  1.00  0.00     0.037 A 
ATOM     56  C   UNL     1      12.105   6.318  10.186  1.00  0.00     0.049 A 
ATOM     57  C   UNL     1      11.739   0.876   8.882  1.00  0.00     0.074 A 
ATOM     58  C   UNL     1      13.374   6.821  10.409  1.00  0.00     0.029 A 
ATOM     59  N   UNL     1      12.256   4.978   9.860  1.00  0.00    -0.354 N 
ATOM     60  N   UNL     1      11.982   2.126   9.200  1.00  0.00    -0.248 NA
ATOM     61  C   UNL     1      12.949   0.064   8.685  1.00  0.00     0.031 C 
ATOM     62  C   UNL     1      14.297   5.801  10.160  1.00  0.00     0.029 A 
ATOM     63  C   UNL     1      13.600   4.644   9.848  1.00  0.00     0.049 A 
ATOM     64  H   UNL     1      11.517   4.357   9.666  1.00  0.00     0.167 HD
ATOM     65  C   UNL     1      13.366   2.241   9.271  1.00  0.00     0.074 A 
ATOM     66  C   UNL     1      13.908   0.931   8.976  1.00  0.00     0.031 C 
ATOM     67  C   UNL     1      14.121   3.331   9.558  1.00  0.00     0.037 A 
BRANCH  54  68
ATOM     68  C   UNL     1      10.834   8.473  10.564  1.00  0.00     0.057 A 
ATOM     69  C   UNL     1      10.314   8.973  11.766  1.00  0.00     0.134 A 
ATOM     70  C   UNL     1      11.357   9.400   9.653  1.00  0.00     0.134 A 
ATOM     71  F   UNL     1       9.779   8.142  12.674  1.00  0.00    -0.206 F 
ATOM     72  C   UNL     1      10.287  10.342  12.037  1.00  0.00     0.040 A 
ATOM     73  C   UNL     1      11.364  10.768   9.926  1.00  0.00     0.040 A 
ATOM     74  F   UNL     1      11.870   8.990   8.483  1.00  0.00    -0.206 F 
ATOM     75  C   UNL     1      10.820  11.244  11.118  1.00  0.00     0.006 A 
ENDBRANCH  54  68
BRANCH  55  76
ATOM     76  C   UNL     1      10.360  -1.258   8.328  1.00  0.00     0.057 A 
ATOM     77  C   UNL     1      10.786  -2.259   9.208  1.00  0.00     0.134 A 
ATOM     78  C   UNL     1       9.902  -1.663   7.067  1.00  0.00     0.134 A 
ATOM     79  F   UNL     1      11.259  -1.936  10.420  1.00  0.00    -0.206 F 
ATOM     80  C   UNL     1      10.778  -3.607   8.842  1.00  0.00     0.040 A 
ATOM     81  C   UNL     1       9.862  -3.009   6.699  1.00  0.00     0.040 A 
ATOM     82  F   UNL     1       9.480  -0.754   6.176  1.00  0.00    -0.206 F 
ATOM     83  C   UNL     1      10.309  -3.985   7.586  1.00  0.00     0.006 A 
ENDBRANCH  55  76
BRANCH  67  84
ATOM     84  C   UNL     1      15.612   3.147   9.610  1.00  0.00     0.057 A 
ATOM     85  C   UNL     1      16.377   2.926   8.458  1.00  0.00     0.134 A 
ATOM     86  C   UNL     1      16.296   3.243  10.830  1.00  0.00     0.134 A 
ATOM     87  F   UNL     1      15.784   2.814   7.260  1.00  0.00    -0.206 F 
ATOM     88  C   UNL     1      17.764   2.780   8.520  1.00  0.00     0.040 A 
ATOM     89  C   UNL     1      17.686   3.131  10.900  1.00  0.00     0.040 A 
ATOM     90  F   UNL     1      15.628   3.467  11.971  1.00  0.00    -0.206 F 
ATOM     91  C   UNL     1      18.423   2.890   9.743  1.00  0.00     0.006 A 
ENDBRANCH  67  84
ENDBRANCH  41  42
ENDBRANCH  34  36
ENDBRANCH  33  34
ENDBRANCH  32  33
ENDBRANCH  31  32
ENDBRANCH  30  31
ENDBRANCH  29  30
ENDBRANCH  28  29
ENDBRANCH  27  28
ENDBRANCH   1  27
TORSDOF 23
