REMARK SMILES C[C@@H](C(=O)OCCOCCOCCOCCOC(=O)c1ccc(-c2c3nc(c(-c4c(F)cccc4F)c4ccc([nH]4)c(-c4c(F)cccc4F)c4nc(c(-c5c(F)cccc5F)c5ccc2[nH]5)C=C4)C=C3)cc1)c1ccc(-c2cccc(OC(=O)NC3CC3)c2)c(F)c1
REMARK SMILES IDX 9 1 8 2 7 3 6 4 5 5 3 6 4 7 2 8 1 9 74 10 75 11 93 12 76 13
REMARK SMILES IDX 91 14 77 15 92 16 78 17 79 18 90 19 80 20 82 21 81 22 83 23
REMARK SMILES IDX 84 24 85 25 86 26 87 28 88 29 89 30 10 31 11 32 12 33 13 34
REMARK SMILES IDX 14 35 15 36 16 37 17 38 18 39 19 40 20 41 21 42 73 43 22 44
REMARK SMILES IDX 72 45 23 46 24 47 25 48 66 49 26 50 71 51 65 52 67 53 27 54
REMARK SMILES IDX 70 55 64 56 63 57 28 59 54 60 37 61 53 62 38 63 41 64 52 65
REMARK SMILES IDX 68 66 39 67 40 68 51 70 69 71 42 72 29 73 30 74 35 75 31 76
REMARK SMILES IDX 32 77 34 78 36 79 33 80 55 81 56 82 61 83 57 84 58 85 60 86
REMARK SMILES IDX 62 87 59 88 43 89 44 90 49 91 45 92 46 93 48 94 50 95 47 96
REMARK H PARENT 86 27 67 58 41 69
REMARK Flexibility Score: inf
ROOT
ATOM      1  C   UNL     1       0.084   1.878  -2.921  1.00  0.00     0.188 C 
ENDROOT
BRANCH   1   2
ATOM      2  O   UNL     1       0.771   2.774  -3.772  1.00  0.00    -0.376 OA
BRANCH   2   3
ATOM      3  C   UNL     1       1.927   3.473  -3.336  1.00  0.00     0.202 C 
BRANCH   3   4
ATOM      4  C   UNL     1       2.437   3.563  -1.881  1.00  0.00     0.261 C 
BRANCH   4   5
ATOM      5  O   UNL     1       1.937   2.592  -0.959  1.00  0.00    -0.463 OA
BRANCH   5   6
ATOM      6  C   UNL     1       1.253   3.047   0.116  1.00  0.00     0.313 C 
ATOM      7  O   UNL     1       1.089   4.237   0.371  1.00  0.00    -0.252 OA
BRANCH   6   8
ATOM      8  C   UNL     1       0.613   1.919   0.940  1.00  0.00     0.126 C 
ATOM      9  C   UNL     1       1.492   0.660   1.030  1.00  0.00     0.025 C 
BRANCH   8  10
ATOM     10  C   UNL     1      -0.872   1.720   0.612  1.00  0.00    -0.031 A 
ATOM     11  C   UNL     1      -1.706   2.851   0.536  1.00  0.00     0.005 A 
ATOM     12  C   UNL     1      -1.481   0.467   0.442  1.00  0.00     0.044 A 
ATOM     13  C   UNL     1      -3.084   2.742   0.331  1.00  0.00     0.012 A 
ATOM     14  C   UNL     1      -2.866   0.363   0.243  1.00  0.00     0.131 A 
ATOM     15  C   UNL     1      -3.697   1.490   0.219  1.00  0.00     0.018 A 
ATOM     16  F   UNL     1      -3.395  -0.865   0.119  1.00  0.00    -0.206 F 
BRANCH  15  17
ATOM     17  C   UNL     1      -5.164   1.399   0.263  1.00  0.00    -0.012 A 
ATOM     18  C   UNL     1      -5.991   2.056  -0.662  1.00  0.00     0.009 A 
ATOM     19  C   UNL     1      -5.766   0.749   1.354  1.00  0.00     0.056 A 
ATOM     20  C   UNL     1      -7.379   2.076  -0.490  1.00  0.00     0.004 A 
ATOM     21  C   UNL     1      -7.145   0.784   1.534  1.00  0.00     0.133 A 
ATOM     22  C   UNL     1      -7.956   1.448   0.614  1.00  0.00     0.047 A 
BRANCH  21  23
ATOM     23  O   UNL     1      -7.818   0.208   2.640  1.00  0.00    -0.410 OA
BRANCH  23  24
ATOM     24  C   UNL     1      -7.241  -0.568   3.642  1.00  0.00     0.412 C 
ATOM     25  O   UNL     1      -6.050  -0.838   3.759  1.00  0.00    -0.224 OA
ATOM     26  N   UNL     1      -8.136  -1.064   4.553  1.00  0.00    -0.318 N 
ATOM     27  H   UNL     1      -7.749  -1.664   5.231  1.00  0.00     0.167 HD
BRANCH  26  28
ATOM     28  C   UNL     1      -9.538  -0.849   4.675  1.00  0.00     0.085 C 
ATOM     29  C   UNL     1     -10.499  -0.470   3.586  1.00  0.00     0.027 C 
ATOM     30  C   UNL     1     -10.473  -1.879   4.091  1.00  0.00     0.027 C 
ENDBRANCH  26  28
ENDBRANCH  23  24
ENDBRANCH  21  23
ENDBRANCH  15  17
ENDBRANCH   8  10
ENDBRANCH   6   8
ENDBRANCH   5   6
ENDBRANCH   4   5
ENDBRANCH   3   4
ENDBRANCH   2   3
ENDBRANCH   1   2
BRANCH   1  31
ATOM     31  C   UNL     1       0.775   0.558  -2.547  1.00  0.00     0.188 C 
BRANCH  31  32
ATOM     32  O   UNL     1       2.188   0.581  -2.589  1.00  0.00    -0.377 OA
BRANCH  32  33
ATOM     33  C   UNL     1       2.836   0.306  -3.824  1.00  0.00     0.188 C 
BRANCH  33  34
ATOM     34  C   UNL     1       2.065   0.387  -5.159  1.00  0.00     0.188 C 
BRANCH  34  35
ATOM     35  O   UNL     1       0.745  -0.132  -5.122  1.00  0.00    -0.376 OA
BRANCH  35  36
ATOM     36  C   UNL     1       0.520  -1.462  -5.562  1.00  0.00     0.202 C 
BRANCH  36  37
ATOM     37  C   UNL     1       1.181  -2.599  -4.766  1.00  0.00     0.261 C 
BRANCH  37  38
ATOM     38  O   UNL     1       2.615  -2.572  -4.685  1.00  0.00    -0.460 OA
BRANCH  38  39
ATOM     39  C   UNL     1       3.312  -2.591  -5.843  1.00  0.00     0.338 C 
ATOM     40  O   UNL     1       2.872  -2.695  -6.967  1.00  0.00    -0.246 OA
BRANCH  39  41
ATOM     41  C   UNL     1       4.719  -2.264  -5.520  1.00  0.00     0.060 A 
ATOM     42  C   UNL     1       5.299  -1.129  -6.102  1.00  0.00     0.016 A 
ATOM     43  C   UNL     1       5.459  -3.071  -4.654  1.00  0.00     0.016 A 
ATOM     44  C   UNL     1       6.637  -0.822  -5.852  1.00  0.00     0.010 A 
ATOM     45  C   UNL     1       6.805  -2.775  -4.422  1.00  0.00     0.010 A 
ATOM     46  C   UNL     1       7.410  -1.670  -5.049  1.00  0.00    -0.014 A 
BRANCH  46  47
ATOM     47  C   UNL     1       8.886  -1.525  -5.036  1.00  0.00     0.031 A 
ATOM     48  C   UNL     1       9.698  -2.431  -5.922  1.00  0.00     0.074 A 
ATOM     49  C   UNL     1       9.497  -0.598  -4.278  1.00  0.00     0.049 A 
ATOM     50  N   UNL     1      10.997  -2.537  -6.039  1.00  0.00    -0.248 NA
ATOM     51  C   UNL     1       8.938  -3.343  -6.792  1.00  0.00     0.031 C 
ATOM     52  C   UNL     1       8.823   0.368  -3.414  1.00  0.00     0.029 A 
ATOM     53  N   UNL     1      10.833  -0.330  -4.107  1.00  0.00    -0.354 N 
ATOM     54  C   UNL     1      11.208  -3.529  -6.989  1.00  0.00     0.074 A 
ATOM     55  C   UNL     1       9.907  -4.019  -7.389  1.00  0.00     0.031 C 
ATOM     56  C   UNL     1       9.751   1.114  -2.790  1.00  0.00     0.029 A 
ATOM     57  C   UNL     1      11.083   0.654  -3.183  1.00  0.00     0.049 A 
ATOM     58  H   UNL     1      11.544  -0.799  -4.601  1.00  0.00     0.167 HD
ATOM     59  C   UNL     1      12.380  -3.985  -7.490  1.00  0.00     0.037 A 
ATOM     60  C   UNL     1      12.252   1.108  -2.690  1.00  0.00     0.037 A 
ATOM     61  C   UNL     1      13.674  -3.502  -7.085  1.00  0.00     0.049 A 
ATOM     62  C   UNL     1      13.546   0.524  -3.199  1.00  0.00     0.074 A 
ATOM     63  C   UNL     1      14.921  -3.895  -7.537  1.00  0.00     0.029 A 
ATOM     64  N   UNL     1      13.886  -2.527  -6.122  1.00  0.00    -0.354 N 
ATOM     65  N   UNL     1      13.738  -0.400  -4.110  1.00  0.00    -0.248 NA
ATOM     66  C   UNL     1      14.788   1.050  -2.613  1.00  0.00     0.031 C 
ATOM     67  C   UNL     1      15.889  -3.200  -6.806  1.00  0.00     0.029 A 
ATOM     68  C   UNL     1      15.245  -2.324  -5.947  1.00  0.00     0.049 A 
ATOM     69  H   UNL     1      13.175  -2.049  -5.636  1.00  0.00     0.167 HD
ATOM     70  C   UNL     1      15.117  -0.541  -4.229  1.00  0.00     0.074 A 
ATOM     71  C   UNL     1      15.713   0.402  -3.307  1.00  0.00     0.031 C 
ATOM     72  C   UNL     1      15.825  -1.375  -5.031  1.00  0.00     0.037 A 
BRANCH  59  73
ATOM     73  C   UNL     1      12.314  -5.084  -8.512  1.00  0.00     0.057 A 
ATOM     74  C   UNL     1      11.821  -4.867  -9.806  1.00  0.00     0.134 A 
ATOM     75  C   UNL     1      12.771  -6.371  -8.204  1.00  0.00     0.134 A 
ATOM     76  F   UNL     1      11.352  -3.661 -10.162  1.00  0.00    -0.206 F 
ATOM     77  C   UNL     1      11.762  -5.896 -10.747  1.00  0.00     0.040 A 
ATOM     78  C   UNL     1      12.746  -7.401  -9.146  1.00  0.00     0.040 A 
ATOM     79  F   UNL     1      13.258  -6.648  -6.985  1.00  0.00    -0.206 F 
ATOM     80  C   UNL     1      12.233  -7.166 -10.420  1.00  0.00     0.006 A 
ENDBRANCH  59  73
BRANCH  60  81
ATOM     81  C   UNL     1      12.262   2.156  -1.637  1.00  0.00     0.057 A 
ATOM     82  C   UNL     1      12.774   3.436  -1.885  1.00  0.00     0.134 A 
ATOM     83  C   UNL     1      11.789   1.893  -0.345  1.00  0.00     0.134 A 
ATOM     84  F   UNL     1      13.266   3.743  -3.094  1.00  0.00    -0.206 F 
ATOM     85  C   UNL     1      12.835   4.407  -0.884  1.00  0.00     0.040 A 
ATOM     86  C   UNL     1      11.816   2.864   0.658  1.00  0.00     0.040 A 
ATOM     87  F   UNL     1      11.287   0.688  -0.039  1.00  0.00    -0.206 F 
ATOM     88  C   UNL     1      12.350   4.123   0.391  1.00  0.00     0.006 A 
ENDBRANCH  60  81
BRANCH  72  89
ATOM     89  C   UNL     1      17.325  -1.274  -4.986  1.00  0.00     0.057 A 
ATOM     90  C   UNL     1      18.068  -1.707  -3.880  1.00  0.00     0.134 A 
ATOM     91  C   UNL     1      18.037  -0.778  -6.086  1.00  0.00     0.134 A 
ATOM     92  F   UNL     1      17.450  -2.184  -2.789  1.00  0.00    -0.206 F 
ATOM     93  C   UNL     1      19.462  -1.625  -3.861  1.00  0.00     0.040 A 
ATOM     94  C   UNL     1      19.431  -0.722  -6.091  1.00  0.00     0.040 A 
ATOM     95  F   UNL     1      17.390  -0.358  -7.184  1.00  0.00    -0.206 F 
ATOM     96  C   UNL     1      20.148  -1.139  -4.972  1.00  0.00     0.006 A 
ENDBRANCH  72  89
ENDBRANCH  46  47
ENDBRANCH  39  41
ENDBRANCH  38  39
ENDBRANCH  37  38
ENDBRANCH  36  37
ENDBRANCH  35  36
ENDBRANCH  34  35
ENDBRANCH  33  34
ENDBRANCH  32  33
ENDBRANCH  31  32
ENDBRANCH   1  31
TORSDOF 25
