REMARK SMILES CC[C@@H](C)c1ccc(NC(=O)[C@@H]2[C@@H](C(=O)OCCOCCOCCOCCOC(=O)c3ccc(-c4c5nc(c(-c6c(F)cccc6F)c6ccc([nH]6)c(-c6c(F)cccc6F)c6nc(c(-c7c(F)cccc7F)c7ccc4[nH]7)C=C6)C=C5)cc3)[C@@H]3C=C[C@H]2C3)cc1
REMARK SMILES IDX 21 1 20 2 19 3 18 4 17 5 16 6 14 7 15 8 13 9 12 10 88 11
REMARK SMILES IDX 85 12 87 13 89 14 86 15 10 16 9 17 11 19 8 20 5 21 6 22
REMARK SMILES IDX 91 23 7 24 90 25 3 26 4 27 2 28 1 29 22 30 23 31 24 32 25 33
REMARK SMILES IDX 26 34 27 35 28 36 29 37 30 38 31 39 32 40 84 41 33 42 83 43
REMARK SMILES IDX 34 44 35 45 36 46 77 47 37 48 82 49 76 50 78 51 38 52 81 53
REMARK SMILES IDX 75 54 74 55 39 57 65 58 48 59 64 60 49 61 52 62 63 63 79 64
REMARK SMILES IDX 50 65 51 66 62 68 80 69 53 70 40 71 41 72 46 73 42 74 43 75
REMARK SMILES IDX 45 76 47 77 44 78 66 79 67 80 72 81 68 82 69 83 71 84 73 85
REMARK SMILES IDX 70 86 54 87 55 88 60 89 56 90 57 91 59 92 61 93 58 94
REMARK H PARENT 9 18 78 56 52 67
REMARK Flexibility Score: inf
ROOT
ATOM      1  C   UNL     1      -3.035  -1.877   4.878  1.00  0.00     0.188 C 
ENDROOT
BRANCH   1   2
ATOM      2  C   UNL     1      -3.862  -2.646   3.834  1.00  0.00     0.188 C 
BRANCH   2   3
ATOM      3  O   UNL     1      -5.270  -2.665   3.954  1.00  0.00    -0.376 OA
BRANCH   3   4
ATOM      4  C   UNL     1      -5.959  -3.430   4.932  1.00  0.00     0.202 C 
BRANCH   4   5
ATOM      5  C   UNL     1      -5.371  -4.549   5.809  1.00  0.00     0.261 C 
BRANCH   5   6
ATOM      6  O   UNL     1      -3.995  -4.435   6.168  1.00  0.00    -0.463 OA
BRANCH   6   7
ATOM      7  C   UNL     1      -3.170  -5.287   5.525  1.00  0.00     0.310 C 
ATOM      8  O   UNL     1      -3.544  -6.144   4.729  1.00  0.00    -0.252 OA
BRANCH   7   9
ATOM      9  C   UNL     1      -1.699  -5.013   5.759  1.00  0.00     0.119 C 
ATOM     10  C   UNL     1      -1.025  -6.382   6.022  1.00  0.00     0.100 C 
ATOM     11  C   UNL     1      -0.295  -6.161   7.377  1.00  0.00     0.025 C 
ATOM     12  C   UNL     1      -1.287  -4.184   7.019  1.00  0.00     0.027 C 
ATOM     13  C   UNL     1       0.805  -5.148   7.237  1.00  0.00    -0.027 C 
ATOM     14  C   UNL     1      -1.306  -5.250   8.110  1.00  0.00     0.017 C 
ATOM     15  C   UNL     1       0.217  -3.955   7.037  1.00  0.00    -0.027 C 
BRANCH  10  16
ATOM     16  C   UNL     1      -0.318  -7.210   4.926  1.00  0.00     0.228 C 
ATOM     17  N   UNL     1       0.114  -6.816   3.688  1.00  0.00    -0.326 N 
ATOM     18  H   UNL     1       0.201  -7.570   3.060  1.00  0.00     0.169 HD
ATOM     19  O   UNL     1      -0.197  -8.428   5.154  1.00  0.00    -0.274 OA
BRANCH  17  20
ATOM     20  C   UNL     1       0.463  -5.586   3.108  1.00  0.00     0.041 A 
ATOM     21  C   UNL     1       0.998  -2.997   2.002  1.00  0.00    -0.045 A 
ATOM     22  C   UNL     1       0.915  -3.216   3.372  1.00  0.00     0.006 A 
ATOM     23  C   UNL     1       0.938  -4.148   1.192  1.00  0.00     0.006 A 
ATOM     24  C   UNL     1       0.734  -4.492   3.883  1.00  0.00     0.026 A 
ATOM     25  C   UNL     1       0.652  -5.428   1.737  1.00  0.00     0.026 A 
BRANCH  21  26
ATOM     26  C   UNL     1       1.287  -1.583   1.484  1.00  0.00     0.016 C 
ATOM     27  C   UNL     1       0.901  -0.477   2.497  1.00  0.00     0.013 C 
BRANCH  26  28
ATOM     28  C   UNL     1       0.635  -1.272   0.117  1.00  0.00     0.004 C 
ATOM     29  C   UNL     1       1.035   0.094  -0.439  1.00  0.00     0.004 C 
ENDBRANCH  26  28
ENDBRANCH  21  26
ENDBRANCH  17  20
ENDBRANCH  10  16
ENDBRANCH   7   9
ENDBRANCH   6   7
ENDBRANCH   5   6
ENDBRANCH   4   5
ENDBRANCH   3   4
ENDBRANCH   2   3
ENDBRANCH   1   2
BRANCH   1  30
ATOM     30  O   UNL     1      -3.549  -1.889   6.192  1.00  0.00    -0.377 OA
BRANCH  30  31
ATOM     31  C   UNL     1      -4.556  -0.964   6.574  1.00  0.00     0.188 C 
BRANCH  31  32
ATOM     32  C   UNL     1      -5.267  -0.068   5.540  1.00  0.00     0.188 C 
BRANCH  32  33
ATOM     33  O   UNL     1      -4.433   0.408   4.498  1.00  0.00    -0.376 OA
BRANCH  33  34
ATOM     34  C   UNL     1      -3.928   1.730   4.603  1.00  0.00     0.202 C 
BRANCH  34  35
ATOM     35  C   UNL     1      -2.947   2.008   5.751  1.00  0.00     0.261 C 
BRANCH  35  36
ATOM     36  O   UNL     1      -3.444   1.796   7.084  1.00  0.00    -0.460 OA
BRANCH  36  37
ATOM     37  C   UNL     1      -4.531   2.491   7.476  1.00  0.00     0.338 C 
ATOM     38  O   UNL     1      -5.131   3.344   6.842  1.00  0.00    -0.246 OA
BRANCH  37  39
ATOM     39  C   UNL     1      -5.006   1.911   8.751  1.00  0.00     0.060 A 
ATOM     40  C   UNL     1      -6.297   1.368   8.813  1.00  0.00     0.016 A 
ATOM     41  C   UNL     1      -4.184   1.907   9.879  1.00  0.00     0.016 A 
ATOM     42  C   UNL     1      -6.784   0.858  10.018  1.00  0.00     0.010 A 
ATOM     43  C   UNL     1      -4.680   1.415  11.090  1.00  0.00     0.010 A 
ATOM     44  C   UNL     1      -5.995   0.922  11.174  1.00  0.00    -0.014 A 
BRANCH  44  45
ATOM     45  C   UNL     1      -6.608   0.671  12.502  1.00  0.00     0.031 A 
ATOM     46  C   UNL     1      -7.037   1.856  13.325  1.00  0.00     0.074 A 
ATOM     47  C   UNL     1      -6.795  -0.576  12.970  1.00  0.00     0.049 A 
ATOM     48  N   UNL     1      -7.533   1.896  14.535  1.00  0.00    -0.248 NA
ATOM     49  C   UNL     1      -6.881   3.177  12.694  1.00  0.00     0.031 C 
ATOM     50  C   UNL     1      -6.465  -1.807  12.257  1.00  0.00     0.029 A 
ATOM     51  N   UNL     1      -7.302  -1.007  14.172  1.00  0.00    -0.354 N 
ATOM     52  C   UNL     1      -7.734   3.242  14.814  1.00  0.00     0.074 A 
ATOM     53  C   UNL     1      -7.281   3.988  13.661  1.00  0.00     0.031 C 
ATOM     54  C   UNL     1      -6.762  -2.858  13.043  1.00  0.00     0.029 A 
ATOM     55  C   UNL     1      -7.269  -2.372  14.326  1.00  0.00     0.049 A 
ATOM     56  H   UNL     1      -7.655  -0.396  14.858  1.00  0.00     0.167 HD
ATOM     57  C   UNL     1      -8.255   3.807  15.929  1.00  0.00     0.037 A 
ATOM     58  C   UNL     1      -7.585  -3.135  15.390  1.00  0.00     0.037 A 
ATOM     59  C   UNL     1      -8.706   3.064  17.076  1.00  0.00     0.049 A 
ATOM     60  C   UNL     1      -8.091  -2.479  16.651  1.00  0.00     0.074 A 
ATOM     61  C   UNL     1      -9.271   3.543  18.245  1.00  0.00     0.029 A 
ATOM     62  N   UNL     1      -8.630   1.685  17.204  1.00  0.00    -0.354 N 
ATOM     63  N   UNL     1      -8.307  -1.208  16.895  1.00  0.00    -0.248 NA
ATOM     64  C   UNL     1      -8.401  -3.365  17.783  1.00  0.00     0.031 C 
ATOM     65  C   UNL     1      -9.479   2.461  19.105  1.00  0.00     0.029 A 
ATOM     66  C   UNL     1      -9.108   1.300  18.445  1.00  0.00     0.049 A 
ATOM     67  H   UNL     1      -8.287   1.072  16.514  1.00  0.00     0.167 HD
ATOM     68  C   UNL     1      -8.808  -1.147  18.191  1.00  0.00     0.074 A 
ATOM     69  C   UNL     1      -8.875  -2.509  18.677  1.00  0.00     0.031 C 
ATOM     70  C   UNL     1      -9.181  -0.061  18.913  1.00  0.00     0.037 A 
BRANCH  57  71
ATOM     71  C   UNL     1      -8.333   5.306  15.976  1.00  0.00     0.057 A 
ATOM     72  C   UNL     1      -9.230   6.031  15.181  1.00  0.00     0.134 A 
ATOM     73  C   UNL     1      -7.519   6.031  16.855  1.00  0.00     0.134 A 
ATOM     74  F   UNL     1     -10.028   5.399  14.306  1.00  0.00    -0.206 F 
ATOM     75  C   UNL     1      -9.297   7.424  15.241  1.00  0.00     0.040 A 
ATOM     76  C   UNL     1      -7.598   7.422  16.946  1.00  0.00     0.040 A 
ATOM     77  F   UNL     1      -6.640   5.400  17.648  1.00  0.00    -0.206 F 
ATOM     78  C   UNL     1      -8.485   8.123  16.132  1.00  0.00     0.006 A 
ENDBRANCH  57  71
BRANCH  58  79
ATOM     79  C   UNL     1      -7.414  -4.611  15.330  1.00  0.00     0.057 A 
ATOM     80  C   UNL     1      -8.514  -5.475  15.376  1.00  0.00     0.134 A 
ATOM     81  C   UNL     1      -6.142  -5.194  15.263  1.00  0.00     0.134 A 
ATOM     82  F   UNL     1      -9.758  -4.980  15.469  1.00  0.00    -0.206 F 
ATOM     83  C   UNL     1      -8.357  -6.863  15.380  1.00  0.00     0.040 A 
ATOM     84  C   UNL     1      -5.971  -6.579  15.236  1.00  0.00     0.040 A 
ATOM     85  F   UNL     1      -5.045  -4.424  15.218  1.00  0.00    -0.206 F 
ATOM     86  C   UNL     1      -7.081  -7.418  15.304  1.00  0.00     0.006 A 
ENDBRANCH  58  79
BRANCH  70  87
ATOM     87  C   UNL     1      -9.743  -0.299  20.287  1.00  0.00     0.057 A 
ATOM     88  C   UNL     1      -8.945  -0.730  21.355  1.00  0.00     0.134 A 
ATOM     89  C   UNL     1     -11.095  -0.046  20.555  1.00  0.00     0.134 A 
ATOM     90  F   UNL     1      -7.645  -1.000  21.167  1.00  0.00    -0.206 F 
ATOM     91  C   UNL     1      -9.478  -0.926  22.631  1.00  0.00     0.040 A 
ATOM     92  C   UNL     1     -11.632  -0.207  21.833  1.00  0.00     0.040 A 
ATOM     93  F   UNL     1     -11.914   0.382  19.582  1.00  0.00    -0.206 F 
ATOM     94  C   UNL     1     -10.824  -0.656  22.874  1.00  0.00     0.006 A 
ENDBRANCH  70  87
ENDBRANCH  44  45
ENDBRANCH  37  39
ENDBRANCH  36  37
ENDBRANCH  35  36
ENDBRANCH  34  35
ENDBRANCH  33  34
ENDBRANCH  32  33
ENDBRANCH  31  32
ENDBRANCH  30  31
ENDBRANCH   1  30
TORSDOF 24
