REMARK SMILES Cc1ccc([C@@H](C)Nc2ccc(N)cc2C(=O)OCCOCCOCCOCCOC(=O)c2ccc(-c3c4nc(c(-c5c(F)cccc5F)c5ccc([nH]5)c(-c5c(F)cccc5F)c5nc(c(-c6c(F)cccc6F)c6ccc3[nH]6)C=C5)C=C4)cc2)cc1F
REMARK SMILES IDX 23 1 22 2 21 3 20 4 19 5 18 6 16 7 17 8 15 9 9 10 10 11
REMARK SMILES IDX 11 12 14 13 12 14 8 15 6 17 7 18 5 19 1 20 2 21 3 22 88 23
REMARK SMILES IDX 4 24 87 25 89 26 13 27 24 30 25 31 26 32 27 33 28 34 29 35
REMARK SMILES IDX 30 36 31 37 32 38 33 39 34 40 86 41 35 42 85 43 36 44 37 45
REMARK SMILES IDX 38 46 79 47 39 48 84 49 78 50 80 51 40 52 83 53 77 54 76 55
REMARK SMILES IDX 41 57 67 58 50 59 66 60 51 61 54 62 65 63 81 64 52 65 53 66
REMARK SMILES IDX 64 68 82 69 55 70 42 71 43 72 48 73 44 74 45 75 47 76 49 77
REMARK SMILES IDX 46 78 68 79 69 80 74 81 70 82 71 83 73 84 75 85 72 86 56 87
REMARK SMILES IDX 57 88 62 89 58 90 59 91 61 92 63 93 60 94
REMARK H PARENT 8 16 13 28 13 29 80 56 54 67
REMARK Flexibility Score: inf
ROOT
ATOM      1  C   UNL     1      -1.121  -4.245  -1.657  1.00  0.00     0.188 C 
ENDROOT
BRANCH   1   2
ATOM      2  C   UNL     1      -1.787  -4.858  -2.905  1.00  0.00     0.188 C 
BRANCH   2   3
ATOM      3  O   UNL     1      -2.004  -4.063  -4.062  1.00  0.00    -0.376 OA
BRANCH   3   4
ATOM      4  C   UNL     1      -2.862  -2.931  -4.064  1.00  0.00     0.202 C 
BRANCH   4   5
ATOM      5  C   UNL     1      -4.077  -2.869  -3.141  1.00  0.00     0.261 C 
BRANCH   5   6
ATOM      6  O   UNL     1      -3.744  -3.194  -1.786  1.00  0.00    -0.460 OA
BRANCH   6   7
ATOM      7  C   UNL     1      -4.640  -3.968  -1.127  1.00  0.00     0.340 C 
ATOM      8  O   UNL     1      -5.739  -4.296  -1.541  1.00  0.00    -0.246 OA
BRANCH   7   9
ATOM      9  C   UNL     1      -4.007  -4.608   0.046  1.00  0.00     0.085 A 
ATOM     10  C   UNL     1      -3.562  -3.989   1.224  1.00  0.00     0.049 A 
ATOM     11  C   UNL     1      -3.052  -4.882   2.206  1.00  0.00     0.029 A 
ATOM     12  C   UNL     1      -2.962  -6.269   2.037  1.00  0.00     0.027 A 
ATOM     13  C   UNL     1      -3.905  -6.021  -0.121  1.00  0.00     0.043 A 
ATOM     14  C   UNL     1      -3.398  -6.858   0.867  1.00  0.00     0.032 A 
BRANCH  10  15
ATOM     15  N   UNL     1      -3.550  -2.673   1.617  1.00  0.00    -0.378 N 
ATOM     16  H   UNL     1      -3.308  -2.618   2.570  1.00  0.00     0.161 HD
BRANCH  15  17
ATOM     17  C   UNL     1      -3.778  -1.329   1.093  1.00  0.00     0.106 C 
ATOM     18  C   UNL     1      -4.881  -1.168   0.064  1.00  0.00     0.036 C 
BRANCH  17  19
ATOM     19  C   UNL     1      -2.485  -0.566   0.804  1.00  0.00    -0.023 A 
ATOM     20  C   UNL     1       1.063   1.904   0.483  1.00  0.00     0.047 C 
ATOM     21  C   UNL     1      -0.158   1.048   0.584  1.00  0.00    -0.015 A 
ATOM     22  C   UNL     1      -1.405   1.558   0.225  1.00  0.00     0.007 A 
ATOM     23  C   UNL     1      -0.078  -0.277   1.008  1.00  0.00     0.126 A 
ATOM     24  C   UNL     1      -2.552   0.766   0.348  1.00  0.00     0.006 A 
ATOM     25  C   UNL     1      -1.214  -1.080   1.111  1.00  0.00     0.045 A 
ATOM     26  F   UNL     1       1.105  -0.791   1.373  1.00  0.00    -0.207 F 
ENDBRANCH  17  19
ENDBRANCH  15  17
ENDBRANCH  10  15
BRANCH  14  27
ATOM     27  N   UNL     1      -3.220  -8.210   0.645  1.00  0.00    -0.399 N 
ATOM     28  H   UNL     1      -2.859  -8.783   1.360  1.00  0.00     0.156 HD
ATOM     29  H   UNL     1      -3.453  -8.601  -0.228  1.00  0.00     0.156 HD
ENDBRANCH  14  27
ENDBRANCH   7   9
ENDBRANCH   6   7
ENDBRANCH   5   6
ENDBRANCH   4   5
ENDBRANCH   3   4
ENDBRANCH   2   3
ENDBRANCH   1   2
BRANCH   1  30
ATOM     30  O   UNL     1       0.154  -3.672  -1.859  1.00  0.00    -0.377 OA
BRANCH  30  31
ATOM     31  C   UNL     1       0.157  -2.459  -2.590  1.00  0.00     0.188 C 
BRANCH  31  32
ATOM     32  C   UNL     1       0.699  -2.627  -4.022  1.00  0.00     0.188 C 
BRANCH  32  33
ATOM     33  O   UNL     1       1.870  -3.417  -4.249  1.00  0.00    -0.376 OA
BRANCH  33  34
ATOM     34  C   UNL     1       1.938  -4.711  -3.643  1.00  0.00     0.202 C 
BRANCH  34  35
ATOM     35  C   UNL     1       2.875  -4.760  -2.420  1.00  0.00     0.261 C 
BRANCH  35  36
ATOM     36  O   UNL     1       2.851  -3.542  -1.686  1.00  0.00    -0.460 OA
BRANCH  36  37
ATOM     37  C   UNL     1       3.509  -2.564  -2.338  1.00  0.00     0.338 C 
ATOM     38  O   UNL     1       4.300  -2.667  -3.261  1.00  0.00    -0.246 OA
BRANCH  37  39
ATOM     39  C   UNL     1       3.177  -1.274  -1.742  1.00  0.00     0.060 A 
ATOM     40  C   UNL     1       3.135  -0.186  -2.630  1.00  0.00     0.016 A 
ATOM     41  C   UNL     1       3.513  -1.165  -0.400  1.00  0.00     0.016 A 
ATOM     42  C   UNL     1       3.822   0.948  -2.279  1.00  0.00     0.010 A 
ATOM     43  C   UNL     1       4.218  -0.050  -0.058  1.00  0.00     0.010 A 
ATOM     44  C   UNL     1       4.486   0.896  -1.063  1.00  0.00    -0.014 A 
BRANCH  44  45
ATOM     45  C   UNL     1       5.746   1.573  -0.880  1.00  0.00     0.031 A 
ATOM     46  C   UNL     1       5.772   2.791  -0.090  1.00  0.00     0.074 A 
ATOM     47  C   UNL     1       6.842   0.876  -1.250  1.00  0.00     0.049 A 
ATOM     48  N   UNL     1       6.781   3.574  -0.005  1.00  0.00    -0.248 NA
ATOM     49  C   UNL     1       4.602   3.256   0.640  1.00  0.00     0.031 C 
ATOM     50  C   UNL     1       8.206   1.009  -0.767  1.00  0.00     0.029 A 
ATOM     51  N   UNL     1       6.933  -0.030  -2.311  1.00  0.00    -0.354 N 
ATOM     52  C   UNL     1       6.526   4.426   1.041  1.00  0.00     0.074 A 
ATOM     53  C   UNL     1       5.120   4.276   1.325  1.00  0.00     0.031 C 
ATOM     54  C   UNL     1       9.032   0.406  -1.640  1.00  0.00     0.029 A 
ATOM     55  C   UNL     1       8.243   0.056  -2.813  1.00  0.00     0.049 A 
ATOM     56  H   UNL     1       6.216  -0.617  -2.644  1.00  0.00     0.167 HD
ATOM     57  C   UNL     1       7.587   5.021   1.651  1.00  0.00     0.037 A 
ATOM     58  C   UNL     1       8.436   0.602  -4.053  1.00  0.00     0.037 A 
ATOM     59  C   UNL     1       8.835   4.679   0.962  1.00  0.00     0.049 A 
ATOM     60  C   UNL     1       9.139   1.951  -4.038  1.00  0.00     0.074 A 
ATOM     61  C   UNL     1       9.838   3.744   1.167  1.00  0.00     0.029 A 
ATOM     62  N   UNL     1       8.978   5.088  -0.349  1.00  0.00    -0.354 N 
ATOM     63  N   UNL     1       9.436   2.628  -2.962  1.00  0.00    -0.248 NA
ATOM     64  C   UNL     1       9.498   2.675  -5.257  1.00  0.00     0.031 C 
ATOM     65  C   UNL     1      10.582   3.613  -0.047  1.00  0.00     0.029 A 
ATOM     66  C   UNL     1      10.037   4.474  -0.981  1.00  0.00     0.049 A 
ATOM     67  H   UNL     1       8.388   5.746  -0.784  1.00  0.00     0.167 HD
ATOM     68  C   UNL     1       9.949   3.850  -3.305  1.00  0.00     0.074 A 
ATOM     69  C   UNL     1       9.968   3.832  -4.758  1.00  0.00     0.031 C 
ATOM     70  C   UNL     1      10.278   4.802  -2.380  1.00  0.00     0.037 A 
BRANCH  57  71
ATOM     71  C   UNL     1       7.500   5.660   3.010  1.00  0.00     0.057 A 
ATOM     72  C   UNL     1       8.618   5.669   3.862  1.00  0.00     0.134 A 
ATOM     73  C   UNL     1       6.344   6.243   3.559  1.00  0.00     0.134 A 
ATOM     74  F   UNL     1       9.818   5.239   3.453  1.00  0.00    -0.206 F 
ATOM     75  C   UNL     1       8.560   6.120   5.185  1.00  0.00     0.040 A 
ATOM     76  C   UNL     1       6.254   6.643   4.899  1.00  0.00     0.040 A 
ATOM     77  F   UNL     1       5.266   6.512   2.812  1.00  0.00    -0.206 F 
ATOM     78  C   UNL     1       7.366   6.575   5.722  1.00  0.00     0.006 A 
ENDBRANCH  57  71
BRANCH  58  79
ATOM     79  C   UNL     1       7.369   0.215  -5.024  1.00  0.00     0.057 A 
ATOM     80  C   UNL     1       7.250  -1.136  -5.400  1.00  0.00     0.134 A 
ATOM     81  C   UNL     1       6.273   1.044  -5.286  1.00  0.00     0.134 A 
ATOM     82  F   UNL     1       8.263  -1.989  -5.179  1.00  0.00    -0.206 F 
ATOM     83  C   UNL     1       6.060  -1.657  -5.915  1.00  0.00     0.040 A 
ATOM     84  C   UNL     1       5.079   0.534  -5.811  1.00  0.00     0.040 A 
ATOM     85  F   UNL     1       6.299   2.340  -4.941  1.00  0.00    -0.206 F 
ATOM     86  C   UNL     1       4.958  -0.825  -6.092  1.00  0.00     0.006 A 
ENDBRANCH  58  79
BRANCH  70  87
ATOM     87  C   UNL     1      10.813   6.169  -2.728  1.00  0.00     0.057 A 
ATOM     88  C   UNL     1      11.785   6.373  -3.715  1.00  0.00     0.134 A 
ATOM     89  C   UNL     1      10.445   7.326  -2.004  1.00  0.00     0.134 A 
ATOM     90  F   UNL     1      12.297   5.345  -4.407  1.00  0.00    -0.206 F 
ATOM     91  C   UNL     1      12.294   7.645  -4.012  1.00  0.00     0.040 A 
ATOM     92  C   UNL     1      10.989   8.587  -2.249  1.00  0.00     0.040 A 
ATOM     93  F   UNL     1       9.518   7.303  -1.037  1.00  0.00    -0.206 F 
ATOM     94  C   UNL     1      11.901   8.756  -3.275  1.00  0.00     0.006 A 
ENDBRANCH  70  87
ENDBRANCH  44  45
ENDBRANCH  37  39
ENDBRANCH  36  37
ENDBRANCH  35  36
ENDBRANCH  34  35
ENDBRANCH  33  34
ENDBRANCH  32  33
ENDBRANCH  31  32
ENDBRANCH  30  31
ENDBRANCH   1  30
TORSDOF 24
