REMARK SMILES Cc1ccn(-c2cccc(NS(=O)(=O)c3cc(C(=O)OCCOCCOCCOCCOC(=O)c4ccc(-c5c6nc(c(-c7c(F)cccc7F)c7ccc([nH]7)c(-c7c(F)cccc7F)c7nc(c(-c8c(F)cccc8F)c8ccc5[nH]8)C=C7)C=C6)cc4)cc(F)c3C)c2)n1
REMARK SMILES IDX 25 1 24 2 23 3 22 4 21 5 20 6 18 7 19 8 17 9 15 10 16 11
REMARK SMILES IDX 92 12 90 13 93 14 89 15 91 16 12 17 13 18 14 19 11 20 10 22
REMARK SMILES IDX 6 23 7 24 94 25 8 26 9 27 5 28 1 29 2 30 3 31 95 32 4 33
REMARK SMILES IDX 26 34 27 35 28 36 29 37 30 38 31 39 32 40 33 41 34 42 35 43
REMARK SMILES IDX 36 44 88 45 37 46 87 47 38 48 39 49 40 50 81 51 41 52 86 53
REMARK SMILES IDX 80 54 82 55 42 56 85 57 79 58 78 59 43 61 69 62 52 63 68 64
REMARK SMILES IDX 53 65 56 66 67 67 83 68 54 69 55 70 66 72 84 73 57 74 44 75
REMARK SMILES IDX 45 76 50 77 46 78 47 79 49 80 51 81 48 82 70 83 71 84 76 85
REMARK SMILES IDX 72 86 73 87 75 88 77 89 74 90 58 91 59 92 64 93 60 94 61 95
REMARK SMILES IDX 63 96 65 97 62 98
REMARK H PARENT 11 21 82 60 56 71
REMARK Flexibility Score: inf
ROOT
ATOM      1  C   UNL     1      -6.575  -8.744   8.208  1.00  0.00     0.188 C 
ENDROOT
BRANCH   1   2
ATOM      2  C   UNL     1      -6.647  -9.569   6.903  1.00  0.00     0.188 C 
BRANCH   2   3
ATOM      3  O   UNL     1      -6.698 -10.966   7.104  1.00  0.00    -0.376 OA
BRANCH   3   4
ATOM      4  C   UNL     1      -5.534 -11.764   7.132  1.00  0.00     0.202 C 
BRANCH   4   5
ATOM      5  C   UNL     1      -4.125 -11.276   7.517  1.00  0.00     0.261 C 
BRANCH   5   6
ATOM      6  O   UNL     1      -3.907  -9.869   7.615  1.00  0.00    -0.460 OA
BRANCH   6   7
ATOM      7  C   UNL     1      -3.524  -9.230   6.494  1.00  0.00     0.338 C 
ATOM      8  O   UNL     1      -3.294  -9.716   5.397  1.00  0.00    -0.246 OA
BRANCH   7   9
ATOM      9  C   UNL     1      -3.661  -7.781   6.743  1.00  0.00     0.064 A 
ATOM     10  C   UNL     1      -4.574  -5.630   6.031  1.00  0.00     0.094 A 
ATOM     11  C   UNL     1      -4.447  -7.026   5.866  1.00  0.00     0.038 A 
ATOM     12  C   UNL     1      -3.942  -4.991   7.110  1.00  0.00     0.005 A 
ATOM     13  C   UNL     1      -3.231  -5.798   8.018  1.00  0.00     0.128 A 
ATOM     14  C   UNL     1      -3.900  -3.509   7.337  1.00  0.00     0.049 C 
ATOM     15  C   UNL     1      -3.079  -7.173   7.848  1.00  0.00     0.055 A 
ATOM     16  F   UNL     1      -2.631  -5.226   9.072  1.00  0.00    -0.207 F 
BRANCH  10  17
ATOM     17  S   UNL     1      -5.457  -4.772   4.741  1.00  0.00     0.262 S 
ATOM     18  O   UNL     1      -6.269  -3.756   5.378  1.00  0.00    -0.201 OA
ATOM     19  O   UNL     1      -6.099  -5.776   3.918  1.00  0.00    -0.201 OA
BRANCH  17  20
ATOM     20  N   UNL     1      -4.355  -3.954   3.764  1.00  0.00    -0.280 N 
ATOM     21  H   UNL     1      -4.738  -3.291   3.146  1.00  0.00     0.180 HD
BRANCH  20  22
ATOM     22  C   UNL     1      -2.930  -4.103   3.719  1.00  0.00     0.051 A 
ATOM     23  C   UNL     1      -0.827  -3.345   2.803  1.00  0.00     0.067 A 
ATOM     24  C   UNL     1      -0.127  -4.302   3.545  1.00  0.00     0.028 A 
ATOM     25  C   UNL     1      -2.211  -3.175   2.955  1.00  0.00     0.055 A 
ATOM     26  C   UNL     1      -0.833  -5.228   4.275  1.00  0.00     0.004 A 
ATOM     27  C   UNL     1      -2.222  -5.182   4.246  1.00  0.00     0.027 A 
BRANCH  23  28
ATOM     28  N   UNL     1      -0.125  -2.694   1.768  1.00  0.00    -0.241 N 
ATOM     29  C   UNL     1       0.829   0.174  -0.078  1.00  0.00     0.069 C 
ATOM     30  C   UNL     1       0.601  -1.181   0.474  1.00  0.00     0.060 A 
ATOM     31  C   UNL     1       1.326  -2.344   0.145  1.00  0.00     0.045 A 
ATOM     32  N   UNL     1      -0.361  -1.422   1.380  1.00  0.00    -0.173 NA
ATOM     33  C   UNL     1       0.841  -3.299   0.994  1.00  0.00     0.115 A 
ENDBRANCH  23  28
ENDBRANCH  20  22
ENDBRANCH  17  20
ENDBRANCH  10  17
ENDBRANCH   7   9
ENDBRANCH   6   7
ENDBRANCH   5   6
ENDBRANCH   4   5
ENDBRANCH   3   4
ENDBRANCH   2   3
ENDBRANCH   1   2
BRANCH   1  34
ATOM     34  O   UNL     1      -6.168  -9.450   9.366  1.00  0.00    -0.377 OA
BRANCH  34  35
ATOM     35  C   UNL     1      -7.061 -10.407   9.934  1.00  0.00     0.188 C 
BRANCH  35  36
ATOM     36  C   UNL     1      -8.422 -10.812   9.292  1.00  0.00     0.188 C 
BRANCH  36  37
ATOM     37  O   UNL     1      -8.908  -9.971   8.257  1.00  0.00    -0.376 OA
BRANCH  37  38
ATOM     38  C   UNL     1     -10.049  -9.147   8.392  1.00  0.00     0.202 C 
BRANCH  38  39
ATOM     39  C   UNL     1      -9.941  -7.968   9.353  1.00  0.00     0.261 C 
BRANCH  39  40
ATOM     40  O   UNL     1      -9.265  -8.304  10.547  1.00  0.00    -0.460 OA
BRANCH  40  41
ATOM     41  C   UNL     1      -9.925  -9.174  11.324  1.00  0.00     0.338 C 
ATOM     42  O   UNL     1     -10.978  -9.754  11.067  1.00  0.00    -0.246 OA
BRANCH  41  43
ATOM     43  C   UNL     1      -9.249  -9.235  12.616  1.00  0.00     0.060 A 
ATOM     44  C   UNL     1      -9.867 -10.064  13.549  1.00  0.00     0.016 A 
ATOM     45  C   UNL     1      -8.455  -8.134  12.971  1.00  0.00     0.016 A 
ATOM     46  C   UNL     1     -10.020  -9.558  14.809  1.00  0.00     0.010 A 
ATOM     47  C   UNL     1      -8.637  -7.614  14.219  1.00  0.00     0.010 A 
ATOM     48  C   UNL     1      -9.511  -8.281  15.069  1.00  0.00    -0.014 A 
BRANCH  48  49
ATOM     49  C   UNL     1      -9.863  -7.677  16.325  1.00  0.00     0.031 A 
ATOM     50  C   UNL     1      -9.104  -8.275  17.435  1.00  0.00     0.074 A 
ATOM     51  C   UNL     1     -10.717  -6.642  16.396  1.00  0.00     0.049 A 
ATOM     52  N   UNL     1      -9.555  -9.013  18.391  1.00  0.00    -0.248 NA
ATOM     53  C   UNL     1      -7.634  -8.241  17.333  1.00  0.00     0.031 C 
ATOM     54  C   UNL     1     -11.279  -5.843  15.302  1.00  0.00     0.029 A 
ATOM     55  N   UNL     1     -11.183  -6.014  17.503  1.00  0.00    -0.354 N 
ATOM     56  C   UNL     1      -8.435  -9.338  19.147  1.00  0.00     0.074 A 
ATOM     57  C   UNL     1      -7.290  -9.053  18.329  1.00  0.00     0.031 C 
ATOM     58  C   UNL     1     -11.811  -4.708  15.812  1.00  0.00     0.029 A 
ATOM     59  C   UNL     1     -11.734  -4.764  17.261  1.00  0.00     0.049 A 
ATOM     60  H   UNL     1     -11.135  -6.412  18.402  1.00  0.00     0.167 HD
ATOM     61  C   UNL     1      -8.542  -9.495  20.491  1.00  0.00     0.037 A 
ATOM     62  C   UNL     1     -11.991  -3.830  18.211  1.00  0.00     0.037 A 
ATOM     63  C   UNL     1      -9.902  -9.807  20.864  1.00  0.00     0.049 A 
ATOM     64  C   UNL     1     -12.000  -4.528  19.526  1.00  0.00     0.074 A 
ATOM     65  C   UNL     1     -10.790 -10.813  20.529  1.00  0.00     0.029 A 
ATOM     66  N   UNL     1     -10.665  -8.803  21.410  1.00  0.00    -0.354 N 
ATOM     67  N   UNL     1     -12.921  -5.377  19.892  1.00  0.00    -0.248 NA
ATOM     68  C   UNL     1     -10.734  -4.642  20.238  1.00  0.00     0.031 C 
ATOM     69  C   UNL     1     -12.065 -10.179  20.461  1.00  0.00     0.029 A 
ATOM     70  C   UNL     1     -11.897  -8.839  20.811  1.00  0.00     0.049 A 
ATOM     71  H   UNL     1     -10.377  -8.171  22.107  1.00  0.00     0.167 HD
ATOM     72  C   UNL     1     -12.234  -6.386  20.555  1.00  0.00     0.074 A 
ATOM     73  C   UNL     1     -10.903  -5.839  20.807  1.00  0.00     0.031 C 
ATOM     74  C   UNL     1     -12.707  -7.667  20.573  1.00  0.00     0.037 A 
BRANCH  61  75
ATOM     75  C   UNL     1      -7.536  -8.912  21.460  1.00  0.00     0.057 A 
ATOM     76  C   UNL     1      -7.732  -9.135  22.833  1.00  0.00     0.134 A 
ATOM     77  C   UNL     1      -6.586  -7.913  21.150  1.00  0.00     0.134 A 
ATOM     78  F   UNL     1      -8.598 -10.065  23.262  1.00  0.00    -0.206 F 
ATOM     79  C   UNL     1      -7.121  -8.347  23.814  1.00  0.00     0.040 A 
ATOM     80  C   UNL     1      -5.934  -7.154  22.124  1.00  0.00     0.040 A 
ATOM     81  F   UNL     1      -6.290  -7.537  19.902  1.00  0.00    -0.206 F 
ATOM     82  C   UNL     1      -6.232  -7.341  23.461  1.00  0.00     0.006 A 
ENDBRANCH  61  75
BRANCH  62  83
ATOM     83  C   UNL     1     -11.878  -2.358  18.099  1.00  0.00     0.057 A 
ATOM     84  C   UNL     1     -12.445  -1.516  19.066  1.00  0.00     0.134 A 
ATOM     85  C   UNL     1     -10.989  -1.749  17.196  1.00  0.00     0.134 A 
ATOM     86  F   UNL     1     -13.271  -2.011  19.999  1.00  0.00    -0.206 F 
ATOM     87  C   UNL     1     -12.130  -0.152  19.143  1.00  0.00     0.040 A 
ATOM     88  C   UNL     1     -10.673  -0.388  17.256  1.00  0.00     0.040 A 
ATOM     89  F   UNL     1     -10.325  -2.468  16.281  1.00  0.00    -0.206 F 
ATOM     90  C   UNL     1     -11.234   0.414  18.242  1.00  0.00     0.006 A 
ENDBRANCH  62  83
BRANCH  74  91
ATOM     91  C   UNL     1     -14.106  -7.902  20.075  1.00  0.00     0.057 A 
ATOM     92  C   UNL     1     -14.515  -7.681  18.750  1.00  0.00     0.134 A 
ATOM     93  C   UNL     1     -15.030  -8.516  20.927  1.00  0.00     0.134 A 
ATOM     94  F   UNL     1     -13.667  -7.192  17.836  1.00  0.00    -0.206 F 
ATOM     95  C   UNL     1     -15.799  -8.017  18.308  1.00  0.00     0.040 A 
ATOM     96  C   UNL     1     -16.303  -8.887  20.490  1.00  0.00     0.040 A 
ATOM     97  F   UNL     1     -14.689  -8.811  22.191  1.00  0.00    -0.206 F 
ATOM     98  C   UNL     1     -16.695  -8.629  19.179  1.00  0.00     0.006 A 
ENDBRANCH  74  91
ENDBRANCH  48  49
ENDBRANCH  41  43
ENDBRANCH  40  41
ENDBRANCH  39  40
ENDBRANCH  38  39
ENDBRANCH  37  38
ENDBRANCH  36  37
ENDBRANCH  35  36
ENDBRANCH  34  35
ENDBRANCH   1  34
TORSDOF 24
