REMARK SMILES CC[NH2+][C@]1(C(=O)OCCOCCOCCOCCOC(=O)c2ccc(-c3c4nc(c(-c5c(F)cccc5F)c5ccc([nH]5)c(-c5c(F)cccc5F)c5nc(c(-c6c(F)cccc6F)c6ccc3[nH]6)C=C5)C=C4)cc2)CCC[C@@H](n2cccn2)C1
REMARK SMILES IDX 13 1 12 2 11 3 10 4 9 5 8 6 7 7 5 8 6 9 4 10 76 11 85 12
REMARK SMILES IDX 77 13 79 14 78 15 3 16 2 19 1 20 80 21 81 22 84 23 82 24
REMARK SMILES IDX 83 25 14 26 15 27 16 28 17 29 18 30 19 31 20 32 21 33 22 34
REMARK SMILES IDX 23 35 75 36 24 37 74 38 25 39 26 40 27 41 68 42 28 43 73 44
REMARK SMILES IDX 67 45 69 46 29 47 72 48 66 49 65 50 30 52 56 53 39 54 55 55
REMARK SMILES IDX 40 56 43 57 54 58 70 59 41 60 42 61 53 63 71 64 44 65 31 66
REMARK SMILES IDX 32 67 37 68 33 69 34 70 36 71 38 72 35 73 57 74 58 75 63 76
REMARK SMILES IDX 59 77 60 78 62 79 64 80 61 81 45 82 46 83 51 84 47 85 48 86
REMARK SMILES IDX 50 87 52 88 49 89
REMARK H PARENT 3 17 3 18 69 51 43 62
REMARK Flexibility Score: inf
ROOT
ATOM      1  O   UNL     1       3.772  -0.089   1.118  1.00  0.00    -0.377 OA
ENDROOT
BRANCH   1   2
ATOM      2  C   UNL     1       2.940  -1.206   1.378  1.00  0.00     0.188 C 
BRANCH   2   3
ATOM      3  C   UNL     1       1.625  -1.148   0.567  1.00  0.00     0.188 C 
BRANCH   3   4
ATOM      4  O   UNL     1       1.539  -0.061  -0.341  1.00  0.00    -0.376 OA
BRANCH   4   5
ATOM      5  C   UNL     1       1.413   1.269   0.151  1.00  0.00     0.202 C 
BRANCH   5   6
ATOM      6  C   UNL     1       1.608   1.669   1.631  1.00  0.00     0.261 C 
BRANCH   6   7
ATOM      7  O   UNL     1       1.343   0.656   2.614  1.00  0.00    -0.459 OA
BRANCH   7   8
ATOM      8  C   UNL     1       0.052   0.366   2.881  1.00  0.00     0.368 C 
ATOM      9  O   UNL     1      -0.883   1.016   2.422  1.00  0.00    -0.245 OA
BRANCH   8  10
ATOM     10  C   UNL     1      -0.101  -0.852   3.899  1.00  0.00     0.196 C 
ATOM     11  C   UNL     1       0.346  -2.275   3.458  1.00  0.00     0.081 C 
ATOM     12  C   UNL     1       0.779  -0.479   5.117  1.00  0.00     0.108 C 
ATOM     13  C   UNL     1       0.172  -3.308   4.577  1.00  0.00     0.009 C 
ATOM     14  C   UNL     1       0.790  -1.498   6.271  1.00  0.00     0.114 C 
ATOM     15  C   UNL     1       1.040  -2.936   5.770  1.00  0.00     0.028 C 
BRANCH  10  16
ATOM     16  N   UNL     1      -1.562  -0.909   4.245  1.00  0.00    -0.332 N 
ATOM     17  H   UNL     1      -1.690  -1.509   5.060  1.00  0.00     0.347 HD
ATOM     18  H   UNL     1      -1.887   0.037   4.445  1.00  0.00     0.347 HD
BRANCH  16  19
ATOM     19  C   UNL     1      -2.352  -1.454   3.111  1.00  0.00     0.257 C 
ATOM     20  C   UNL     1      -3.803  -1.020   3.175  1.00  0.00     0.071 C 
ENDBRANCH  16  19
ENDBRANCH  10  16
BRANCH  14  21
ATOM     21  N   UNL     1       1.769  -1.090   7.293  1.00  0.00    -0.269 N 
ATOM     22  C   UNL     1       1.858   0.140   7.892  1.00  0.00     0.109 A 
ATOM     23  N   UNL     1       2.727  -1.940   7.723  1.00  0.00    -0.181 NA
ATOM     24  C   UNL     1       2.936   0.084   8.742  1.00  0.00     0.042 A 
ATOM     25  C   UNL     1       3.428  -1.224   8.604  1.00  0.00     0.135 A 
ENDBRANCH  14  21
ENDBRANCH   8  10
ENDBRANCH   7   8
ENDBRANCH   6   7
ENDBRANCH   5   6
ENDBRANCH   4   5
ENDBRANCH   3   4
ENDBRANCH   2   3
ENDBRANCH   1   2
BRANCH   1  26
ATOM     26  C   UNL     1       4.684  -0.220   0.044  1.00  0.00     0.188 C 
BRANCH  26  27
ATOM     27  C   UNL     1       4.286  -1.001  -1.228  1.00  0.00     0.188 C 
BRANCH  27  28
ATOM     28  O   UNL     1       3.563  -2.200  -0.984  1.00  0.00    -0.376 OA
BRANCH  28  29
ATOM     29  C   UNL     1       4.171  -3.454  -1.216  1.00  0.00     0.202 C 
BRANCH  29  30
ATOM     30  C   UNL     1       5.124  -3.938  -0.115  1.00  0.00     0.261 C 
BRANCH  30  31
ATOM     31  O   UNL     1       6.127  -2.993   0.274  1.00  0.00    -0.460 OA
BRANCH  31  32
ATOM     32  C   UNL     1       7.058  -2.710  -0.667  1.00  0.00     0.338 C 
ATOM     33  O   UNL     1       7.145  -3.184  -1.777  1.00  0.00    -0.246 OA
BRANCH  32  34
ATOM     34  C   UNL     1       7.851  -1.558  -0.189  1.00  0.00     0.060 A 
ATOM     35  C   UNL     1       7.902  -0.419  -1.002  1.00  0.00     0.016 A 
ATOM     36  C   UNL     1       8.510  -1.589   1.043  1.00  0.00     0.016 A 
ATOM     37  C   UNL     1       8.665   0.675  -0.612  1.00  0.00     0.010 A 
ATOM     38  C   UNL     1       9.304  -0.503   1.419  1.00  0.00     0.010 A 
ATOM     39  C   UNL     1       9.424   0.606   0.563  1.00  0.00    -0.014 A 
BRANCH  39  40
ATOM     40  C   UNL     1      10.546   1.559   0.711  1.00  0.00     0.031 A 
ATOM     41  C   UNL     1      11.899   1.120   0.221  1.00  0.00     0.074 A 
ATOM     42  C   UNL     1      10.357   2.806   1.169  1.00  0.00     0.049 A 
ATOM     43  N   UNL     1      13.023   1.784   0.168  1.00  0.00    -0.248 NA
ATOM     44  C   UNL     1      11.991  -0.261  -0.281  1.00  0.00     0.031 C 
ATOM     45  C   UNL     1       9.086   3.354   1.633  1.00  0.00     0.029 A 
ATOM     46  N   UNL     1      11.248   3.839   1.310  1.00  0.00    -0.354 N 
ATOM     47  C   UNL     1      13.950   0.906  -0.380  1.00  0.00     0.074 A 
ATOM     48  C   UNL     1      13.272  -0.353  -0.591  1.00  0.00     0.031 C 
ATOM     49  C   UNL     1       9.281   4.627   2.021  1.00  0.00     0.029 A 
ATOM     50  C   UNL     1      10.691   4.972   1.847  1.00  0.00     0.049 A 
ATOM     51  H   UNL     1      12.195   3.774   1.049  1.00  0.00     0.167 HD
ATOM     52  C   UNL     1      15.247   1.131  -0.696  1.00  0.00     0.037 A 
ATOM     53  C   UNL     1      11.265   6.146   2.173  1.00  0.00     0.037 A 
ATOM     54  C   UNL     1      15.922   2.378  -0.462  1.00  0.00     0.049 A 
ATOM     55  C   UNL     1      12.728   6.357   1.880  1.00  0.00     0.074 A 
ATOM     56  C   UNL     1      17.235   2.715  -0.736  1.00  0.00     0.029 A 
ATOM     57  N   UNL     1      15.334   3.494   0.119  1.00  0.00    -0.354 N 
ATOM     58  N   UNL     1      13.593   5.532   1.339  1.00  0.00    -0.248 NA
ATOM     59  C   UNL     1      13.289   7.669   2.227  1.00  0.00     0.031 C 
ATOM     60  C   UNL     1      17.458   4.014  -0.265  1.00  0.00     0.029 A 
ATOM     61  C   UNL     1      16.265   4.512   0.236  1.00  0.00     0.049 A 
ATOM     62  H   UNL     1      14.395   3.552   0.407  1.00  0.00     0.167 HD
ATOM     63  C   UNL     1      14.791   6.233   1.254  1.00  0.00     0.074 A 
ATOM     64  C   UNL     1      14.534   7.555   1.787  1.00  0.00     0.031 C 
ATOM     65  C   UNL     1      15.993   5.823   0.774  1.00  0.00     0.037 A 
BRANCH  52  66
ATOM     66  C   UNL     1      16.012  -0.021  -1.284  1.00  0.00     0.057 A 
ATOM     67  C   UNL     1      15.726  -0.533  -2.559  1.00  0.00     0.134 A 
ATOM     68  C   UNL     1      17.028  -0.647  -0.553  1.00  0.00     0.134 A 
ATOM     69  F   UNL     1      14.748   0.005  -3.305  1.00  0.00    -0.206 F 
ATOM     70  C   UNL     1      16.392  -1.651  -3.064  1.00  0.00     0.040 A 
ATOM     71  C   UNL     1      17.725  -1.744  -1.062  1.00  0.00     0.040 A 
ATOM     72  F   UNL     1      17.355  -0.211   0.672  1.00  0.00    -0.206 F 
ATOM     73  C   UNL     1      17.398  -2.257  -2.316  1.00  0.00     0.006 A 
ENDBRANCH  52  66
BRANCH  53  74
ATOM     74  C   UNL     1      10.452   7.205   2.822  1.00  0.00     0.057 A 
ATOM     75  C   UNL     1      10.131   8.395   2.160  1.00  0.00     0.134 A 
ATOM     76  C   UNL     1       9.970   7.043   4.127  1.00  0.00     0.134 A 
ATOM     77  F   UNL     1      10.580   8.619   0.917  1.00  0.00    -0.206 F 
ATOM     78  C   UNL     1       9.371   9.392   2.777  1.00  0.00     0.040 A 
ATOM     79  C   UNL     1       9.187   8.018   4.746  1.00  0.00     0.040 A 
ATOM     80  F   UNL     1      10.242   5.924   4.815  1.00  0.00    -0.206 F 
ATOM     81  C   UNL     1       8.890   9.200   4.071  1.00  0.00     0.006 A 
ENDBRANCH  53  74
BRANCH  65  82
ATOM     82  C   UNL     1      17.110   6.830   0.765  1.00  0.00     0.057 A 
ATOM     83  C   UNL     1      17.711   7.291   1.944  1.00  0.00     0.134 A 
ATOM     84  C   UNL     1      17.608   7.326  -0.447  1.00  0.00     0.134 A 
ATOM     85  F   UNL     1      17.279   6.863   3.140  1.00  0.00    -0.206 F 
ATOM     86  C   UNL     1      18.739   8.235   1.918  1.00  0.00     0.040 A 
ATOM     87  C   UNL     1      18.657   8.244  -0.487  1.00  0.00     0.040 A 
ATOM     88  F   UNL     1      17.090   6.917  -1.616  1.00  0.00    -0.206 F 
ATOM     89  C   UNL     1      19.219   8.710   0.699  1.00  0.00     0.006 A 
ENDBRANCH  65  82
ENDBRANCH  39  40
ENDBRANCH  32  34
ENDBRANCH  31  32
ENDBRANCH  30  31
ENDBRANCH  29  30
ENDBRANCH  28  29
ENDBRANCH  27  28
ENDBRANCH  26  27
ENDBRANCH   1  26
TORSDOF 23
