REMARK SMILES CC1(C)C(=O)N([C@H]2COC[C@@H]2C(=O)OCCOCCOCCOCCOC(=O)c2ccc(-c3c4nc(c(-c5c(F)cccc5F)c5ccc([nH]5)c(-c5c(F)cccc5F)c5nc(c(-c6c(F)cccc6F)c6ccc3[nH]6)C=C5)C=C4)cc2)S1(=O)=O
REMARK SMILES IDX 21 1 20 2 19 3 18 4 17 5 16 6 15 7 14 8 12 9 13 10 11 11
REMARK SMILES IDX 7 12 8 13 9 14 10 15 6 16 1 17 2 18 3 19 4 20 83 21 5 22
REMARK SMILES IDX 84 23 85 24 22 25 23 26 24 27 25 28 26 29 27 30 28 31 29 32
REMARK SMILES IDX 30 33 82 34 31 35 81 36 32 37 33 38 34 39 75 40 35 41 80 42
REMARK SMILES IDX 74 43 76 44 36 45 79 46 73 47 72 48 37 50 63 51 46 52 62 53
REMARK SMILES IDX 47 54 50 55 61 56 77 57 48 58 49 59 60 61 78 62 51 63 38 64
REMARK SMILES IDX 39 65 44 66 40 67 41 68 43 69 45 70 42 71 64 72 65 73 70 74
REMARK SMILES IDX 66 75 67 76 69 77 71 78 68 79 52 80 53 81 58 82 54 83 55 84
REMARK SMILES IDX 57 85 59 86 56 87
REMARK H PARENT 76 49 50 60
REMARK Flexibility Score: inf
ROOT
ATOM      1  C   UNL     1       3.451   2.319  -0.732  1.00  0.00     0.188 C 
ENDROOT
BRANCH   1   2
ATOM      2  O   UNL     1       2.714   3.344  -0.082  1.00  0.00    -0.377 OA
BRANCH   2   3
ATOM      3  C   UNL     1       1.537   3.761  -0.742  1.00  0.00     0.188 C 
BRANCH   3   4
ATOM      4  C   UNL     1       1.681   5.061  -1.549  1.00  0.00     0.188 C 
BRANCH   4   5
ATOM      5  O   UNL     1       2.972   5.590  -1.779  1.00  0.00    -0.376 OA
BRANCH   5   6
ATOM      6  C   UNL     1       3.869   5.732  -0.691  1.00  0.00     0.202 C 
BRANCH   6   7
ATOM      7  C   UNL     1       3.429   6.107   0.748  1.00  0.00     0.261 C 
BRANCH   7   8
ATOM      8  O   UNL     1       2.086   5.800   1.196  1.00  0.00    -0.463 OA
BRANCH   8   9
ATOM      9  C   UNL     1       1.252   6.864   1.360  1.00  0.00     0.313 C 
ATOM     10  O   UNL     1       1.572   8.008   1.059  1.00  0.00    -0.252 OA
BRANCH   9  11
ATOM     11  C   UNL     1      -0.078   6.520   2.058  1.00  0.00     0.151 C 
ATOM     12  C   UNL     1      -0.754   5.235   1.619  1.00  0.00     0.145 C 
ATOM     13  C   UNL     1      -1.423   5.652   0.301  1.00  0.00     0.187 C 
ATOM     14  O   UNL     1      -1.657   7.066   0.378  1.00  0.00    -0.378 OA
ATOM     15  C   UNL     1      -1.104   7.545   1.614  1.00  0.00     0.177 C 
BRANCH  12  16
ATOM     16  N   UNL     1      -1.855   4.706   2.467  1.00  0.00    -0.231 N 
ATOM     17  C   UNL     1      -4.000   2.753   4.106  1.00  0.00     0.041 C 
ATOM     18  C   UNL     1      -2.534   3.008   3.760  1.00  0.00     0.165 C 
ATOM     19  C   UNL     1      -1.659   1.824   4.182  1.00  0.00     0.041 C 
ATOM     20  C   UNL     1      -2.321   3.382   2.288  1.00  0.00     0.259 C 
ATOM     21  S   UNL     1      -1.855   4.599   4.115  1.00  0.00     0.252 S 
ATOM     22  O   UNL     1      -2.377   2.780   1.241  1.00  0.00    -0.272 OA
ATOM     23  O   UNL     1      -2.828   5.532   4.625  1.00  0.00    -0.205 OA
ATOM     24  O   UNL     1      -0.491   4.537   4.583  1.00  0.00    -0.205 OA
ENDBRANCH  12  16
ENDBRANCH   9  11
ENDBRANCH   8   9
ENDBRANCH   7   8
ENDBRANCH   6   7
ENDBRANCH   5   6
ENDBRANCH   4   5
ENDBRANCH   3   4
ENDBRANCH   2   3
ENDBRANCH   1   2
BRANCH   1  25
ATOM     25  C   UNL     1       3.513   2.341  -2.274  1.00  0.00     0.188 C 
BRANCH  25  26
ATOM     26  O   UNL     1       2.249   2.450  -2.921  1.00  0.00    -0.376 OA
BRANCH  26  27
ATOM     27  C   UNL     1       1.578   1.272  -3.350  1.00  0.00     0.202 C 
BRANCH  27  28
ATOM     28  C   UNL     1       1.063   0.297  -2.275  1.00  0.00     0.261 C 
BRANCH  28  29
ATOM     29  O   UNL     1       2.051  -0.263  -1.398  1.00  0.00    -0.460 OA
BRANCH  29  30
ATOM     30  C   UNL     1       3.078  -0.934  -1.960  1.00  0.00     0.338 C 
ATOM     31  O   UNL     1       3.225  -1.206  -3.136  1.00  0.00    -0.246 OA
BRANCH  30  32
ATOM     32  C   UNL     1       4.123  -1.102  -0.928  1.00  0.00     0.060 A 
ATOM     33  C   UNL     1       5.396  -0.570  -1.174  1.00  0.00     0.016 A 
ATOM     34  C   UNL     1       3.853  -1.765   0.272  1.00  0.00     0.016 A 
ATOM     35  C   UNL     1       6.415  -0.734  -0.238  1.00  0.00     0.010 A 
ATOM     36  C   UNL     1       4.883  -1.956   1.196  1.00  0.00     0.010 A 
ATOM     37  C   UNL     1       6.177  -1.474   0.925  1.00  0.00    -0.014 A 
BRANCH  37  38
ATOM     38  C   UNL     1       7.329  -1.939   1.733  1.00  0.00     0.031 A 
ATOM     39  C   UNL     1       7.859  -3.323   1.475  1.00  0.00     0.074 A 
ATOM     40  C   UNL     1       7.921  -1.144   2.640  1.00  0.00     0.049 A 
ATOM     41  N   UNL     1       8.822  -3.972   2.076  1.00  0.00    -0.248 NA
ATOM     42  C   UNL     1       7.210  -4.077   0.389  1.00  0.00     0.031 C 
ATOM     43  C   UNL     1       7.535   0.233   2.939  1.00  0.00     0.029 A 
ATOM     44  N   UNL     1       8.975  -1.392   3.483  1.00  0.00    -0.354 N 
ATOM     45  C   UNL     1       8.890  -5.209   1.447  1.00  0.00     0.074 A 
ATOM     46  C   UNL     1       7.852  -5.234   0.441  1.00  0.00     0.031 C 
ATOM     47  C   UNL     1       8.332   0.704   3.915  1.00  0.00     0.029 A 
ATOM     48  C   UNL     1       9.259  -0.348   4.329  1.00  0.00     0.049 A 
ATOM     49  H   UNL     1       9.479  -2.237   3.481  1.00  0.00     0.167 HD
ATOM     50  C   UNL     1       9.748  -6.229   1.680  1.00  0.00     0.037 A 
ATOM     51  C   UNL     1      10.147  -0.267   5.339  1.00  0.00     0.037 A 
ATOM     52  C   UNL     1      10.775  -6.202   2.686  1.00  0.00     0.049 A 
ATOM     53  C   UNL     1      11.036  -1.448   5.638  1.00  0.00     0.074 A 
ATOM     54  C   UNL     1      11.699  -7.183   3.000  1.00  0.00     0.029 A 
ATOM     55  N   UNL     1      11.009  -5.140   3.547  1.00  0.00    -0.354 N 
ATOM     56  N   UNL     1      11.103  -2.610   5.032  1.00  0.00    -0.248 NA
ATOM     57  C   UNL     1      11.976  -1.305   6.759  1.00  0.00     0.031 C 
ATOM     58  C   UNL     1      12.454  -6.737   4.089  1.00  0.00     0.029 A 
ATOM     59  C   UNL     1      12.045  -5.453   4.411  1.00  0.00     0.049 A 
ATOM     60  H   UNL     1      10.512  -4.290   3.544  1.00  0.00     0.167 HD
ATOM     61  C   UNL     1      12.109  -3.321   5.676  1.00  0.00     0.074 A 
ATOM     62  C   UNL     1      12.633  -2.455   6.711  1.00  0.00     0.031 C 
ATOM     63  C   UNL     1      12.560  -4.576   5.432  1.00  0.00     0.037 A 
BRANCH  50  64
ATOM     64  C   UNL     1       9.585  -7.472   0.854  1.00  0.00     0.057 A 
ATOM     65  C   UNL     1       9.907  -7.505  -0.509  1.00  0.00     0.134 A 
ATOM     66  C   UNL     1       9.125  -8.659   1.438  1.00  0.00     0.134 A 
ATOM     67  F   UNL     1      10.334  -6.398  -1.135  1.00  0.00    -0.206 F 
ATOM     68  C   UNL     1       9.756  -8.669  -1.266  1.00  0.00     0.040 A 
ATOM     69  C   UNL     1       8.998  -9.835   0.699  1.00  0.00     0.040 A 
ATOM     70  F   UNL     1       8.799  -8.696   2.739  1.00  0.00    -0.206 F 
ATOM     71  C   UNL     1       9.308  -9.841  -0.659  1.00  0.00     0.006 A 
ENDBRANCH  50  64
BRANCH  51  72
ATOM     72  C   UNL     1      10.226   0.966   6.164  1.00  0.00     0.057 A 
ATOM     73  C   UNL     1      11.356   1.791   6.140  1.00  0.00     0.134 A 
ATOM     74  C   UNL     1       9.178   1.336   7.019  1.00  0.00     0.134 A 
ATOM     75  F   UNL     1      12.403   1.478   5.362  1.00  0.00    -0.206 F 
ATOM     76  C   UNL     1      11.451   2.926   6.947  1.00  0.00     0.040 A 
ATOM     77  C   UNL     1       9.248   2.483   7.809  1.00  0.00     0.040 A 
ATOM     78  F   UNL     1       8.067   0.588   7.091  1.00  0.00    -0.206 F 
ATOM     79  C   UNL     1      10.392   3.278   7.781  1.00  0.00     0.006 A 
ENDBRANCH  51  72
BRANCH  63  80
ATOM     80  C   UNL     1      13.705  -5.076   6.267  1.00  0.00     0.057 A 
ATOM     81  C   UNL     1      13.553  -5.402   7.620  1.00  0.00     0.134 A 
ATOM     82  C   UNL     1      14.967  -5.282   5.692  1.00  0.00     0.134 A 
ATOM     83  F   UNL     1      12.374  -5.221   8.235  1.00  0.00    -0.206 F 
ATOM     84  C   UNL     1      14.620  -5.889   8.378  1.00  0.00     0.040 A 
ATOM     85  C   UNL     1      16.032  -5.797   6.431  1.00  0.00     0.040 A 
ATOM     86  F   UNL     1      15.179  -5.004   4.397  1.00  0.00    -0.206 F 
ATOM     87  C   UNL     1      15.862  -6.095   7.781  1.00  0.00     0.006 A 
ENDBRANCH  63  80
ENDBRANCH  37  38
ENDBRANCH  30  32
ENDBRANCH  29  30
ENDBRANCH  28  29
ENDBRANCH  27  28
ENDBRANCH  26  27
ENDBRANCH  25  26
ENDBRANCH   1  25
TORSDOF 21
