REMARK SMILES CC(C)[C@H]1CC[C@@H](C)C/C1=C(\F)C(=O)OCCOCCOCCOCCOC(=O)c1ccc(-c2c3nc(c(-c4c(F)cccc4F)c4ccc([nH]4)c(-c4c(F)cccc4F)c4nc(c(-c5c(F)cccc5F)c5ccc2[nH]5)C=C4)C=C3)cc1
REMARK SMILES IDX 22 1 21 2 20 3 19 4 18 5 17 6 16 7 15 8 13 9 14 10 11 11
REMARK SMILES IDX 4 12 5 13 10 14 6 15 9 16 7 17 12 18 8 19 2 20 1 21 3 22
REMARK SMILES IDX 23 23 24 24 25 25 26 26 27 27 28 28 29 29 30 30 31 31 83 32
REMARK SMILES IDX 32 33 82 34 33 35 34 36 35 37 76 38 36 39 81 40 75 41 77 42
REMARK SMILES IDX 37 43 80 44 74 45 73 46 38 48 64 49 47 50 63 51 48 52 51 53
REMARK SMILES IDX 62 54 78 55 49 56 50 57 61 59 79 60 52 61 39 62 40 63 45 64
REMARK SMILES IDX 41 65 42 66 44 67 46 68 43 69 65 70 66 71 71 72 67 73 68 74
REMARK SMILES IDX 70 75 72 76 69 77 53 78 54 79 59 80 55 81 56 82 58 83 60 84
REMARK SMILES IDX 57 85
REMARK H PARENT 77 47 51 58
REMARK Flexibility Score: inf
ROOT
ATOM      1  C   UNL     1      -6.600   2.583  -0.702  1.00  0.00     0.188 C 
ENDROOT
BRANCH   1   2
ATOM      2  O   UNL     1      -6.017   1.885  -1.787  1.00  0.00    -0.377 OA
BRANCH   2   3
ATOM      3  C   UNL     1      -4.794   1.193  -1.593  1.00  0.00     0.188 C 
BRANCH   3   4
ATOM      4  C   UNL     1      -3.846   1.566  -0.438  1.00  0.00     0.188 C 
BRANCH   4   5
ATOM      5  O   UNL     1      -4.013   2.864   0.119  1.00  0.00    -0.376 OA
BRANCH   5   6
ATOM      6  C   UNL     1      -3.078   3.865  -0.262  1.00  0.00     0.202 C 
BRANCH   6   7
ATOM      7  C   UNL     1      -3.191   4.288  -1.729  1.00  0.00     0.261 C 
BRANCH   7   8
ATOM      8  O   UNL     1      -2.791   3.237  -2.621  1.00  0.00    -0.458 OA
BRANCH   8   9
ATOM      9  C   UNL     1      -1.473   2.905  -2.584  1.00  0.00     0.367 C 
ATOM     10  O   UNL     1      -0.602   3.535  -2.027  1.00  0.00    -0.243 OA
BRANCH   9  11
ATOM     11  C   UNL     1      -1.319   1.620  -3.315  1.00  0.00     0.207 C 
ATOM     12  C   UNL     1      -0.247  -0.069  -1.570  1.00  0.00     0.021 C 
ATOM     13  C   UNL     1      -1.073  -1.303  -1.119  1.00  0.00     0.009 C 
ATOM     14  C   UNL     1      -0.830   0.421  -2.921  1.00  0.00    -0.023 C 
ATOM     15  C   UNL     1      -1.036  -2.431  -2.152  1.00  0.00     0.004 C 
ATOM     16  C   UNL     1      -0.831  -0.695  -3.970  1.00  0.00     0.038 C 
ATOM     17  C   UNL     1      -1.530  -1.992  -3.529  1.00  0.00    -0.010 C 
ATOM     18  F   UNL     1      -1.847   1.716  -4.561  1.00  0.00    -0.199 F 
ATOM     19  C   UNL     1      -3.056  -1.888  -3.564  1.00  0.00     0.008 C 
BRANCH  12  20
ATOM     20  C   UNL     1      -0.019   0.952  -0.408  1.00  0.00    -0.010 C 
ATOM     21  C   UNL     1       0.126   0.323   0.988  1.00  0.00     0.008 C 
ATOM     22  C   UNL     1       1.235   1.800  -0.658  1.00  0.00     0.008 C 
ENDBRANCH  12  20
ENDBRANCH   9  11
ENDBRANCH   8   9
ENDBRANCH   7   8
ENDBRANCH   6   7
ENDBRANCH   5   6
ENDBRANCH   4   5
ENDBRANCH   3   4
ENDBRANCH   2   3
ENDBRANCH   1   2
BRANCH   1  23
ATOM     23  C   UNL     1      -6.749   1.858   0.649  1.00  0.00     0.188 C 
BRANCH  23  24
ATOM     24  O   UNL     1      -6.362   0.487   0.626  1.00  0.00    -0.376 OA
BRANCH  24  25
ATOM     25  C   UNL     1      -7.419  -0.452   0.772  1.00  0.00     0.202 C 
BRANCH  25  26
ATOM     26  C   UNL     1      -8.187  -0.706  -0.528  1.00  0.00     0.261 C 
BRANCH  26  27
ATOM     27  O   UNL     1      -8.862   0.444  -1.061  1.00  0.00    -0.460 OA
BRANCH  27  28
ATOM     28  C   UNL     1      -9.826   1.011  -0.302  1.00  0.00     0.338 C 
ATOM     29  O   UNL     1     -10.238   0.633   0.778  1.00  0.00    -0.246 OA
BRANCH  28  30
ATOM     30  C   UNL     1     -10.161   2.308  -0.924  1.00  0.00     0.060 A 
ATOM     31  C   UNL     1     -10.092   3.470  -0.143  1.00  0.00     0.016 A 
ATOM     32  C   UNL     1     -10.457   2.385  -2.288  1.00  0.00     0.016 A 
ATOM     33  C   UNL     1     -10.324   4.715  -0.729  1.00  0.00     0.010 A 
ATOM     34  C   UNL     1     -10.718   3.626  -2.866  1.00  0.00     0.010 A 
ATOM     35  C   UNL     1     -10.671   4.793  -2.086  1.00  0.00    -0.014 A 
BRANCH  35  36
ATOM     36  C   UNL     1     -11.192   6.059  -2.647  1.00  0.00     0.031 A 
ATOM     37  C   UNL     1     -12.669   6.310  -2.555  1.00  0.00     0.074 A 
ATOM     38  C   UNL     1     -10.386   6.951  -3.248  1.00  0.00     0.049 A 
ATOM     39  N   UNL     1     -13.374   7.309  -3.019  1.00  0.00    -0.248 NA
ATOM     40  C   UNL     1     -13.459   5.291  -1.843  1.00  0.00     0.031 C 
ATOM     41  C   UNL     1      -8.936   6.832  -3.383  1.00  0.00     0.029 A 
ATOM     42  N   UNL     1     -10.689   8.133  -3.878  1.00  0.00    -0.354 N 
ATOM     43  C   UNL     1     -14.685   7.042  -2.651  1.00  0.00     0.074 A 
ATOM     44  C   UNL     1     -14.686   5.777  -1.949  1.00  0.00     0.031 C 
ATOM     45  C   UNL     1      -8.476   7.892  -4.072  1.00  0.00     0.029 A 
ATOM     46  C   UNL     1      -9.601   8.746  -4.449  1.00  0.00     0.049 A 
ATOM     47  H   UNL     1     -11.599   8.506  -3.916  1.00  0.00     0.167 HD
ATOM     48  C   UNL     1     -15.792   7.786  -2.873  1.00  0.00     0.037 A 
ATOM     49  C   UNL     1      -9.534   9.856  -5.211  1.00  0.00     0.037 A 
ATOM     50  C   UNL     1     -15.799   9.029  -3.594  1.00  0.00     0.049 A 
ATOM     51  C   UNL     1     -10.795  10.618  -5.528  1.00  0.00     0.074 A 
ATOM     52  C   UNL     1     -16.866   9.872  -3.848  1.00  0.00     0.029 A 
ATOM     53  N   UNL     1     -14.686   9.595  -4.194  1.00  0.00    -0.354 N 
ATOM     54  N   UNL     1     -12.024  10.387  -5.132  1.00  0.00    -0.248 NA
ATOM     55  C   UNL     1     -10.660  11.790  -6.407  1.00  0.00     0.031 C 
ATOM     56  C   UNL     1     -16.406  10.925  -4.646  1.00  0.00     0.029 A 
ATOM     57  C   UNL     1     -15.046  10.758  -4.851  1.00  0.00     0.049 A 
ATOM     58  H   UNL     1     -13.774   9.224  -4.159  1.00  0.00     0.167 HD
ATOM     59  C   UNL     1     -12.803  11.390  -5.698  1.00  0.00     0.074 A 
ATOM     60  C   UNL     1     -11.906  12.241  -6.452  1.00  0.00     0.031 C 
ATOM     61  C   UNL     1     -14.140  11.589  -5.603  1.00  0.00     0.037 A 
BRANCH  48  62
ATOM     62  C   UNL     1     -17.089   7.251  -2.350  1.00  0.00     0.057 A 
ATOM     63  C   UNL     1     -17.392   7.267  -0.983  1.00  0.00     0.134 A 
ATOM     64  C   UNL     1     -18.045   6.719  -3.222  1.00  0.00     0.134 A 
ATOM     65  F   UNL     1     -16.507   7.744  -0.095  1.00  0.00    -0.206 F 
ATOM     66  C   UNL     1     -18.597   6.755  -0.499  1.00  0.00     0.040 A 
ATOM     67  C   UNL     1     -19.261   6.223  -2.752  1.00  0.00     0.040 A 
ATOM     68  F   UNL     1     -17.811   6.670  -4.542  1.00  0.00    -0.206 F 
ATOM     69  C   UNL     1     -19.538   6.236  -1.386  1.00  0.00     0.006 A 
ENDBRANCH  48  62
BRANCH  49  70
ATOM     70  C   UNL     1      -8.230  10.307  -5.760  1.00  0.00     0.057 A 
ATOM     71  C   UNL     1      -7.617  11.479  -5.301  1.00  0.00     0.134 A 
ATOM     72  C   UNL     1      -7.585   9.599  -6.781  1.00  0.00     0.134 A 
ATOM     73  F   UNL     1      -8.202  12.217  -4.346  1.00  0.00    -0.206 F 
ATOM     74  C   UNL     1      -6.416  11.938  -5.846  1.00  0.00     0.040 A 
ATOM     75  C   UNL     1      -6.373  10.034  -7.320  1.00  0.00     0.040 A 
ATOM     76  F   UNL     1      -8.126   8.473  -7.269  1.00  0.00    -0.206 F 
ATOM     77  C   UNL     1      -5.789  11.211  -6.857  1.00  0.00     0.006 A 
ENDBRANCH  49  70
BRANCH  61  78
ATOM     78  C   UNL     1     -14.716  12.772  -6.323  1.00  0.00     0.057 A 
ATOM     79  C   UNL     1     -14.873  12.779  -7.714  1.00  0.00     0.134 A 
ATOM     80  C   UNL     1     -15.170  13.891  -5.613  1.00  0.00     0.134 A 
ATOM     81  F   UNL     1     -14.447  11.742  -8.452  1.00  0.00    -0.206 F 
ATOM     82  C   UNL     1     -15.449  13.865  -8.377  1.00  0.00     0.040 A 
ATOM     83  C   UNL     1     -15.769  14.972  -6.262  1.00  0.00     0.040 A 
ATOM     84  F   UNL     1     -15.058  13.942  -4.277  1.00  0.00    -0.206 F 
ATOM     85  C   UNL     1     -15.906  14.962  -7.648  1.00  0.00     0.006 A 
ENDBRANCH  61  78
ENDBRANCH  35  36
ENDBRANCH  28  30
ENDBRANCH  27  28
ENDBRANCH  26  27
ENDBRANCH  25  26
ENDBRANCH  24  25
ENDBRANCH  23  24
ENDBRANCH   1  23
TORSDOF 21
