REMARK SMILES C#CC[N@H+](CC(=O)OCCOCCOCCOCCOC(=O)c1ccc(-c2c3nc(c(-c4c(F)cccc4F)c4ccc([nH]4)c(-c4c(F)cccc4F)c4nc(c(-c5c(F)cccc5F)c5ccc2[nH]5)C=C4)C=C3)cc1)[C@H]1CC[C@@H](c2ccccc2)CC1
REMARK SMILES IDX 13 1 12 2 11 3 10 4 9 5 8 6 6 7 7 8 5 9 4 10 3 12 2 13 1 14
REMARK SMILES IDX 77 15 88 16 78 17 87 18 79 19 80 20 81 21 82 22 86 23 83 24
REMARK SMILES IDX 85 25 84 26 14 27 15 28 16 29 17 30 18 31 19 32 20 33 21 34
REMARK SMILES IDX 22 35 23 36 24 37 76 38 25 39 75 40 26 41 27 42 28 43 69 44
REMARK SMILES IDX 29 45 74 46 68 47 70 48 30 49 73 50 67 51 66 52 31 54 57 55
REMARK SMILES IDX 40 56 56 57 41 58 44 59 55 60 71 61 42 62 43 63 54 65 72 66
REMARK SMILES IDX 45 67 32 68 33 69 38 70 34 71 35 72 37 73 39 74 36 75 58 76
REMARK SMILES IDX 59 77 64 78 60 79 61 80 63 81 65 82 62 83 46 84 47 85 52 86
REMARK SMILES IDX 48 87 49 88 51 89 53 90 50 91
REMARK H PARENT 4 11 70 53 44 64
REMARK Flexibility Score: inf
ROOT
ATOM      1  C   UNL     1      -3.895   2.880   0.476  1.00  0.00     0.188 C 
ENDROOT
BRANCH   1   2
ATOM      2  C   UNL     1      -5.408   3.007   0.342  1.00  0.00     0.188 C 
BRANCH   2   3
ATOM      3  O   UNL     1      -6.248   2.546   1.381  1.00  0.00    -0.376 OA
BRANCH   3   4
ATOM      4  C   UNL     1      -5.666   1.703   2.359  1.00  0.00     0.202 C 
BRANCH   4   5
ATOM      5  C   UNL     1      -5.436   0.237   1.937  1.00  0.00     0.261 C 
BRANCH   5   6
ATOM      6  O   UNL     1      -4.438   0.027   0.902  1.00  0.00    -0.459 OA
BRANCH   6   7
ATOM      7  C   UNL     1      -4.842  -0.121  -0.394  1.00  0.00     0.361 C 
ATOM      8  O   UNL     1      -6.016  -0.304  -0.707  1.00  0.00    -0.245 OA
BRANCH   7   9
ATOM      9  C   UNL     1      -3.704  -0.048  -1.475  1.00  0.00     0.387 C 
BRANCH   9  10
ATOM     10  N   UNL     1      -2.450   0.646  -1.097  1.00  0.00    -0.313 N 
ATOM     11  H   UNL     1      -2.808   1.543  -0.769  1.00  0.00     0.349 HD
BRANCH  10  12
ATOM     12  C   UNL     1      -1.728  -0.020  -0.018  1.00  0.00     0.354 C 
BRANCH  12  13
ATOM     13  C   UNL     1      -0.208  -0.020  -0.018  1.00  0.00    -0.047 C 
ATOM     14  C   UNL     1       1.096  -0.020  -0.018  1.00  0.00     0.010 C 
ENDBRANCH  12  13
ENDBRANCH  10  12
BRANCH  10  15
ATOM     15  C   UNL     1      -1.790   1.677  -1.943  1.00  0.00     0.185 C 
ATOM     16  C   UNL     1      -2.683   2.781  -2.556  1.00  0.00     0.066 C 
ATOM     17  C   UNL     1      -0.567   2.275  -1.223  1.00  0.00     0.066 C 
ATOM     18  C   UNL     1      -2.305   4.260  -2.290  1.00  0.00     0.014 C 
ATOM     19  C   UNL     1      -0.221   3.723  -1.143  1.00  0.00     0.014 C 
ATOM     20  C   UNL     1      -1.442   4.617  -1.054  1.00  0.00     0.019 C 
BRANCH  20  21
ATOM     21  C   UNL     1      -2.140   4.984   0.304  1.00  0.00    -0.045 A 
ATOM     22  C   UNL     1      -3.781   5.744   0.251  1.00  0.00     0.004 A 
ATOM     23  C   UNL     1      -1.315   4.997   1.915  1.00  0.00     0.004 A 
ATOM     24  C   UNL     1      -4.544   6.459   1.712  1.00  0.00     0.000 A 
ATOM     25  C   UNL     1      -2.042   5.727   3.416  1.00  0.00     0.000 A 
ATOM     26  C   UNL     1      -3.683   6.428   3.294  1.00  0.00     0.000 A 
ENDBRANCH  20  21
ENDBRANCH  10  15
ENDBRANCH   9  10
ENDBRANCH   7   9
ENDBRANCH   6   7
ENDBRANCH   5   6
ENDBRANCH   4   5
ENDBRANCH   3   4
ENDBRANCH   2   3
ENDBRANCH   1   2
BRANCH   1  27
ATOM     27  O   UNL     1      -3.098   3.341   1.548  1.00  0.00    -0.377 OA
BRANCH  27  28
ATOM     28  C   UNL     1      -3.346   4.739   2.047  1.00  0.00     0.188 C 
BRANCH  28  29
ATOM     29  C   UNL     1      -2.406   6.676   1.565  1.00  0.00     0.188 C 
BRANCH  29  30
ATOM     30  O   UNL     1      -1.877   7.177   0.204  1.00  0.00    -0.376 OA
BRANCH  30  31
ATOM     31  C   UNL     1      -0.507   7.530  -0.051  1.00  0.00     0.202 C 
BRANCH  31  32
ATOM     32  C   UNL     1       0.897   6.883   0.384  1.00  0.00     0.261 C 
BRANCH  32  33
ATOM     33  O   UNL     1       1.066   5.563   0.972  1.00  0.00    -0.460 OA
BRANCH  33  34
ATOM     34  C   UNL     1       2.177   5.285   1.731  1.00  0.00     0.338 C 
ATOM     35  O   UNL     1       3.162   6.018   1.725  1.00  0.00    -0.246 OA
BRANCH  34  36
ATOM     36  C   UNL     1       2.135   4.109   2.751  1.00  0.00     0.060 A 
ATOM     37  C   UNL     1       1.007   3.632   3.428  1.00  0.00     0.016 A 
ATOM     38  C   UNL     1       3.342   3.727   3.338  1.00  0.00     0.016 A 
ATOM     39  C   UNL     1       1.028   3.306   4.788  1.00  0.00     0.010 A 
ATOM     40  C   UNL     1       3.379   3.147   4.630  1.00  0.00     0.010 A 
ATOM     41  C   UNL     1       2.227   3.082   5.438  1.00  0.00    -0.014 A 
BRANCH  41  42
ATOM     42  C   UNL     1       2.303   2.905   6.929  1.00  0.00     0.031 A 
ATOM     43  C   UNL     1       3.310   3.735   7.698  1.00  0.00     0.074 A 
ATOM     44  C   UNL     1       1.487   2.093   7.641  1.00  0.00     0.049 A 
ATOM     45  N   UNL     1       3.794   3.565   8.903  1.00  0.00    -0.248 NA
ATOM     46  C   UNL     1       3.860   4.908   6.998  1.00  0.00     0.031 C 
ATOM     47  C   UNL     1       0.351   1.328   7.123  1.00  0.00     0.029 A 
ATOM     48  N   UNL     1       1.502   1.767   8.983  1.00  0.00    -0.354 N 
ATOM     49  C   UNL     1       4.766   4.548   9.063  1.00  0.00     0.074 A 
ATOM     50  C   UNL     1       4.807   5.305   7.832  1.00  0.00     0.031 C 
ATOM     51  C   UNL     1      -0.221   0.639   8.124  1.00  0.00     0.029 A 
ATOM     52  C   UNL     1       0.573   0.812   9.334  1.00  0.00     0.049 A 
ATOM     53  H   UNL     1       2.120   2.179   9.630  1.00  0.00     0.167 HD
ATOM     54  C   UNL     1       5.560   4.795  10.134  1.00  0.00     0.037 A 
ATOM     55  C   UNL     1       0.415   0.095  10.466  1.00  0.00     0.037 A 
ATOM     56  C   UNL     1       5.476   4.081  11.382  1.00  0.00     0.049 A 
ATOM     57  C   UNL     1       1.375   0.302  11.609  1.00  0.00     0.074 A 
ATOM     58  C   UNL     1       6.245   4.242  12.521  1.00  0.00     0.029 A 
ATOM     59  N   UNL     1       4.557   3.082  11.659  1.00  0.00    -0.354 N 
ATOM     60  N   UNL     1       2.365   1.154  11.717  1.00  0.00    -0.248 NA
ATOM     61  C   UNL     1       1.205  -0.568  12.782  1.00  0.00     0.031 C 
ATOM     62  C   UNL     1       5.832   3.296  13.465  1.00  0.00     0.029 A 
ATOM     63  C   UNL     1       4.755   2.599  12.942  1.00  0.00     0.049 A 
ATOM     64  H   UNL     1       3.865   2.762  11.035  1.00  0.00     0.167 HD
ATOM     65  C   UNL     1       2.911   0.948  12.979  1.00  0.00     0.074 A 
ATOM     66  C   UNL     1       2.131  -0.098  13.605  1.00  0.00     0.031 C 
ATOM     67  C   UNL     1       3.964   1.568  13.565  1.00  0.00     0.037 A 
BRANCH  54  68
ATOM     68  C   UNL     1       6.633   5.837   9.976  1.00  0.00     0.057 A 
ATOM     69  C   UNL     1       6.353   7.204   9.851  1.00  0.00     0.134 A 
ATOM     70  C   UNL     1       7.982   5.454   9.947  1.00  0.00     0.134 A 
ATOM     71  F   UNL     1       5.085   7.641   9.853  1.00  0.00    -0.206 F 
ATOM     72  C   UNL     1       7.369   8.145   9.663  1.00  0.00     0.040 A 
ATOM     73  C   UNL     1       9.008   6.388   9.797  1.00  0.00     0.040 A 
ATOM     74  F   UNL     1       8.327   4.163  10.069  1.00  0.00    -0.206 F 
ATOM     75  C   UNL     1       8.702   7.738   9.642  1.00  0.00     0.006 A 
ENDBRANCH  54  68
BRANCH  55  76
ATOM     76  C   UNL     1      -0.647  -0.949  10.564  1.00  0.00     0.057 A 
ATOM     77  C   UNL     1      -1.686  -0.847  11.497  1.00  0.00     0.134 A 
ATOM     78  C   UNL     1      -0.620  -2.102   9.766  1.00  0.00     0.134 A 
ATOM     79  F   UNL     1      -1.755   0.213  12.317  1.00  0.00    -0.206 F 
ATOM     80  C   UNL     1      -2.642  -1.855  11.649  1.00  0.00     0.040 A 
ATOM     81  C   UNL     1      -1.589  -3.101   9.881  1.00  0.00     0.040 A 
ATOM     82  F   UNL     1       0.350  -2.275   8.856  1.00  0.00    -0.206 F 
ATOM     83  C   UNL     1      -2.599  -2.984  10.833  1.00  0.00     0.006 A 
ENDBRANCH  55  76
BRANCH  67  84
ATOM     84  C   UNL     1       4.293   1.184  14.981  1.00  0.00     0.057 A 
ATOM     85  C   UNL     1       4.818  -0.071  15.316  1.00  0.00     0.134 A 
ATOM     86  C   UNL     1       4.102   2.100  16.025  1.00  0.00     0.134 A 
ATOM     87  F   UNL     1       5.016  -1.000  14.368  1.00  0.00    -0.206 F 
ATOM     88  C   UNL     1       5.105  -0.414  16.639  1.00  0.00     0.040 A 
ATOM     89  C   UNL     1       4.420   1.782  17.346  1.00  0.00     0.040 A 
ATOM     90  F   UNL     1       3.614   3.325  15.777  1.00  0.00    -0.206 F 
ATOM     91  C   UNL     1       4.913   0.518  17.657  1.00  0.00     0.006 A 
ENDBRANCH  67  84
ENDBRANCH  41  42
ENDBRANCH  34  36
ENDBRANCH  33  34
ENDBRANCH  32  33
ENDBRANCH  31  32
ENDBRANCH  30  31
ENDBRANCH  29  30
ENDBRANCH  28  29
ENDBRANCH  27  28
ENDBRANCH   1  27
TORSDOF 25
