REMARK SMILES CCCCCCNC(=O)Oc1cccc(-c2ccc([C@@H](C)C(=O)OCCOCCOCCOCCOC(=O)c3ccc(-c4c5nc(c(-c6c(F)cccc6F)c6ccc([nH]6)c(-c6c(F)cccc6F)c6nc(c(-c7c(F)cccc7F)c7ccc4[nH]7)C=C6)C=C5)cc3)cc2N)c1
REMARK SMILES IDX 26 1 25 2 24 3 22 4 23 5 20 6 21 7 19 8 16 9 17 10 94 11
REMARK SMILES IDX 18 12 93 13 15 14 11 15 12 16 96 17 13 18 14 19 10 20 8 21
REMARK SMILES IDX 7 22 9 24 6 25 5 26 4 27 3 28 2 29 1 30 95 31 27 34 28 35
REMARK SMILES IDX 29 36 30 37 31 38 32 39 33 40 34 41 35 42 36 43 37 44 38 45
REMARK SMILES IDX 39 46 40 47 92 48 41 49 91 50 42 51 43 52 44 53 85 54 45 55
REMARK SMILES IDX 90 56 84 57 86 58 46 59 89 60 83 61 82 62 47 64 73 65 56 66
REMARK SMILES IDX 72 67 57 68 60 69 71 70 87 71 58 72 59 73 70 75 88 76 61 77
REMARK SMILES IDX 48 78 49 79 54 80 50 81 51 82 53 83 55 84 52 85 74 86 75 87
REMARK SMILES IDX 80 88 76 89 77 90 79 91 81 92 78 93 62 94 63 95 68 96 64 97
REMARK SMILES IDX 65 98 67 99 69 100 66 101
REMARK H PARENT 7 23 95 32 95 33 86 63 60 74
REMARK Flexibility Score: inf
ROOT
ATOM      1  C   UNL     1      -0.681   4.040 -14.808  1.00  0.00     0.202 C 
ENDROOT
BRANCH   1   2
ATOM      2  C   UNL     1      -2.114   4.353 -15.282  1.00  0.00     0.261 C 
BRANCH   2   3
ATOM      3  O   UNL     1      -3.196   3.983 -14.401  1.00  0.00    -0.463 OA
BRANCH   3   4
ATOM      4  C   UNL     1      -3.919   2.898 -14.764  1.00  0.00     0.313 C 
ATOM      5  O   UNL     1      -3.708   2.261 -15.795  1.00  0.00    -0.252 OA
BRANCH   4   6
ATOM      6  C   UNL     1      -5.069   2.512 -13.834  1.00  0.00     0.126 C 
ATOM      7  C   UNL     1      -6.383   2.861 -14.526  1.00  0.00     0.025 C 
BRANCH   6   8
ATOM      8  C   UNL     1      -5.083   2.934 -12.363  1.00  0.00    -0.032 A 
ATOM      9  C   UNL     1      -5.062   3.580  -9.562  1.00  0.00     0.005 A 
ATOM     10  C   UNL     1      -5.074   4.576 -10.564  1.00  0.00     0.011 A 
ATOM     11  C   UNL     1      -5.086   2.232  -9.982  1.00  0.00     0.040 A 
ATOM     12  C   UNL     1      -5.090   4.263 -11.937  1.00  0.00     0.005 A 
ATOM     13  C   UNL     1      -5.081   1.936 -11.361  1.00  0.00     0.030 A 
BRANCH   9  14
ATOM     14  C   UNL     1      -5.098   3.976  -8.129  1.00  0.00    -0.013 A 
ATOM     15  C   UNL     1      -4.209   3.934  -5.858  1.00  0.00     0.133 A 
ATOM     16  C   UNL     1      -5.297   4.664  -5.386  1.00  0.00     0.047 A 
ATOM     17  C   UNL     1      -4.101   3.589  -7.211  1.00  0.00     0.056 A 
ATOM     18  C   UNL     1      -6.282   5.069  -6.281  1.00  0.00     0.004 A 
ATOM     19  C   UNL     1      -6.184   4.726  -7.635  1.00  0.00     0.009 A 
BRANCH  15  20
ATOM     20  O   UNL     1      -3.314   3.443  -4.888  1.00  0.00    -0.410 OA
BRANCH  20  21
ATOM     21  C   UNL     1      -1.978   3.793  -5.004  1.00  0.00     0.412 C 
ATOM     22  N   UNL     1      -1.185   3.284  -4.011  1.00  0.00    -0.321 N 
ATOM     23  H   UNL     1      -0.217   3.430  -4.109  1.00  0.00     0.167 HD
ATOM     24  O   UNL     1      -1.496   4.498  -5.882  1.00  0.00    -0.224 OA
BRANCH  22  25
ATOM     25  C   UNL     1      -1.610   2.556  -2.831  1.00  0.00     0.119 C 
BRANCH  25  26
ATOM     26  C   UNL     1      -0.977   1.167  -2.740  1.00  0.00     0.021 C 
BRANCH  26  27
ATOM     27  C   UNL     1       0.552   1.152  -2.619  1.00  0.00     0.002 C 
BRANCH  27  28
ATOM     28  C   UNL     1       1.131   1.869  -1.393  1.00  0.00    -0.000 C 
BRANCH  28  29
ATOM     29  C   UNL     1       0.668   1.335  -0.035  1.00  0.00    -0.003 C 
ATOM     30  C   UNL     1       1.076  -0.108   0.220  1.00  0.00     0.004 C 
ENDBRANCH  28  29
ENDBRANCH  27  28
ENDBRANCH  26  27
ENDBRANCH  25  26
ENDBRANCH  22  25
ENDBRANCH  20  21
ENDBRANCH  15  20
ENDBRANCH   9  14
BRANCH  11  31
ATOM     31  N   UNL     1      -4.997   1.170  -9.080  1.00  0.00    -0.398 N 
ATOM     32  H   UNL     1      -4.999   1.345  -8.111  1.00  0.00     0.156 HD
ATOM     33  H   UNL     1      -4.933   0.245  -9.413  1.00  0.00     0.156 HD
ENDBRANCH  11  31
ENDBRANCH   6   8
ENDBRANCH   4   6
ENDBRANCH   3   4
ENDBRANCH   2   3
ENDBRANCH   1   2
BRANCH   1  34
ATOM     34  O   UNL     1      -0.328   2.737 -14.368  1.00  0.00    -0.376 OA
BRANCH  34  35
ATOM     35  C   UNL     1      -1.076   2.087 -13.349  1.00  0.00     0.188 C 
BRANCH  35  36
ATOM     36  C   UNL     1      -1.688   2.878 -12.185  1.00  0.00     0.188 C 
BRANCH  36  37
ATOM     37  O   UNL     1      -1.574   4.282 -12.291  1.00  0.00    -0.377 OA
BRANCH  37  38
ATOM     38  C   UNL     1      -0.588   4.896 -11.480  1.00  0.00     0.188 C 
BRANCH  38  39
ATOM     39  C   UNL     1       0.770   4.178 -11.368  1.00  0.00     0.188 C 
BRANCH  39  40
ATOM     40  O   UNL     1       0.679   2.823 -10.941  1.00  0.00    -0.376 OA
BRANCH  40  41
ATOM     41  C   UNL     1       0.850   2.540  -9.558  1.00  0.00     0.202 C 
BRANCH  41  42
ATOM     42  C   UNL     1      -0.206   3.075  -8.579  1.00  0.00     0.261 C 
BRANCH  42  43
ATOM     43  O   UNL     1      -0.401   4.495  -8.571  1.00  0.00    -0.460 OA
BRANCH  43  44
ATOM     44  C   UNL     1       0.640   5.290  -8.246  1.00  0.00     0.338 C 
ATOM     45  O   UNL     1       1.759   4.948  -7.933  1.00  0.00    -0.246 OA
BRANCH  44  46
ATOM     46  C   UNL     1       0.241   6.683  -8.569  1.00  0.00     0.060 A 
ATOM     47  C   UNL     1       0.963   7.383  -9.544  1.00  0.00     0.016 A 
ATOM     48  C   UNL     1      -0.841   7.289  -7.927  1.00  0.00     0.016 A 
ATOM     49  C   UNL     1       0.630   8.704  -9.852  1.00  0.00     0.010 A 
ATOM     50  C   UNL     1      -1.157   8.621  -8.216  1.00  0.00     0.010 A 
ATOM     51  C   UNL     1      -0.403   9.346  -9.156  1.00  0.00    -0.014 A 
BRANCH  51  52
ATOM     52  C   UNL     1      -0.560  10.819  -9.263  1.00  0.00     0.031 A 
ATOM     53  C   UNL     1       0.065  11.681  -8.199  1.00  0.00     0.074 A 
ATOM     54  C   UNL     1      -1.220  11.388 -10.287  1.00  0.00     0.049 A 
ATOM     55  N   UNL     1       0.023  12.979  -8.046  1.00  0.00    -0.248 NA
ATOM     56  C   UNL     1       0.843  10.978  -7.165  1.00  0.00     0.031 C 
ATOM     57  C   UNL     1      -1.827  10.673 -11.405  1.00  0.00     0.029 A 
ATOM     58  N   UNL     1      -1.495  12.710 -10.541  1.00  0.00    -0.354 N 
ATOM     59  C   UNL     1       0.760  13.247  -6.899  1.00  0.00     0.074 A 
ATOM     60  C   UNL     1       1.212  11.976  -6.378  1.00  0.00     0.031 C 
ATOM     61  C   UNL     1      -2.419  11.564 -12.221  1.00  0.00     0.029 A 
ATOM     62  C   UNL     1      -2.261  12.907 -11.664  1.00  0.00     0.049 A 
ATOM     63  H   UNL     1      -1.173  13.447  -9.973  1.00  0.00     0.167 HD
ATOM     64  C   UNL     1       1.041  14.445  -6.334  1.00  0.00     0.037 A 
ATOM     65  C   UNL     1      -2.795  14.039 -12.167  1.00  0.00     0.037 A 
ATOM     66  C   UNL     1       0.584  15.709  -6.848  1.00  0.00     0.049 A 
ATOM     67  C   UNL     1      -2.543  15.352 -11.470  1.00  0.00     0.074 A 
ATOM     68  C   UNL     1       0.827  16.978  -6.353  1.00  0.00     0.029 A 
ATOM     69  N   UNL     1      -0.220  15.862  -7.967  1.00  0.00    -0.354 N 
ATOM     70  N   UNL     1      -1.825  15.600 -10.401  1.00  0.00    -0.248 NA
ATOM     71  C   UNL     1      -3.176  16.546 -12.051  1.00  0.00     0.031 C 
ATOM     72  C   UNL     1       0.120  17.895  -7.137  1.00  0.00     0.029 A 
ATOM     73  C   UNL     1      -0.507  17.203  -8.160  1.00  0.00     0.049 A 
ATOM     74  H   UNL     1      -0.538  15.127  -8.539  1.00  0.00     0.167 HD
ATOM     75  C   UNL     1      -1.889  16.975 -10.205  1.00  0.00     0.074 A 
ATOM     76  C   UNL     1      -2.711  17.510 -11.269  1.00  0.00     0.031 C 
ATOM     77  C   UNL     1      -1.315  17.727  -9.233  1.00  0.00     0.037 A 
BRANCH  64  78
ATOM     78  C   UNL     1       1.854  14.440  -5.072  1.00  0.00     0.057 A 
ATOM     79  C   UNL     1       3.215  14.108  -5.065  1.00  0.00     0.134 A 
ATOM     80  C   UNL     1       1.272  14.800  -3.849  1.00  0.00     0.134 A 
ATOM     81  F   UNL     1       3.831  13.739  -6.199  1.00  0.00    -0.206 F 
ATOM     82  C   UNL     1       3.961  14.109  -3.885  1.00  0.00     0.040 A 
ATOM     83  C   UNL     1       2.014  14.834  -2.668  1.00  0.00     0.040 A 
ATOM     84  F   UNL     1      -0.026  15.134  -3.784  1.00  0.00    -0.206 F 
ATOM     85  C   UNL     1       3.362  14.480  -2.683  1.00  0.00     0.006 A 
ENDBRANCH  64  78
BRANCH  65  86
ATOM     86  C   UNL     1      -3.641  13.987 -13.388  1.00  0.00     0.057 A 
ATOM     87  C   UNL     1      -3.225  14.576 -14.588  1.00  0.00     0.134 A 
ATOM     88  C   UNL     1      -4.902  13.376 -13.376  1.00  0.00     0.134 A 
ATOM     89  F   UNL     1      -2.041  15.201 -14.657  1.00  0.00    -0.206 F 
ATOM     90  C   UNL     1      -4.037  14.577 -15.724  1.00  0.00     0.040 A 
ATOM     91  C   UNL     1      -5.712  13.345 -14.512  1.00  0.00     0.040 A 
ATOM     92  F   UNL     1      -5.363  12.796 -12.258  1.00  0.00    -0.206 F 
ATOM     93  C   UNL     1      -5.283  13.954 -15.689  1.00  0.00     0.006 A 
ENDBRANCH  65  86
BRANCH  77  94
ATOM     94  C   UNL     1      -1.504  19.216  -9.298  1.00  0.00     0.057 A 
ATOM     95  C   UNL     1      -2.732  19.825  -9.009  1.00  0.00     0.134 A 
ATOM     96  C   UNL     1      -0.421  20.056  -9.593  1.00  0.00     0.134 A 
ATOM     97  F   UNL     1      -3.812  19.080  -8.729  1.00  0.00    -0.206 F 
ATOM     98  C   UNL     1      -2.881  21.214  -9.031  1.00  0.00     0.040 A 
ATOM     99  C   UNL     1      -0.550  21.446  -9.588  1.00  0.00     0.040 A 
ATOM    100  F   UNL     1       0.786  19.540  -9.867  1.00  0.00    -0.206 F 
ATOM    101  C   UNL     1      -1.785  22.028  -9.312  1.00  0.00     0.006 A 
ENDBRANCH  77  94
ENDBRANCH  51  52
ENDBRANCH  44  46
ENDBRANCH  43  44
ENDBRANCH  42  43
ENDBRANCH  41  42
ENDBRANCH  40  41
ENDBRANCH  39  40
ENDBRANCH  38  39
ENDBRANCH  37  38
ENDBRANCH  36  37
ENDBRANCH  35  36
ENDBRANCH  34  35
ENDBRANCH   1  34
TORSDOF 30
