REMARK SMILES O=C(CN(C(=O)[C@H]1CC[C@H]2CCCC[C@H]2[NH2+]1)C1CC1)OCCOCCOCCOCCOC(=O)c1ccc(-c2c3nc(c(-c4c(F)cccc4F)c4ccc([nH]4)c(-c4c(F)cccc4F)c4nc(c(-c5c(F)cccc5F)c5ccc2[nH]5)C=C4)C=C3)cc1
REMARK SMILES IDX 25 1 24 2 23 3 22 4 21 5 20 6 2 7 1 8 3 9 4 10 5 11 6 12
REMARK SMILES IDX 7 13 8 14 16 15 9 16 15 17 10 20 14 21 11 22 13 23 12 24
REMARK SMILES IDX 17 25 18 26 19 27 26 28 27 29 28 30 29 31 30 32 31 33 32 34
REMARK SMILES IDX 33 35 34 36 35 37 36 38 88 39 37 40 87 41 38 42 39 43 40 44
REMARK SMILES IDX 81 45 41 46 86 47 80 48 82 49 42 50 85 51 79 52 78 53 43 55
REMARK SMILES IDX 69 56 52 57 68 58 53 59 56 60 67 61 83 62 54 63 55 64 66 66
REMARK SMILES IDX 84 67 57 68 44 69 45 70 50 71 46 72 47 73 49 74 51 75 48 76
REMARK SMILES IDX 70 77 71 78 76 79 72 80 73 81 75 82 77 83 74 84 58 85 59 86
REMARK SMILES IDX 64 87 60 88 61 89 63 90 65 91 62 92
REMARK H PARENT 16 18 16 19 82 54 56 65
REMARK Flexibility Score: inf
ROOT
ATOM      1  C   UNL     1      10.011  -2.781  -3.025  1.00  0.00     0.188 C 
ENDROOT
BRANCH   1   2
ATOM      2  C   UNL     1       9.233  -1.801  -3.892  1.00  0.00     0.188 C 
BRANCH   2   3
ATOM      3  O   UNL     1       7.942  -1.505  -3.345  1.00  0.00    -0.376 OA
BRANCH   3   4
ATOM      4  C   UNL     1       6.848  -2.081  -4.061  1.00  0.00     0.202 C 
BRANCH   4   5
ATOM      5  C   UNL     1       6.131  -1.007  -4.876  1.00  0.00     0.261 C 
BRANCH   5   6
ATOM      6  O   UNL     1       7.053  -0.267  -5.694  1.00  0.00    -0.462 OA
BRANCH   6   7
ATOM      7  C   UNL     1       7.914   0.625  -5.129  1.00  0.00     0.325 C 
ATOM      8  O   UNL     1       9.038   0.773  -5.611  1.00  0.00    -0.250 OA
BRANCH   7   9
ATOM      9  C   UNL     1       7.456   1.413  -3.889  1.00  0.00     0.242 C 
BRANCH   9  10
ATOM     10  N   UNL     1       6.182   2.119  -4.043  1.00  0.00    -0.323 N 
BRANCH  10  11
ATOM     11  C   UNL     1       5.208   2.288  -3.062  1.00  0.00     0.281 C 
ATOM     12  O   UNL     1       4.103   2.753  -3.388  1.00  0.00    -0.268 OA
BRANCH  11  13
ATOM     13  C   UNL     1       5.361   1.852  -1.573  1.00  0.00     0.273 C 
ATOM     14  C   UNL     1       4.743   0.462  -1.361  1.00  0.00     0.076 C 
ATOM     15  N   UNL     1       6.718   1.965  -0.994  1.00  0.00    -0.333 N 
ATOM     16  C   UNL     1       4.736   0.072   0.115  1.00  0.00     0.016 C 
ATOM     17  C   UNL     1       6.715   1.607   0.449  1.00  0.00     0.186 C 
ATOM     18  H   UNL     1       7.045   2.925  -1.098  1.00  0.00     0.347 HD
ATOM     19  H   UNL     1       7.335   1.320  -1.487  1.00  0.00     0.347 HD
ATOM     20  C   UNL     1       6.130   0.203   0.734  1.00  0.00     0.048 C 
ATOM     21  C   UNL     1       8.130   1.656   1.048  1.00  0.00     0.065 C 
ATOM     22  C   UNL     1       7.070  -0.947   0.314  1.00  0.00     0.010 C 
ATOM     23  C   UNL     1       9.081   0.618   0.459  1.00  0.00     0.006 C 
ATOM     24  C   UNL     1       8.364  -0.464  -0.327  1.00  0.00     0.001 C 
ENDBRANCH  11  13
ENDBRANCH  10  11
BRANCH  10  25
ATOM     25  C   UNL     1       5.900   2.626  -5.380  1.00  0.00     0.086 C 
ATOM     26  C   UNL     1       5.981   4.095  -5.696  1.00  0.00     0.027 C 
ATOM     27  C   UNL     1       6.967   3.158  -6.312  1.00  0.00     0.027 C 
ENDBRANCH  10  25
ENDBRANCH   9  10
ENDBRANCH   7   9
ENDBRANCH   6   7
ENDBRANCH   5   6
ENDBRANCH   4   5
ENDBRANCH   3   4
ENDBRANCH   2   3
ENDBRANCH   1   2
BRANCH   1  28
ATOM     28  O   UNL     1       9.300  -3.998  -2.819  1.00  0.00    -0.377 OA
BRANCH  28  29
ATOM     29  C   UNL     1       8.370  -3.918  -1.741  1.00  0.00     0.188 C 
BRANCH  29  30
ATOM     30  C   UNL     1       9.010  -4.238  -0.406  1.00  0.00     0.188 C 
BRANCH  30  31
ATOM     31  O   UNL     1       9.901  -3.257   0.118  1.00  0.00    -0.376 OA
BRANCH  31  32
ATOM     32  C   UNL     1      11.266  -3.665   0.191  1.00  0.00     0.202 C 
BRANCH  32  33
ATOM     33  C   UNL     1      11.584  -4.536   1.416  1.00  0.00     0.261 C 
BRANCH  33  34
ATOM     34  O   UNL     1      10.778  -5.727   1.412  1.00  0.00    -0.460 OA
BRANCH  34  35
ATOM     35  C   UNL     1       9.685  -5.689   2.217  1.00  0.00     0.338 C 
ATOM     36  O   UNL     1       9.506  -4.948   3.170  1.00  0.00    -0.246 OA
BRANCH  35  37
ATOM     37  C   UNL     1       8.603  -6.523   1.619  1.00  0.00     0.060 A 
ATOM     38  C   UNL     1       7.276  -6.132   1.865  1.00  0.00     0.016 A 
ATOM     39  C   UNL     1       8.865  -7.565   0.719  1.00  0.00     0.016 A 
ATOM     40  C   UNL     1       6.216  -6.821   1.276  1.00  0.00     0.010 A 
ATOM     41  C   UNL     1       7.805  -8.264   0.135  1.00  0.00     0.010 A 
ATOM     42  C   UNL     1       6.480  -7.934   0.469  1.00  0.00    -0.014 A 
BRANCH  42  43
ATOM     43  C   UNL     1       5.423  -8.964   0.335  1.00  0.00     0.031 A 
ATOM     44  C   UNL     1       5.410 -10.042   1.390  1.00  0.00     0.074 A 
ATOM     45  C   UNL     1       4.487  -8.933  -0.628  1.00  0.00     0.049 A 
ATOM     46  N   UNL     1       4.621 -11.074   1.524  1.00  0.00    -0.248 NA
ATOM     47  C   UNL     1       6.441  -9.936   2.440  1.00  0.00     0.031 C 
ATOM     48  C   UNL     1       4.373  -7.924  -1.678  1.00  0.00     0.029 A 
ATOM     49  N   UNL     1       3.448  -9.796  -0.873  1.00  0.00    -0.354 N 
ATOM     50  C   UNL     1       5.056 -11.726   2.673  1.00  0.00     0.074 A 
ATOM     51  C   UNL     1       6.206 -11.011   3.169  1.00  0.00     0.031 C 
ATOM     52  C   UNL     1       3.328  -8.236  -2.468  1.00  0.00     0.029 A 
ATOM     53  C   UNL     1       2.715  -9.475  -1.990  1.00  0.00     0.049 A 
ATOM     54  H   UNL     1       3.246 -10.571  -0.302  1.00  0.00     0.167 HD
ATOM     55  C   UNL     1       4.533 -12.815   3.278  1.00  0.00     0.037 A 
ATOM     56  C   UNL     1       1.682 -10.126  -2.560  1.00  0.00     0.037 A 
ATOM     57  C   UNL     1       3.403 -13.540   2.773  1.00  0.00     0.049 A 
ATOM     58  C   UNL     1       1.161 -11.386  -1.910  1.00  0.00     0.074 A 
ATOM     59  C   UNL     1       2.806 -14.675   3.286  1.00  0.00     0.029 A 
ATOM     60  N   UNL     1       2.704 -13.196   1.626  1.00  0.00    -0.354 N 
ATOM     61  N   UNL     1       1.572 -11.989  -0.819  1.00  0.00    -0.248 NA
ATOM     62  C   UNL     1       0.025 -12.049  -2.567  1.00  0.00     0.031 C 
ATOM     63  C   UNL     1       1.768 -15.044   2.424  1.00  0.00     0.029 A 
ATOM     64  C   UNL     1       1.687 -14.106   1.406  1.00  0.00     0.049 A 
ATOM     65  H   UNL     1       2.903 -12.420   1.053  1.00  0.00     0.167 HD
ATOM     66  C   UNL     1       0.732 -13.085  -0.647  1.00  0.00     0.074 A 
ATOM     67  C   UNL     1      -0.226 -13.046  -1.732  1.00  0.00     0.031 C 
ATOM     68  C   UNL     1       0.748 -14.041   0.315  1.00  0.00     0.037 A 
BRANCH  55  69
ATOM     69  C   UNL     1       5.204 -13.284   4.535  1.00  0.00     0.057 A 
ATOM     70  C   UNL     1       5.123 -12.556   5.730  1.00  0.00     0.134 A 
ATOM     71  C   UNL     1       5.949 -14.469   4.548  1.00  0.00     0.134 A 
ATOM     72  F   UNL     1       4.453 -11.394   5.775  1.00  0.00    -0.206 F 
ATOM     73  C   UNL     1       5.777 -12.979   6.888  1.00  0.00     0.040 A 
ATOM     74  C   UNL     1       6.583 -14.917   5.708  1.00  0.00     0.040 A 
ATOM     75  F   UNL     1       6.076 -15.206   3.436  1.00  0.00    -0.206 F 
ATOM     76  C   UNL     1       6.503 -14.168   6.881  1.00  0.00     0.006 A 
ENDBRANCH  55  69
BRANCH  56  77
ATOM     77  C   UNL     1       1.077  -9.623  -3.823  1.00  0.00     0.057 A 
ATOM     78  C   UNL     1      -0.237  -9.141  -3.867  1.00  0.00     0.134 A 
ATOM     79  C   UNL     1       1.786  -9.660  -5.030  1.00  0.00     0.134 A 
ATOM     80  F   UNL     1      -0.980  -9.105  -2.751  1.00  0.00    -0.206 F 
ATOM     81  C   UNL     1      -0.832  -8.739  -5.065  1.00  0.00     0.040 A 
ATOM     82  C   UNL     1       1.214  -9.235  -6.231  1.00  0.00     0.040 A 
ATOM     83  F   UNL     1       3.048 -10.113  -5.061  1.00  0.00    -0.206 F 
ATOM     84  C   UNL     1      -0.103  -8.782  -6.252  1.00  0.00     0.006 A 
ENDBRANCH  56  77
BRANCH  68  85
ATOM     85  C   UNL     1      -0.318 -15.096   0.250  1.00  0.00     0.057 A 
ATOM     86  C   UNL     1      -0.325 -16.082  -0.745  1.00  0.00     0.134 A 
ATOM     87  C   UNL     1      -1.336 -15.139   1.211  1.00  0.00     0.134 A 
ATOM     88  F   UNL     1       0.619 -16.093  -1.698  1.00  0.00    -0.206 F 
ATOM     89  C   UNL     1      -1.329 -17.049  -0.804  1.00  0.00     0.040 A 
ATOM     90  C   UNL     1      -2.328 -16.121   1.180  1.00  0.00     0.040 A 
ATOM     91  F   UNL     1      -1.379 -14.235   2.202  1.00  0.00    -0.206 F 
ATOM     92  C   UNL     1      -2.332 -17.073   0.163  1.00  0.00     0.006 A 
ENDBRANCH  68  85
ENDBRANCH  42  43
ENDBRANCH  35  37
ENDBRANCH  34  35
ENDBRANCH  33  34
ENDBRANCH  32  33
ENDBRANCH  31  32
ENDBRANCH  30  31
ENDBRANCH  29  30
ENDBRANCH  28  29
ENDBRANCH   1  28
TORSDOF 24
