REMARK SMILES Cc1ccccc1CSCC(=O)Nc1ccc(C)c(C(=O)OCCOCCOCCOCCOC(=O)c2ccc(-c3c4nc(c(-c5c(F)cccc5F)c5ccc([nH]5)c(-c5c(F)cccc5F)c5nc(c(-c6c(F)cccc6F)c6ccc3[nH]6)C=C5)C=C4)cc2)c1
REMARK SMILES IDX 26 1 25 2 24 3 23 4 22 5 20 6 21 7 19 8 14 9 15 10 91 11
REMARK SMILES IDX 16 12 17 13 18 14 13 15 11 16 12 17 10 19 9 20 8 21 7 22
REMARK SMILES IDX 1 23 2 24 3 25 4 26 6 27 5 28 27 29 28 30 29 31 30 32 31 33
REMARK SMILES IDX 32 34 33 35 34 36 35 37 36 38 37 39 38 40 90 41 39 42 89 43
REMARK SMILES IDX 40 44 41 45 42 46 83 47 43 48 88 49 82 50 84 51 44 52 87 53
REMARK SMILES IDX 81 54 80 55 45 57 71 58 54 59 70 60 55 61 58 62 69 63 85 64
REMARK SMILES IDX 56 65 57 66 68 68 86 69 59 70 46 71 47 72 52 73 48 74 49 75
REMARK SMILES IDX 51 76 53 77 50 78 72 79 73 80 78 81 74 82 75 83 77 84 79 85
REMARK SMILES IDX 76 86 60 87 61 88 66 89 62 90 63 91 65 92 67 93 64 94
REMARK H PARENT 13 18 84 56 58 67
REMARK Flexibility Score: inf
ROOT
ATOM      1  C   UNL     1       6.000   6.293  -3.224  1.00  0.00     0.188 C 
ENDROOT
BRANCH   1   2
ATOM      2  O   UNL     1       6.728   6.893  -4.287  1.00  0.00    -0.376 OA
BRANCH   2   3
ATOM      3  C   UNL     1       5.933   7.596  -5.242  1.00  0.00     0.202 C 
BRANCH   3   4
ATOM      4  C   UNL     1       4.954   6.744  -6.026  1.00  0.00     0.261 C 
BRANCH   4   5
ATOM      5  O   UNL     1       3.752   6.699  -5.244  1.00  0.00    -0.460 OA
BRANCH   5   6
ATOM      6  C   UNL     1       3.120   5.519  -5.213  1.00  0.00     0.338 C 
ATOM      7  O   UNL     1       3.162   4.652  -6.056  1.00  0.00    -0.246 OA
BRANCH   6   8
ATOM      8  C   UNL     1       2.801   5.252  -3.784  1.00  0.00     0.065 A 
ATOM      9  C   UNL     1       3.152   3.528  -2.147  1.00  0.00     0.042 A 
ATOM     10  C   UNL     1       2.715   4.357  -1.126  1.00  0.00     0.026 A 
ATOM     11  C   UNL     1       3.235   3.974  -3.449  1.00  0.00     0.042 A 
ATOM     12  C   UNL     1       2.246   5.619  -1.445  1.00  0.00     0.006 A 
ATOM     13  C   UNL     1       2.356   6.112  -2.755  1.00  0.00    -0.036 A 
ATOM     14  C   UNL     1       2.088   7.575  -2.872  1.00  0.00     0.045 C 
BRANCH   9  15
ATOM     15  N   UNL     1       3.254   2.155  -1.968  1.00  0.00    -0.325 N 
ATOM     16  C   UNL     1       2.345   1.304  -2.562  1.00  0.00     0.234 C 
ATOM     17  O   UNL     1       2.735   0.172  -2.864  1.00  0.00    -0.274 OA
ATOM     18  H   UNL     1       3.980   1.786  -1.414  1.00  0.00     0.169 HD
BRANCH  16  19
ATOM     19  C   UNL     1       0.944   1.783  -2.953  1.00  0.00     0.170 C 
BRANCH  19  20
ATOM     20  S   UNL     1      -0.018   2.794  -1.776  1.00  0.00    -0.147 SA
BRANCH  20  21
ATOM     21  C   UNL     1       0.526   2.155  -0.147  1.00  0.00     0.105 C 
BRANCH  21  22
ATOM     22  C   UNL     1      -0.007   0.782   0.113  1.00  0.00    -0.035 A 
ATOM     23  C   UNL     1       2.300  -0.390   0.202  1.00  0.00     0.044 C 
ATOM     24  C   UNL     1       0.794  -0.375   0.161  1.00  0.00    -0.047 A 
ATOM     25  C   UNL     1       0.151  -1.620   0.174  1.00  0.00     0.004 A 
ATOM     26  C   UNL     1      -1.240  -1.717   0.208  1.00  0.00     0.000 A 
ATOM     27  C   UNL     1      -1.406   0.670   0.229  1.00  0.00     0.005 A 
ATOM     28  C   UNL     1      -2.020  -0.571   0.268  1.00  0.00     0.000 A 
ENDBRANCH  21  22
ENDBRANCH  20  21
ENDBRANCH  19  20
ENDBRANCH  16  19
ENDBRANCH   9  15
ENDBRANCH   6   8
ENDBRANCH   5   6
ENDBRANCH   4   5
ENDBRANCH   3   4
ENDBRANCH   2   3
ENDBRANCH   1   2
BRANCH   1  29
ATOM     29  C   UNL     1       5.670   7.126  -1.981  1.00  0.00     0.188 C 
BRANCH  29  30
ATOM     30  O   UNL     1       4.940   8.320  -2.244  1.00  0.00    -0.377 OA
BRANCH  30  31
ATOM     31  C   UNL     1       5.659   9.488  -1.885  1.00  0.00     0.188 C 
BRANCH  31  32
ATOM     32  C   UNL     1       6.856   9.692  -2.780  1.00  0.00     0.188 C 
BRANCH  32  33
ATOM     33  O   UNL     1       7.980   8.845  -2.630  1.00  0.00    -0.376 OA
BRANCH  33  34
ATOM     34  C   UNL     1       8.830   9.032  -1.506  1.00  0.00     0.202 C 
BRANCH  34  35
ATOM     35  C   UNL     1       9.003  10.485  -1.038  1.00  0.00     0.261 C 
BRANCH  35  36
ATOM     36  O   UNL     1       9.454  11.295  -2.151  1.00  0.00    -0.460 OA
BRANCH  36  37
ATOM     37  C   UNL     1       8.771  12.459  -2.368  1.00  0.00     0.338 C 
ATOM     38  O   UNL     1       8.312  13.172  -1.490  1.00  0.00    -0.246 OA
BRANCH  37  39
ATOM     39  C   UNL     1       8.300  12.512  -3.802  1.00  0.00     0.060 A 
ATOM     40  C   UNL     1       7.159  13.284  -4.096  1.00  0.00     0.016 A 
ATOM     41  C   UNL     1       8.646  11.470  -4.661  1.00  0.00     0.016 A 
ATOM     42  C   UNL     1       6.248  12.864  -5.084  1.00  0.00     0.010 A 
ATOM     43  C   UNL     1       7.695  11.017  -5.569  1.00  0.00     0.010 A 
ATOM     44  C   UNL     1       6.447  11.650  -5.733  1.00  0.00    -0.014 A 
BRANCH  44  45
ATOM     45  C   UNL     1       5.388  10.875  -6.434  1.00  0.00     0.031 A 
ATOM     46  C   UNL     1       5.752  10.183  -7.721  1.00  0.00     0.074 A 
ATOM     47  C   UNL     1       4.255  10.502  -5.772  1.00  0.00     0.049 A 
ATOM     48  N   UNL     1       5.060   9.264  -8.296  1.00  0.00    -0.248 NA
ATOM     49  C   UNL     1       7.004  10.410  -8.432  1.00  0.00     0.031 C 
ATOM     50  C   UNL     1       3.363   9.401  -6.116  1.00  0.00     0.029 A 
ATOM     51  N   UNL     1       3.647  10.995  -4.605  1.00  0.00    -0.354 N 
ATOM     52  C   UNL     1       5.837   8.580  -9.210  1.00  0.00     0.074 A 
ATOM     53  C   UNL     1       7.036   9.375  -9.282  1.00  0.00     0.031 C 
ATOM     54  C   UNL     1       2.277   9.365  -5.338  1.00  0.00     0.029 A 
ATOM     55  C   UNL     1       2.272  10.625  -4.670  1.00  0.00     0.049 A 
ATOM     56  H   UNL     1       4.085  11.499  -3.882  1.00  0.00     0.167 HD
ATOM     57  C   UNL     1       5.372   7.383  -9.700  1.00  0.00     0.037 A 
ATOM     58  C   UNL     1       1.300  11.543  -4.940  1.00  0.00     0.037 A 
ATOM     59  C   UNL     1       3.940   7.185  -9.332  1.00  0.00     0.049 A 
ATOM     60  C   UNL     1       0.712  11.271  -6.353  1.00  0.00     0.074 A 
ATOM     61  C   UNL     1       3.183   6.177  -8.760  1.00  0.00     0.029 A 
ATOM     62  N   UNL     1       3.066   8.279  -9.408  1.00  0.00    -0.354 N 
ATOM     63  N   UNL     1       1.349  10.577  -7.285  1.00  0.00    -0.248 NA
ATOM     64  C   UNL     1      -0.658  11.528  -6.777  1.00  0.00     0.031 C 
ATOM     65  C   UNL     1       1.899   6.713  -8.411  1.00  0.00     0.029 A 
ATOM     66  C   UNL     1       1.837   8.038  -8.827  1.00  0.00     0.049 A 
ATOM     67  H   UNL     1       3.306   9.135  -9.832  1.00  0.00     0.167 HD
ATOM     68  C   UNL     1       0.478  10.057  -8.208  1.00  0.00     0.074 A 
ATOM     69  C   UNL     1      -0.724  10.847  -7.944  1.00  0.00     0.031 C 
ATOM     70  C   UNL     1       0.729   8.978  -9.040  1.00  0.00     0.037 A 
BRANCH  57  71
ATOM     71  C   UNL     1       6.211   6.301 -10.419  1.00  0.00     0.057 A 
ATOM     72  C   UNL     1       5.629   5.088 -10.862  1.00  0.00     0.134 A 
ATOM     73  C   UNL     1       7.604   6.344 -10.653  1.00  0.00     0.134 A 
ATOM     74  F   UNL     1       4.314   4.861 -10.766  1.00  0.00    -0.206 F 
ATOM     75  C   UNL     1       6.357   4.028 -11.443  1.00  0.00     0.040 A 
ATOM     76  C   UNL     1       8.336   5.311 -11.277  1.00  0.00     0.040 A 
ATOM     77  F   UNL     1       8.365   7.370 -10.272  1.00  0.00    -0.206 F 
ATOM     78  C   UNL     1       7.717   4.138 -11.664  1.00  0.00     0.006 A 
ENDBRANCH  57  71
BRANCH  58  79
ATOM     79  C   UNL     1       1.536  12.721  -4.031  1.00  0.00     0.057 A 
ATOM     80  C   UNL     1       1.492  12.406  -2.641  1.00  0.00     0.134 A 
ATOM     81  C   UNL     1       2.465  13.707  -4.388  1.00  0.00     0.134 A 
ATOM     82  F   UNL     1       0.606  11.502  -2.189  1.00  0.00    -0.206 F 
ATOM     83  C   UNL     1       2.497  12.806  -1.743  1.00  0.00     0.040 A 
ATOM     84  C   UNL     1       3.441  14.159  -3.473  1.00  0.00     0.040 A 
ATOM     85  F   UNL     1       2.589  14.085  -5.667  1.00  0.00    -0.206 F 
ATOM     86  C   UNL     1       3.516  13.640  -2.180  1.00  0.00     0.006 A 
ENDBRANCH  58  79
BRANCH  70  87
ATOM     87  C   UNL     1      -0.044   8.712 -10.311  1.00  0.00     0.057 A 
ATOM     88  C   UNL     1      -1.409   8.904 -10.461  1.00  0.00     0.134 A 
ATOM     89  C   UNL     1       0.635   8.294 -11.486  1.00  0.00     0.134 A 
ATOM     90  F   UNL     1      -2.218   8.997  -9.397  1.00  0.00    -0.206 F 
ATOM     91  C   UNL     1      -2.001   8.970 -11.726  1.00  0.00     0.040 A 
ATOM     92  C   UNL     1       0.047   8.291 -12.743  1.00  0.00     0.040 A 
ATOM     93  F   UNL     1       1.910   7.883 -11.493  1.00  0.00    -0.206 F 
ATOM     94  C   UNL     1      -1.261   8.707 -12.875  1.00  0.00     0.006 A 
ENDBRANCH  70  87
ENDBRANCH  44  45
ENDBRANCH  37  39
ENDBRANCH  36  37
ENDBRANCH  35  36
ENDBRANCH  34  35
ENDBRANCH  33  34
ENDBRANCH  32  33
ENDBRANCH  31  32
ENDBRANCH  30  31
ENDBRANCH  29  30
ENDBRANCH   1  29
TORSDOF 25
