REMARK SMILES CC1=Nc2nc(NC(=O)CCC(=O)OCCOCCOCCOCCOC(=O)c3ccc(-c4c5nc(c(-c6c(F)cccc6F)c6ccc([nH]6)c(-c6c(F)cccc6F)c6nc(c(-c7c(F)cccc7F)c7ccc4[nH]7)C=C6)C=C5)cc3)nn2[C@@H](c2ccc(Cl)cc2)C1
REMARK SMILES IDX 19 1 18 2 17 3 16 4 15 5 14 6 12 7 13 8 11 9 10 10 8 11 7 12
REMARK SMILES IDX 9 14 6 15 1 16 2 17 3 18 93 19 4 20 85 21 5 22 84 23 83 24
REMARK SMILES IDX 86 25 87 26 92 27 88 28 91 29 89 30 90 31 20 32 21 33 22 34
REMARK SMILES IDX 23 35 24 36 25 37 26 38 27 39 28 40 29 41 30 42 82 43 31 44
REMARK SMILES IDX 81 45 32 46 33 47 34 48 75 49 35 50 80 51 74 52 76 53 36 54
REMARK SMILES IDX 79 55 73 56 72 57 37 59 63 60 46 61 62 62 47 63 50 64 61 65
REMARK SMILES IDX 77 66 48 67 49 68 60 70 78 71 51 72 38 73 39 74 44 75 40 76
REMARK SMILES IDX 41 77 43 78 45 79 42 80 64 81 65 82 70 83 66 84 67 85 69 86
REMARK SMILES IDX 71 87 68 88 52 89 53 90 58 91 54 92 55 93 57 94 59 95 56 96
REMARK H PARENT 7 13 76 58 50 69
REMARK Flexibility Score: inf
ROOT
ATOM      1  C   UNL     1       0.040  -4.136   5.437  1.00  0.00     0.188 C 
ENDROOT
BRANCH   1   2
ATOM      2  C   UNL     1      -1.185  -4.595   4.526  1.00  0.00     0.188 C 
BRANCH   2   3
ATOM      3  O   UNL     1      -2.548  -4.220   4.838  1.00  0.00    -0.376 OA
BRANCH   3   4
ATOM      4  C   UNL     1      -3.369  -3.423   3.948  1.00  0.00     0.202 C 
BRANCH   4   5
ATOM      5  C   UNL     1      -4.850  -3.256   4.323  1.00  0.00     0.261 C 
BRANCH   5   6
ATOM      6  O   UNL     1      -4.949  -2.972   5.706  1.00  0.00    -0.463 OA
BRANCH   6   7
ATOM      7  C   UNL     1      -4.573  -4.074   6.387  1.00  0.00     0.306 C 
ATOM      8  O   UNL     1      -5.013  -5.199   6.168  1.00  0.00    -0.252 OA
BRANCH   7   9
ATOM      9  C   UNL     1      -3.490  -3.774   7.381  1.00  0.00     0.132 C 
BRANCH   9  10
ATOM     10  C   UNL     1      -2.437  -2.659   7.142  1.00  0.00     0.112 C 
BRANCH  10  11
ATOM     11  C   UNL     1      -2.643  -1.298   6.436  1.00  0.00     0.227 C 
ATOM     12  N   UNL     1      -2.015  -0.697   5.369  1.00  0.00    -0.293 N 
ATOM     13  H   UNL     1      -2.092   0.277   5.489  1.00  0.00     0.173 HD
ATOM     14  O   UNL     1      -3.415  -0.526   7.045  1.00  0.00    -0.275 OA
BRANCH  12  15
ATOM     15  C   UNL     1      -1.309  -0.923   4.179  1.00  0.00     0.250 A 
ATOM     16  C   UNL     1       1.308   0.645  -0.744  1.00  0.00     0.062 C 
ATOM     17  C   UNL     1       0.748  -0.154   0.403  1.00  0.00     0.021 C 
ATOM     18  N   UNL     1       0.029   0.463   1.282  1.00  0.00    -0.221 NA
ATOM     19  C   UNL     1       1.116  -1.617   0.436  1.00  0.00     0.083 C 
ATOM     20  C   UNL     1      -0.470  -0.250   2.311  1.00  0.00     0.250 A 
ATOM     21  C   UNL     1       0.319  -2.485   1.412  1.00  0.00     0.147 C 
ATOM     22  N   UNL     1      -0.998   0.192   3.440  1.00  0.00    -0.174 NA
ATOM     23  N   UNL     1      -0.484  -1.625   2.328  1.00  0.00    -0.220 N 
ATOM     24  N   UNL     1      -0.977  -2.040   3.512  1.00  0.00    -0.130 NA
BRANCH  21  25
ATOM     25  C   UNL     1      -0.335  -3.690   0.681  1.00  0.00    -0.023 A 
ATOM     26  C   UNL     1      -1.549  -4.222   1.087  1.00  0.00     0.007 A 
ATOM     27  C   UNL     1       0.316  -4.420  -0.334  1.00  0.00     0.007 A 
ATOM     28  C   UNL     1      -2.120  -5.393   0.570  1.00  0.00     0.021 A 
ATOM     29  C   UNL     1      -0.265  -5.563  -0.923  1.00  0.00     0.021 A 
ATOM     30  C   UNL     1      -1.483  -6.050  -0.464  1.00  0.00     0.041 A 
ATOM     31  Cl  UNL     1      -2.188  -7.454  -1.159  1.00  0.00    -0.084 Cl
ENDBRANCH  21  25
ENDBRANCH  12  15
ENDBRANCH  10  11
ENDBRANCH   9  10
ENDBRANCH   7   9
ENDBRANCH   6   7
ENDBRANCH   5   6
ENDBRANCH   4   5
ENDBRANCH   3   4
ENDBRANCH   2   3
ENDBRANCH   1   2
BRANCH   1  32
ATOM     32  O   UNL     1       0.130  -2.730   5.645  1.00  0.00    -0.377 OA
BRANCH  32  33
ATOM     33  C   UNL     1       1.377  -2.076   5.837  1.00  0.00     0.188 C 
BRANCH  33  34
ATOM     34  C   UNL     1       2.297  -2.091   4.613  1.00  0.00     0.188 C 
BRANCH  34  35
ATOM     35  O   UNL     1       2.861  -3.381   4.384  1.00  0.00    -0.376 OA
BRANCH  35  36
ATOM     36  C   UNL     1       4.233  -3.528   4.750  1.00  0.00     0.202 C 
BRANCH  36  37
ATOM     37  C   UNL     1       4.499  -3.515   6.256  1.00  0.00     0.261 C 
BRANCH  37  38
ATOM     38  O   UNL     1       4.160  -2.290   6.908  1.00  0.00    -0.460 OA
BRANCH  38  39
ATOM     39  C   UNL     1       4.690  -1.141   6.471  1.00  0.00     0.338 C 
ATOM     40  O   UNL     1       5.490  -0.998   5.538  1.00  0.00    -0.246 OA
BRANCH  39  41
ATOM     41  C   UNL     1       4.202  -0.050   7.321  1.00  0.00     0.060 A 
ATOM     42  C   UNL     1       4.738   1.221   7.100  1.00  0.00     0.016 A 
ATOM     43  C   UNL     1       3.450  -0.343   8.473  1.00  0.00     0.016 A 
ATOM     44  C   UNL     1       4.779   2.100   8.158  1.00  0.00     0.010 A 
ATOM     45  C   UNL     1       3.491   0.534   9.530  1.00  0.00     0.010 A 
ATOM     46  C   UNL     1       4.275   1.675   9.390  1.00  0.00    -0.014 A 
BRANCH  46  47
ATOM     47  C   UNL     1       4.802   2.317  10.577  1.00  0.00     0.031 A 
ATOM     48  C   UNL     1       4.121   3.548  10.998  1.00  0.00     0.074 A 
ATOM     49  C   UNL     1       5.809   1.733  11.261  1.00  0.00     0.049 A 
ATOM     50  N   UNL     1       4.623   4.733  11.099  1.00  0.00    -0.248 NA
ATOM     51  C   UNL     1       2.677   3.470  11.259  1.00  0.00     0.031 C 
ATOM     52  C   UNL     1       6.330   0.371  11.067  1.00  0.00     0.029 A 
ATOM     53  N   UNL     1       6.506   2.180  12.344  1.00  0.00    -0.354 N 
ATOM     54  C   UNL     1       3.608   5.512  11.641  1.00  0.00     0.074 A 
ATOM     55  C   UNL     1       2.399   4.736  11.564  1.00  0.00     0.031 C 
ATOM     56  C   UNL     1       7.100   0.034  12.121  1.00  0.00     0.029 A 
ATOM     57  C   UNL     1       7.226   1.188  12.994  1.00  0.00     0.049 A 
ATOM     58  H   UNL     1       6.500   3.119  12.637  1.00  0.00     0.167 HD
ATOM     59  C   UNL     1       3.898   6.618  12.372  1.00  0.00     0.037 A 
ATOM     60  C   UNL     1       7.832   1.277  14.200  1.00  0.00     0.037 A 
ATOM     61  C   UNL     1       5.237   7.086  12.127  1.00  0.00     0.049 A 
ATOM     62  C   UNL     1       8.021   2.710  14.518  1.00  0.00     0.074 A 
ATOM     63  C   UNL     1       5.910   7.632  11.056  1.00  0.00     0.029 A 
ATOM     64  N   UNL     1       6.182   6.697  13.039  1.00  0.00    -0.354 N 
ATOM     65  N   UNL     1       8.853   3.497  13.895  1.00  0.00    -0.248 NA
ATOM     66  C   UNL     1       7.027   3.388  15.341  1.00  0.00     0.031 C 
ATOM     67  C   UNL     1       7.280   7.287  11.239  1.00  0.00     0.029 A 
ATOM     68  C   UNL     1       7.391   6.544  12.414  1.00  0.00     0.049 A 
ATOM     69  H   UNL     1       6.018   6.551  13.999  1.00  0.00     0.167 HD
ATOM     70  C   UNL     1       8.236   4.736  13.905  1.00  0.00     0.074 A 
ATOM     71  C   UNL     1       7.226   4.648  14.948  1.00  0.00     0.031 C 
ATOM     72  C   UNL     1       8.394   5.601  12.862  1.00  0.00     0.037 A 
BRANCH  59  73
ATOM     73  C   UNL     1       3.140   7.005  13.617  1.00  0.00     0.057 A 
ATOM     74  C   UNL     1       3.393   8.254  14.210  1.00  0.00     0.134 A 
ATOM     75  C   UNL     1       2.418   6.094  14.418  1.00  0.00     0.134 A 
ATOM     76  F   UNL     1       4.097   9.193  13.559  1.00  0.00    -0.206 F 
ATOM     77  C   UNL     1       3.008   8.550  15.522  1.00  0.00     0.040 A 
ATOM     78  C   UNL     1       1.980   6.401  15.708  1.00  0.00     0.040 A 
ATOM     79  F   UNL     1       2.191   4.830  14.041  1.00  0.00    -0.206 F 
ATOM     80  C   UNL     1       2.302   7.621  16.277  1.00  0.00     0.006 A 
ENDBRANCH  59  73
BRANCH  60  81
ATOM     81  C   UNL     1       8.058   0.199  15.187  1.00  0.00     0.057 A 
ATOM     82  C   UNL     1       9.022   0.319  16.196  1.00  0.00     0.134 A 
ATOM     83  C   UNL     1       7.167  -0.883  15.309  1.00  0.00     0.134 A 
ATOM     84  F   UNL     1       9.889   1.341  16.191  1.00  0.00    -0.206 F 
ATOM     85  C   UNL     1       9.089  -0.579  17.270  1.00  0.00     0.040 A 
ATOM     86  C   UNL     1       7.231  -1.794  16.367  1.00  0.00     0.040 A 
ATOM     87  F   UNL     1       6.151  -1.047  14.449  1.00  0.00    -0.206 F 
ATOM     88  C   UNL     1       8.188  -1.636  17.361  1.00  0.00     0.006 A 
ENDBRANCH  60  81
BRANCH  72  89
ATOM     89  C   UNL     1       9.587   5.390  11.978  1.00  0.00     0.057 A 
ATOM     90  C   UNL     1       9.757   4.280  11.140  1.00  0.00     0.134 A 
ATOM     91  C   UNL     1      10.554   6.400  11.904  1.00  0.00     0.134 A 
ATOM     92  F   UNL     1       8.834   3.311  11.079  1.00  0.00    -0.206 F 
ATOM     93  C   UNL     1      10.870   4.158  10.303  1.00  0.00     0.040 A 
ATOM     94  C   UNL     1      11.652   6.306  11.047  1.00  0.00     0.040 A 
ATOM     95  F   UNL     1      10.425   7.516  12.640  1.00  0.00    -0.206 F 
ATOM     96  C   UNL     1      11.819   5.175  10.252  1.00  0.00     0.006 A 
ENDBRANCH  72  89
ENDBRANCH  46  47
ENDBRANCH  39  41
ENDBRANCH  38  39
ENDBRANCH  37  38
ENDBRANCH  36  37
ENDBRANCH  35  36
ENDBRANCH  34  35
ENDBRANCH  33  34
ENDBRANCH  32  33
ENDBRANCH   1  32
TORSDOF 24
