REMARK SMILES Cc1c(Cl)cc2c(c1C)O[C@H](C(F)(F)F)C(C(=O)OCCOCCOCCOCCOC(=O)c1ccc(-c3c4nc(c(-c5c(F)cccc5F)c5ccc([nH]5)c(-c5c(F)cccc5F)c5nc(c(-c6c(F)cccc6F)c6ccc3[nH]6)C=C5)C=C4)cc1)=C2
REMARK SMILES IDX 26 1 25 2 24 3 23 4 22 5 21 6 20 7 19 8 17 9 18 10 16 11
REMARK SMILES IDX 1 12 2 13 3 14 8 15 4 16 5 17 7 18 9 19 6 20 10 21 88 22
REMARK SMILES IDX 11 23 12 24 13 25 14 26 15 27 27 28 28 29 29 30 30 31 31 32
REMARK SMILES IDX 32 33 33 34 34 35 35 36 87 37 36 38 86 39 37 40 38 41 39 42
REMARK SMILES IDX 80 43 40 44 85 45 79 46 81 47 41 48 84 49 78 50 77 51 42 53
REMARK SMILES IDX 68 54 51 55 67 56 52 57 55 58 66 59 82 60 53 61 54 62 65 64
REMARK SMILES IDX 83 65 56 66 43 67 44 68 49 69 45 70 46 71 48 72 50 73 47 74
REMARK SMILES IDX 69 75 70 76 75 77 71 78 72 79 74 80 76 81 73 82 57 83 58 84
REMARK SMILES IDX 63 85 59 86 60 87 62 88 64 89 61 90
REMARK H PARENT 81 52 55 63
REMARK Flexibility Score: inf
ROOT
ATOM      1  C   UNL     1      -1.903   8.073   6.061  1.00  0.00     0.188 C 
ENDROOT
BRANCH   1   2
ATOM      2  O   UNL     1      -1.976   7.174   4.952  1.00  0.00    -0.377 OA
BRANCH   2   3
ATOM      3  C   UNL     1      -0.823   7.026   4.136  1.00  0.00     0.188 C 
BRANCH   3   4
ATOM      4  C   UNL     1      -0.641   8.175   3.125  1.00  0.00     0.188 C 
BRANCH   4   5
ATOM      5  O   UNL     1      -1.393   9.329   3.460  1.00  0.00    -0.376 OA
BRANCH   5   6
ATOM      6  C   UNL     1      -2.669   9.551   2.885  1.00  0.00     0.202 C 
BRANCH   6   7
ATOM      7  C   UNL     1      -3.743   8.451   2.783  1.00  0.00     0.261 C 
BRANCH   7   8
ATOM      8  O   UNL     1      -3.288   7.120   2.529  1.00  0.00    -0.460 OA
BRANCH   8   9
ATOM      9  C   UNL     1      -2.909   6.817   1.274  1.00  0.00     0.338 C 
ATOM     10  O   UNL     1      -2.941   7.551   0.304  1.00  0.00    -0.246 OA
BRANCH   9  11
ATOM     11  C   UNL     1      -2.277   5.480   1.310  1.00  0.00     0.087 C 
ATOM     12  C   UNL     1       1.112   0.052   0.112  1.00  0.00     0.046 C 
ATOM     13  C   UNL     1       0.598   1.441   0.400  1.00  0.00    -0.026 A 
ATOM     14  C   UNL     1       1.257   2.565  -0.137  1.00  0.00     0.045 A 
ATOM     15  C   UNL     1      -0.611   1.643   1.117  1.00  0.00    -0.004 A 
ATOM     16  Cl  UNL     1       2.716   2.429  -1.060  1.00  0.00    -0.084 Cl
ATOM     17  C   UNL     1       0.732   3.850   0.010  1.00  0.00     0.032 A 
ATOM     18  C   UNL     1      -1.112   2.955   1.279  1.00  0.00     0.131 A 
ATOM     19  C   UNL     1      -1.404   0.505   1.715  1.00  0.00     0.049 C 
ATOM     20  C   UNL     1      -0.472   4.043   0.684  1.00  0.00     0.019 A 
ATOM     21  O   UNL     1      -2.255   3.088   2.019  1.00  0.00    -0.475 OA
ATOM     22  C   UNL     1      -1.102   5.351   0.683  1.00  0.00     0.027 C 
ATOM     23  C   UNL     1      -2.926   4.374   2.099  1.00  0.00     0.316 C 
BRANCH  23  24
ATOM     24  C   UNL     1      -4.394   4.160   1.709  1.00  0.00     0.430 C 
ATOM     25  F   UNL     1      -4.935   3.113   2.380  1.00  0.00    -0.167 F 
ATOM     26  F   UNL     1      -5.162   5.238   1.994  1.00  0.00    -0.167 F 
ATOM     27  F   UNL     1      -4.529   3.906   0.387  1.00  0.00    -0.167 F 
ENDBRANCH  23  24
ENDBRANCH   9  11
ENDBRANCH   8   9
ENDBRANCH   7   8
ENDBRANCH   6   7
ENDBRANCH   5   6
ENDBRANCH   4   5
ENDBRANCH   3   4
ENDBRANCH   2   3
ENDBRANCH   1   2
BRANCH   1  28
ATOM     28  C   UNL     1      -0.808   9.164   6.176  1.00  0.00     0.188 C 
BRANCH  28  29
ATOM     29  O   UNL     1       0.475   8.757   5.721  1.00  0.00    -0.376 OA
BRANCH  29  30
ATOM     30  C   UNL     1       1.478   8.509   6.692  1.00  0.00     0.202 C 
BRANCH  30  31
ATOM     31  C   UNL     1       1.275   7.255   7.551  1.00  0.00     0.261 C 
BRANCH  31  32
ATOM     32  O   UNL     1       0.045   7.201   8.290  1.00  0.00    -0.460 OA
BRANCH  32  33
ATOM     33  C   UNL     1      -0.158   8.149   9.229  1.00  0.00     0.338 C 
ATOM     34  O   UNL     1       0.605   9.040   9.559  1.00  0.00    -0.246 OA
BRANCH  33  35
ATOM     35  C   UNL     1      -1.565   8.041   9.667  1.00  0.00     0.060 A 
ATOM     36  C   UNL     1      -2.422   9.134   9.484  1.00  0.00     0.016 A 
ATOM     37  C   UNL     1      -2.036   6.856  10.236  1.00  0.00     0.016 A 
ATOM     38  C   UNL     1      -3.751   9.053   9.902  1.00  0.00     0.010 A 
ATOM     39  C   UNL     1      -3.359   6.785  10.677  1.00  0.00     0.010 A 
ATOM     40  C   UNL     1      -4.212   7.895  10.541  1.00  0.00    -0.014 A 
BRANCH  40  41
ATOM     41  C   UNL     1      -5.505   7.924  11.265  1.00  0.00     0.031 A 
ATOM     42  C   UNL     1      -5.482   8.237  12.736  1.00  0.00     0.074 A 
ATOM     43  C   UNL     1      -6.673   7.713  10.634  1.00  0.00     0.049 A 
ATOM     44  N   UNL     1      -6.469   8.284  13.591  1.00  0.00    -0.248 NA
ATOM     45  C   UNL     1      -4.164   8.544  13.319  1.00  0.00     0.031 C 
ATOM     46  C   UNL     1      -6.830   7.458   9.204  1.00  0.00     0.029 A 
ATOM     47  N   UNL     1      -7.955   7.682  11.126  1.00  0.00    -0.354 N 
ATOM     48  C   UNL     1      -5.894   8.630  14.807  1.00  0.00     0.074 A 
ATOM     49  C   UNL     1      -4.470   8.744  14.592  1.00  0.00     0.031 C 
ATOM     50  C   UNL     1      -8.138   7.294   8.934  1.00  0.00     0.029 A 
ATOM     51  C   UNL     1      -8.905   7.399  10.175  1.00  0.00     0.049 A 
ATOM     52  H   UNL     1      -8.172   7.848  12.072  1.00  0.00     0.167 HD
ATOM     53  C   UNL     1      -6.503   8.851  15.995  1.00  0.00     0.037 A 
ATOM     54  C   UNL     1     -10.236   7.228  10.301  1.00  0.00     0.037 A 
ATOM     55  C   UNL     1      -7.919   8.730  16.211  1.00  0.00     0.049 A 
ATOM     56  C   UNL     1     -10.876   7.371  11.659  1.00  0.00     0.074 A 
ATOM     57  C   UNL     1      -8.628   8.925  17.383  1.00  0.00     0.029 A 
ATOM     58  N   UNL     1      -8.839   8.381  15.236  1.00  0.00    -0.354 N 
ATOM     59  N   UNL     1     -10.327   7.705  12.802  1.00  0.00    -0.248 NA
ATOM     60  C   UNL     1     -12.321   7.110  11.746  1.00  0.00     0.031 C 
ATOM     61  C   UNL     1      -9.973   8.643  17.128  1.00  0.00     0.029 A 
ATOM     62  C   UNL     1     -10.108   8.330  15.785  1.00  0.00     0.049 A 
ATOM     63  H   UNL     1      -8.623   8.197  14.293  1.00  0.00     0.167 HD
ATOM     64  C   UNL     1     -11.360   7.723  13.733  1.00  0.00     0.074 A 
ATOM     65  C   UNL     1     -12.571   7.380  13.020  1.00  0.00     0.031 C 
ATOM     66  C   UNL     1     -11.309   7.999  15.060  1.00  0.00     0.037 A 
BRANCH  53  67
ATOM     67  C   UNL     1      -5.640   9.238  17.159  1.00  0.00     0.057 A 
ATOM     68  C   UNL     1      -5.055  10.507  17.250  1.00  0.00     0.134 A 
ATOM     69  C   UNL     1      -5.446   8.356  18.230  1.00  0.00     0.134 A 
ATOM     70  F   UNL     1      -5.188  11.391  16.249  1.00  0.00    -0.206 F 
ATOM     71  C   UNL     1      -4.302  10.884  18.363  1.00  0.00     0.040 A 
ATOM     72  C   UNL     1      -4.717   8.731  19.359  1.00  0.00     0.040 A 
ATOM     73  F   UNL     1      -5.979   7.125  18.204  1.00  0.00    -0.206 F 
ATOM     74  C   UNL     1      -4.142   9.998  19.427  1.00  0.00     0.006 A 
ENDBRANCH  53  67
BRANCH  54  75
ATOM     75  C   UNL     1     -11.063   6.899   9.110  1.00  0.00     0.057 A 
ATOM     76  C   UNL     1     -12.005   7.806   8.611  1.00  0.00     0.134 A 
ATOM     77  C   UNL     1     -10.947   5.667   8.455  1.00  0.00     0.134 A 
ATOM     78  F   UNL     1     -12.184   8.992   9.210  1.00  0.00    -0.206 F 
ATOM     79  C   UNL     1     -12.811   7.495   7.513  1.00  0.00     0.040 A 
ATOM     80  C   UNL     1     -11.726   5.354   7.340  1.00  0.00     0.040 A 
ATOM     81  F   UNL     1     -10.067   4.750   8.885  1.00  0.00    -0.206 F 
ATOM     82  C   UNL     1     -12.667   6.268   6.869  1.00  0.00     0.006 A 
ENDBRANCH  54  75
BRANCH  66  83
ATOM     83  C   UNL     1     -12.595   7.971  15.834  1.00  0.00     0.057 A 
ATOM     84  C   UNL     1     -13.245   6.770  16.143  1.00  0.00     0.134 A 
ATOM     85  C   UNL     1     -13.140   9.153  16.354  1.00  0.00     0.134 A 
ATOM     86  F   UNL     1     -12.778   5.604  15.671  1.00  0.00    -0.206 F 
ATOM     87  C   UNL     1     -14.396   6.746  16.931  1.00  0.00     0.040 A 
ATOM     88  C   UNL     1     -14.274   9.139  17.167  1.00  0.00     0.040 A 
ATOM     89  F   UNL     1     -12.560  10.338  16.108  1.00  0.00    -0.206 F 
ATOM     90  C   UNL     1     -14.908   7.933  17.455  1.00  0.00     0.006 A 
ENDBRANCH  66  83
ENDBRANCH  40  41
ENDBRANCH  33  35
ENDBRANCH  32  33
ENDBRANCH  31  32
ENDBRANCH  30  31
ENDBRANCH  29  30
ENDBRANCH  28  29
ENDBRANCH   1  28
TORSDOF 21
