REMARK SMILES CCOc1ncccc1C(=O)N1CCC[C@](CC)(C(=O)OCCOCCOCCOCCOC(=O)c2ccc(-c3c4nc(c(-c5c(F)cccc5F)c5ccc([nH]5)c(-c5c(F)cccc5F)c5nc(c(-c6c(F)cccc6F)c6ccc3[nH]6)C=C5)C=C4)cc2)C1
REMARK SMILES IDX 26 1 25 2 24 3 23 4 22 5 21 6 19 7 20 8 16 9 12 10 13 11
REMARK SMILES IDX 90 12 14 13 15 14 10 15 11 16 9 17 4 18 5 19 6 20 8 21 7 22
REMARK SMILES IDX 3 23 2 24 1 25 17 26 18 27 27 28 28 29 29 30 30 31 31 32
REMARK SMILES IDX 32 33 33 34 34 35 35 36 36 37 37 38 89 39 38 40 88 41 39 42
REMARK SMILES IDX 40 43 41 44 82 45 42 46 87 47 81 48 83 49 43 50 86 51 80 52
REMARK SMILES IDX 79 53 44 55 70 56 53 57 69 58 54 59 57 60 68 61 84 62 55 63
REMARK SMILES IDX 56 64 67 66 85 67 58 68 45 69 46 70 51 71 47 72 48 73 50 74
REMARK SMILES IDX 52 75 49 76 71 77 72 78 77 79 73 80 74 81 76 82 78 83 75 84
REMARK SMILES IDX 59 85 60 86 65 87 61 88 62 89 64 90 66 91 63 92
REMARK H PARENT 83 54 57 65
REMARK Flexibility Score: inf
ROOT
ATOM      1  C   UNL     1       3.663  -2.747  -3.828  1.00  0.00     0.188 C 
ENDROOT
BRANCH   1   2
ATOM      2  C   UNL     1       2.808  -2.735  -2.559  1.00  0.00     0.188 C 
BRANCH   2   3
ATOM      3  O   UNL     1       1.433  -2.949  -2.803  1.00  0.00    -0.376 OA
BRANCH   3   4
ATOM      4  C   UNL     1       0.605  -1.899  -3.280  1.00  0.00     0.202 C 
BRANCH   4   5
ATOM      5  C   UNL     1       1.065  -0.672  -4.107  1.00  0.00     0.261 C 
BRANCH   5   6
ATOM      6  O   UNL     1       2.407  -0.172  -3.964  1.00  0.00    -0.463 OA
BRANCH   6   7
ATOM      7  C   UNL     1       2.678   0.435  -2.796  1.00  0.00     0.313 C 
ATOM      8  O   UNL     1       1.841   0.507  -1.906  1.00  0.00    -0.252 OA
BRANCH   7   9
ATOM      9  C   UNL     1       4.070   1.098  -2.723  1.00  0.00     0.085 C 
ATOM     10  N   UNL     1       3.589   2.159  -0.472  1.00  0.00    -0.337 N 
ATOM     11  C   UNL     1       3.448   3.471  -1.097  1.00  0.00     0.120 C 
ATOM     12  C   UNL     1       4.402   1.181  -1.198  1.00  0.00     0.138 C 
ATOM     13  C   UNL     1       3.008   3.393  -2.554  1.00  0.00     0.023 C 
ATOM     14  C   UNL     1       3.940   2.493  -3.355  1.00  0.00     0.022 C 
BRANCH  10  15
ATOM     15  C   UNL     1       2.883   1.915   0.719  1.00  0.00     0.259 C 
ATOM     16  O   UNL     1       1.985   2.664   1.100  1.00  0.00    -0.269 OA
BRANCH  15  17
ATOM     17  C   UNL     1       3.309   0.832   1.646  1.00  0.00     0.102 A 
ATOM     18  C   UNL     1       2.393   0.099   2.402  1.00  0.00     0.226 A 
ATOM     19  N   UNL     1       2.745  -0.737   3.417  1.00  0.00    -0.221 NA
ATOM     20  C   UNL     1       4.058  -0.835   3.706  1.00  0.00     0.115 A 
ATOM     21  C   UNL     1       4.666   0.671   1.956  1.00  0.00     0.021 A 
ATOM     22  C   UNL     1       5.047  -0.171   3.001  1.00  0.00     0.021 A 
BRANCH  18  23
ATOM     23  O   UNL     1       1.045   0.282   2.245  1.00  0.00    -0.477 OA
BRANCH  23  24
ATOM     24  C   UNL     1       0.398  -0.902   1.778  1.00  0.00     0.228 C 
ATOM     25  C   UNL     1       0.278  -0.827   0.272  1.00  0.00     0.049 C 
ENDBRANCH  23  24
ENDBRANCH  18  23
ENDBRANCH  15  17
ENDBRANCH  10  15
BRANCH   9  26
ATOM     26  C   UNL     1       5.277   0.359  -3.374  1.00  0.00     0.017 C 
ATOM     27  C   UNL     1       5.307   0.214  -4.896  1.00  0.00     0.005 C 
ENDBRANCH   9  26
ENDBRANCH   7   9
ENDBRANCH   6   7
ENDBRANCH   5   6
ENDBRANCH   4   5
ENDBRANCH   3   4
ENDBRANCH   2   3
ENDBRANCH   1   2
BRANCH   1  28
ATOM     28  O   UNL     1       2.936  -2.586  -5.026  1.00  0.00    -0.377 OA
BRANCH  28  29
ATOM     29  C   UNL     1       2.321  -3.725  -5.599  1.00  0.00     0.188 C 
BRANCH  29  30
ATOM     30  C   UNL     1       2.113  -5.026  -4.795  1.00  0.00     0.188 C 
BRANCH  30  31
ATOM     31  O   UNL     1       3.139  -5.337  -3.863  1.00  0.00    -0.376 OA
BRANCH  31  32
ATOM     32  C   UNL     1       4.130  -6.282  -4.232  1.00  0.00     0.202 C 
BRANCH  32  33
ATOM     33  C   UNL     1       5.156  -5.846  -5.292  1.00  0.00     0.261 C 
BRANCH  33  34
ATOM     34  O   UNL     1       4.622  -5.429  -6.556  1.00  0.00    -0.460 OA
BRANCH  34  35
ATOM     35  C   UNL     1       3.911  -6.344  -7.258  1.00  0.00     0.338 C 
ATOM     36  O   UNL     1       3.701  -7.494  -6.962  1.00  0.00    -0.246 OA
BRANCH  35  37
ATOM     37  C   UNL     1       3.259  -5.629  -8.382  1.00  0.00     0.060 A 
ATOM     38  C   UNL     1       1.859  -5.621  -8.450  1.00  0.00     0.016 A 
ATOM     39  C   UNL     1       4.019  -4.941  -9.330  1.00  0.00     0.016 A 
ATOM     40  C   UNL     1       1.214  -4.950  -9.489  1.00  0.00     0.010 A 
ATOM     41  C   UNL     1       3.373  -4.298 -10.389  1.00  0.00     0.010 A 
ATOM     42  C   UNL     1       1.971  -4.328 -10.491  1.00  0.00    -0.014 A 
BRANCH  42  43
ATOM     43  C   UNL     1       1.318  -3.920 -11.757  1.00  0.00     0.031 A 
ATOM     44  C   UNL     1       1.351  -4.890 -12.906  1.00  0.00     0.074 A 
ATOM     45  C   UNL     1       0.707  -2.730 -11.891  1.00  0.00     0.049 A 
ATOM     46  N   UNL     1       0.927  -4.742 -14.134  1.00  0.00    -0.248 NA
ATOM     47  C   UNL     1       1.950  -6.206 -12.629  1.00  0.00     0.031 C 
ATOM     48  C   UNL     1       0.565  -1.726 -10.840  1.00  0.00     0.029 A 
ATOM     49  N   UNL     1       0.102  -2.163 -12.986  1.00  0.00    -0.354 N 
ATOM     50  C   UNL     1       1.220  -5.939 -14.777  1.00  0.00     0.074 A 
ATOM     51  C   UNL     1       1.878  -6.792 -13.813  1.00  0.00     0.031 C 
ATOM     52  C   UNL     1      -0.067  -0.652 -11.349  1.00  0.00     0.029 A 
ATOM     53  C   UNL     1      -0.341  -0.881 -12.767  1.00  0.00     0.049 A 
ATOM     54  H   UNL     1      -0.005  -2.631 -13.845  1.00  0.00     0.167 HD
ATOM     55  C   UNL     1       0.960  -6.296 -16.056  1.00  0.00     0.037 A 
ATOM     56  C   UNL     1      -0.874   0.011 -13.625  1.00  0.00     0.037 A 
ATOM     57  C   UNL     1       0.308  -5.443 -17.013  1.00  0.00     0.049 A 
ATOM     58  C   UNL     1      -1.081  -0.380 -15.068  1.00  0.00     0.074 A 
ATOM     59  C   UNL     1      -0.020  -5.719 -18.328  1.00  0.00     0.029 A 
ATOM     60  N   UNL     1      -0.102  -4.143 -16.760  1.00  0.00    -0.354 N 
ATOM     61  N   UNL     1      -0.828  -1.522 -15.662  1.00  0.00    -0.248 NA
ATOM     62  C   UNL     1      -1.648   0.642 -15.960  1.00  0.00     0.031 C 
ATOM     63  C   UNL     1      -0.572  -4.564 -18.890  1.00  0.00     0.029 A 
ATOM     64  C   UNL     1      -0.650  -3.592 -17.906  1.00  0.00     0.049 A 
ATOM     65  H   UNL     1      -0.015  -3.680 -15.895  1.00  0.00     0.167 HD
ATOM     66  C   UNL     1      -1.235  -1.366 -16.982  1.00  0.00     0.074 A 
ATOM     67  C   UNL     1      -1.760  -0.023 -17.101  1.00  0.00     0.031 C 
ATOM     68  C   UNL     1      -1.181  -2.256 -18.005  1.00  0.00     0.037 A 
BRANCH  55  69
ATOM     69  C   UNL     1       1.417  -7.653 -16.502  1.00  0.00     0.057 A 
ATOM     70  C   UNL     1       0.809  -8.831 -16.048  1.00  0.00     0.134 A 
ATOM     71  C   UNL     1       2.464  -7.781 -17.423  1.00  0.00     0.134 A 
ATOM     72  F   UNL     1      -0.188  -8.780 -15.151  1.00  0.00    -0.206 F 
ATOM     73  C   UNL     1       1.240 -10.087 -16.478  1.00  0.00     0.040 A 
ATOM     74  C   UNL     1       2.885  -9.029 -17.883  1.00  0.00     0.040 A 
ATOM     75  F   UNL     1       3.090  -6.693 -17.898  1.00  0.00    -0.206 F 
ATOM     76  C   UNL     1       2.276 -10.187 -17.405  1.00  0.00     0.006 A 
ENDBRANCH  55  69
BRANCH  56  77
ATOM     77  C   UNL     1      -1.226   1.379 -13.160  1.00  0.00     0.057 A 
ATOM     78  C   UNL     1      -2.555   1.815 -13.116  1.00  0.00     0.134 A 
ATOM     79  C   UNL     1      -0.236   2.297 -12.785  1.00  0.00     0.134 A 
ATOM     80  F   UNL     1      -3.547   0.993 -13.488  1.00  0.00    -0.206 F 
ATOM     81  C   UNL     1      -2.887   3.117 -12.737  1.00  0.00     0.040 A 
ATOM     82  C   UNL     1      -0.555   3.593 -12.377  1.00  0.00     0.040 A 
ATOM     83  F   UNL     1       1.058   1.945 -12.807  1.00  0.00    -0.206 F 
ATOM     84  C   UNL     1      -1.885   4.009 -12.361  1.00  0.00     0.006 A 
ENDBRANCH  56  77
BRANCH  68  85
ATOM     85  C   UNL     1      -1.746  -1.829 -19.330  1.00  0.00     0.057 A 
ATOM     86  C   UNL     1      -1.107  -0.884 -20.143  1.00  0.00     0.134 A 
ATOM     87  C   UNL     1      -2.917  -2.420 -19.825  1.00  0.00     0.134 A 
ATOM     88  F   UNL     1       0.013  -0.274 -19.725  1.00  0.00    -0.206 F 
ATOM     89  C   UNL     1      -1.623  -0.526 -21.390  1.00  0.00     0.040 A 
ATOM     90  C   UNL     1      -3.426  -2.093 -21.083  1.00  0.00     0.040 A 
ATOM     91  F   UNL     1      -3.572  -3.342 -19.104  1.00  0.00    -0.206 F 
ATOM     92  C   UNL     1      -2.781  -1.138 -21.866  1.00  0.00     0.006 A 
ENDBRANCH  68  85
ENDBRANCH  42  43
ENDBRANCH  35  37
ENDBRANCH  34  35
ENDBRANCH  33  34
ENDBRANCH  32  33
ENDBRANCH  31  32
ENDBRANCH  30  31
ENDBRANCH  29  30
ENDBRANCH  28  29
ENDBRANCH   1  28
TORSDOF 25
