REMARK SMILES O=C(CCOc1cccc(/C=C2\CCn3c2nc2cc(Cl)ccc2c3=O)c1)OCCOCCOCCOCCOC(=O)c1ccc(-c2c3nc(c(-c4c(F)cccc4F)c4ccc([nH]4)c(-c4c(F)cccc4F)c4nc(c(-c5c(F)cccc5F)c5ccc2[nH]5)C=C4)C=C3)cc1
REMARK SMILES IDX 33 1 32 2 31 3 30 4 29 5 28 6 2 7 1 8 3 9 4 10 5 11 6 12
REMARK SMILES IDX 7 13 27 14 8 15 10 16 9 17 11 18 12 19 13 20 16 21 14 22
REMARK SMILES IDX 15 23 17 24 25 25 18 26 24 27 26 28 19 29 23 30 20 31 22 32
REMARK SMILES IDX 21 33 34 34 35 35 36 36 37 37 38 38 39 39 40 40 41 41 42 42
REMARK SMILES IDX 43 43 44 44 96 45 45 46 95 47 46 48 47 49 48 50 89 51 49 52
REMARK SMILES IDX 94 53 88 54 90 55 50 56 93 57 87 58 86 59 51 61 77 62 60 63
REMARK SMILES IDX 76 64 61 65 64 66 75 67 91 68 62 69 63 70 74 72 92 73 65 74
REMARK SMILES IDX 52 75 53 76 58 77 54 78 55 79 57 80 59 81 56 82 78 83 79 84
REMARK SMILES IDX 84 85 80 86 81 87 83 88 85 89 82 90 66 91 67 92 72 93 68 94
REMARK SMILES IDX 69 95 71 96 73 97 70 98
REMARK H PARENT 90 60 64 71
REMARK Flexibility Score: inf
ROOT
ATOM      1  C   UNL     1       3.023  -0.190   2.459  1.00  0.00     0.188 C 
ENDROOT
BRANCH   1   2
ATOM      2  C   UNL     1       3.171  -1.606   1.873  1.00  0.00     0.188 C 
BRANCH   2   3
ATOM      3  O   UNL     1       4.040  -1.873   0.766  1.00  0.00    -0.376 OA
BRANCH   3   4
ATOM      4  C   UNL     1       5.131  -0.998   0.516  1.00  0.00     0.202 C 
BRANCH   4   5
ATOM      5  C   UNL     1       4.736   0.252  -0.284  1.00  0.00     0.261 C 
BRANCH   5   6
ATOM      6  O   UNL     1       3.312   0.458  -0.387  1.00  0.00    -0.463 OA
BRANCH   6   7
ATOM      7  C   UNL     1       2.483  -0.360  -1.071  1.00  0.00     0.309 C 
ATOM      8  O   UNL     1       1.263  -0.232  -0.968  1.00  0.00    -0.252 OA
BRANCH   7   9
ATOM      9  C   UNL     1       3.073  -1.349  -2.033  1.00  0.00     0.164 C 
BRANCH   9  10
ATOM     10  C   UNL     1       3.053  -0.807  -3.453  1.00  0.00     0.241 C 
BRANCH  10  11
ATOM     11  O   UNL     1       4.136   0.084  -3.728  1.00  0.00    -0.493 OA
BRANCH  11  12
ATOM     12  C   UNL     1       4.021   1.416  -3.436  1.00  0.00     0.119 A 
ATOM     13  C   UNL     1       5.221   2.118  -3.542  1.00  0.00     0.046 A 
ATOM     14  C   UNL     1       2.880   2.077  -2.963  1.00  0.00     0.054 A 
ATOM     15  C   UNL     1       5.285   3.453  -3.167  1.00  0.00     0.004 A 
ATOM     16  C   UNL     1       2.943   3.400  -2.478  1.00  0.00    -0.022 A 
ATOM     17  C   UNL     1       4.157   4.081  -2.634  1.00  0.00     0.008 A 
BRANCH  16  18
ATOM     18  C   UNL     1       1.818   3.853  -1.606  1.00  0.00     0.015 C 
ATOM     19  C   UNL     1       1.745   4.950  -0.823  1.00  0.00    -0.003 C 
ATOM     20  C   UNL     1       2.586   6.185  -0.723  1.00  0.00     0.061 C 
ATOM     21  C   UNL     1       1.472   4.589   0.608  1.00  0.00     0.139 A 
ATOM     22  C   UNL     1       3.473   5.817   0.456  1.00  0.00     0.132 C 
ATOM     23  N   UNL     1       2.632   4.968   1.267  1.00  0.00    -0.292 N 
ATOM     24  N   UNL     1       0.485   3.987   1.172  1.00  0.00    -0.230 NA
ATOM     25  C   UNL     1       3.038   4.306   2.389  1.00  0.00     0.261 A 
ATOM     26  C   UNL     1       0.667   3.659   2.537  1.00  0.00     0.080 A 
ATOM     27  C   UNL     1       1.937   3.667   3.124  1.00  0.00     0.066 A 
ATOM     28  O   UNL     1       4.197   4.210   2.769  1.00  0.00    -0.269 OA
ATOM     29  C   UNL     1      -0.412   3.254   3.323  1.00  0.00     0.049 A 
ATOM     30  C   UNL     1       2.158   3.172   4.406  1.00  0.00     0.017 A 
ATOM     31  C   UNL     1      -0.200   2.813   4.636  1.00  0.00     0.043 A 
ATOM     32  C   UNL     1       1.086   2.733   5.169  1.00  0.00     0.021 A 
ATOM     33  Cl  UNL     1      -1.536   2.355   5.619  1.00  0.00    -0.084 Cl
ENDBRANCH  16  18
ENDBRANCH  11  12
ENDBRANCH  10  11
ENDBRANCH   9  10
ENDBRANCH   7   9
ENDBRANCH   6   7
ENDBRANCH   5   6
ENDBRANCH   4   5
ENDBRANCH   3   4
ENDBRANCH   2   3
ENDBRANCH   1   2
BRANCH   1  34
ATOM     34  O   UNL     1       4.241   0.533   2.486  1.00  0.00    -0.377 OA
BRANCH  34  35
ATOM     35  C   UNL     1       4.892   0.639   3.735  1.00  0.00     0.188 C 
BRANCH  35  36
ATOM     36  C   UNL     1       5.494  -0.643   4.325  1.00  0.00     0.188 C 
BRANCH  36  37
ATOM     37  O   UNL     1       4.638  -1.725   4.627  1.00  0.00    -0.376 OA
BRANCH  37  38
ATOM     38  C   UNL     1       3.597  -1.668   5.584  1.00  0.00     0.202 C 
BRANCH  38  39
ATOM     39  C   UNL     1       3.543  -0.709   6.784  1.00  0.00     0.261 C 
BRANCH  39  40
ATOM     40  O   UNL     1       3.890   0.658   6.540  1.00  0.00    -0.460 OA
BRANCH  40  41
ATOM     41  C   UNL     1       5.066   1.066   7.085  1.00  0.00     0.338 C 
ATOM     42  O   UNL     1       5.854   0.395   7.722  1.00  0.00    -0.246 OA
BRANCH  41  43
ATOM     43  C   UNL     1       5.351   2.449   6.651  1.00  0.00     0.060 A 
ATOM     44  C   UNL     1       6.527   2.699   5.932  1.00  0.00     0.016 A 
ATOM     45  C   UNL     1       4.481   3.493   6.967  1.00  0.00     0.016 A 
ATOM     46  C   UNL     1       6.848   4.002   5.543  1.00  0.00     0.010 A 
ATOM     47  C   UNL     1       4.798   4.796   6.569  1.00  0.00     0.010 A 
ATOM     48  C   UNL     1       6.006   5.064   5.896  1.00  0.00    -0.014 A 
BRANCH  48  49
ATOM     49  C   UNL     1       6.513   6.461   5.840  1.00  0.00     0.031 A 
ATOM     50  C   UNL     1       7.033   7.056   7.121  1.00  0.00     0.074 A 
ATOM     51  C   UNL     1       6.546   7.189   4.710  1.00  0.00     0.049 A 
ATOM     52  N   UNL     1       7.483   8.259   7.359  1.00  0.00    -0.248 NA
ATOM     53  C   UNL     1       7.045   6.164   8.294  1.00  0.00     0.031 C 
ATOM     54  C   UNL     1       6.153   6.721   3.388  1.00  0.00     0.029 A 
ATOM     55  N   UNL     1       6.927   8.494   4.500  1.00  0.00    -0.354 N 
ATOM     56  C   UNL     1       7.832   8.266   8.703  1.00  0.00     0.074 A 
ATOM     57  C   UNL     1       7.491   6.970   9.242  1.00  0.00     0.031 C 
ATOM     58  C   UNL     1       6.272   7.730   2.507  1.00  0.00     0.029 A 
ATOM     59  C   UNL     1       6.746   8.920   3.206  1.00  0.00     0.049 A 
ATOM     60  H   UNL     1       7.295   9.068   5.210  1.00  0.00     0.167 HD
ATOM     61  C   UNL     1       8.410   9.254   9.423  1.00  0.00     0.037 A 
ATOM     62  C   UNL     1       6.934  10.133   2.651  1.00  0.00     0.037 A 
ATOM     63  C   UNL     1       8.755  10.543   8.894  1.00  0.00     0.049 A 
ATOM     64  C   UNL     1       7.482  11.253   3.495  1.00  0.00     0.074 A 
ATOM     65  C   UNL     1       9.360  11.605   9.541  1.00  0.00     0.029 A 
ATOM     66  N   UNL     1       8.515  10.948   7.590  1.00  0.00    -0.354 N 
ATOM     67  N   UNL     1       7.842  11.238   4.755  1.00  0.00    -0.248 NA
ATOM     68  C   UNL     1       7.668  12.554   2.835  1.00  0.00     0.031 C 
ATOM     69  C   UNL     1       9.442  12.672   8.640  1.00  0.00     0.029 A 
ATOM     70  C   UNL     1       8.934  12.257   7.420  1.00  0.00     0.049 A 
ATOM     71  H   UNL     1       8.108  10.389   6.890  1.00  0.00     0.167 HD
ATOM     72  C   UNL     1       8.332  12.510   5.028  1.00  0.00     0.074 A 
ATOM     73  C   UNL     1       8.226  13.271   3.801  1.00  0.00     0.031 C 
ATOM     74  C   UNL     1       8.832  12.999   6.189  1.00  0.00     0.037 A 
BRANCH  61  75
ATOM     75  C   UNL     1       8.678   8.968  10.869  1.00  0.00     0.057 A 
ATOM     76  C   UNL     1       9.678   8.071  11.272  1.00  0.00     0.134 A 
ATOM     77  C   UNL     1       7.917   9.582  11.869  1.00  0.00     0.134 A 
ATOM     78  F   UNL     1      10.424   7.430  10.360  1.00  0.00    -0.206 F 
ATOM     79  C   UNL     1       9.889   7.774  12.619  1.00  0.00     0.040 A 
ATOM     80  C   UNL     1       8.138   9.314  13.220  1.00  0.00     0.040 A 
ATOM     81  F   UNL     1       6.942  10.447  11.549  1.00  0.00    -0.206 F 
ATOM     82  C   UNL     1       9.120   8.401  13.598  1.00  0.00     0.006 A 
ENDBRANCH  61  75
BRANCH  62  83
ATOM     83  C   UNL     1       6.612  10.360   1.218  1.00  0.00     0.057 A 
ATOM     84  C   UNL     1       7.620  10.585   0.274  1.00  0.00     0.134 A 
ATOM     85  C   UNL     1       5.287  10.394   0.764  1.00  0.00     0.134 A 
ATOM     86  F   UNL     1       8.907  10.587   0.649  1.00  0.00    -0.206 F 
ATOM     87  C   UNL     1       7.324  10.857  -1.064  1.00  0.00     0.040 A 
ATOM     88  C   UNL     1       4.977  10.646  -0.575  1.00  0.00     0.040 A 
ATOM     89  F   UNL     1       4.272  10.180   1.615  1.00  0.00    -0.206 F 
ATOM     90  C   UNL     1       5.998  10.886  -1.491  1.00  0.00     0.006 A 
ENDBRANCH  62  83
BRANCH  74  91
ATOM     91  C   UNL     1       9.341  14.410   6.184  1.00  0.00     0.057 A 
ATOM     92  C   UNL     1       8.476  15.510   6.133  1.00  0.00     0.134 A 
ATOM     93  C   UNL     1      10.714  14.671   6.287  1.00  0.00     0.134 A 
ATOM     94  F   UNL     1       7.152  15.328   6.022  1.00  0.00    -0.206 F 
ATOM     95  C   UNL     1       8.960  16.819   6.168  1.00  0.00     0.040 A 
ATOM     96  C   UNL     1      11.207  15.974   6.350  1.00  0.00     0.040 A 
ATOM     97  F   UNL     1      11.596  13.662   6.350  1.00  0.00    -0.206 F 
ATOM     98  C   UNL     1      10.329  17.053   6.285  1.00  0.00     0.006 A 
ENDBRANCH  74  91
ENDBRANCH  48  49
ENDBRANCH  41  43
ENDBRANCH  40  41
ENDBRANCH  39  40
ENDBRANCH  38  39
ENDBRANCH  37  38
ENDBRANCH  36  37
ENDBRANCH  35  36
ENDBRANCH  34  35
ENDBRANCH   1  34
TORSDOF 24
