REMARK SMILES O=C(COc1cc(-c2ccncc2)nc(Nc2ccccc2Br)n1)OCCOCCOCCOCCOC(=O)c1ccc(-c2c3nc(c(-c4c(F)cccc4F)c4ccc([nH]4)c(-c4c(F)cccc4F)c4nc(c(-c5c(F)cccc5F)c5ccc2[nH]5)C=C4)C=C3)cc1
REMARK SMILES IDX 30 1 29 2 28 3 27 4 26 5 25 6 2 7 1 8 3 9 4 10 5 11 6 12
REMARK SMILES IDX 24 13 7 14 15 15 14 16 8 17 9 18 13 19 10 20 12 21 11 22
REMARK SMILES IDX 16 23 17 25 18 26 22 27 19 28 21 29 23 30 20 31 31 32 32 33
REMARK SMILES IDX 33 34 34 35 35 36 36 37 37 38 38 39 39 40 40 41 41 42 93 43
REMARK SMILES IDX 42 44 92 45 43 46 44 47 45 48 86 49 46 50 91 51 85 52 87 53
REMARK SMILES IDX 47 54 90 55 84 56 83 57 48 59 74 60 57 61 73 62 58 63 61 64
REMARK SMILES IDX 72 65 88 66 59 67 60 68 71 70 89 71 62 72 49 73 50 74 55 75
REMARK SMILES IDX 51 76 52 77 54 78 56 79 53 80 75 81 76 82 81 83 77 84 78 85
REMARK SMILES IDX 80 86 82 87 79 88 63 89 64 90 69 91 65 92 66 93 68 94 70 95
REMARK SMILES IDX 67 96
REMARK H PARENT 16 24 87 58 61 69
REMARK Flexibility Score: inf
ROOT
ATOM      1  C   UNL     1       2.138   1.339   2.150  1.00  0.00     0.188 C 
ENDROOT
BRANCH   1   2
ATOM      2  C   UNL     1       2.852  -0.022   2.173  1.00  0.00     0.188 C 
BRANCH   2   3
ATOM      3  O   UNL     1       4.230  -0.018   1.843  1.00  0.00    -0.376 OA
BRANCH   3   4
ATOM      4  C   UNL     1       4.796  -0.018   0.550  1.00  0.00     0.202 C 
BRANCH   4   5
ATOM      5  C   UNL     1       4.104   0.665  -0.630  1.00  0.00     0.261 C 
BRANCH   5   6
ATOM      6  O   UNL     1       2.682   0.480  -0.762  1.00  0.00    -0.461 OA
BRANCH   6   7
ATOM      7  C   UNL     1       2.017  -0.695  -0.678  1.00  0.00     0.344 C 
ATOM      8  O   UNL     1       0.790  -0.697  -0.642  1.00  0.00    -0.248 OA
BRANCH   7   9
ATOM      9  C   UNL     1       2.829  -1.980  -0.608  1.00  0.00     0.353 C 
BRANCH   9  10
ATOM     10  O   UNL     1       3.943  -1.957  -1.504  1.00  0.00    -0.466 OA
BRANCH  10  11
ATOM     11  C   UNL     1       3.470  -2.369  -2.713  1.00  0.00     0.219 A 
ATOM     12  C   UNL     1       2.727  -1.519  -3.471  1.00  0.00     0.097 A 
ATOM     13  N   UNL     1       3.536  -3.672  -2.885  1.00  0.00    -0.177 NA
ATOM     14  C   UNL     1       1.829  -2.136  -4.306  1.00  0.00     0.080 A 
ATOM     15  C   UNL     1       2.759  -4.200  -3.825  1.00  0.00     0.231 A 
ATOM     16  N   UNL     1       1.859  -3.480  -4.527  1.00  0.00    -0.212 NA
BRANCH  14  17
ATOM     17  C   UNL     1       0.668  -1.340  -4.762  1.00  0.00     0.004 A 
ATOM     18  C   UNL     1       0.810   0.012  -5.126  1.00  0.00     0.030 A 
ATOM     19  C   UNL     1      -0.636  -1.834  -4.650  1.00  0.00     0.030 A 
ATOM     20  C   UNL     1      -0.318   0.792  -5.328  1.00  0.00     0.111 A 
ATOM     21  C   UNL     1      -1.705  -0.977  -4.880  1.00  0.00     0.111 A 
ATOM     22  N   UNL     1      -1.574   0.324  -5.216  1.00  0.00    -0.265 NA
ENDBRANCH  14  17
BRANCH  15  23
ATOM     23  N   UNL     1       2.946  -5.567  -4.058  1.00  0.00    -0.323 N 
ATOM     24  H   UNL     1       2.372  -6.020  -4.717  1.00  0.00     0.170 HD
BRANCH  23  25
ATOM     25  C   UNL     1       3.934  -6.320  -3.377  1.00  0.00     0.055 A 
ATOM     26  C   UNL     1       5.162  -6.561  -4.015  1.00  0.00     0.027 A 
ATOM     27  C   UNL     1       3.835  -6.640  -2.005  1.00  0.00     0.041 A 
ATOM     28  C   UNL     1       6.249  -7.097  -3.313  1.00  0.00     0.002 A 
ATOM     29  C   UNL     1       4.920  -7.187  -1.306  1.00  0.00     0.018 A 
ATOM     30  Br  UNL     1       2.226  -6.364  -1.021  1.00  0.00    -0.049 Br
ATOM     31  C   UNL     1       6.129  -7.409  -1.960  1.00  0.00     0.001 A 
ENDBRANCH  23  25
ENDBRANCH  15  23
ENDBRANCH  10  11
ENDBRANCH   9  10
ENDBRANCH   7   9
ENDBRANCH   6   7
ENDBRANCH   5   6
ENDBRANCH   4   5
ENDBRANCH   3   4
ENDBRANCH   2   3
ENDBRANCH   1   2
BRANCH   1  32
ATOM     32  O   UNL     1       2.767   2.381   2.887  1.00  0.00    -0.377 OA
BRANCH  32  33
ATOM     33  C   UNL     1       4.121   2.615   2.546  1.00  0.00     0.188 C 
BRANCH  33  34
ATOM     34  C   UNL     1       5.146   1.984   3.513  1.00  0.00     0.188 C 
BRANCH  34  35
ATOM     35  O   UNL     1       4.767   1.027   4.486  1.00  0.00    -0.376 OA
BRANCH  35  36
ATOM     36  C   UNL     1       3.626   1.183   5.310  1.00  0.00     0.202 C 
BRANCH  36  37
ATOM     37  C   UNL     1       3.154   2.516   5.911  1.00  0.00     0.261 C 
BRANCH  37  38
ATOM     38  O   UNL     1       3.473   3.708   5.202  1.00  0.00    -0.460 OA
BRANCH  38  39
ATOM     39  C   UNL     1       4.629   4.306   5.552  1.00  0.00     0.338 C 
ATOM     40  O   UNL     1       5.422   3.958   6.412  1.00  0.00    -0.246 OA
BRANCH  39  41
ATOM     41  C   UNL     1       4.888   5.367   4.562  1.00  0.00     0.060 A 
ATOM     42  C   UNL     1       6.094   5.344   3.845  1.00  0.00     0.016 A 
ATOM     43  C   UNL     1       3.930   6.354   4.322  1.00  0.00     0.016 A 
ATOM     44  C   UNL     1       6.362   6.327   2.900  1.00  0.00     0.010 A 
ATOM     45  C   UNL     1       4.220   7.369   3.415  1.00  0.00     0.010 A 
ATOM     46  C   UNL     1       5.453   7.377   2.738  1.00  0.00    -0.014 A 
BRANCH  46  47
ATOM     47  C   UNL     1       5.911   8.637   2.124  1.00  0.00     0.031 A 
ATOM     48  C   UNL     1       6.444   9.691   3.051  1.00  0.00     0.074 A 
ATOM     49  C   UNL     1       5.833   8.850   0.802  1.00  0.00     0.049 A 
ATOM     50  N   UNL     1       6.759  10.934   2.806  1.00  0.00    -0.248 NA
ATOM     51  C   UNL     1       6.631   9.283   4.455  1.00  0.00     0.031 C 
ATOM     52  C   UNL     1       5.391   7.875  -0.190  1.00  0.00     0.029 A 
ATOM     53  N   UNL     1       6.103   9.981   0.077  1.00  0.00    -0.354 N 
ATOM     54  C   UNL     1       7.154  11.462   4.028  1.00  0.00     0.074 A 
ATOM     55  C   UNL     1       7.020  10.416   5.015  1.00  0.00     0.031 C 
ATOM     56  C   UNL     1       5.387   8.463  -1.399  1.00  0.00     0.029 A 
ATOM     57  C   UNL     1       5.782   9.864  -1.251  1.00  0.00     0.049 A 
ATOM     58  H   UNL     1       6.489  10.796   0.470  1.00  0.00     0.167 HD
ATOM     59  C   UNL     1       7.587  12.713   4.301  1.00  0.00     0.037 A 
ATOM     60  C   UNL     1       5.769  10.799  -2.220  1.00  0.00     0.037 A 
ATOM     61  C   UNL     1       7.699  13.748   3.310  1.00  0.00     0.049 A 
ATOM     62  C   UNL     1       6.176  12.211  -1.882  1.00  0.00     0.074 A 
ATOM     63  C   UNL     1       8.133  15.050   3.468  1.00  0.00     0.029 A 
ATOM     64  N   UNL     1       7.355  13.595   1.974  1.00  0.00    -0.354 N 
ATOM     65  N   UNL     1       6.559  12.710  -0.730  1.00  0.00    -0.248 NA
ATOM     66  C   UNL     1       6.149  13.190  -2.977  1.00  0.00     0.031 C 
ATOM     67  C   UNL     1       7.994  15.704   2.240  1.00  0.00     0.029 A 
ATOM     68  C   UNL     1       7.543  14.789   1.300  1.00  0.00     0.049 A 
ATOM     69  H   UNL     1       7.027  12.761   1.566  1.00  0.00     0.167 HD
ATOM     70  C   UNL     1       6.856  14.047  -0.970  1.00  0.00     0.074 A 
ATOM     71  C   UNL     1       6.606  14.280  -2.377  1.00  0.00     0.031 C 
ATOM     72  C   UNL     1       7.304  14.993  -0.107  1.00  0.00     0.037 A 
BRANCH  59  73
ATOM     73  C   UNL     1       7.911  13.030   5.732  1.00  0.00     0.057 A 
ATOM     74  C   UNL     1       9.003  12.456   6.396  1.00  0.00     0.134 A 
ATOM     75  C   UNL     1       7.104  13.912   6.461  1.00  0.00     0.134 A 
ATOM     76  F   UNL     1       9.803  11.584   5.763  1.00  0.00    -0.206 F 
ATOM     77  C   UNL     1       9.258  12.719   7.744  1.00  0.00     0.040 A 
ATOM     78  C   UNL     1       7.369  14.210   7.798  1.00  0.00     0.040 A 
ATOM     79  F   UNL     1       6.041  14.496   5.888  1.00  0.00    -0.206 F 
ATOM     80  C   UNL     1       8.443  13.603   8.446  1.00  0.00     0.006 A 
ENDBRANCH  59  73
BRANCH  60  81
ATOM     81  C   UNL     1       5.340  10.434  -3.592  1.00  0.00     0.057 A 
ATOM     82  C   UNL     1       6.253  10.404  -4.652  1.00  0.00     0.134 A 
ATOM     83  C   UNL     1       4.010  10.098  -3.877  1.00  0.00     0.134 A 
ATOM     84  F   UNL     1       7.536  10.734  -4.447  1.00  0.00    -0.206 F 
ATOM     85  C   UNL     1       5.858  10.065  -5.948  1.00  0.00     0.040 A 
ATOM     86  C   UNL     1       3.607   9.733  -5.162  1.00  0.00     0.040 A 
ATOM     87  F   UNL     1       3.087  10.104  -2.904  1.00  0.00    -0.206 F 
ATOM     88  C   UNL     1       4.532   9.721  -6.204  1.00  0.00     0.006 A 
ENDBRANCH  60  81
BRANCH  72  89
ATOM     89  C   UNL     1       7.621  16.351  -0.664  1.00  0.00     0.057 A 
ATOM     90  C   UNL     1       6.624  17.247  -1.067  1.00  0.00     0.134 A 
ATOM     91  C   UNL     1       8.950  16.794  -0.723  1.00  0.00     0.134 A 
ATOM     92  F   UNL     1       5.333  16.883  -1.044  1.00  0.00    -0.206 F 
ATOM     93  C   UNL     1       6.938  18.529  -1.523  1.00  0.00     0.040 A 
ATOM     94  C   UNL     1       9.274  18.082  -1.148  1.00  0.00     0.040 A 
ATOM     95  F   UNL     1       9.954  15.990  -0.341  1.00  0.00    -0.206 F 
ATOM     96  C   UNL     1       8.265  18.953  -1.554  1.00  0.00     0.006 A 
ENDBRANCH  72  89
ENDBRANCH  46  47
ENDBRANCH  39  41
ENDBRANCH  38  39
ENDBRANCH  37  38
ENDBRANCH  36  37
ENDBRANCH  35  36
ENDBRANCH  34  35
ENDBRANCH  33  34
ENDBRANCH  32  33
ENDBRANCH   1  32
TORSDOF 25
