REMARK SMILES C[N@@H+]1CC2(CC[NH+](Cc3cccc(O)c3)CC2)C[C@H]1C(=O)OCCOCCOCCOCCOC(=O)c1ccc(-c2c3nc(c(-c4c(F)cccc4F)c4ccc([nH]4)c(-c4c(F)cccc4F)c4nc(c(-c5c(F)cccc5F)c5ccc2[nH]5)C=C4)C=C3)cc1
REMARK SMILES IDX 27 1 26 2 25 3 24 4 23 5 22 6 20 7 21 8 19 9 1 10 2 11 3 12
REMARK SMILES IDX 4 14 18 15 5 16 17 17 6 18 16 19 7 20 8 22 9 23 10 24 15 25
REMARK SMILES IDX 11 26 13 27 12 28 14 29 28 31 29 32 30 33 31 34 32 35 33 36
REMARK SMILES IDX 34 37 35 38 36 39 37 40 38 41 90 42 39 43 89 44 40 45 41 46
REMARK SMILES IDX 42 47 83 48 43 49 88 50 82 51 84 52 44 53 87 54 81 55 80 56
REMARK SMILES IDX 45 58 71 59 54 60 70 61 55 62 58 63 69 64 85 65 56 66 57 67
REMARK SMILES IDX 68 69 86 70 59 71 46 72 47 73 52 74 48 75 49 76 51 77 53 78
REMARK SMILES IDX 50 79 72 80 73 81 78 82 74 83 75 84 77 85 79 86 76 87 60 88
REMARK SMILES IDX 61 89 66 90 62 91 63 92 65 93 67 94 64 95
REMARK H PARENT 2 13 7 21 14 30 84 57 58 68
REMARK Flexibility Score: inf
ROOT
ATOM      1  C   UNL     1      -1.331  -3.302   0.589  1.00  0.00     0.188 C 
ENDROOT
BRANCH   1   2
ATOM      2  C   UNL     1      -0.559  -4.535   0.099  1.00  0.00     0.188 C 
BRANCH   2   3
ATOM      3  O   UNL     1      -0.583  -5.756   0.827  1.00  0.00    -0.376 OA
BRANCH   3   4
ATOM      4  C   UNL     1      -0.389  -5.798   2.234  1.00  0.00     0.202 C 
BRANCH   4   5
ATOM      5  C   UNL     1       0.683  -4.971   2.964  1.00  0.00     0.261 C 
BRANCH   5   6
ATOM      6  O   UNL     1       0.949  -3.678   2.421  1.00  0.00    -0.459 OA
BRANCH   6   7
ATOM      7  C   UNL     1       2.047  -3.572   1.638  1.00  0.00     0.365 C 
ATOM      8  O   UNL     1       2.860  -4.478   1.466  1.00  0.00    -0.245 OA
BRANCH   7   9
ATOM      9  C   UNL     1       2.226  -2.193   0.987  1.00  0.00     0.295 C 
ATOM     10  C   UNL     1       1.139  -0.354  -0.194  1.00  0.00     0.333 C 
ATOM     11  N   UNL     1       1.042  -1.310   0.906  1.00  0.00    -0.325 N 
ATOM     12  C   UNL     1       0.905  -0.660   2.211  1.00  0.00     0.270 C 
ATOM     13  H   UNL     1       0.204  -1.853   0.698  1.00  0.00     0.348 HD
ATOM     14  C   UNL     1       2.339  -0.481   2.743  1.00  0.00     0.036 C 
ATOM     15  C   UNL     1       3.195  -1.397   1.818  1.00  0.00     0.091 C 
ATOM     16  C   UNL     1       2.416  -1.003   4.203  1.00  0.00     0.075 C 
ATOM     17  C   UNL     1       2.783   0.991   2.521  1.00  0.00     0.075 C 
ATOM     18  C   UNL     1       2.430   0.072   5.276  1.00  0.00     0.263 C 
ATOM     19  C   UNL     1       2.845   1.872   3.760  1.00  0.00     0.263 C 
ATOM     20  N   UNL     1       3.293   1.200   4.965  1.00  0.00    -0.331 N 
ATOM     21  H   UNL     1       3.166   1.871   5.723  1.00  0.00     0.348 HD
BRANCH  20  22
ATOM     22  C   UNL     1       4.741   1.022   5.153  1.00  0.00     0.299 C 
BRANCH  22  23
ATOM     23  C   UNL     1       5.503   0.065   4.255  1.00  0.00     0.010 A 
ATOM     24  C   UNL     1       5.973   0.465   2.995  1.00  0.00     0.010 A 
ATOM     25  C   UNL     1       5.747  -1.258   4.657  1.00  0.00     0.055 A 
ATOM     26  C   UNL     1       6.543  -0.458   2.111  1.00  0.00     0.004 A 
ATOM     27  C   UNL     1       6.322  -2.172   3.775  1.00  0.00     0.116 A 
ATOM     28  C   UNL     1       6.702  -1.788   2.494  1.00  0.00     0.046 A 
BRANCH  27  29
ATOM     29  O   UNL     1       6.449  -3.464   4.194  1.00  0.00    -0.508 OA
ATOM     30  H   UNL     1       6.830  -4.105   3.627  1.00  0.00     0.293 HD
ENDBRANCH  27  29
ENDBRANCH  22  23
ENDBRANCH  20  22
ENDBRANCH   7   9
ENDBRANCH   6   7
ENDBRANCH   5   6
ENDBRANCH   4   5
ENDBRANCH   3   4
ENDBRANCH   2   3
ENDBRANCH   1   2
BRANCH   1  31
ATOM     31  O   UNL     1      -1.661  -3.324   1.960  1.00  0.00    -0.377 OA
BRANCH  31  32
ATOM     32  C   UNL     1      -2.999  -3.670   2.274  1.00  0.00     0.188 C 
BRANCH  32  33
ATOM     33  C   UNL     1      -3.714  -4.720   1.392  1.00  0.00     0.188 C 
BRANCH  33  34
ATOM     34  O   UNL     1      -3.575  -4.545  -0.011  1.00  0.00    -0.376 OA
BRANCH  34  35
ATOM     35  C   UNL     1      -4.556  -3.819  -0.738  1.00  0.00     0.202 C 
BRANCH  35  36
ATOM     36  C   UNL     1      -4.806  -2.337  -0.398  1.00  0.00     0.261 C 
BRANCH  36  37
ATOM     37  O   UNL     1      -5.138  -2.038   0.965  1.00  0.00    -0.460 OA
BRANCH  37  38
ATOM     38  C   UNL     1      -6.237  -2.621   1.479  1.00  0.00     0.338 C 
ATOM     39  O   UNL     1      -7.038  -3.332   0.890  1.00  0.00    -0.246 OA
BRANCH  38  40
ATOM     40  C   UNL     1      -6.215  -2.430   2.943  1.00  0.00     0.060 A 
ATOM     41  C   UNL     1      -6.196  -3.563   3.767  1.00  0.00     0.016 A 
ATOM     42  C   UNL     1      -6.213  -1.149   3.501  1.00  0.00     0.016 A 
ATOM     43  C   UNL     1      -6.227  -3.421   5.152  1.00  0.00     0.010 A 
ATOM     44  C   UNL     1      -6.274  -1.008   4.891  1.00  0.00     0.010 A 
ATOM     45  C   UNL     1      -6.325  -2.145   5.718  1.00  0.00    -0.014 A 
BRANCH  45  46
ATOM     46  C   UNL     1      -6.715  -2.020   7.142  1.00  0.00     0.031 A 
ATOM     47  C   UNL     1      -8.167  -1.784   7.461  1.00  0.00     0.074 A 
ATOM     48  C   UNL     1      -5.819  -2.166   8.133  1.00  0.00     0.049 A 
ATOM     49  N   UNL     1      -8.750  -1.622   8.621  1.00  0.00    -0.248 NA
ATOM     50  C   UNL     1      -9.086  -1.725   6.312  1.00  0.00     0.031 C 
ATOM     51  C   UNL     1      -4.397  -2.450   7.954  1.00  0.00     0.029 A 
ATOM     52  N   UNL     1      -5.981  -2.090   9.493  1.00  0.00    -0.354 N 
ATOM     53  C   UNL     1     -10.098  -1.435   8.340  1.00  0.00     0.074 A 
ATOM     54  C   UNL     1     -10.243  -1.468   6.902  1.00  0.00     0.031 C 
ATOM     55  C   UNL     1      -3.812  -2.514   9.163  1.00  0.00     0.029 A 
ATOM     56  C   UNL     1      -4.811  -2.243  10.195  1.00  0.00     0.049 A 
ATOM     57  H   UNL     1      -6.853  -1.940   9.925  1.00  0.00     0.167 HD
ATOM     58  C   UNL     1     -11.125  -1.261   9.204  1.00  0.00     0.037 A 
ATOM     59  C   UNL     1      -4.575  -2.150  11.519  1.00  0.00     0.037 A 
ATOM     60  C   UNL     1     -10.977  -1.224  10.635  1.00  0.00     0.049 A 
ATOM     61  C   UNL     1      -5.723  -1.868  12.456  1.00  0.00     0.074 A 
ATOM     62  C   UNL     1     -11.957  -1.063  11.598  1.00  0.00     0.029 A 
ATOM     63  N   UNL     1      -9.770  -1.340  11.306  1.00  0.00    -0.354 N 
ATOM     64  N   UNL     1      -6.997  -1.713  12.185  1.00  0.00    -0.248 NA
ATOM     65  C   UNL     1      -5.397  -1.753  13.885  1.00  0.00     0.031 C 
ATOM     66  C   UNL     1     -11.335  -1.019  12.850  1.00  0.00     0.029 A 
ATOM     67  C   UNL     1      -9.976  -1.223  12.671  1.00  0.00     0.049 A 
ATOM     68  H   UNL     1      -8.896  -1.484  10.877  1.00  0.00     0.167 HD
ATOM     69  C   UNL     1      -7.627  -1.518  13.409  1.00  0.00     0.074 A 
ATOM     70  C   UNL     1      -6.597  -1.587  14.424  1.00  0.00     0.031 C 
ATOM     71  C   UNL     1      -8.941  -1.303  13.671  1.00  0.00     0.037 A 
BRANCH  58  72
ATOM     72  C   UNL     1     -12.494  -1.060   8.620  1.00  0.00     0.057 A 
ATOM     73  C   UNL     1     -13.189  -2.094   7.978  1.00  0.00     0.134 A 
ATOM     74  C   UNL     1     -13.136   0.181   8.723  1.00  0.00     0.134 A 
ATOM     75  F   UNL     1     -12.626  -3.303   7.829  1.00  0.00    -0.206 F 
ATOM     76  C   UNL     1     -14.462  -1.893   7.439  1.00  0.00     0.040 A 
ATOM     77  C   UNL     1     -14.419   0.385   8.216  1.00  0.00     0.040 A 
ATOM     78  F   UNL     1     -12.528   1.214   9.327  1.00  0.00    -0.206 F 
ATOM     79  C   UNL     1     -15.083  -0.652   7.565  1.00  0.00     0.006 A 
ENDBRANCH  58  72
BRANCH  59  80
ATOM     80  C   UNL     1      -3.194  -2.305  12.044  1.00  0.00     0.057 A 
ATOM     81  C   UNL     1      -2.841  -3.388  12.858  1.00  0.00     0.134 A 
ATOM     82  C   UNL     1      -2.201  -1.355  11.773  1.00  0.00     0.134 A 
ATOM     83  F   UNL     1      -3.753  -4.319  13.176  1.00  0.00    -0.206 F 
ATOM     84  C   UNL     1      -1.560  -3.509  13.401  1.00  0.00     0.040 A 
ATOM     85  C   UNL     1      -0.908  -1.479  12.285  1.00  0.00     0.040 A 
ATOM     86  F   UNL     1      -2.473  -0.292  11.001  1.00  0.00    -0.206 F 
ATOM     87  C   UNL     1      -0.588  -2.554  13.110  1.00  0.00     0.006 A 
ENDBRANCH  59  80
BRANCH  71  88
ATOM     88  C   UNL     1      -9.349  -1.175  15.113  1.00  0.00     0.057 A 
ATOM     89  C   UNL     1      -9.004  -0.063  15.890  1.00  0.00     0.134 A 
ATOM     90  C   UNL     1     -10.133  -2.166  15.718  1.00  0.00     0.134 A 
ATOM     91  F   UNL     1      -8.246   0.918  15.376  1.00  0.00    -0.206 F 
ATOM     92  C   UNL     1      -9.398   0.045  17.226  1.00  0.00     0.040 A 
ATOM     93  C   UNL     1     -10.561  -2.054  17.042  1.00  0.00     0.040 A 
ATOM     94  F   UNL     1     -10.512  -3.253  15.028  1.00  0.00    -0.206 F 
ATOM     95  C   UNL     1     -10.185  -0.949  17.802  1.00  0.00     0.006 A 
ENDBRANCH  71  88
ENDBRANCH  45  46
ENDBRANCH  38  40
ENDBRANCH  37  38
ENDBRANCH  36  37
ENDBRANCH  35  36
ENDBRANCH  34  35
ENDBRANCH  33  34
ENDBRANCH  32  33
ENDBRANCH  31  32
ENDBRANCH   1  31
TORSDOF 23
