REMARK SMILES CC[N@H+](CC(C)(C)C(=O)OCCOCCOCCOCCOC(=O)c1ccc(-c2c3nc(c(-c4c(F)cccc4F)c4ccc([nH]4)c(-c4c(F)cccc4F)c4nc(c(-c5c(F)cccc5F)c5ccc2[nH]5)C=C4)C=C3)cc1)[C@H]1CC[NH2+]C1
REMARK SMILES IDX 15 1 14 2 13 3 12 4 11 5 10 6 8 7 9 8 5 9 6 10 7 11 4 12
REMARK SMILES IDX 3 13 2 15 1 16 79 17 80 18 83 19 81 20 82 21 16 24 17 25
REMARK SMILES IDX 18 26 19 27 20 28 21 29 22 30 23 31 24 32 25 33 26 34 78 35
REMARK SMILES IDX 27 36 77 37 28 38 29 39 30 40 71 41 31 42 76 43 70 44 72 45
REMARK SMILES IDX 32 46 75 47 69 48 68 49 33 51 59 52 42 53 58 54 43 55 46 56
REMARK SMILES IDX 57 57 73 58 44 59 45 60 56 62 74 63 47 64 34 65 35 66 40 67
REMARK SMILES IDX 36 68 37 69 39 70 41 71 38 72 60 73 61 74 66 75 62 76 63 77
REMARK SMILES IDX 65 78 67 79 64 80 48 81 49 82 54 83 50 84 51 85 53 86 55 87
REMARK SMILES IDX 52 88
REMARK H PARENT 3 14 82 22 82 23 72 50 46 61
REMARK Flexibility Score: inf
ROOT
ATOM      1  C   UNL     1       4.697   3.346   4.376  1.00  0.00     0.188 C 
ENDROOT
BRANCH   1   2
ATOM      2  C   UNL     1       3.161   3.267   4.329  1.00  0.00     0.188 C 
BRANCH   2   3
ATOM      3  O   UNL     1       2.541   2.968   5.570  1.00  0.00    -0.376 OA
BRANCH   3   4
ATOM      4  C   UNL     1       2.023   1.651   5.726  1.00  0.00     0.202 C 
BRANCH   4   5
ATOM      5  C   UNL     1       3.005   0.481   5.559  1.00  0.00     0.261 C 
BRANCH   5   6
ATOM      6  O   UNL     1       3.794   0.595   4.360  1.00  0.00    -0.463 OA
BRANCH   6   7
ATOM      7  C   UNL     1       3.527  -0.221   3.315  1.00  0.00     0.317 C 
ATOM      8  O   UNL     1       2.660  -1.086   3.344  1.00  0.00    -0.251 OA
BRANCH   7   9
ATOM      9  C   UNL     1       4.418   0.094   2.096  1.00  0.00     0.111 C 
ATOM     10  C   UNL     1       4.477  -1.187   1.248  1.00  0.00     0.029 C 
ATOM     11  C   UNL     1       5.881   0.399   2.554  1.00  0.00     0.029 C 
BRANCH   9  12
ATOM     12  C   UNL     1       3.915   1.302   1.223  1.00  0.00     0.280 C 
BRANCH  12  13
ATOM     13  N   UNL     1       2.585   1.293   0.554  1.00  0.00    -0.327 N 
ATOM     14  H   UNL     1       2.467   0.354   0.172  1.00  0.00     0.348 HD
BRANCH  13  15
ATOM     15  C   UNL     1       1.488   1.553   1.512  1.00  0.00     0.259 C 
ATOM     16  C   UNL     1       0.074   1.359   0.966  1.00  0.00     0.071 C 
ENDBRANCH  13  15
BRANCH  13  17
ATOM     17  C   UNL     1       2.513   2.261  -0.575  1.00  0.00     0.245 C 
ATOM     18  C   UNL     1       3.008   3.693  -0.356  1.00  0.00     0.132 C 
ATOM     19  C   UNL     1       3.235   1.847  -1.873  1.00  0.00     0.326 C 
ATOM     20  C   UNL     1       3.086   4.207  -1.783  1.00  0.00     0.267 C 
ATOM     21  N   UNL     1       3.657   3.093  -2.551  1.00  0.00    -0.341 N 
ATOM     22  H   UNL     1       4.675   3.160  -2.562  1.00  0.00     0.346 HD
ATOM     23  H   UNL     1       3.334   3.111  -3.518  1.00  0.00     0.346 HD
ENDBRANCH  13  17
ENDBRANCH  12  13
ENDBRANCH   9  12
ENDBRANCH   7   9
ENDBRANCH   6   7
ENDBRANCH   5   6
ENDBRANCH   4   5
ENDBRANCH   3   4
ENDBRANCH   2   3
ENDBRANCH   1   2
BRANCH   1  24
ATOM     24  O   UNL     1       5.362   2.774   5.487  1.00  0.00    -0.377 OA
BRANCH  24  25
ATOM     25  C   UNL     1       4.998   3.197   6.796  1.00  0.00     0.188 C 
BRANCH  25  26
ATOM     26  C   UNL     1       4.302   4.556   7.039  1.00  0.00     0.188 C 
BRANCH  26  27
ATOM     27  O   UNL     1       4.332   5.460   5.948  1.00  0.00    -0.376 OA
BRANCH  27  28
ATOM     28  C   UNL     1       5.303   6.494   5.984  1.00  0.00     0.202 C 
BRANCH  28  29
ATOM     29  C   UNL     1       6.781   6.069   5.971  1.00  0.00     0.261 C 
BRANCH  29  30
ATOM     30  O   UNL     1       7.202   5.200   7.036  1.00  0.00    -0.460 OA
BRANCH  30  31
ATOM     31  C   UNL     1       7.070   5.647   8.302  1.00  0.00     0.338 C 
ATOM     32  O   UNL     1       6.675   6.744   8.661  1.00  0.00    -0.246 OA
BRANCH  31  33
ATOM     33  C   UNL     1       7.289   4.502   9.211  1.00  0.00     0.060 A 
ATOM     34  C   UNL     1       6.252   4.107  10.069  1.00  0.00     0.016 A 
ATOM     35  C   UNL     1       8.502   3.810   9.203  1.00  0.00     0.016 A 
ATOM     36  C   UNL     1       6.442   3.048  10.954  1.00  0.00     0.010 A 
ATOM     37  C   UNL     1       8.702   2.767  10.112  1.00  0.00     0.010 A 
ATOM     38  C   UNL     1       7.688   2.412  11.020  1.00  0.00    -0.014 A 
BRANCH  38  39
ATOM     39  C   UNL     1       8.005   1.565  12.195  1.00  0.00     0.031 A 
ATOM     40  C   UNL     1       8.745   2.201  13.341  1.00  0.00     0.074 A 
ATOM     41  C   UNL     1       7.611   0.282  12.273  1.00  0.00     0.049 A 
ATOM     42  N   UNL     1       9.159   1.674  14.463  1.00  0.00    -0.248 NA
ATOM     43  C   UNL     1       9.061   3.633  13.196  1.00  0.00     0.031 C 
ATOM     44  C   UNL     1       6.845  -0.434  11.256  1.00  0.00     0.029 A 
ATOM     45  N   UNL     1       7.811  -0.647  13.264  1.00  0.00    -0.354 N 
ATOM     46  C   UNL     1       9.787   2.704  15.152  1.00  0.00     0.074 A 
ATOM     47  C   UNL     1       9.733   3.877  14.309  1.00  0.00     0.031 C 
ATOM     48  C   UNL     1       6.647  -1.698  11.671  1.00  0.00     0.029 A 
ATOM     49  C   UNL     1       7.299  -1.887  12.967  1.00  0.00     0.049 A 
ATOM     50  H   UNL     1       8.276  -0.445  14.107  1.00  0.00     0.167 HD
ATOM     51  C   UNL     1      10.349   2.680  16.383  1.00  0.00     0.037 A 
ATOM     52  C   UNL     1       7.370  -3.043  13.656  1.00  0.00     0.037 A 
ATOM     53  C   UNL     1      10.408   1.510  17.219  1.00  0.00     0.049 A 
ATOM     54  C   UNL     1       8.078  -3.067  14.988  1.00  0.00     0.074 A 
ATOM     55  C   UNL     1      10.949   1.382  18.485  1.00  0.00     0.029 A 
ATOM     56  N   UNL     1       9.915   0.263  16.865  1.00  0.00    -0.354 N 
ATOM     57  N   UNL     1       8.652  -2.085  15.642  1.00  0.00    -0.248 NA
ATOM     58  C   UNL     1       8.144  -4.363  15.680  1.00  0.00     0.031 C 
ATOM     59  C   UNL     1      10.838   0.043  18.873  1.00  0.00     0.029 A 
ATOM     60  C   UNL     1      10.165  -0.648  17.878  1.00  0.00     0.049 A 
ATOM     61  H   UNL     1       9.455   0.056  16.019  1.00  0.00     0.167 HD
ATOM     62  C   UNL     1       9.113  -2.635  16.833  1.00  0.00     0.074 A 
ATOM     63  C   UNL     1       8.741  -4.034  16.816  1.00  0.00     0.031 C 
ATOM     64  C   UNL     1       9.781  -2.037  17.851  1.00  0.00     0.037 A 
BRANCH  51  65
ATOM     65  C   UNL     1      10.976   3.950  16.880  1.00  0.00     0.057 A 
ATOM     66  C   UNL     1      10.211   5.071  17.230  1.00  0.00     0.134 A 
ATOM     67  C   UNL     1      12.366   4.048  17.026  1.00  0.00     0.134 A 
ATOM     68  F   UNL     1       8.876   5.052  17.097  1.00  0.00    -0.206 F 
ATOM     69  C   UNL     1      10.807   6.250  17.681  1.00  0.00     0.040 A 
ATOM     70  C   UNL     1      12.971   5.211  17.505  1.00  0.00     0.040 A 
ATOM     71  F   UNL     1      13.159   3.012  16.710  1.00  0.00    -0.206 F 
ATOM     72  C   UNL     1      12.191   6.319  17.826  1.00  0.00     0.006 A 
ENDBRANCH  51  65
BRANCH  52  73
ATOM     73  C   UNL     1       6.768  -4.283  13.101  1.00  0.00     0.057 A 
ATOM     74  C   UNL     1       5.670  -4.897  13.715  1.00  0.00     0.134 A 
ATOM     75  C   UNL     1       7.300  -4.905  11.965  1.00  0.00     0.134 A 
ATOM     76  F   UNL     1       5.131  -4.366  14.822  1.00  0.00    -0.206 F 
ATOM     77  C   UNL     1       5.135  -6.093  13.232  1.00  0.00     0.040 A 
ATOM     78  C   UNL     1       6.757  -6.086  11.454  1.00  0.00     0.040 A 
ATOM     79  F   UNL     1       8.354  -4.371  11.331  1.00  0.00    -0.206 F 
ATOM     80  C   UNL     1       5.676  -6.688  12.094  1.00  0.00     0.006 A 
ENDBRANCH  52  73
BRANCH  64  81
ATOM     81  C   UNL     1      10.110  -2.877  19.053  1.00  0.00     0.057 A 
ATOM     82  C   UNL     1      11.073  -3.893  19.012  1.00  0.00     0.134 A 
ATOM     83  C   UNL     1       9.479  -2.636  20.282  1.00  0.00     0.134 A 
ATOM     84  F   UNL     1      11.709  -4.183  17.867  1.00  0.00    -0.206 F 
ATOM     85  C   UNL     1      11.374  -4.659  20.140  1.00  0.00     0.040 A 
ATOM     86  C   UNL     1       9.796  -3.373  21.424  1.00  0.00     0.040 A 
ATOM     87  F   UNL     1       8.557  -1.669  20.396  1.00  0.00    -0.206 F 
ATOM     88  C   UNL     1      10.739  -4.394  21.353  1.00  0.00     0.006 A 
ENDBRANCH  64  81
ENDBRANCH  38  39
ENDBRANCH  31  33
ENDBRANCH  30  31
ENDBRANCH  29  30
ENDBRANCH  28  29
ENDBRANCH  27  28
ENDBRANCH  26  27
ENDBRANCH  25  26
ENDBRANCH  24  25
ENDBRANCH   1  24
TORSDOF 24
