REMARK SMILES Cc1ccccc1C(=O)Nc1ccc(OCC(=O)OCCOCCOCCOCCOC(=O)c2ccc(-c3c4nc(c(-c5c(F)cccc5F)c5ccc([nH]5)c(-c5c(F)cccc5F)c5nc(c(-c6c(F)cccc6F)c6ccc3[nH]6)C=C5)C=C4)cc2)c(-c2nc3ccccc3s2)c1
REMARK SMILES IDX 24 1 23 2 22 3 21 4 20 5 19 6 17 7 18 8 16 9 15 10 14 11
REMARK SMILES IDX 11 12 12 13 98 14 13 15 88 16 10 17 8 18 9 19 7 21 1 22 2 23
REMARK SMILES IDX 3 24 4 25 6 26 5 27 89 28 90 29 97 30 91 31 96 32 92 33
REMARK SMILES IDX 95 34 93 35 94 36 25 37 26 38 27 39 28 40 29 41 30 42 31 43
REMARK SMILES IDX 32 44 33 45 34 46 35 47 87 48 36 49 86 50 37 51 38 52 39 53
REMARK SMILES IDX 80 54 40 55 85 56 79 57 81 58 41 59 84 60 78 61 77 62 42 64
REMARK SMILES IDX 68 65 51 66 67 67 52 68 55 69 66 70 82 71 53 72 54 73 65 75
REMARK SMILES IDX 83 76 56 77 43 78 44 79 49 80 45 81 46 82 48 83 50 84 47 85
REMARK SMILES IDX 69 86 70 87 75 88 71 89 72 90 74 91 76 92 73 93 57 94 58 95
REMARK SMILES IDX 63 96 59 97 60 98 62 99 64 100 61 101
REMARK H PARENT 10 20 81 63 55 74
REMARK Flexibility Score: inf
ROOT
ATOM      1  C   UNL     1       2.726  -2.103  -0.209  1.00  0.00     0.188 C 
ENDROOT
BRANCH   1   2
ATOM      2  C   UNL     1       2.162  -1.634  -1.534  1.00  0.00     0.188 C 
BRANCH   2   3
ATOM      3  O   UNL     1       2.412  -2.470  -2.661  1.00  0.00    -0.376 OA
BRANCH   3   4
ATOM      4  C   UNL     1       2.145  -3.856  -2.476  1.00  0.00     0.202 C 
BRANCH   4   5
ATOM      5  C   UNL     1       3.441  -4.679  -2.487  1.00  0.00     0.261 C 
BRANCH   5   6
ATOM      6  O   UNL     1       4.505  -3.967  -1.862  1.00  0.00    -0.461 OA
BRANCH   6   7
ATOM      7  C   UNL     1       5.726  -3.980  -2.455  1.00  0.00     0.344 C 
ATOM      8  O   UNL     1       6.130  -4.845  -3.221  1.00  0.00    -0.248 OA
BRANCH   7   9
ATOM      9  C   UNL     1       6.502  -2.714  -2.072  1.00  0.00     0.352 C 
BRANCH   9  10
ATOM     10  O   UNL     1       5.588  -1.785  -1.515  1.00  0.00    -0.481 OA
BRANCH  10  11
ATOM     11  C   UNL     1       5.443  -0.476  -1.876  1.00  0.00     0.130 A 
ATOM     12  C   UNL     1       3.941   1.911  -1.620  1.00  0.00     0.042 A 
ATOM     13  C   UNL     1       4.749   1.488  -0.575  1.00  0.00     0.030 A 
ATOM     14  C   UNL     1       4.153   1.312  -2.862  1.00  0.00     0.041 A 
ATOM     15  C   UNL     1       5.499   0.314  -0.705  1.00  0.00     0.049 A 
ATOM     16  C   UNL     1       4.805   0.043  -3.026  1.00  0.00     0.055 A 
BRANCH  12  17
ATOM     17  N   UNL     1       3.109   3.028  -1.423  1.00  0.00    -0.322 N 
ATOM     18  C   UNL     1       1.743   3.317  -1.435  1.00  0.00     0.255 C 
ATOM     19  O   UNL     1       1.484   4.496  -1.135  1.00  0.00    -0.269 OA
ATOM     20  H   UNL     1       3.639   3.833  -1.220  1.00  0.00     0.170 HD
BRANCH  18  21
ATOM     21  C   UNL     1       0.534   2.412  -1.560  1.00  0.00     0.043 A 
ATOM     22  C   UNL     1       1.167   1.094  -3.628  1.00  0.00     0.045 C 
ATOM     23  C   UNL     1       0.286   1.388  -2.478  1.00  0.00    -0.038 A 
ATOM     24  C   UNL     1      -0.883   0.586  -2.382  1.00  0.00     0.004 A 
ATOM     25  C   UNL     1      -1.887   0.869  -1.468  1.00  0.00     0.000 A 
ATOM     26  C   UNL     1      -0.547   2.721  -0.689  1.00  0.00     0.014 A 
ATOM     27  C   UNL     1      -1.736   1.970  -0.643  1.00  0.00     0.001 A 
ENDBRANCH  18  21
ENDBRANCH  12  17
BRANCH  16  28
ATOM     28  C   UNL     1       4.404  -0.670  -4.281  1.00  0.00     0.128 A 
ATOM     29  N   UNL     1       3.411  -0.252  -5.059  1.00  0.00    -0.236 NA
ATOM     30  S   UNL     1       5.056  -2.132  -4.894  1.00  0.00    -0.114 S 
ATOM     31  C   UNL     1       2.777  -1.353  -5.611  1.00  0.00     0.082 A 
ATOM     32  C   UNL     1       3.503  -2.537  -5.531  1.00  0.00     0.055 A 
ATOM     33  C   UNL     1       1.473  -1.392  -6.146  1.00  0.00     0.030 A 
ATOM     34  C   UNL     1       2.947  -3.774  -5.899  1.00  0.00     0.021 A 
ATOM     35  C   UNL     1       0.873  -2.624  -6.419  1.00  0.00     0.002 A 
ATOM     36  C   UNL     1       1.599  -3.801  -6.279  1.00  0.00     0.002 A 
ENDBRANCH  16  28
ENDBRANCH  10  11
ENDBRANCH   9  10
ENDBRANCH   7   9
ENDBRANCH   6   7
ENDBRANCH   5   6
ENDBRANCH   4   5
ENDBRANCH   3   4
ENDBRANCH   2   3
ENDBRANCH   1   2
BRANCH   1  37
ATOM     37  O   UNL     1       2.888  -1.090   0.773  1.00  0.00    -0.377 OA
BRANCH  37  38
ATOM     38  C   UNL     1       1.732  -0.928   1.574  1.00  0.00     0.188 C 
BRANCH  38  39
ATOM     39  C   UNL     1       0.884   0.216   1.050  1.00  0.00     0.188 C 
BRANCH  39  40
ATOM     40  O   UNL     1       1.477   1.503   1.127  1.00  0.00    -0.376 OA
BRANCH  40  41
ATOM     41  C   UNL     1       2.235   1.757   2.299  1.00  0.00     0.202 C 
BRANCH  41  42
ATOM     42  C   UNL     1       1.459   1.772   3.669  1.00  0.00     0.261 C 
BRANCH  42  43
ATOM     43  O   UNL     1       0.383   0.727   3.686  1.00  0.00    -0.460 OA
BRANCH  43  44
ATOM     44  C   UNL     1      -0.681   0.237   4.393  1.00  0.00     0.338 C 
ATOM     45  O   UNL     1      -1.288   0.642   5.345  1.00  0.00    -0.246 OA
BRANCH  44  46
ATOM     46  C   UNL     1      -0.943  -1.128   3.804  1.00  0.00     0.060 A 
ATOM     47  C   UNL     1      -0.547  -2.287   4.473  1.00  0.00     0.016 A 
ATOM     48  C   UNL     1      -1.505  -1.262   2.536  1.00  0.00     0.016 A 
ATOM     49  C   UNL     1      -0.507  -3.521   3.791  1.00  0.00     0.010 A 
ATOM     50  C   UNL     1      -1.338  -2.458   1.815  1.00  0.00     0.010 A 
ATOM     51  C   UNL     1      -0.724  -3.577   2.401  1.00  0.00    -0.014 A 
BRANCH  51  52
ATOM     52  C   UNL     1       0.034  -4.565   1.555  1.00  0.00     0.031 A 
ATOM     53  C   UNL     1      -0.444  -5.210   0.277  1.00  0.00     0.074 A 
ATOM     54  C   UNL     1       1.379  -4.625   1.762  1.00  0.00     0.049 A 
ATOM     55  N   UNL     1       0.158  -6.188  -0.341  1.00  0.00    -0.248 NA
ATOM     56  C   UNL     1      -1.634  -4.793  -0.437  1.00  0.00     0.031 C 
ATOM     57  C   UNL     1       2.376  -5.128   0.823  1.00  0.00     0.029 A 
ATOM     58  N   UNL     1       2.180  -4.099   2.766  1.00  0.00    -0.354 N 
ATOM     59  C   UNL     1      -0.362  -6.342  -1.617  1.00  0.00     0.074 A 
ATOM     60  C   UNL     1      -1.538  -5.502  -1.568  1.00  0.00     0.031 C 
ATOM     61  C   UNL     1       3.609  -4.805   1.229  1.00  0.00     0.029 A 
ATOM     62  C   UNL     1       3.516  -4.476   2.621  1.00  0.00     0.049 A 
ATOM     63  H   UNL     1       1.845  -3.527   3.494  1.00  0.00     0.167 HD
ATOM     64  C   UNL     1       0.295  -7.091  -2.577  1.00  0.00     0.037 A 
ATOM     65  C   UNL     1       4.135  -5.262   3.550  1.00  0.00     0.037 A 
ATOM     66  C   UNL     1       1.588  -7.682  -2.081  1.00  0.00     0.049 A 
ATOM     67  C   UNL     1       4.215  -6.732   3.128  1.00  0.00     0.074 A 
ATOM     68  C   UNL     1       2.874  -7.830  -2.595  1.00  0.00     0.029 A 
ATOM     69  N   UNL     1       1.691  -8.181  -0.774  1.00  0.00    -0.354 N 
ATOM     70  N   UNL     1       4.010  -7.160   1.900  1.00  0.00    -0.248 NA
ATOM     71  C   UNL     1       4.465  -7.850   4.031  1.00  0.00     0.031 C 
ATOM     72  C   UNL     1       3.755  -8.252  -1.550  1.00  0.00     0.029 A 
ATOM     73  C   UNL     1       2.996  -8.493  -0.420  1.00  0.00     0.049 A 
ATOM     74  H   UNL     1       0.921  -8.297  -0.173  1.00  0.00     0.167 HD
ATOM     75  C   UNL     1       3.836  -8.514   1.886  1.00  0.00     0.074 A 
ATOM     76  C   UNL     1       4.262  -8.907   3.219  1.00  0.00     0.031 C 
ATOM     77  C   UNL     1       3.269  -9.194   0.838  1.00  0.00     0.037 A 
BRANCH  64  78
ATOM     78  C   UNL     1      -0.119  -7.202  -4.086  1.00  0.00     0.057 A 
ATOM     79  C   UNL     1       0.619  -7.980  -5.014  1.00  0.00     0.134 A 
ATOM     80  C   UNL     1      -1.211  -6.561  -4.712  1.00  0.00     0.134 A 
ATOM     81  F   UNL     1       1.594  -8.809  -4.623  1.00  0.00    -0.206 F 
ATOM     82  C   UNL     1       0.374  -8.005  -6.407  1.00  0.00     0.040 A 
ATOM     83  C   UNL     1      -1.486  -6.595  -6.094  1.00  0.00     0.040 A 
ATOM     84  F   UNL     1      -2.132  -5.875  -4.046  1.00  0.00    -0.206 F 
ATOM     85  C   UNL     1      -0.675  -7.295  -6.958  1.00  0.00     0.006 A 
ENDBRANCH  64  78
BRANCH  65  86
ATOM     86  C   UNL     1       4.196  -4.563   4.869  1.00  0.00     0.057 A 
ATOM     87  C   UNL     1       5.108  -3.488   4.880  1.00  0.00     0.134 A 
ATOM     88  C   UNL     1       3.043  -4.404   5.652  1.00  0.00     0.134 A 
ATOM     89  F   UNL     1       6.277  -3.601   4.229  1.00  0.00    -0.206 F 
ATOM     90  C   UNL     1       4.753  -2.225   5.365  1.00  0.00     0.040 A 
ATOM     91  C   UNL     1       2.692  -3.147   6.175  1.00  0.00     0.040 A 
ATOM     92  F   UNL     1       2.144  -5.393   5.746  1.00  0.00    -0.206 F 
ATOM     93  C   UNL     1       3.509  -2.037   5.958  1.00  0.00     0.006 A 
ENDBRANCH  65  86
BRANCH  77  94
ATOM     94  C   UNL     1       2.847 -10.647   0.880  1.00  0.00     0.057 A 
ATOM     95  C   UNL     1       2.316 -11.267   2.017  1.00  0.00     0.134 A 
ATOM     96  C   UNL     1       2.776 -11.409  -0.311  1.00  0.00     0.134 A 
ATOM     97  F   UNL     1       2.221 -10.622   3.187  1.00  0.00    -0.206 F 
ATOM     98  C   UNL     1       1.792 -12.566   1.985  1.00  0.00     0.040 A 
ATOM     99  C   UNL     1       2.197 -12.678  -0.368  1.00  0.00     0.040 A 
ATOM    100  F   UNL     1       3.243 -10.944  -1.479  1.00  0.00    -0.206 F 
ATOM    101  C   UNL     1       1.712 -13.268   0.788  1.00  0.00     0.006 A 
ENDBRANCH  77  94
ENDBRANCH  51  52
ENDBRANCH  44  46
ENDBRANCH  43  44
ENDBRANCH  42  43
ENDBRANCH  41  42
ENDBRANCH  40  41
ENDBRANCH  39  40
ENDBRANCH  38  39
ENDBRANCH  37  38
ENDBRANCH   1  37
TORSDOF 25
