REMARK SMILES C[C@@H]1[C@@H](C(=O)OCCOCCOCCOCCOC(=O)c2ccc(-c3c4nc(c(-c5c(F)cccc5F)c5ccc([nH]5)c(-c5c(F)cccc5F)c5nc(c(-c6c(F)cccc6F)c6ccc3[nH]6)C=C5)C=C4)cc2)CCN1c1nc2sccn2c1[N+](=O)[O-]
REMARK SMILES IDX 12 1 11 2 10 3 9 4 8 5 7 6 6 7 4 8 5 9 3 10 1 11 2 12 77 13
REMARK SMILES IDX 75 14 76 15 78 16 79 17 85 18 80 19 84 20 81 21 83 22 82 23
REMARK SMILES IDX 86 24 87 25 88 26 13 27 14 28 15 29 16 30 17 31 18 32 19 33
REMARK SMILES IDX 20 34 21 35 22 36 74 37 23 38 73 39 24 40 25 41 26 42 67 43
REMARK SMILES IDX 27 44 72 45 66 46 68 47 28 48 71 49 65 50 64 51 29 53 55 54
REMARK SMILES IDX 38 55 54 56 39 57 42 58 53 59 69 60 40 61 41 62 52 64 70 65
REMARK SMILES IDX 43 66 30 67 31 68 36 69 32 70 33 71 35 72 37 73 34 74 56 75
REMARK SMILES IDX 57 76 62 77 58 78 59 79 61 80 63 81 60 82 44 83 45 84 50 85
REMARK SMILES IDX 46 86 47 87 49 88 51 89 48 90
REMARK H PARENT 68 52 42 63
REMARK Flexibility Score: inf
ROOT
ATOM      1  O   UNL     1      -1.032   3.856  -2.468  1.00  0.00    -0.377 OA
ENDROOT
BRANCH   1   2
ATOM      2  C   UNL     1       0.292   3.400  -2.277  1.00  0.00     0.188 C 
BRANCH   2   3
ATOM      3  C   UNL     1       0.664   2.227  -3.199  1.00  0.00     0.188 C 
BRANCH   3   4
ATOM      4  O   UNL     1      -0.037   2.116  -4.422  1.00  0.00    -0.376 OA
BRANCH   4   5
ATOM      5  C   UNL     1      -1.390   1.705  -4.543  1.00  0.00     0.202 C 
BRANCH   5   6
ATOM      6  C   UNL     1      -2.387   1.364  -3.417  1.00  0.00     0.261 C 
BRANCH   6   7
ATOM      7  O   UNL     1      -1.918   1.409  -2.077  1.00  0.00    -0.463 OA
BRANCH   7   8
ATOM      8  C   UNL     1      -1.271   0.296  -1.664  1.00  0.00     0.311 C 
ATOM      9  O   UNL     1      -1.185  -0.731  -2.323  1.00  0.00    -0.252 OA
BRANCH   8  10
ATOM     10  C   UNL     1      -0.612   0.567  -0.318  1.00  0.00     0.123 C 
ATOM     11  C   UNL     1       1.607   0.080   0.836  1.00  0.00     0.032 C 
ATOM     12  C   UNL     1       0.535  -0.419  -0.130  1.00  0.00     0.095 C 
ATOM     13  N   UNL     1      -0.159  -1.609   0.406  1.00  0.00    -0.346 N 
ATOM     14  C   UNL     1      -1.541   0.267   0.838  1.00  0.00     0.039 C 
ATOM     15  C   UNL     1      -1.506  -1.255   0.858  1.00  0.00     0.119 C 
BRANCH  13  16
ATOM     16  C   UNL     1       0.233  -2.824  -0.051  1.00  0.00     0.229 A 
ATOM     17  N   UNL     1       1.539  -2.910  -0.512  1.00  0.00    -0.173 NA
ATOM     18  C   UNL     1      -0.406  -4.048  -0.180  1.00  0.00     0.373 A 
ATOM     19  C   UNL     1       1.647  -4.135  -0.926  1.00  0.00     0.286 A 
ATOM     20  N   UNL     1       0.520  -4.878  -0.753  1.00  0.00    -0.166 N 
ATOM     21  S   UNL     1       2.929  -5.052  -1.651  1.00  0.00    -0.078 S 
ATOM     22  C   UNL     1       0.630  -6.186  -1.188  1.00  0.00     0.220 A 
ATOM     23  C   UNL     1       1.851  -6.450  -1.687  1.00  0.00     0.114 A 
BRANCH  18  24
ATOM     24  N   UNL     1      -1.704  -4.526   0.112  1.00  0.00    -0.023 N 
ATOM     25  O   UNL     1      -2.654  -3.744   0.045  1.00  0.00    -0.358 OA
ATOM     26  O   UNL     1      -1.807  -5.727   0.392  1.00  0.00    -0.358 OA
ENDBRANCH  18  24
ENDBRANCH  13  16
ENDBRANCH   8  10
ENDBRANCH   7   8
ENDBRANCH   6   7
ENDBRANCH   5   6
ENDBRANCH   4   5
ENDBRANCH   3   4
ENDBRANCH   2   3
ENDBRANCH   1   2
BRANCH   1  27
ATOM     27  C   UNL     1      -1.223   4.905  -3.410  1.00  0.00     0.188 C 
BRANCH  27  28
ATOM     28  C   UNL     1      -0.267   5.070  -4.618  1.00  0.00     0.188 C 
BRANCH  28  29
ATOM     29  O   UNL     1       1.109   4.860  -4.333  1.00  0.00    -0.376 OA
BRANCH  29  30
ATOM     30  C   UNL     1       1.962   5.981  -4.177  1.00  0.00     0.202 C 
BRANCH  30  31
ATOM     31  C   UNL     1       1.730   6.874  -2.948  1.00  0.00     0.261 C 
BRANCH  31  32
ATOM     32  O   UNL     1       0.405   7.402  -2.800  1.00  0.00    -0.460 OA
BRANCH  32  33
ATOM     33  C   UNL     1      -0.037   8.231  -3.768  1.00  0.00     0.338 C 
ATOM     34  O   UNL     1       0.584   8.625  -4.742  1.00  0.00    -0.246 OA
BRANCH  33  35
ATOM     35  C   UNL     1      -1.486   8.434  -3.565  1.00  0.00     0.060 A 
ATOM     36  C   UNL     1      -2.369   8.066  -4.589  1.00  0.00     0.016 A 
ATOM     37  C   UNL     1      -1.970   8.969  -2.369  1.00  0.00     0.016 A 
ATOM     38  C   UNL     1      -3.739   8.273  -4.436  1.00  0.00     0.010 A 
ATOM     39  C   UNL     1      -3.341   9.200  -2.227  1.00  0.00     0.010 A 
ATOM     40  C   UNL     1      -4.225   8.888  -3.276  1.00  0.00    -0.014 A 
BRANCH  40  41
ATOM     41  C   UNL     1      -5.614   9.406  -3.252  1.00  0.00     0.031 A 
ATOM     42  C   UNL     1      -5.831  10.861  -3.564  1.00  0.00     0.074 A 
ATOM     43  C   UNL     1      -6.661   8.605  -2.988  1.00  0.00     0.049 A 
ATOM     44  N   UNL     1      -6.938  11.559  -3.558  1.00  0.00    -0.248 NA
ATOM     45  C   UNL     1      -4.633  11.634  -3.932  1.00  0.00     0.031 C 
ATOM     46  C   UNL     1      -6.585   7.171  -2.719  1.00  0.00     0.029 A 
ATOM     47  N   UNL     1      -7.999   8.897  -2.896  1.00  0.00    -0.354 N 
ATOM     48  C   UNL     1      -6.568  12.850  -3.912  1.00  0.00     0.074 A 
ATOM     49  C   UNL     1      -5.134  12.849  -4.093  1.00  0.00     0.031 C 
ATOM     50  C   UNL     1      -7.825   6.709  -2.478  1.00  0.00     0.029 A 
ATOM     51  C   UNL     1      -8.773   7.820  -2.541  1.00  0.00     0.049 A 
ATOM     52  H   UNL     1      -8.368   9.793  -3.069  1.00  0.00     0.167 HD
ATOM     53  C   UNL     1      -7.355  13.939  -4.080  1.00  0.00     0.037 A 
ATOM     54  C   UNL     1     -10.092   7.750  -2.273  1.00  0.00     0.037 A 
ATOM     55  C   UNL     1      -8.782  13.938  -3.893  1.00  0.00     0.049 A 
ATOM     56  C   UNL     1     -10.935   8.996  -2.382  1.00  0.00     0.074 A 
ATOM     57  C   UNL     1      -9.671  14.986  -4.050  1.00  0.00     0.029 A 
ATOM     58  N   UNL     1      -9.525  12.836  -3.498  1.00  0.00    -0.354 N 
ATOM     59  N   UNL     1     -10.583  10.208  -2.738  1.00  0.00    -0.248 NA
ATOM     60  C   UNL     1     -12.362   8.862  -2.052  1.00  0.00     0.031 C 
ATOM     61  C   UNL     1     -10.945  14.533  -3.691  1.00  0.00     0.029 A 
ATOM     62  C   UNL     1     -10.859  13.186  -3.376  1.00  0.00     0.049 A 
ATOM     63  H   UNL     1      -9.159  11.938  -3.329  1.00  0.00     0.167 HD
ATOM     64  C   UNL     1     -11.747  10.969  -2.710  1.00  0.00     0.074 A 
ATOM     65  C   UNL     1     -12.817  10.079  -2.313  1.00  0.00     0.031 C 
ATOM     66  C   UNL     1     -11.916  12.286  -2.990  1.00  0.00     0.037 A 
BRANCH  53  67
ATOM     67  C   UNL     1      -6.682  15.228  -4.452  1.00  0.00     0.057 A 
ATOM     68  C   UNL     1      -6.109  15.431  -5.714  1.00  0.00     0.134 A 
ATOM     69  C   UNL     1      -6.630  16.291  -3.541  1.00  0.00     0.134 A 
ATOM     70  F   UNL     1      -6.109  14.449  -6.628  1.00  0.00    -0.206 F 
ATOM     71  C   UNL     1      -5.487  16.636  -6.048  1.00  0.00     0.040 A 
ATOM     72  C   UNL     1      -6.037  17.510  -3.873  1.00  0.00     0.040 A 
ATOM     73  F   UNL     1      -7.160  16.165  -2.315  1.00  0.00    -0.206 F 
ATOM     74  C   UNL     1      -5.457  17.682  -5.128  1.00  0.00     0.006 A 
ENDBRANCH  53  67
BRANCH  54  75
ATOM     75  C   UNL     1     -10.704   6.462  -1.856  1.00  0.00     0.057 A 
ATOM     76  C   UNL     1     -11.635   5.802  -2.667  1.00  0.00     0.134 A 
ATOM     77  C   UNL     1     -10.400   5.877  -0.621  1.00  0.00     0.134 A 
ATOM     78  F   UNL     1     -11.989   6.324  -3.851  1.00  0.00    -0.206 F 
ATOM     79  C   UNL     1     -12.258   4.622  -2.256  1.00  0.00     0.040 A 
ATOM     80  C   UNL     1     -10.993   4.682  -0.210  1.00  0.00     0.040 A 
ATOM     81  F   UNL     1      -9.517   6.458   0.205  1.00  0.00    -0.206 F 
ATOM     82  C   UNL     1     -11.933   4.056  -1.025  1.00  0.00     0.006 A 
ENDBRANCH  54  75
BRANCH  66  83
ATOM     83  C   UNL     1     -13.314  12.835  -2.927  1.00  0.00     0.057 A 
ATOM     84  C   UNL     1     -13.993  13.007  -1.714  1.00  0.00     0.134 A 
ATOM     85  C   UNL     1     -13.971  13.240  -4.097  1.00  0.00     0.134 A 
ATOM     86  F   UNL     1     -13.427  12.631  -0.557  1.00  0.00    -0.206 F 
ATOM     87  C   UNL     1     -15.285  13.535  -1.670  1.00  0.00     0.040 A 
ATOM     88  C   UNL     1     -15.249  13.800  -4.062  1.00  0.00     0.040 A 
ATOM     89  F   UNL     1     -13.374  13.117  -5.292  1.00  0.00    -0.206 F 
ATOM     90  C   UNL     1     -15.913  13.941  -2.846  1.00  0.00     0.006 A 
ENDBRANCH  66  83
ENDBRANCH  40  41
ENDBRANCH  33  35
ENDBRANCH  32  33
ENDBRANCH  31  32
ENDBRANCH  30  31
ENDBRANCH  29  30
ENDBRANCH  28  29
ENDBRANCH  27  28
ENDBRANCH   1  27
TORSDOF 22
