REMARK SMILES Nc1ccc(C(=O)NC[C@@H]2CC[C@@H](C(=O)OCCOCCOCCOCCOC(=O)c3ccc(-c4c5nc(c(-c6c(F)cccc6F)c6ccc([nH]6)c(-c6c(F)cccc6F)c6nc(c(-c7c(F)cccc7F)c7ccc4[nH]7)C=C6)C=C5)cc3)O2)cc1Cl
REMARK SMILES IDX 21 1 20 2 19 3 18 4 17 5 16 6 14 7 15 8 13 9 10 10 11 11
REMARK SMILES IDX 85 12 12 13 9 14 8 15 6 16 7 17 5 19 2 20 3 21 87 22 4 23
REMARK SMILES IDX 86 24 88 25 1 26 22 29 23 30 24 31 25 32 26 33 27 34 28 35
REMARK SMILES IDX 29 36 30 37 31 38 32 39 84 40 33 41 83 42 34 43 35 44 36 45
REMARK SMILES IDX 77 46 37 47 82 48 76 49 78 50 38 51 81 52 75 53 74 54 39 56
REMARK SMILES IDX 65 57 48 58 64 59 49 60 52 61 63 62 79 63 50 64 51 65 62 67
REMARK SMILES IDX 80 68 53 69 40 70 41 71 46 72 42 73 43 74 45 75 47 76 44 77
REMARK SMILES IDX 66 78 67 79 72 80 68 81 69 82 71 83 73 84 70 85 54 86 55 87
REMARK SMILES IDX 60 88 56 89 57 90 59 91 61 92 58 93
REMARK H PARENT 8 18 1 27 1 28 78 55 52 66
REMARK Flexibility Score: inf
ROOT
ATOM      1  C   UNL     1       4.745  -1.763  -5.198  1.00  0.00     0.188 C 
ENDROOT
BRANCH   1   2
ATOM      2  C   UNL     1       5.977  -1.082  -5.828  1.00  0.00     0.188 C 
BRANCH   2   3
ATOM      3  O   UNL     1       7.070  -1.841  -6.325  1.00  0.00    -0.376 OA
BRANCH   3   4
ATOM      4  C   UNL     1       7.706  -2.855  -5.557  1.00  0.00     0.202 C 
BRANCH   4   5
ATOM      5  C   UNL     1       7.974  -2.743  -4.047  1.00  0.00     0.261 C 
BRANCH   5   6
ATOM      6  O   UNL     1       6.978  -2.037  -3.312  1.00  0.00    -0.461 OA
BRANCH   6   7
ATOM      7  C   UNL     1       7.333  -0.827  -2.806  1.00  0.00     0.335 C 
ATOM      8  O   UNL     1       8.462  -0.355  -2.815  1.00  0.00    -0.249 OA
BRANCH   7   9
ATOM      9  C   UNL     1       6.082  -0.095  -2.322  1.00  0.00     0.228 C 
ATOM     10  C   UNL     1       5.928   1.570  -0.707  1.00  0.00     0.138 C 
ATOM     11  C   UNL     1       5.349   2.134  -1.996  1.00  0.00     0.037 C 
ATOM     12  O   UNL     1       6.085   0.160  -0.917  1.00  0.00    -0.361 OA
ATOM     13  C   UNL     1       5.945   1.242  -3.045  1.00  0.00     0.047 C 
BRANCH  10  14
ATOM     14  C   UNL     1       5.103   1.804   0.571  1.00  0.00     0.148 C 
BRANCH  14  15
ATOM     15  N   UNL     1       3.990   2.719   0.389  1.00  0.00    -0.349 N 
ATOM     16  C   UNL     1       2.654   2.581   0.133  1.00  0.00     0.251 C 
ATOM     17  O   UNL     1       2.035   3.635  -0.036  1.00  0.00    -0.269 OA
ATOM     18  H   UNL     1       4.262   3.662   0.468  1.00  0.00     0.163 HD
BRANCH  16  19
ATOM     19  C   UNL     1       1.897   1.295   0.057  1.00  0.00     0.041 A 
ATOM     20  C   UNL     1       0.213  -1.001  -0.031  1.00  0.00     0.050 A 
ATOM     21  C   UNL     1       1.603  -1.116  -0.130  1.00  0.00     0.028 A 
ATOM     22  C   UNL     1      -0.331   0.288   0.039  1.00  0.00     0.064 A 
ATOM     23  C   UNL     1       2.438   0.017  -0.091  1.00  0.00     0.016 A 
ATOM     24  C   UNL     1       0.496   1.413   0.097  1.00  0.00     0.036 A 
ATOM     25  Cl  UNL     1      -2.045   0.525   0.075  1.00  0.00    -0.082 Cl
BRANCH  20  26
ATOM     26  N   UNL     1      -0.587  -2.135  -0.145  1.00  0.00    -0.398 N 
ATOM     27  H   UNL     1      -0.173  -3.026  -0.192  1.00  0.00     0.156 HD
ATOM     28  H   UNL     1      -1.567  -2.044  -0.180  1.00  0.00     0.156 HD
ENDBRANCH  20  26
ENDBRANCH  16  19
ENDBRANCH  14  15
ENDBRANCH  10  14
ENDBRANCH   7   9
ENDBRANCH   6   7
ENDBRANCH   5   6
ENDBRANCH   4   5
ENDBRANCH   3   4
ENDBRANCH   2   3
ENDBRANCH   1   2
BRANCH   1  29
ATOM     29  O   UNL     1       4.988  -3.093  -4.782  1.00  0.00    -0.377 OA
BRANCH  29  30
ATOM     30  C   UNL     1       4.544  -4.112  -5.672  1.00  0.00     0.188 C 
BRANCH  30  31
ATOM     31  C   UNL     1       4.741  -3.893  -7.188  1.00  0.00     0.188 C 
BRANCH  31  32
ATOM     32  O   UNL     1       4.203  -2.665  -7.670  1.00  0.00    -0.376 OA
BRANCH  32  33
ATOM     33  C   UNL     1       2.962  -2.710  -8.361  1.00  0.00     0.202 C 
BRANCH  33  34
ATOM     34  C   UNL     1       1.723  -3.004  -7.501  1.00  0.00     0.261 C 
BRANCH  34  35
ATOM     35  O   UNL     1       1.726  -4.268  -6.817  1.00  0.00    -0.460 OA
BRANCH  35  36
ATOM     36  C   UNL     1       1.799  -5.382  -7.579  1.00  0.00     0.338 C 
ATOM     37  O   UNL     1       1.791  -5.444  -8.791  1.00  0.00    -0.246 OA
BRANCH  36  38
ATOM     38  C   UNL     1       2.105  -6.523  -6.689  1.00  0.00     0.060 A 
ATOM     39  C   UNL     1       3.258  -7.277  -6.944  1.00  0.00     0.016 A 
ATOM     40  C   UNL     1       1.265  -6.854  -5.623  1.00  0.00     0.016 A 
ATOM     41  C   UNL     1       3.551  -8.390  -6.157  1.00  0.00     0.010 A 
ATOM     42  C   UNL     1       1.550  -7.984  -4.848  1.00  0.00     0.010 A 
ATOM     43  C   UNL     1       2.675  -8.777  -5.134  1.00  0.00    -0.014 A 
BRANCH  43  44
ATOM     44  C   UNL     1       2.847 -10.106  -4.497  1.00  0.00     0.031 A 
ATOM     45  C   UNL     1       2.008 -11.255  -4.989  1.00  0.00     0.074 A 
ATOM     46  C   UNL     1       3.770 -10.307  -3.539  1.00  0.00     0.049 A 
ATOM     47  N   UNL     1       1.981 -12.499  -4.585  1.00  0.00    -0.248 NA
ATOM     48  C   UNL     1       1.075 -10.960  -6.089  1.00  0.00     0.031 C 
ATOM     49  C   UNL     1       4.670  -9.289  -3.002  1.00  0.00     0.029 A 
ATOM     50  N   UNL     1       4.097 -11.446  -2.845  1.00  0.00    -0.354 N 
ATOM     51  C   UNL     1       1.040 -13.135  -5.385  1.00  0.00     0.074 A 
ATOM     52  C   UNL     1       0.486 -12.133  -6.269  1.00  0.00     0.031 C 
ATOM     53  C   UNL     1       5.440  -9.846  -2.051  1.00  0.00     0.029 A 
ATOM     54  C   UNL     1       5.069 -11.251  -1.894  1.00  0.00     0.049 A 
ATOM     55  H   UNL     1       3.675 -12.319  -3.013  1.00  0.00     0.167 HD
ATOM     56  C   UNL     1       0.682 -14.441  -5.397  1.00  0.00     0.037 A 
ATOM     57  C   UNL     1       5.582 -12.106  -0.987  1.00  0.00     0.037 A 
ATOM     58  C   UNL     1       1.224 -15.438  -4.512  1.00  0.00     0.049 A 
ATOM     59  C   UNL     1       5.104 -13.536  -0.964  1.00  0.00     0.074 A 
ATOM     60  C   UNL     1       0.916 -16.786  -4.441  1.00  0.00     0.029 A 
ATOM     61  N   UNL     1       2.182 -15.195  -3.540  1.00  0.00    -0.354 N 
ATOM     62  N   UNL     1       4.228 -14.131  -1.739  1.00  0.00    -0.248 NA
ATOM     63  C   UNL     1       5.693 -14.417   0.056  1.00  0.00     0.031 C 
ATOM     64  C   UNL     1       1.653 -17.348  -3.394  1.00  0.00     0.029 A 
ATOM     65  C   UNL     1       2.463 -16.363  -2.851  1.00  0.00     0.049 A 
ATOM     66  H   UNL     1       2.601 -14.321  -3.365  1.00  0.00     0.167 HD
ATOM     67  C   UNL     1       4.184 -15.456  -1.319  1.00  0.00     0.074 A 
ATOM     68  C   UNL     1       5.139 -15.584  -0.238  1.00  0.00     0.031 C 
ATOM     69  C   UNL     1       3.421 -16.477  -1.782  1.00  0.00     0.037 A 
BRANCH  56  70
ATOM     70  C   UNL     1      -0.355 -14.867  -6.394  1.00  0.00     0.057 A 
ATOM     71  C   UNL     1      -0.072 -14.944  -7.764  1.00  0.00     0.134 A 
ATOM     72  C   UNL     1      -1.635 -15.253  -5.977  1.00  0.00     0.134 A 
ATOM     73  F   UNL     1       1.130 -14.572  -8.232  1.00  0.00    -0.206 F 
ATOM     74  C   UNL     1      -1.028 -15.377  -8.684  1.00  0.00     0.040 A 
ATOM     75  C   UNL     1      -2.591 -15.713  -6.883  1.00  0.00     0.040 A 
ATOM     76  F   UNL     1      -1.971 -15.206  -4.679  1.00  0.00    -0.206 F 
ATOM     77  C   UNL     1      -2.289 -15.773  -8.243  1.00  0.00     0.006 A 
ENDBRANCH  56  70
BRANCH  57  78
ATOM     78  C   UNL     1       6.586 -11.638   0.005  1.00  0.00     0.057 A 
ATOM     79  C   UNL     1       7.897 -12.129   0.010  1.00  0.00     0.134 A 
ATOM     80  C   UNL     1       6.237 -10.731   1.014  1.00  0.00     0.134 A 
ATOM     81  F   UNL     1       8.288 -13.019  -0.914  1.00  0.00    -0.206 F 
ATOM     82  C   UNL     1       8.813 -11.762   0.998  1.00  0.00     0.040 A 
ATOM     83  C   UNL     1       7.152 -10.332   1.990  1.00  0.00     0.040 A 
ATOM     84  F   UNL     1       4.997 -10.222   1.069  1.00  0.00    -0.206 F 
ATOM     85  C   UNL     1       8.441 -10.858   1.991  1.00  0.00     0.006 A 
ENDBRANCH  57  78
BRANCH  69  86
ATOM     86  C   UNL     1       3.616 -17.826  -1.149  1.00  0.00     0.057 A 
ATOM     87  C   UNL     1       3.208 -18.097   0.164  1.00  0.00     0.134 A 
ATOM     88  C   UNL     1       4.199 -18.876  -1.872  1.00  0.00     0.134 A 
ATOM     89  F   UNL     1       2.653 -17.134   0.915  1.00  0.00    -0.206 F 
ATOM     90  C   UNL     1       3.406 -19.350   0.746  1.00  0.00     0.040 A 
ATOM     91  C   UNL     1       4.372 -20.142  -1.312  1.00  0.00     0.040 A 
ATOM     92  F   UNL     1       4.600 -18.691  -3.139  1.00  0.00    -0.206 F 
ATOM     93  C   UNL     1       3.984 -20.379   0.005  1.00  0.00     0.006 A 
ENDBRANCH  69  86
ENDBRANCH  43  44
ENDBRANCH  36  38
ENDBRANCH  35  36
ENDBRANCH  34  35
ENDBRANCH  33  34
ENDBRANCH  32  33
ENDBRANCH  31  32
ENDBRANCH  30  31
ENDBRANCH  29  30
ENDBRANCH   1  29
TORSDOF 24
