REMARK SMILES O=C(OCCOCCOCCOCCOC(=O)[C@H]1CC[C@@H]([NH+]2CCCC2)CC1)c1ccc(-c2c3nc(c(-c4c(F)cccc4F)c4ccc([nH]4)c(-c4c(F)cccc4F)c4nc(c(-c5c(F)cccc5F)c5ccc2[nH]5)C=C4)C=C3)cc1
REMARK SMILES IDX 8 1 7 2 6 3 5 4 4 5 3 6 2 7 1 8 29 9 30 10 82 11 31 12 81 13
REMARK SMILES IDX 32 14 33 15 34 16 75 17 35 18 80 19 74 20 76 21 36 22 79 23
REMARK SMILES IDX 73 24 72 25 37 27 63 28 46 29 62 30 47 31 50 32 61 33 77 34
REMARK SMILES IDX 48 35 49 36 60 38 78 39 51 40 38 41 39 42 44 43 40 44 41 45
REMARK SMILES IDX 43 46 45 47 42 48 64 49 65 50 70 51 66 52 67 53 69 54 71 55
REMARK SMILES IDX 68 56 52 57 53 58 58 59 54 60 55 61 57 62 59 63 56 64 9 65
REMARK SMILES IDX 10 66 11 67 12 68 13 69 14 70 15 71 16 72 17 73 18 74 19 75
REMARK SMILES IDX 28 76 20 77 27 78 21 79 22 80 23 81 26 82 24 84 25 85
REMARK H PARENT 76 26 50 37 22 83
REMARK Flexibility Score: inf
ROOT
ATOM      1  C   UNL     1       2.106  -2.600   0.191  1.00  0.00     0.188 C 
ENDROOT
BRANCH   1   2
ATOM      2  C   UNL     1       2.428  -1.242   0.785  1.00  0.00     0.188 C 
BRANCH   2   3
ATOM      3  O   UNL     1       3.655  -0.816   0.214  1.00  0.00    -0.376 OA
BRANCH   3   4
ATOM      4  C   UNL     1       4.539  -0.108   1.070  1.00  0.00     0.202 C 
BRANCH   4   5
ATOM      5  C   UNL     1       4.137   1.343   1.280  1.00  0.00     0.261 C 
BRANCH   5   6
ATOM      6  O   UNL     1       2.775   1.640   0.924  1.00  0.00    -0.460 OA
BRANCH   6   7
ATOM      7  C   UNL     1       2.199   1.859  -0.280  1.00  0.00     0.338 C 
ATOM      8  O   UNL     1       0.997   2.136  -0.300  1.00  0.00    -0.246 OA
BRANCH   7   9
ATOM      9  C   UNL     1       2.896   1.801  -1.601  1.00  0.00     0.060 A 
ATOM     10  C   UNL     1       3.991   0.998  -1.910  1.00  0.00     0.016 A 
ATOM     11  C   UNL     1       2.325   2.545  -2.649  1.00  0.00     0.016 A 
ATOM     12  C   UNL     1       4.524   0.928  -3.182  1.00  0.00     0.010 A 
ATOM     13  C   UNL     1       2.861   2.502  -3.939  1.00  0.00     0.010 A 
ATOM     14  C   UNL     1       3.980   1.703  -4.192  1.00  0.00    -0.014 A 
BRANCH  14  15
ATOM     15  C   UNL     1       4.786   1.836  -5.409  1.00  0.00     0.031 A 
ATOM     16  C   UNL     1       5.611   3.076  -5.536  1.00  0.00     0.074 A 
ATOM     17  C   UNL     1       4.917   0.796  -6.246  1.00  0.00     0.049 A 
ATOM     18  N   UNL     1       6.322   3.501  -6.538  1.00  0.00    -0.248 NA
ATOM     19  C   UNL     1       5.651   3.960  -4.354  1.00  0.00     0.031 C 
ATOM     20  C   UNL     1       4.303  -0.522  -6.059  1.00  0.00     0.029 A 
ATOM     21  N   UNL     1       5.632   0.673  -7.404  1.00  0.00    -0.354 N 
ATOM     22  C   UNL     1       6.840   4.725  -6.132  1.00  0.00     0.074 A 
ATOM     23  C   UNL     1       6.376   4.962  -4.783  1.00  0.00     0.031 C 
ATOM     24  C   UNL     1       4.662  -1.319  -7.078  1.00  0.00     0.029 A 
ATOM     25  C   UNL     1       5.451  -0.539  -8.023  1.00  0.00     0.049 A 
ATOM     26  H   UNL     1       6.217   1.381  -7.758  1.00  0.00     0.167 HD
ATOM     27  C   UNL     1       7.610   5.569  -6.845  1.00  0.00     0.037 A 
ATOM     28  C   UNL     1       5.831  -0.928  -9.253  1.00  0.00     0.037 A 
ATOM     29  C   UNL     1       8.040   5.268  -8.183  1.00  0.00     0.049 A 
ATOM     30  C   UNL     1       6.589   0.071 -10.084  1.00  0.00     0.074 A 
ATOM     31  C   UNL     1       8.753   6.049  -9.068  1.00  0.00     0.029 A 
ATOM     32  N   UNL     1       7.777   4.060  -8.823  1.00  0.00    -0.354 N 
ATOM     33  N   UNL     1       6.988   1.280  -9.757  1.00  0.00    -0.248 NA
ATOM     34  C   UNL     1       6.930  -0.327 -11.452  1.00  0.00     0.031 C 
ATOM     35  C   UNL     1       8.875   5.332 -10.264  1.00  0.00     0.029 A 
ATOM     36  C   UNL     1       8.291   4.081 -10.104  1.00  0.00     0.049 A 
ATOM     37  H   UNL     1       7.294   3.302  -8.422  1.00  0.00     0.167 HD
ATOM     38  C   UNL     1       7.638   1.786 -10.871  1.00  0.00     0.074 A 
ATOM     39  C   UNL     1       7.592   0.740 -11.879  1.00  0.00     0.031 C 
ATOM     40  C   UNL     1       8.217   2.999 -11.057  1.00  0.00     0.037 A 
BRANCH  27  41
ATOM     41  C   UNL     1       7.900   6.905  -6.226  1.00  0.00     0.057 A 
ATOM     42  C   UNL     1       8.739   7.059  -5.114  1.00  0.00     0.134 A 
ATOM     43  C   UNL     1       7.236   8.047  -6.693  1.00  0.00     0.134 A 
ATOM     44  F   UNL     1       9.372   5.999  -4.588  1.00  0.00    -0.206 F 
ATOM     45  C   UNL     1       8.872   8.289  -4.464  1.00  0.00     0.040 A 
ATOM     46  C   UNL     1       7.383   9.287  -6.069  1.00  0.00     0.040 A 
ATOM     47  F   UNL     1       6.405   7.970  -7.743  1.00  0.00    -0.206 F 
ATOM     48  C   UNL     1       8.192   9.408  -4.942  1.00  0.00     0.006 A 
ENDBRANCH  27  41
BRANCH  28  49
ATOM     49  C   UNL     1       5.415  -2.254  -9.777  1.00  0.00     0.057 A 
ATOM     50  C   UNL     1       6.345  -3.256 -10.068  1.00  0.00     0.134 A 
ATOM     51  C   UNL     1       4.061  -2.559  -9.983  1.00  0.00     0.134 A 
ATOM     52  F   UNL     1       7.657  -3.027  -9.911  1.00  0.00    -0.206 F 
ATOM     53  C   UNL     1       5.947  -4.508 -10.549  1.00  0.00     0.040 A 
ATOM     54  C   UNL     1       3.647  -3.813 -10.435  1.00  0.00     0.040 A 
ATOM     55  F   UNL     1       3.113  -1.646  -9.724  1.00  0.00    -0.206 F 
ATOM     56  C   UNL     1       4.593  -4.791 -10.726  1.00  0.00     0.006 A 
ENDBRANCH  28  49
BRANCH  40  57
ATOM     57  C   UNL     1       8.870   3.233 -12.383  1.00  0.00     0.057 A 
ATOM     58  C   UNL     1       8.121   3.474 -13.540  1.00  0.00     0.134 A 
ATOM     59  C   UNL     1      10.265   3.294 -12.479  1.00  0.00     0.134 A 
ATOM     60  F   UNL     1       6.782   3.415 -13.510  1.00  0.00    -0.206 F 
ATOM     61  C   UNL     1       8.742   3.758 -14.755  1.00  0.00     0.040 A 
ATOM     62  C   UNL     1      10.896   3.606 -13.680  1.00  0.00     0.040 A 
ATOM     63  F   UNL     1      11.032   3.082 -11.398  1.00  0.00    -0.206 F 
ATOM     64  C   UNL     1      10.133   3.836 -14.824  1.00  0.00     0.006 A 
ENDBRANCH  40  57
ENDBRANCH  14  15
ENDBRANCH   7   9
ENDBRANCH   6   7
ENDBRANCH   5   6
ENDBRANCH   4   5
ENDBRANCH   3   4
ENDBRANCH   2   3
ENDBRANCH   1   2
BRANCH   1  65
ATOM     65  O   UNL     1       3.056  -3.611   0.498  1.00  0.00    -0.377 OA
BRANCH  65  66
ATOM     66  C   UNL     1       4.423  -3.375   0.188  1.00  0.00     0.188 C 
BRANCH  66  67
ATOM     67  C   UNL     1       4.937  -3.465  -1.245  1.00  0.00     0.188 C 
BRANCH  67  68
ATOM     68  O   UNL     1       4.030  -3.641  -2.305  1.00  0.00    -0.376 OA
BRANCH  68  69
ATOM     69  C   UNL     1       3.088  -4.703  -2.271  1.00  0.00     0.202 C 
BRANCH  69  70
ATOM     70  C   UNL     1       3.357  -6.071  -1.606  1.00  0.00     0.261 C 
BRANCH  70  71
ATOM     71  O   UNL     1       3.687  -6.086  -0.195  1.00  0.00    -0.463 OA
BRANCH  71  72
ATOM     72  C   UNL     1       4.913  -6.562   0.150  1.00  0.00     0.309 C 
ATOM     73  O   UNL     1       5.732  -6.977  -0.668  1.00  0.00    -0.252 OA
BRANCH  72  74
ATOM     74  C   UNL     1       5.200  -6.624   1.667  1.00  0.00     0.099 C 
ATOM     75  C   UNL     1       4.691  -5.483   2.579  1.00  0.00     0.021 C 
ATOM     76  C   UNL     1       4.830  -8.036   2.115  1.00  0.00     0.021 C 
ATOM     77  C   UNL     1       4.472  -5.796   4.055  1.00  0.00     0.066 C 
ATOM     78  C   UNL     1       4.782  -8.207   3.622  1.00  0.00     0.066 C 
ATOM     79  C   UNL     1       3.885  -7.183   4.331  1.00  0.00     0.184 C 
BRANCH  79  80
ATOM     80  N   UNL     1       2.428  -7.281   4.162  1.00  0.00    -0.333 N 
ATOM     81  C   UNL     1       1.858  -8.582   4.511  1.00  0.00     0.262 C 
ATOM     82  C   UNL     1       1.770  -6.857   2.930  1.00  0.00     0.262 C 
ATOM     83  H   UNL     1       2.221  -6.546   4.839  1.00  0.00     0.348 HD
ATOM     84  C   UNL     1       1.558  -9.246   3.181  1.00  0.00     0.067 C 
ATOM     85  C   UNL     1       1.157  -8.093   2.284  1.00  0.00     0.067 C 
ENDBRANCH  79  80
ENDBRANCH  72  74
ENDBRANCH  71  72
ENDBRANCH  70  71
ENDBRANCH  69  70
ENDBRANCH  68  69
ENDBRANCH  67  68
ENDBRANCH  66  67
ENDBRANCH  65  66
ENDBRANCH   1  65
TORSDOF 21
