REMARK SMILES Cc1cc(C[N@H+]2CC[C@@H](C(=O)OCCOCCOCCOCCOC(=O)c3ccc(-c4c5nc(c(-c6c(F)cccc6F)c6ccc([nH]6)c(-c6c(F)cccc6F)c6nc(c(-c7c(F)cccc7F)c7ccc4[nH]7)C=C6)C=C5)cc3)[C@@H]2C)ccc1Br
REMARK SMILES IDX 18 1 17 2 16 3 15 4 14 5 13 6 12 7 10 8 11 9 9 10 6 11 7 12
REMARK SMILES IDX 81 13 8 15 82 16 5 17 4 18 1 19 2 20 3 21 85 22 84 23 86 24
REMARK SMILES IDX 83 25 19 26 20 27 21 28 22 29 23 30 24 31 25 32 26 33 27 34
REMARK SMILES IDX 28 35 80 36 29 37 79 38 30 39 31 40 32 41 73 42 33 43 78 44
REMARK SMILES IDX 72 45 74 46 34 47 77 48 71 49 70 50 35 52 61 53 44 54 60 55
REMARK SMILES IDX 45 56 48 57 59 58 75 59 46 60 47 61 58 63 76 64 49 65 36 66
REMARK SMILES IDX 37 67 42 68 38 69 39 70 41 71 43 72 40 73 62 74 63 75 68 76
REMARK SMILES IDX 64 77 65 78 67 79 69 80 66 81 50 82 51 83 56 84 52 85 53 86
REMARK SMILES IDX 55 87 57 88 54 89
REMARK H PARENT 6 14 74 51 48 62
REMARK Flexibility Score: inf
ROOT
ATOM      1  O   UNL     1       2.532   4.241   0.445  1.00  0.00    -0.377 OA
ENDROOT
BRANCH   1   2
ATOM      2  C   UNL     1       2.816   4.941  -0.759  1.00  0.00     0.188 C 
BRANCH   2   3
ATOM      3  C   UNL     1       1.701   5.356  -1.732  1.00  0.00     0.188 C 
BRANCH   3   4
ATOM      4  O   UNL     1       0.402   5.241  -1.207  1.00  0.00    -0.376 OA
BRANCH   4   5
ATOM      5  C   UNL     1      -0.397   4.122  -1.525  1.00  0.00     0.202 C 
BRANCH   5   6
ATOM      6  C   UNL     1       0.154   2.730  -1.889  1.00  0.00     0.261 C 
BRANCH   6   7
ATOM      7  O   UNL     1       1.568   2.491  -1.806  1.00  0.00    -0.463 OA
BRANCH   7   8
ATOM      8  C   UNL     1       2.197   2.291  -2.991  1.00  0.00     0.315 C 
ATOM      9  O   UNL     1       1.663   2.480  -4.083  1.00  0.00    -0.252 OA
BRANCH   8  10
ATOM     10  C   UNL     1       3.604   1.726  -2.905  1.00  0.00     0.162 C 
ATOM     11  N   UNL     1       4.988   0.511  -1.337  1.00  0.00    -0.328 N 
ATOM     12  C   UNL     1       4.775  -0.320  -2.514  1.00  0.00     0.263 C 
ATOM     13  C   UNL     1       4.428   1.847  -1.613  1.00  0.00     0.195 C 
ATOM     14  H   UNL     1       5.993   0.603  -1.184  1.00  0.00     0.348 HD
ATOM     15  C   UNL     1       3.535   0.231  -3.182  1.00  0.00     0.083 C 
ATOM     16  C   UNL     1       5.636   2.782  -1.799  1.00  0.00     0.076 C 
BRANCH  11  17
ATOM     17  C   UNL     1       4.617  -0.087  -0.049  1.00  0.00     0.299 C 
BRANCH  17  18
ATOM     18  C   UNL     1       3.142  -0.265   0.242  1.00  0.00     0.007 A 
ATOM     19  C   UNL     1       0.430  -2.900  -0.238  1.00  0.00     0.045 C 
ATOM     20  C   UNL     1       1.092  -1.605   0.139  1.00  0.00    -0.036 A 
ATOM     21  C   UNL     1       2.470  -1.448  -0.102  1.00  0.00     0.014 A 
ATOM     22  C   UNL     1       0.382  -0.532   0.698  1.00  0.00     0.020 A 
ATOM     23  C   UNL     1       1.046   0.632   1.081  1.00  0.00     0.016 A 
ATOM     24  Br  UNL     1      -1.501  -0.582   0.945  1.00  0.00    -0.051 Br
ATOM     25  C   UNL     1       2.418   0.754   0.873  1.00  0.00     0.011 A 
ENDBRANCH  17  18
ENDBRANCH  11  17
ENDBRANCH   8  10
ENDBRANCH   7   8
ENDBRANCH   6   7
ENDBRANCH   5   6
ENDBRANCH   4   5
ENDBRANCH   3   4
ENDBRANCH   2   3
ENDBRANCH   1   2
BRANCH   1  26
ATOM     26  C   UNL     1       1.451   4.658   1.271  1.00  0.00     0.188 C 
BRANCH  26  27
ATOM     27  C   UNL     1       1.108   6.155   1.399  1.00  0.00     0.188 C 
BRANCH  27  28
ATOM     28  O   UNL     1       1.998   7.023   0.717  1.00  0.00    -0.376 OA
BRANCH  28  29
ATOM     29  C   UNL     1       2.996   7.666   1.496  1.00  0.00     0.202 C 
BRANCH  29  30
ATOM     30  C   UNL     1       4.019   6.770   2.216  1.00  0.00     0.261 C 
BRANCH  30  31
ATOM     31  O   UNL     1       3.477   5.819   3.147  1.00  0.00    -0.460 OA
BRANCH  31  32
ATOM     32  C   UNL     1       2.821   6.315   4.210  1.00  0.00     0.338 C 
ATOM     33  O   UNL     1       2.644   7.496   4.491  1.00  0.00    -0.246 OA
BRANCH  32  34
ATOM     34  C   UNL     1       2.189   5.200   4.932  1.00  0.00     0.060 A 
ATOM     35  C   UNL     1       0.793   5.173   5.036  1.00  0.00     0.016 A 
ATOM     36  C   UNL     1       2.972   4.228   5.560  1.00  0.00     0.016 A 
ATOM     37  C   UNL     1       0.178   4.217   5.838  1.00  0.00     0.010 A 
ATOM     38  C   UNL     1       2.354   3.278   6.378  1.00  0.00     0.010 A 
ATOM     39  C   UNL     1       0.961   3.312   6.567  1.00  0.00    -0.014 A 
BRANCH  39  40
ATOM     40  C   UNL     1       0.335   2.605   7.709  1.00  0.00     0.031 A 
ATOM     41  C   UNL     1       0.495   3.196   9.084  1.00  0.00     0.074 A 
ATOM     42  C   UNL     1      -0.425   1.513   7.526  1.00  0.00     0.049 A 
ATOM     43  N   UNL     1      -0.005   2.800  10.226  1.00  0.00    -0.248 NA
ATOM     44  C   UNL     1       1.336   4.400   9.182  1.00  0.00     0.031 C 
ATOM     45  C   UNL     1      -0.679   0.865   6.242  1.00  0.00     0.029 A 
ATOM     46  N   UNL     1      -1.126   0.761   8.433  1.00  0.00    -0.354 N 
ATOM     47  C   UNL     1       0.467   3.699  11.175  1.00  0.00     0.074 A 
ATOM     48  C   UNL     1       1.324   4.636  10.483  1.00  0.00     0.031 C 
ATOM     49  C   UNL     1      -1.476  -0.198   6.445  1.00  0.00     0.029 A 
ATOM     50  C   UNL     1      -1.768  -0.314   7.873  1.00  0.00     0.049 A 
ATOM     51  H   UNL     1      -1.165   0.972   9.394  1.00  0.00     0.167 HD
ATOM     52  C   UNL     1       0.202   3.750  12.502  1.00  0.00     0.037 A 
ATOM     53  C   UNL     1      -2.498  -1.287   8.453  1.00  0.00     0.037 A 
ATOM     54  C   UNL     1      -0.650   2.815  13.188  1.00  0.00     0.049 A 
ATOM     55  C   UNL     1      -2.751  -1.239   9.937  1.00  0.00     0.074 A 
ATOM     56  C   UNL     1      -1.009   2.793  14.524  1.00  0.00     0.029 A 
ATOM     57  N   UNL     1      -1.266   1.725  12.590  1.00  0.00    -0.354 N 
ATOM     58  N   UNL     1      -2.337  -0.361  10.820  1.00  0.00    -0.248 NA
ATOM     59  C   UNL     1      -3.588  -2.306  10.500  1.00  0.00     0.031 C 
ATOM     60  C   UNL     1      -1.790   1.654  14.746  1.00  0.00     0.029 A 
ATOM     61  C   UNL     1      -1.976   1.004  13.536  1.00  0.00     0.049 A 
ATOM     62  H   UNL     1      -1.206   1.497  11.634  1.00  0.00     0.167 HD
ATOM     63  C   UNL     1      -2.881  -0.755  12.037  1.00  0.00     0.074 A 
ATOM     64  C   UNL     1      -3.668  -1.943  11.773  1.00  0.00     0.031 C 
ATOM     65  C   UNL     1      -2.749  -0.182  13.260  1.00  0.00     0.037 A 
BRANCH  52  66
ATOM     66  C   UNL     1       0.888   4.827  13.296  1.00  0.00     0.057 A 
ATOM     67  C   UNL     1       0.581   6.186  13.138  1.00  0.00     0.134 A 
ATOM     68  C   UNL     1       1.889   4.497  14.219  1.00  0.00     0.134 A 
ATOM     69  F   UNL     1      -0.355   6.574  12.258  1.00  0.00    -0.206 F 
ATOM     70  C   UNL     1       1.274   7.178  13.836  1.00  0.00     0.040 A 
ATOM     71  C   UNL     1       2.565   5.477  14.946  1.00  0.00     0.040 A 
ATOM     72  F   UNL     1       2.232   3.216  14.423  1.00  0.00    -0.206 F 
ATOM     73  C   UNL     1       2.267   6.823  14.746  1.00  0.00     0.006 A 
ENDBRANCH  52  66
BRANCH  53  74
ATOM     74  C   UNL     1      -3.034  -2.391   7.618  1.00  0.00     0.057 A 
ATOM     75  C   UNL     1      -4.402  -2.514   7.353  1.00  0.00     0.134 A 
ATOM     76  C   UNL     1      -2.178  -3.343   7.049  1.00  0.00     0.134 A 
ATOM     77  F   UNL     1      -5.274  -1.647   7.888  1.00  0.00    -0.206 F 
ATOM     78  C   UNL     1      -4.902  -3.546   6.557  1.00  0.00     0.040 A 
ATOM     79  C   UNL     1      -2.661  -4.364   6.230  1.00  0.00     0.040 A 
ATOM     80  F   UNL     1      -0.856  -3.279   7.264  1.00  0.00    -0.206 F 
ATOM     81  C   UNL     1      -4.028  -4.470   5.986  1.00  0.00     0.006 A 
ENDBRANCH  53  74
BRANCH  65  82
ATOM     82  C   UNL     1      -3.498  -0.813  14.401  1.00  0.00     0.057 A 
ATOM     83  C   UNL     1      -3.140  -2.060  14.930  1.00  0.00     0.134 A 
ATOM     84  C   UNL     1      -4.577  -0.146  14.998  1.00  0.00     0.134 A 
ATOM     85  F   UNL     1      -2.123  -2.757  14.402  1.00  0.00    -0.206 F 
ATOM     86  C   UNL     1      -3.850  -2.636  15.986  1.00  0.00     0.040 A 
ATOM     87  C   UNL     1      -5.273  -0.697  16.075  1.00  0.00     0.040 A 
ATOM     88  F   UNL     1      -4.965   1.058  14.552  1.00  0.00    -0.206 F 
ATOM     89  C   UNL     1      -4.916  -1.951  16.565  1.00  0.00     0.006 A 
ENDBRANCH  65  82
ENDBRANCH  39  40
ENDBRANCH  32  34
ENDBRANCH  31  32
ENDBRANCH  30  31
ENDBRANCH  29  30
ENDBRANCH  28  29
ENDBRANCH  27  28
ENDBRANCH  26  27
ENDBRANCH   1  26
TORSDOF 22
