REMARK SMILES [NH3+][C@H](C(=O)OCCOCCOCCOCCOC(=O)c1ccc(-c2c3nc(c(-c4c(F)cccc4F)c4ccc([nH]4)c(-c4c(F)cccc4F)c4nc(c(-c5c(F)cccc5F)c5ccc2[nH]5)C=C4)C=C3)cc1)c1cc2[nH]ccc2cc1O
REMARK SMILES IDX 11 1 10 2 9 3 8 4 7 5 6 6 5 7 3 8 4 9 2 10 1 11 74 15 75 16
REMARK SMILES IDX 82 17 76 18 81 19 77 20 80 21 78 22 79 24 83 25 12 27 13 28
REMARK SMILES IDX 14 29 15 30 16 31 17 32 18 33 19 34 20 35 21 36 73 37 22 38
REMARK SMILES IDX 72 39 23 40 24 41 25 42 66 43 26 44 71 45 65 46 67 47 27 48
REMARK SMILES IDX 70 49 64 50 63 51 28 53 54 54 37 55 53 56 38 57 41 58 52 59
REMARK SMILES IDX 68 60 39 61 40 62 51 64 69 65 42 66 29 67 30 68 35 69 31 70
REMARK SMILES IDX 32 71 34 72 36 73 33 74 55 75 56 76 61 77 57 78 58 79 60 80
REMARK SMILES IDX 62 81 59 82 43 83 44 84 49 85 45 86 46 87 48 88 50 89 47 90
REMARK H PARENT 1 12 1 13 1 14 77 23 83 26 67 52 41 63
REMARK Flexibility Score: inf
ROOT
ATOM      1  O   UNL     1       2.727   0.666   2.449  1.00  0.00    -0.377 OA
ENDROOT
BRANCH   1   2
ATOM      2  C   UNL     1       2.449  -0.537   1.738  1.00  0.00     0.188 C 
BRANCH   2   3
ATOM      3  C   UNL     1       3.328  -0.643   0.472  1.00  0.00     0.188 C 
BRANCH   3   4
ATOM      4  O   UNL     1       3.988   0.583   0.181  1.00  0.00    -0.376 OA
BRANCH   4   5
ATOM      5  C   UNL     1       3.294   1.497  -0.660  1.00  0.00     0.202 C 
BRANCH   5   6
ATOM      6  C   UNL     1       1.803   1.770  -0.399  1.00  0.00     0.261 C 
BRANCH   6   7
ATOM      7  O   UNL     1       0.934   0.616  -0.374  1.00  0.00    -0.459 OA
BRANCH   7   8
ATOM      8  C   UNL     1       0.765  -0.133  -1.491  1.00  0.00     0.369 C 
ATOM      9  O   UNL     1       1.318   0.115  -2.557  1.00  0.00    -0.245 OA
BRANCH   8  10
ATOM     10  C   UNL     1      -0.064  -1.419  -1.235  1.00  0.00     0.327 C 
BRANCH  10  11
ATOM     11  N   UNL     1       0.720  -2.523  -0.609  1.00  0.00    -0.342 N 
ATOM     12  H   UNL     1       0.116  -3.333  -0.470  1.00  0.00     0.345 HD
ATOM     13  H   UNL     1       1.085  -2.212   0.291  1.00  0.00     0.345 HD
ATOM     14  H   UNL     1       1.495  -2.778  -1.221  1.00  0.00     0.345 HD
ENDBRANCH  10  11
BRANCH  10  15
ATOM     15  C   UNL     1      -1.419  -1.297  -0.553  1.00  0.00     0.065 A 
ATOM     16  C   UNL     1      -1.904  -0.100  -0.003  1.00  0.00     0.041 A 
ATOM     17  C   UNL     1      -2.282  -2.408  -0.596  1.00  0.00     0.126 A 
ATOM     18  C   UNL     1      -3.278  -0.005   0.248  1.00  0.00     0.046 A 
ATOM     19  C   UNL     1      -3.648  -2.309  -0.334  1.00  0.00     0.057 A 
ATOM     20  N   UNL     1      -4.023   1.067   0.684  1.00  0.00    -0.361 N 
ATOM     21  C   UNL     1      -4.165  -1.056   0.026  1.00  0.00     0.003 A 
ATOM     22  C   UNL     1      -5.358   0.784   0.570  1.00  0.00     0.083 A 
ATOM     23  H   UNL     1      -3.652   1.912   1.027  1.00  0.00     0.166 HD
ATOM     24  C   UNL     1      -5.475  -0.536   0.200  1.00  0.00     0.028 A 
BRANCH  17  25
ATOM     25  O   UNL     1      -1.813  -3.654  -0.931  1.00  0.00    -0.507 OA
ATOM     26  H   UNL     1      -0.903  -3.777  -1.117  1.00  0.00     0.293 HD
ENDBRANCH  17  25
ENDBRANCH  10  15
ENDBRANCH   8  10
ENDBRANCH   7   8
ENDBRANCH   6   7
ENDBRANCH   5   6
ENDBRANCH   4   5
ENDBRANCH   3   4
ENDBRANCH   2   3
ENDBRANCH   1   2
BRANCH   1  27
ATOM     27  C   UNL     1       3.713   0.532   3.467  1.00  0.00     0.188 C 
BRANCH  27  28
ATOM     28  C   UNL     1       5.006  -0.229   3.108  1.00  0.00     0.188 C 
BRANCH  28  29
ATOM     29  O   UNL     1       4.753  -1.574   2.705  1.00  0.00    -0.376 OA
BRANCH  29  30
ATOM     30  C   UNL     1       5.064  -2.635   3.590  1.00  0.00     0.202 C 
BRANCH  30  31
ATOM     31  C   UNL     1       4.046  -2.861   4.715  1.00  0.00     0.261 C 
BRANCH  31  32
ATOM     32  O   UNL     1       3.825  -1.741   5.581  1.00  0.00    -0.460 OA
BRANCH  32  33
ATOM     33  C   UNL     1       4.894  -1.224   6.223  1.00  0.00     0.338 C 
ATOM     34  O   UNL     1       6.034  -1.654   6.227  1.00  0.00    -0.246 OA
BRANCH  33  35
ATOM     35  C   UNL     1       4.493   0.101   6.738  1.00  0.00     0.060 A 
ATOM     36  C   UNL     1       5.283   1.213   6.419  1.00  0.00     0.016 A 
ATOM     37  C   UNL     1       3.315   0.253   7.476  1.00  0.00     0.016 A 
ATOM     38  C   UNL     1       4.911   2.480   6.862  1.00  0.00     0.010 A 
ATOM     39  C   UNL     1       2.960   1.516   7.948  1.00  0.00     0.010 A 
ATOM     40  C   UNL     1       3.777   2.625   7.672  1.00  0.00    -0.014 A 
BRANCH  40  41
ATOM     41  C   UNL     1       3.608   3.871   8.450  1.00  0.00     0.031 A 
ATOM     42  C   UNL     1       4.233   3.919   9.817  1.00  0.00     0.074 A 
ATOM     43  C   UNL     1       2.949   4.932   7.956  1.00  0.00     0.049 A 
ATOM     44  N   UNL     1       4.218   4.876  10.706  1.00  0.00    -0.248 NA
ATOM     45  C   UNL     1       4.978   2.718  10.234  1.00  0.00     0.031 C 
ATOM     46  C   UNL     1       2.339   5.011   6.631  1.00  0.00     0.029 A 
ATOM     47  N   UNL     1       2.681   6.150   8.527  1.00  0.00    -0.354 N 
ATOM     48  C   UNL     1       4.957   4.397  11.780  1.00  0.00     0.074 A 
ATOM     49  C   UNL     1       5.375   3.053  11.450  1.00  0.00     0.031 C 
ATOM     50  C   UNL     1       1.752   6.214   6.495  1.00  0.00     0.029 A 
ATOM     51  C   UNL     1       1.925   6.975   7.732  1.00  0.00     0.049 A 
ATOM     52  H   UNL     1       3.000   6.407   9.422  1.00  0.00     0.167 HD
ATOM     53  C   UNL     1       5.268   5.024  12.937  1.00  0.00     0.037 A 
ATOM     54  C   UNL     1       1.419   8.196   7.991  1.00  0.00     0.037 A 
ATOM     55  C   UNL     1       4.829   6.351  13.270  1.00  0.00     0.049 A 
ATOM     56  C   UNL     1       1.707   8.844   9.321  1.00  0.00     0.074 A 
ATOM     57  C   UNL     1       5.078   7.079  14.419  1.00  0.00     0.029 A 
ATOM     58  N   UNL     1       4.037   7.143  12.453  1.00  0.00    -0.354 N 
ATOM     59  N   UNL     1       2.425   8.394  10.324  1.00  0.00    -0.248 NA
ATOM     60  C   UNL     1       1.118  10.170   9.556  1.00  0.00     0.031 C 
ATOM     61  C   UNL     1       4.396   8.296  14.316  1.00  0.00     0.029 A 
ATOM     62  C   UNL     1       3.767   8.345  13.081  1.00  0.00     0.049 A 
ATOM     63  H   UNL     1       3.714   6.887  11.559  1.00  0.00     0.167 HD
ATOM     64  C   UNL     1       2.396   9.390  11.293  1.00  0.00     0.074 A 
ATOM     65  C   UNL     1       1.599  10.473  10.754  1.00  0.00     0.031 C 
ATOM     66  C   UNL     1       2.976   9.410  12.519  1.00  0.00     0.037 A 
BRANCH  53  67
ATOM     67  C   UNL     1       6.094   4.260  13.927  1.00  0.00     0.057 A 
ATOM     68  C   UNL     1       7.451   3.991  13.707  1.00  0.00     0.134 A 
ATOM     69  C   UNL     1       5.524   3.782  15.113  1.00  0.00     0.134 A 
ATOM     70  F   UNL     1       8.050   4.399  12.578  1.00  0.00    -0.206 F 
ATOM     71  C   UNL     1       8.207   3.254  14.620  1.00  0.00     0.040 A 
ATOM     72  C   UNL     1       6.275   3.066  16.046  1.00  0.00     0.040 A 
ATOM     73  F   UNL     1       4.228   3.999  15.383  1.00  0.00    -0.206 F 
ATOM     74  C   UNL     1       7.619   2.795  15.797  1.00  0.00     0.006 A 
ENDBRANCH  53  67
BRANCH  54  75
ATOM     75  C   UNL     1       0.574   8.884   6.981  1.00  0.00     0.057 A 
ATOM     76  C   UNL     1       1.014  10.039   6.325  1.00  0.00     0.134 A 
ATOM     77  C   UNL     1      -0.708   8.415   6.666  1.00  0.00     0.134 A 
ATOM     78  F   UNL     1       2.222  10.553   6.602  1.00  0.00    -0.206 F 
ATOM     79  C   UNL     1       0.206  10.713   5.407  1.00  0.00     0.040 A 
ATOM     80  C   UNL     1      -1.517   9.064   5.732  1.00  0.00     0.040 A 
ATOM     81  F   UNL     1      -1.191   7.314   7.260  1.00  0.00    -0.206 F 
ATOM     82  C   UNL     1      -1.063  10.222   5.105  1.00  0.00     0.006 A 
ENDBRANCH  54  75
BRANCH  66  83
ATOM     83  C   UNL     1       2.802  10.652  13.343  1.00  0.00     0.057 A 
ATOM     84  C   UNL     1       1.583  10.970  13.955  1.00  0.00     0.134 A 
ATOM     85  C   UNL     1       3.886  11.510  13.572  1.00  0.00     0.134 A 
ATOM     86  F   UNL     1       0.505  10.193  13.767  1.00  0.00    -0.206 F 
ATOM     87  C   UNL     1       1.442  12.109  14.748  1.00  0.00     0.040 A 
ATOM     88  C   UNL     1       3.764  12.637  14.385  1.00  0.00     0.040 A 
ATOM     89  F   UNL     1       5.084  11.256  13.026  1.00  0.00    -0.206 F 
ATOM     90  C   UNL     1       2.537  12.943  14.971  1.00  0.00     0.006 A 
ENDBRANCH  66  83
ENDBRANCH  40  41
ENDBRANCH  33  35
ENDBRANCH  32  33
ENDBRANCH  31  32
ENDBRANCH  30  31
ENDBRANCH  29  30
ENDBRANCH  28  29
ENDBRANCH  27  28
ENDBRANCH   1  27
TORSDOF 23
