REMARK SMILES N#CCSc1nnnn1-c1ccc(C(=O)OCCOCCOCCOCCOC(=O)c2ccc(-c3c4nc(c(-c5c(F)cccc5F)c5ccc([nH]5)c(-c5c(F)cccc5F)c5nc(c(-c6c(F)cccc6F)c6ccc3[nH]6)C=C5)C=C4)cc2)cc1
REMARK SMILES IDX 21 1 20 2 19 3 18 4 17 5 16 6 14 7 15 8 13 9 10 10 11 11
REMARK SMILES IDX 86 12 12 13 85 14 9 15 5 16 6 17 7 18 8 19 4 20 3 21 2 22
REMARK SMILES IDX 1 23 22 24 23 25 24 26 25 27 26 28 27 29 28 30 29 31 30 32
REMARK SMILES IDX 31 33 32 34 84 35 33 36 83 37 34 38 35 39 36 40 77 41 37 42
REMARK SMILES IDX 82 43 76 44 78 45 38 46 81 47 75 48 74 49 39 51 65 52 48 53
REMARK SMILES IDX 64 54 49 55 52 56 63 57 79 58 50 59 51 60 62 62 80 63 53 64
REMARK SMILES IDX 40 65 41 66 46 67 42 68 43 69 45 70 47 71 44 72 66 73 67 74
REMARK SMILES IDX 72 75 68 76 69 77 71 78 73 79 70 80 54 81 55 82 60 83 56 84
REMARK SMILES IDX 57 85 59 86 61 87 58 88
REMARK H PARENT 78 50 52 61
REMARK Flexibility Score: inf
ROOT
ATOM      1  C   UNL     1      -0.514   0.614  -7.725  1.00  0.00     0.188 C 
ENDROOT
BRANCH   1   2
ATOM      2  C   UNL     1      -1.728   1.188  -6.957  1.00  0.00     0.188 C 
BRANCH   2   3
ATOM      3  O   UNL     1      -2.171   2.440  -7.444  1.00  0.00    -0.376 OA
BRANCH   3   4
ATOM      4  C   UNL     1      -1.992   3.604  -6.672  1.00  0.00     0.202 C 
BRANCH   4   5
ATOM      5  C   UNL     1      -0.567   3.994  -6.261  1.00  0.00     0.261 C 
BRANCH   5   6
ATOM      6  O   UNL     1       0.264   2.927  -5.792  1.00  0.00    -0.460 OA
BRANCH   6   7
ATOM      7  C   UNL     1      -0.043   2.424  -4.580  1.00  0.00     0.338 C 
ATOM      8  O   UNL     1      -0.935   2.802  -3.834  1.00  0.00    -0.246 OA
BRANCH   7   9
ATOM      9  C   UNL     1       0.760   1.202  -4.366  1.00  0.00     0.060 A 
ATOM     10  C   UNL     1       2.266  -1.021  -3.686  1.00  0.00     0.069 A 
ATOM     11  C   UNL     1       0.876  -1.074  -3.544  1.00  0.00     0.029 A 
ATOM     12  C   UNL     1       2.885   0.070  -4.313  1.00  0.00     0.029 A 
ATOM     13  C   UNL     1       0.129   0.062  -3.849  1.00  0.00     0.018 A 
ATOM     14  C   UNL     1       2.125   1.181  -4.669  1.00  0.00     0.018 A 
BRANCH  10  15
ATOM     15  N   UNL     1       3.042  -1.980  -3.006  1.00  0.00    -0.187 N 
ATOM     16  C   UNL     1       4.080  -1.766  -2.112  1.00  0.00     0.215 A 
ATOM     17  N   UNL     1       4.425  -2.913  -1.573  1.00  0.00    -0.101 NA
ATOM     18  N   UNL     1       3.573  -3.847  -2.108  1.00  0.00    -0.022 NA
ATOM     19  N   UNL     1       2.688  -3.283  -2.920  1.00  0.00    -0.039 NA
BRANCH  16  20
ATOM     20  S   UNL     1       4.648  -0.207  -1.600  1.00  0.00    -0.069 SA
BRANCH  20  21
ATOM     21  C   UNL     1       3.863  -0.048   0.031  1.00  0.00     0.198 C 
BRANCH  21  22
ATOM     22  C   UNL     1       2.343  -0.048   0.031  1.00  0.00     0.074 C 
ATOM     23  N   UNL     1       1.082  -0.048   0.031  1.00  0.00    -0.197 NA
ENDBRANCH  21  22
ENDBRANCH  20  21
ENDBRANCH  16  20
ENDBRANCH  10  15
ENDBRANCH   7   9
ENDBRANCH   6   7
ENDBRANCH   5   6
ENDBRANCH   4   5
ENDBRANCH   3   4
ENDBRANCH   2   3
ENDBRANCH   1   2
BRANCH   1  24
ATOM     24  O   UNL     1       0.158   1.392  -8.708  1.00  0.00    -0.377 OA
BRANCH  24  25
ATOM     25  C   UNL     1      -0.579   2.212  -9.610  1.00  0.00     0.188 C 
BRANCH  25  26
ATOM     26  C   UNL     1      -2.016   1.855 -10.086  1.00  0.00     0.188 C 
BRANCH  26  27
ATOM     27  O   UNL     1      -2.638   0.771  -9.423  1.00  0.00    -0.376 OA
BRANCH  27  28
ATOM     28  C   UNL     1      -2.850  -0.504  -9.990  1.00  0.00     0.202 C 
BRANCH  28  29
ATOM     29  C   UNL     1      -1.692  -1.273 -10.611  1.00  0.00     0.261 C 
BRANCH  29  30
ATOM     30  O   UNL     1      -0.692  -0.442 -11.152  1.00  0.00    -0.460 OA
BRANCH  30  31
ATOM     31  C   UNL     1      -1.031   0.154 -12.301  1.00  0.00     0.338 C 
ATOM     32  O   UNL     1      -2.130   0.130 -12.856  1.00  0.00    -0.246 OA
BRANCH  31  33
ATOM     33  C   UNL     1       0.170   0.770 -12.861  1.00  0.00     0.060 A 
ATOM     34  C   UNL     1      -0.021   1.410 -14.084  1.00  0.00     0.016 A 
ATOM     35  C   UNL     1       1.398   0.215 -12.471  1.00  0.00     0.016 A 
ATOM     36  C   UNL     1       0.886   1.129 -15.069  1.00  0.00     0.010 A 
ATOM     37  C   UNL     1       2.279  -0.102 -13.463  1.00  0.00     0.010 A 
ATOM     38  C   UNL     1       1.937   0.260 -14.761  1.00  0.00    -0.014 A 
BRANCH  38  39
ATOM     39  C   UNL     1       2.721  -0.244 -15.854  1.00  0.00     0.031 A 
ATOM     40  C   UNL     1       3.733   0.730 -16.284  1.00  0.00     0.074 A 
ATOM     41  C   UNL     1       2.569  -1.492 -16.329  1.00  0.00     0.049 A 
ATOM     42  N   UNL     1       3.711   1.475 -17.336  1.00  0.00    -0.248 NA
ATOM     43  C   UNL     1       4.768   1.090 -15.301  1.00  0.00     0.031 C 
ATOM     44  C   UNL     1       1.813  -2.610 -15.759  1.00  0.00     0.029 A 
ATOM     45  N   UNL     1       3.163  -2.043 -17.416  1.00  0.00    -0.354 N 
ATOM     46  C   UNL     1       4.867   2.237 -17.251  1.00  0.00     0.074 A 
ATOM     47  C   UNL     1       5.318   2.150 -15.890  1.00  0.00     0.031 C 
ATOM     48  C   UNL     1       2.182  -3.755 -16.383  1.00  0.00     0.029 A 
ATOM     49  C   UNL     1       3.084  -3.426 -17.473  1.00  0.00     0.049 A 
ATOM     50  H   UNL     1       3.613  -1.506 -18.108  1.00  0.00     0.167 HD
ATOM     51  C   UNL     1       5.536   2.607 -18.373  1.00  0.00     0.037 A 
ATOM     52  C   UNL     1       3.812  -4.206 -18.310  1.00  0.00     0.037 A 
ATOM     53  C   UNL     1       4.691   2.513 -19.538  1.00  0.00     0.049 A 
ATOM     54  C   UNL     1       4.322  -3.329 -19.401  1.00  0.00     0.074 A 
ATOM     55  C   UNL     1       3.502   3.099 -19.925  1.00  0.00     0.029 A 
ATOM     56  N   UNL     1       4.846   1.412 -20.346  1.00  0.00    -0.354 N 
ATOM     57  N   UNL     1       3.560  -2.772 -20.303  1.00  0.00    -0.248 NA
ATOM     58  C   UNL     1       5.615  -2.689 -19.201  1.00  0.00     0.031 C 
ATOM     59  C   UNL     1       2.788   2.076 -20.617  1.00  0.00     0.029 A 
ATOM     60  C   UNL     1       3.597   0.941 -20.661  1.00  0.00     0.049 A 
ATOM     61  H   UNL     1       5.702   1.030 -20.646  1.00  0.00     0.167 HD
ATOM     62  C   UNL     1       4.084  -1.498 -20.480  1.00  0.00     0.074 A 
ATOM     63  C   UNL     1       5.392  -1.532 -19.830  1.00  0.00     0.031 C 
ATOM     64  C   UNL     1       3.293  -0.457 -20.877  1.00  0.00     0.037 A 
BRANCH  51  65
ATOM     65  C   UNL     1       7.041   2.645 -18.453  1.00  0.00     0.057 A 
ATOM     66  C   UNL     1       7.641   3.173 -19.607  1.00  0.00     0.134 A 
ATOM     67  C   UNL     1       7.917   1.950 -17.589  1.00  0.00     0.134 A 
ATOM     68  F   UNL     1       6.914   3.840 -20.515  1.00  0.00    -0.206 F 
ATOM     69  C   UNL     1       8.991   2.963 -19.911  1.00  0.00     0.040 A 
ATOM     70  C   UNL     1       9.277   1.785 -17.855  1.00  0.00     0.040 A 
ATOM     71  F   UNL     1       7.503   1.301 -16.495  1.00  0.00    -0.206 F 
ATOM     72  C   UNL     1       9.812   2.263 -19.036  1.00  0.00     0.006 A 
ENDBRANCH  51  65
BRANCH  52  73
ATOM     73  C   UNL     1       4.409  -5.530 -18.023  1.00  0.00     0.057 A 
ATOM     74  C   UNL     1       4.865  -6.357 -19.057  1.00  0.00     0.134 A 
ATOM     75  C   UNL     1       4.802  -5.892 -16.722  1.00  0.00     0.134 A 
ATOM     76  F   UNL     1       4.582  -6.066 -20.335  1.00  0.00    -0.206 F 
ATOM     77  C   UNL     1       5.681  -7.471 -18.815  1.00  0.00     0.040 A 
ATOM     78  C   UNL     1       5.611  -7.004 -16.465  1.00  0.00     0.040 A 
ATOM     79  F   UNL     1       4.493  -5.127 -15.665  1.00  0.00    -0.206 F 
ATOM     80  C   UNL     1       6.064  -7.792 -17.515  1.00  0.00     0.006 A 
ENDBRANCH  52  73
BRANCH  64  81
ATOM     81  C   UNL     1       1.903  -0.780 -21.358  1.00  0.00     0.057 A 
ATOM     82  C   UNL     1       0.901  -1.339 -20.550  1.00  0.00     0.134 A 
ATOM     83  C   UNL     1       1.524  -0.372 -22.641  1.00  0.00     0.134 A 
ATOM     84  F   UNL     1       1.144  -1.670 -19.275  1.00  0.00    -0.206 F 
ATOM     85  C   UNL     1      -0.406  -1.521 -21.014  1.00  0.00     0.040 A 
ATOM     86  C   UNL     1       0.214  -0.516 -23.105  1.00  0.00     0.040 A 
ATOM     87  F   UNL     1       2.414   0.222 -23.451  1.00  0.00    -0.206 F 
ATOM     88  C   UNL     1      -0.754  -1.101 -22.294  1.00  0.00     0.006 A 
ENDBRANCH  64  81
ENDBRANCH  38  39
ENDBRANCH  31  33
ENDBRANCH  30  31
ENDBRANCH  29  30
ENDBRANCH  28  29
ENDBRANCH  27  28
ENDBRANCH  26  27
ENDBRANCH  25  26
ENDBRANCH  24  25
ENDBRANCH   1  24
TORSDOF 24
