REMARK SMILES O=C(OCCOCCOCCOCCOC(=O)C1(C[C@@H]2COc3ccccc32)CC[NH2+]CC1)c1ccc(-c2c3nc(c(-c4c(F)cccc4F)c4ccc([nH]4)c(-c4c(F)cccc4F)c4nc(c(-c5c(F)cccc5F)c5ccc2[nH]5)C=C4)C=C3)cc1
REMARK SMILES IDX 9 1 8 2 7 3 6 4 5 5 4 6 3 7 2 8 1 9 34 10 35 11 87 12 36 13
REMARK SMILES IDX 86 14 37 15 38 16 39 17 80 18 40 19 85 20 79 21 81 22 41 23
REMARK SMILES IDX 84 24 78 25 77 26 42 28 68 29 51 30 67 31 52 32 55 33 66 34
REMARK SMILES IDX 82 35 53 36 54 37 65 39 83 40 56 41 43 42 44 43 49 44 45 45
REMARK SMILES IDX 46 46 48 47 50 48 47 49 69 50 70 51 75 52 71 53 72 54 74 55
REMARK SMILES IDX 76 56 73 57 57 58 58 59 63 60 59 61 60 62 62 63 64 64 61 65
REMARK SMILES IDX 10 66 11 67 12 68 13 69 14 70 15 71 16 72 17 73 18 74 29 75
REMARK SMILES IDX 33 76 30 77 32 78 31 79 19 82 20 83 21 84 28 85 22 86 23 87
REMARK SMILES IDX 27 88 24 89 26 90 25 91
REMARK H PARENT 81 27 55 38 31 80 31 81
REMARK Flexibility Score: inf
ROOT
ATOM      1  O   UNL     1       9.200   5.552  -3.314  1.00  0.00    -0.377 OA
ENDROOT
BRANCH   1   2
ATOM      2  C   UNL     1       9.983   6.659  -2.879  1.00  0.00     0.188 C 
BRANCH   2   3
ATOM      3  C   UNL     1       9.180   7.726  -2.135  1.00  0.00     0.188 C 
BRANCH   3   4
ATOM      4  O   UNL     1       8.704   7.356  -0.831  1.00  0.00    -0.376 OA
BRANCH   4   5
ATOM      5  C   UNL     1       7.332   7.683  -0.553  1.00  0.00     0.202 C 
BRANCH   5   6
ATOM      6  C   UNL     1       6.920   9.169  -0.590  1.00  0.00     0.261 C 
BRANCH   6   7
ATOM      7  O   UNL     1       7.706   9.993  -1.468  1.00  0.00    -0.460 OA
BRANCH   7   8
ATOM      8  C   UNL     1       8.876  10.634  -1.222  1.00  0.00     0.338 C 
ATOM      9  O   UNL     1       9.387  11.293  -2.126  1.00  0.00    -0.246 OA
BRANCH   8  10
ATOM     10  C   UNL     1       9.591  10.570   0.088  1.00  0.00     0.060 A 
ATOM     11  C   UNL     1       9.364   9.609   1.067  1.00  0.00     0.016 A 
ATOM     12  C   UNL     1      10.582  11.535   0.339  1.00  0.00     0.016 A 
ATOM     13  C   UNL     1       9.965   9.670   2.304  1.00  0.00     0.010 A 
ATOM     14  C   UNL     1      11.239  11.583   1.574  1.00  0.00     0.010 A 
ATOM     15  C   UNL     1      10.880  10.677   2.576  1.00  0.00    -0.014 A 
BRANCH  15  16
ATOM     16  C   UNL     1      11.222  10.857   3.994  1.00  0.00     0.031 A 
ATOM     17  C   UNL     1      10.544  11.977   4.725  1.00  0.00     0.074 A 
ATOM     18  C   UNL     1      11.895   9.889   4.639  1.00  0.00     0.049 A 
ATOM     19  N   UNL     1      10.674  12.354   5.965  1.00  0.00    -0.248 NA
ATOM     20  C   UNL     1       9.562  12.766   3.956  1.00  0.00     0.031 C 
ATOM     21  C   UNL     1      12.408   8.661   4.021  1.00  0.00     0.029 A 
ATOM     22  N   UNL     1      12.205   9.749   5.962  1.00  0.00    -0.354 N 
ATOM     23  C   UNL     1       9.823  13.441   6.114  1.00  0.00     0.074 A 
ATOM     24  C   UNL     1       9.177  13.668   4.844  1.00  0.00     0.031 C 
ATOM     25  C   UNL     1      12.941   7.880   4.973  1.00  0.00     0.029 A 
ATOM     26  C   UNL     1      12.888   8.591   6.244  1.00  0.00     0.049 A 
ATOM     27  H   UNL     1      11.963  10.413   6.647  1.00  0.00     0.167 HD
ATOM     28  C   UNL     1       9.613  14.183   7.223  1.00  0.00     0.037 A 
ATOM     29  C   UNL     1      13.447   8.189   7.399  1.00  0.00     0.037 A 
ATOM     30  C   UNL     1      10.272  13.916   8.470  1.00  0.00     0.049 A 
ATOM     31  C   UNL     1      13.306   9.103   8.586  1.00  0.00     0.074 A 
ATOM     32  C   UNL     1      10.264  14.653   9.636  1.00  0.00     0.029 A 
ATOM     33  N   UNL     1      11.059  12.794   8.702  1.00  0.00    -0.354 N 
ATOM     34  N   UNL     1      12.623  10.220   8.691  1.00  0.00    -0.248 NA
ATOM     35  C   UNL     1      14.030   8.721   9.802  1.00  0.00     0.031 C 
ATOM     36  C   UNL     1      11.075  13.991  10.566  1.00  0.00     0.029 A 
ATOM     37  C   UNL     1      11.550  12.820   9.992  1.00  0.00     0.049 A 
ATOM     38  H   UNL     1      11.239  12.084   8.043  1.00  0.00     0.167 HD
ATOM     39  C   UNL     1      12.831  10.674   9.984  1.00  0.00     0.074 A 
ATOM     40  C   UNL     1      13.676   9.690  10.635  1.00  0.00     0.031 C 
ATOM     41  C   UNL     1      12.385  11.806  10.585  1.00  0.00     0.037 A 
BRANCH  28  42
ATOM     42  C   UNL     1       8.715  15.374   7.083  1.00  0.00     0.057 A 
ATOM     43  C   UNL     1       7.324  15.253   6.963  1.00  0.00     0.134 A 
ATOM     44  C   UNL     1       9.260  16.662   7.004  1.00  0.00     0.134 A 
ATOM     45  F   UNL     1       6.742  14.045   6.987  1.00  0.00    -0.206 F 
ATOM     46  C   UNL     1       6.511  16.369   6.749  1.00  0.00     0.040 A 
ATOM     47  C   UNL     1       8.456  17.786   6.811  1.00  0.00     0.040 A 
ATOM     48  F   UNL     1      10.586  16.846   7.092  1.00  0.00    -0.206 F 
ATOM     49  C   UNL     1       7.077  17.640   6.675  1.00  0.00     0.006 A 
ENDBRANCH  28  42
BRANCH  29  50
ATOM     50  C   UNL     1      14.261   6.947   7.460  1.00  0.00     0.057 A 
ATOM     51  C   UNL     1      13.916   5.876   8.292  1.00  0.00     0.134 A 
ATOM     52  C   UNL     1      15.439   6.816   6.709  1.00  0.00     0.134 A 
ATOM     53  F   UNL     1      12.815   5.941   9.054  1.00  0.00    -0.206 F 
ATOM     54  C   UNL     1      14.721   4.738   8.395  1.00  0.00     0.040 A 
ATOM     55  C   UNL     1      16.235   5.672   6.777  1.00  0.00     0.040 A 
ATOM     56  F   UNL     1      15.835   7.803   5.890  1.00  0.00    -0.206 F 
ATOM     57  C   UNL     1      15.883   4.633   7.632  1.00  0.00     0.006 A 
ENDBRANCH  29  50
BRANCH  41  58
ATOM     58  C   UNL     1      12.792  12.005  12.011  1.00  0.00     0.057 A 
ATOM     59  C   UNL     1      14.100  12.366  12.357  1.00  0.00     0.134 A 
ATOM     60  C   UNL     1      11.856  11.861  13.042  1.00  0.00     0.134 A 
ATOM     61  F   UNL     1      15.041  12.502  11.410  1.00  0.00    -0.206 F 
ATOM     62  C   UNL     1      14.470  12.552  13.687  1.00  0.00     0.040 A 
ATOM     63  C   UNL     1      12.209  12.073  14.373  1.00  0.00     0.040 A 
ATOM     64  F   UNL     1      10.586  11.526  12.768  1.00  0.00    -0.206 F 
ATOM     65  C   UNL     1      13.521  12.412  14.698  1.00  0.00     0.006 A 
ENDBRANCH  41  58
ENDBRANCH  15  16
ENDBRANCH   8  10
ENDBRANCH   7   8
ENDBRANCH   6   7
ENDBRANCH   5   6
ENDBRANCH   4   5
ENDBRANCH   3   4
ENDBRANCH   2   3
ENDBRANCH   1   2
BRANCH   1  66
ATOM     66  C   UNL     1       8.524   4.895  -2.262  1.00  0.00     0.188 C 
BRANCH  66  67
ATOM     67  C   UNL     1       9.426   4.239  -1.226  1.00  0.00     0.188 C 
BRANCH  67  68
ATOM     68  O   UNL     1      10.519   4.932  -0.641  1.00  0.00    -0.376 OA
BRANCH  68  69
ATOM     69  C   UNL     1      11.165   4.184   0.410  1.00  0.00     0.202 C 
BRANCH  69  70
ATOM     70  C   UNL     1      11.476   2.707   0.079  1.00  0.00     0.261 C 
BRANCH  70  71
ATOM     71  O   UNL     1      10.291   1.924  -0.215  1.00  0.00    -0.463 OA
BRANCH  71  72
ATOM     72  C   UNL     1       9.354   1.780   0.745  1.00  0.00     0.312 C 
ATOM     73  O   UNL     1       9.594   1.996   1.937  1.00  0.00    -0.252 OA
BRANCH  72  74
ATOM     74  C   UNL     1       7.979   1.332   0.198  1.00  0.00     0.079 C 
ATOM     75  C   UNL     1       7.737  -0.065   0.801  1.00  0.00     0.080 C 
ATOM     76  C   UNL     1       7.924   1.157  -1.357  1.00  0.00     0.080 C 
ATOM     77  C   UNL     1       8.667  -1.120   0.191  1.00  0.00     0.261 C 
ATOM     78  C   UNL     1       8.773   0.029  -1.927  1.00  0.00     0.261 C 
ATOM     79  N   UNL     1       8.474  -1.225  -1.253  1.00  0.00    -0.346 N 
ATOM     80  H   UNL     1       7.503  -1.477  -1.439  1.00  0.00     0.346 HD
ATOM     81  H   UNL     1       9.110  -1.938  -1.609  1.00  0.00     0.346 HD
BRANCH  74  82
ATOM     82  C   UNL     1       6.817   2.368   0.497  1.00  0.00     0.031 C 
BRANCH  82  83
ATOM     83  C   UNL     1       6.451   2.950   1.873  1.00  0.00     0.062 C 
ATOM     84  C   UNL     1       7.428   3.916   2.560  1.00  0.00     0.238 C 
ATOM     85  C   UNL     1       6.239   1.961   2.945  1.00  0.00     0.001 A 
ATOM     86  O   UNL     1       7.698   3.471   3.911  1.00  0.00    -0.493 OA
ATOM     87  C   UNL     1       7.001   2.301   4.046  1.00  0.00     0.122 A 
ATOM     88  C   UNL     1       5.439   0.831   2.942  1.00  0.00     0.008 A 
ATOM     89  C   UNL     1       7.047   1.494   5.162  1.00  0.00     0.047 A 
ATOM     90  C   UNL     1       5.492  -0.013   4.048  1.00  0.00     0.001 A 
ATOM     91  C   UNL     1       6.299   0.313   5.149  1.00  0.00     0.004 A 
ENDBRANCH  82  83
ENDBRANCH  74  82
ENDBRANCH  72  74
ENDBRANCH  71  72
ENDBRANCH  70  71
ENDBRANCH  69  70
ENDBRANCH  68  69
ENDBRANCH  67  68
ENDBRANCH  66  67
ENDBRANCH   1  66
TORSDOF 22
