REMARK SMILES COc1ccccc1[C@@H]1CN(C(=O)c2cc(C(C)C)nc(N)n2)C[C@H]1C(=O)OCCOCCOCCOCCOC(=O)c1ccc(-c2c3nc(c(-c4c(F)cccc4F)c4ccc([nH]4)c(-c4c(F)cccc4F)c4nc(c(-c5c(F)cccc5F)c5ccc2[nH]5)C=C4)C=C3)cc1
REMARK SMILES IDX 33 1 32 2 31 3 30 4 29 5 28 6 26 7 27 8 25 9 9 10 10 11
REMARK SMILES IDX 11 12 24 13 8 14 3 15 4 16 5 17 7 18 6 19 2 20 1 21 12 22
REMARK SMILES IDX 13 23 14 24 15 25 23 26 16 27 21 28 20 29 17 30 18 31 19 32
REMARK SMILES IDX 22 33 34 36 35 37 36 38 37 39 38 40 39 41 40 42 41 43 42 44
REMARK SMILES IDX 43 45 44 46 96 47 45 48 95 49 46 50 47 51 48 52 89 53 49 54
REMARK SMILES IDX 94 55 88 56 90 57 50 58 93 59 87 60 86 61 51 63 77 64 60 65
REMARK SMILES IDX 76 66 61 67 64 68 75 69 91 70 62 71 63 72 74 74 92 75 65 76
REMARK SMILES IDX 52 77 53 78 58 79 54 80 55 81 57 82 59 83 56 84 78 85 79 86
REMARK SMILES IDX 84 87 80 88 81 89 83 90 85 91 82 92 66 93 67 94 72 95 68 96
REMARK SMILES IDX 69 97 71 98 73 99 70 100
REMARK H PARENT 22 34 22 35 90 62 64 73
REMARK Flexibility Score: inf
ROOT
ATOM      1  C   UNL     1       2.118  -3.426  -2.414  1.00  0.00     0.188 C 
ENDROOT
BRANCH   1   2
ATOM      2  C   UNL     1       1.448  -2.764  -3.620  1.00  0.00     0.188 C 
BRANCH   2   3
ATOM      3  O   UNL     1       2.050  -2.846  -4.892  1.00  0.00    -0.376 OA
BRANCH   3   4
ATOM      4  C   UNL     1       3.387  -2.424  -5.101  1.00  0.00     0.202 C 
BRANCH   4   5
ATOM      5  C   UNL     1       4.089  -1.297  -4.312  1.00  0.00     0.261 C 
BRANCH   5   6
ATOM      6  O   UNL     1       3.919  -1.249  -2.878  1.00  0.00    -0.463 OA
BRANCH   6   7
ATOM      7  C   UNL     1       3.118  -0.263  -2.432  1.00  0.00     0.311 C 
ATOM      8  O   UNL     1       2.593   0.567  -3.176  1.00  0.00    -0.252 OA
BRANCH   7   9
ATOM      9  C   UNL     1       2.900  -0.154  -0.935  1.00  0.00     0.128 C 
ATOM     10  C   UNL     1       3.148  -1.217   0.177  1.00  0.00     0.058 C 
ATOM     11  C   UNL     1       3.594  -0.369   1.369  1.00  0.00     0.129 C 
ATOM     12  N   UNL     1       4.324   0.718   0.757  1.00  0.00    -0.336 N 
ATOM     13  C   UNL     1       3.758   1.044  -0.529  1.00  0.00     0.136 C 
BRANCH  10  14
ATOM     14  C   UNL     1       2.044  -2.158   0.675  1.00  0.00    -0.000 A 
ATOM     15  C   UNL     1       0.709  -1.811   0.954  1.00  0.00     0.122 A 
ATOM     16  C   UNL     1      -0.244  -2.802   1.252  1.00  0.00     0.047 A 
ATOM     17  C   UNL     1       0.142  -4.131   1.420  1.00  0.00     0.004 A 
ATOM     18  C   UNL     1       2.420  -3.494   0.945  1.00  0.00     0.008 A 
ATOM     19  C   UNL     1       1.488  -4.459   1.341  1.00  0.00     0.001 A 
BRANCH  15  20
ATOM     20  O   UNL     1       0.376  -0.543   1.362  1.00  0.00    -0.496 OA
ATOM     21  C   UNL     1      -0.098   0.348   0.366  1.00  0.00     0.278 C 
ENDBRANCH  15  20
ENDBRANCH  10  14
BRANCH  12  22
ATOM     22  C   UNL     1       5.324   1.502   1.300  1.00  0.00     0.272 C 
ATOM     23  O   UNL     1       5.793   2.476   0.715  1.00  0.00    -0.267 OA
BRANCH  22  24
ATOM     24  C   UNL     1       5.864   1.117   2.624  1.00  0.00     0.134 A 
ATOM     25  C   UNL     1       6.447  -0.120   2.779  1.00  0.00     0.058 A 
ATOM     26  N   UNL     1       5.721   2.026   3.605  1.00  0.00    -0.208 NA
ATOM     27  C   UNL     1       6.833  -0.434   4.060  1.00  0.00     0.049 A 
ATOM     28  C   UNL     1       6.171   1.652   4.794  1.00  0.00     0.220 A 
ATOM     29  N   UNL     1       6.704   0.454   5.070  1.00  0.00    -0.218 NA
BRANCH  27  30
ATOM     30  C   UNL     1       7.376  -1.804   4.410  1.00  0.00     0.032 C 
ATOM     31  C   UNL     1       6.285  -2.873   4.295  1.00  0.00     0.014 C 
ATOM     32  C   UNL     1       8.592  -2.175   3.559  1.00  0.00     0.014 C 
ENDBRANCH  27  30
BRANCH  28  33
ATOM     33  N   UNL     1       6.091   2.567   5.801  1.00  0.00    -0.368 N 
ATOM     34  H   UNL     1       6.413   2.336   6.703  1.00  0.00     0.159 HD
ATOM     35  H   UNL     1       5.713   3.459   5.628  1.00  0.00     0.159 HD
ENDBRANCH  28  33
ENDBRANCH  22  24
ENDBRANCH  12  22
ENDBRANCH   7   9
ENDBRANCH   6   7
ENDBRANCH   5   6
ENDBRANCH   4   5
ENDBRANCH   3   4
ENDBRANCH   2   3
ENDBRANCH   1   2
BRANCH   1  36
ATOM     36  O   UNL     1       3.495  -3.727  -2.510  1.00  0.00    -0.377 OA
BRANCH  36  37
ATOM     37  C   UNL     1       3.897  -4.960  -3.083  1.00  0.00     0.188 C 
BRANCH  37  38
ATOM     38  C   UNL     1       2.892  -5.790  -3.898  1.00  0.00     0.188 C 
BRANCH  38  39
ATOM     39  O   UNL     1       1.593  -5.865  -3.333  1.00  0.00    -0.376 OA
BRANCH  39  40
ATOM     40  C   UNL     1       1.274  -6.968  -2.498  1.00  0.00     0.202 C 
BRANCH  40  41
ATOM     41  C   UNL     1       2.067  -7.124  -1.193  1.00  0.00     0.261 C 
BRANCH  41  42
ATOM     42  O   UNL     1       3.480  -7.340  -1.305  1.00  0.00    -0.460 OA
BRANCH  42  43
ATOM     43  C   UNL     1       3.909  -8.367  -2.070  1.00  0.00     0.338 C 
ATOM     44  O   UNL     1       3.240  -9.207  -2.627  1.00  0.00    -0.246 OA
BRANCH  43  45
ATOM     45  C   UNL     1       5.359  -8.163  -2.280  1.00  0.00     0.060 A 
ATOM     46  C   UNL     1       5.833  -8.012  -3.588  1.00  0.00     0.016 A 
ATOM     47  C   UNL     1       6.233  -8.104  -1.192  1.00  0.00     0.016 A 
ATOM     48  C   UNL     1       7.197  -7.847  -3.817  1.00  0.00     0.010 A 
ATOM     49  C   UNL     1       7.602  -7.958  -1.423  1.00  0.00     0.010 A 
ATOM     50  C   UNL     1       8.091  -7.871  -2.739  1.00  0.00    -0.014 A 
BRANCH  50  51
ATOM     51  C   UNL     1       9.538  -8.037  -3.004  1.00  0.00     0.031 A 
ATOM     52  C   UNL     1      10.116  -9.423  -2.923  1.00  0.00     0.074 A 
ATOM     53  C   UNL     1      10.312  -6.992  -3.343  1.00  0.00     0.049 A 
ATOM     54  N   UNL     1      11.350  -9.822  -3.086  1.00  0.00    -0.248 NA
ATOM     55  C   UNL     1       9.168 -10.506  -2.612  1.00  0.00     0.031 C 
ATOM     56  C   UNL     1       9.854  -5.612  -3.491  1.00  0.00     0.029 A 
ATOM     57  N   UNL     1      11.654  -6.935  -3.618  1.00  0.00    -0.354 N 
ATOM     58  C   UNL     1      11.327 -11.197  -2.892  1.00  0.00     0.074 A 
ATOM     59  C   UNL     1       9.967 -11.560  -2.562  1.00  0.00     0.031 C 
ATOM     60  C   UNL     1      10.904  -4.839  -3.820  1.00  0.00     0.029 A 
ATOM     61  C   UNL     1      12.110  -5.665  -3.872  1.00  0.00     0.049 A 
ATOM     62  H   UNL     1      12.236  -7.729  -3.631  1.00  0.00     0.167 HD
ATOM     63  C   UNL     1      12.347 -12.081  -2.992  1.00  0.00     0.037 A 
ATOM     64  C   UNL     1      13.362  -5.222  -4.096  1.00  0.00     0.037 A 
ATOM     65  C   UNL     1      13.699 -11.710  -3.314  1.00  0.00     0.049 A 
ATOM     66  C   UNL     1      14.497  -6.214  -4.128  1.00  0.00     0.074 A 
ATOM     67  C   UNL     1      14.806 -12.527  -3.455  1.00  0.00     0.029 A 
ATOM     68  N   UNL     1      14.128 -10.410  -3.534  1.00  0.00    -0.354 N 
ATOM     69  N   UNL     1      14.463  -7.517  -3.973  1.00  0.00    -0.248 NA
ATOM     70  C   UNL     1      15.843  -5.676  -4.370  1.00  0.00     0.031 C 
ATOM     71  C   UNL     1      15.918 -11.713  -3.697  1.00  0.00     0.029 A 
ATOM     72  C   UNL     1      15.491 -10.397  -3.777  1.00  0.00     0.049 A 
ATOM     73  H   UNL     1      13.549  -9.613  -3.520  1.00  0.00     0.167 HD
ATOM     74  C   UNL     1      15.773  -7.956  -4.129  1.00  0.00     0.074 A 
ATOM     75  C   UNL     1      16.574  -6.781  -4.405  1.00  0.00     0.031 C 
ATOM     76  C   UNL     1      16.270  -9.216  -4.055  1.00  0.00     0.037 A 
BRANCH  63  77
ATOM     77  C   UNL     1      12.040 -13.524  -2.713  1.00  0.00     0.057 A 
ATOM     78  C   UNL     1      11.248 -14.299  -3.571  1.00  0.00     0.134 A 
ATOM     79  C   UNL     1      12.556 -14.152  -1.572  1.00  0.00     0.134 A 
ATOM     80  F   UNL     1      10.706 -13.755  -4.672  1.00  0.00    -0.206 F 
ATOM     81  C   UNL     1      10.956 -15.635  -3.290  1.00  0.00     0.040 A 
ATOM     82  C   UNL     1      12.297 -15.496  -1.296  1.00  0.00     0.040 A 
ATOM     83  F   UNL     1      13.322 -13.471  -0.707  1.00  0.00    -0.206 F 
ATOM     84  C   UNL     1      11.488 -16.239  -2.153  1.00  0.00     0.006 A 
ENDBRANCH  63  77
BRANCH  64  85
ATOM     85  C   UNL     1      13.616  -3.771  -4.291  1.00  0.00     0.057 A 
ATOM     86  C   UNL     1      14.052  -3.264  -5.521  1.00  0.00     0.134 A 
ATOM     87  C   UNL     1      13.446  -2.857  -3.244  1.00  0.00     0.134 A 
ATOM     88  F   UNL     1      14.256  -4.090  -6.558  1.00  0.00    -0.206 F 
ATOM     89  C   UNL     1      14.329  -1.906  -5.697  1.00  0.00     0.040 A 
ATOM     90  C   UNL     1      13.690  -1.493  -3.413  1.00  0.00     0.040 A 
ATOM     91  F   UNL     1      13.028  -3.276  -2.040  1.00  0.00    -0.206 F 
ATOM     92  C   UNL     1      14.142  -1.016  -4.641  1.00  0.00     0.006 A 
ENDBRANCH  64  85
BRANCH  76  93
ATOM     93  C   UNL     1      17.739  -9.397  -4.314  1.00  0.00     0.057 A 
ATOM     94  C   UNL     1      18.714  -8.958  -3.410  1.00  0.00     0.134 A 
ATOM     95  C   UNL     1      18.179 -10.063  -5.466  1.00  0.00     0.134 A 
ATOM     96  F   UNL     1      18.362  -8.305  -2.293  1.00  0.00    -0.206 F 
ATOM     97  C   UNL     1      20.075  -9.151  -3.656  1.00  0.00     0.040 A 
ATOM     98  C   UNL     1      19.535 -10.291  -5.706  1.00  0.00     0.040 A 
ATOM     99  F   UNL     1      17.298 -10.522  -6.367  1.00  0.00    -0.206 F 
ATOM    100  C   UNL     1      20.488  -9.827  -4.803  1.00  0.00     0.006 A 
ENDBRANCH  76  93
ENDBRANCH  50  51
ENDBRANCH  43  45
ENDBRANCH  42  43
ENDBRANCH  41  42
ENDBRANCH  40  41
ENDBRANCH  39  40
ENDBRANCH  38  39
ENDBRANCH  37  38
ENDBRANCH  36  37
ENDBRANCH   1  36
TORSDOF 26
