REMARK SMILES C[C@H](C(=O)OCCOCCOCCOCCOC(=O)c1ccc(-c2c3nc(c(-c4c(F)cccc4F)c4ccc([nH]4)c(-c4c(F)cccc4F)c4nc(c(-c5c(F)cccc5F)c5ccc2[nH]5)C=C4)C=C3)cc1)c1ccc2c(c1)[nH]c1ccc(Cl)cc12
REMARK SMILES IDX 12 1 11 2 10 3 9 4 8 5 7 6 6 7 5 8 3 9 4 10 2 11 1 12 74 13
REMARK SMILES IDX 75 14 79 15 76 16 78 17 77 18 80 19 87 20 81 21 86 23 82 24
REMARK SMILES IDX 84 25 83 26 85 27 13 28 14 29 15 30 16 31 17 32 18 33 19 34
REMARK SMILES IDX 20 35 21 36 73 37 22 38 72 39 23 40 24 41 25 42 66 43 26 44
REMARK SMILES IDX 71 45 65 46 67 47 27 48 70 49 64 50 63 51 28 53 54 54 37 55
REMARK SMILES IDX 53 56 38 57 41 58 52 59 68 60 39 61 40 62 51 64 69 65 42 66
REMARK SMILES IDX 29 67 30 68 35 69 31 70 32 71 34 72 36 73 33 74 55 75 56 76
REMARK SMILES IDX 61 77 57 78 58 79 60 80 62 81 59 82 43 83 44 84 49 85 45 86
REMARK SMILES IDX 46 87 48 88 50 89 47 90
REMARK H PARENT 80 22 67 52 41 63
REMARK Flexibility Score: inf
ROOT
ATOM      1  C   UNL     1       0.883  -1.900  -3.425  1.00  0.00     0.188 C 
ENDROOT
BRANCH   1   2
ATOM      2  O   UNL     1       0.199  -0.714  -3.070  1.00  0.00    -0.377 OA
BRANCH   2   3
ATOM      3  C   UNL     1       0.828   0.213  -2.187  1.00  0.00     0.188 C 
BRANCH   3   4
ATOM      4  C   UNL     1       2.270   0.034  -1.628  1.00  0.00     0.188 C 
BRANCH   4   5
ATOM      5  O   UNL     1       2.711  -1.312  -1.559  1.00  0.00    -0.376 OA
BRANCH   5   6
ATOM      6  C   UNL     1       2.772  -1.967  -0.308  1.00  0.00     0.202 C 
BRANCH   6   7
ATOM      7  C   UNL     1       1.533  -1.941   0.584  1.00  0.00     0.261 C 
BRANCH   7   8
ATOM      8  O   UNL     1       0.812  -0.705   0.554  1.00  0.00    -0.463 OA
BRANCH   8   9
ATOM      9  C   UNL     1       1.055   0.261   1.473  1.00  0.00     0.313 C 
ATOM     10  O   UNL     1       1.972   0.212   2.283  1.00  0.00    -0.252 OA
BRANCH   9  11
ATOM     11  C   UNL     1       0.076   1.446   1.337  1.00  0.00     0.126 C 
ATOM     12  C   UNL     1       0.718   2.548   0.485  1.00  0.00     0.025 C 
BRANCH  11  13
ATOM     13  C   UNL     1      -1.373   1.091   0.956  1.00  0.00    -0.032 A 
ATOM     14  C   UNL     1      -2.303   2.058   0.531  1.00  0.00     0.005 A 
ATOM     15  C   UNL     1      -1.843  -0.212   1.173  1.00  0.00     0.031 A 
ATOM     16  C   UNL     1      -3.677   1.754   0.361  1.00  0.00     0.011 A 
ATOM     17  C   UNL     1      -3.196  -0.491   1.022  1.00  0.00     0.047 A 
ATOM     18  C   UNL     1      -4.143   0.454   0.656  1.00  0.00     0.007 A 
ATOM     19  N   UNL     1      -3.844  -1.672   1.252  1.00  0.00    -0.355 N 
ATOM     20  C   UNL     1      -5.427  -0.183   0.793  1.00  0.00     0.009 A 
ATOM     21  C   UNL     1      -5.194  -1.464   1.303  1.00  0.00     0.047 A 
ATOM     22  H   UNL     1      -3.403  -2.545   1.364  1.00  0.00     0.167 HD
ATOM     23  C   UNL     1      -6.769   0.222   0.634  1.00  0.00     0.031 A 
ATOM     24  C   UNL     1      -6.195  -2.313   1.775  1.00  0.00     0.028 A 
ATOM     25  C   UNL     1      -7.789  -0.632   1.078  1.00  0.00     0.041 A 
ATOM     26  C   UNL     1      -7.507  -1.860   1.675  1.00  0.00     0.022 A 
ATOM     27  Cl  UNL     1      -9.434  -0.147   0.914  1.00  0.00    -0.084 Cl
ENDBRANCH  11  13
ENDBRANCH   9  11
ENDBRANCH   8   9
ENDBRANCH   7   8
ENDBRANCH   6   7
ENDBRANCH   5   6
ENDBRANCH   4   5
ENDBRANCH   3   4
ENDBRANCH   2   3
ENDBRANCH   1   2
BRANCH   1  28
ATOM     28  C   UNL     1       2.124  -1.688  -4.312  1.00  0.00     0.188 C 
BRANCH  28  29
ATOM     29  O   UNL     1       2.611  -0.359  -4.292  1.00  0.00    -0.376 OA
BRANCH  29  30
ATOM     30  C   UNL     1       2.272   0.552  -5.320  1.00  0.00     0.202 C 
BRANCH  30  31
ATOM     31  C   UNL     1       0.838   0.718  -5.852  1.00  0.00     0.261 C 
BRANCH  31  32
ATOM     32  O   UNL     1       0.021  -0.450  -5.943  1.00  0.00    -0.460 OA
BRANCH  32  33
ATOM     33  C   UNL     1       0.294  -1.327  -6.925  1.00  0.00     0.338 C 
ATOM     34  O   UNL     1       1.186  -1.260  -7.757  1.00  0.00    -0.246 OA
BRANCH  33  35
ATOM     35  C   UNL     1      -0.571  -2.500  -6.702  1.00  0.00     0.060 A 
ATOM     36  C   UNL     1       0.019  -3.736  -6.408  1.00  0.00     0.016 A 
ATOM     37  C   UNL     1      -1.960  -2.366  -6.752  1.00  0.00     0.016 A 
ATOM     38  C   UNL     1      -0.782  -4.851  -6.179  1.00  0.00     0.010 A 
ATOM     39  C   UNL     1      -2.761  -3.492  -6.560  1.00  0.00     0.010 A 
ATOM     40  C   UNL     1      -2.172  -4.742  -6.303  1.00  0.00    -0.014 A 
BRANCH  40  41
ATOM     41  C   UNL     1      -2.989  -5.971  -6.390  1.00  0.00     0.031 A 
ATOM     42  C   UNL     1      -3.325  -6.494  -7.758  1.00  0.00     0.074 A 
ATOM     43  C   UNL     1      -3.402  -6.619  -5.288  1.00  0.00     0.049 A 
ATOM     44  N   UNL     1      -4.069  -7.512  -8.099  1.00  0.00    -0.248 NA
ATOM     45  C   UNL     1      -2.740  -5.763  -8.895  1.00  0.00     0.031 C 
ATOM     46  C   UNL     1      -3.097  -6.231  -3.913  1.00  0.00     0.029 A 
ATOM     47  N   UNL     1      -4.181  -7.740  -5.160  1.00  0.00    -0.354 N 
ATOM     48  C   UNL     1      -4.046  -7.542  -9.488  1.00  0.00     0.074 A 
ATOM     49  C   UNL     1      -3.244  -6.421  -9.927  1.00  0.00     0.031 C 
ATOM     50  C   UNL     1      -3.703  -7.092  -3.076  1.00  0.00     0.029 A 
ATOM     51  C   UNL     1      -4.463  -8.066  -3.857  1.00  0.00     0.049 A 
ATOM     52  H   UNL     1      -4.508  -8.261  -5.929  1.00  0.00     0.167 HD
ATOM     53  C   UNL     1      -4.634  -8.430 -10.322  1.00  0.00     0.037 A 
ATOM     54  C   UNL     1      -5.269  -9.024  -3.360  1.00  0.00     0.037 A 
ATOM     55  C   UNL     1      -5.442  -9.533  -9.878  1.00  0.00     0.049 A 
ATOM     56  C   UNL     1      -5.987  -9.948  -4.312  1.00  0.00     0.074 A 
ATOM     57  C   UNL     1      -6.083 -10.493 -10.639  1.00  0.00     0.029 A 
ATOM     58  N   UNL     1      -5.731  -9.814  -8.550  1.00  0.00    -0.354 N 
ATOM     59  N   UNL     1      -5.945  -9.986  -5.622  1.00  0.00    -0.248 NA
ATOM     60  C   UNL     1      -6.863 -10.966  -3.714  1.00  0.00     0.031 C 
ATOM     61  C   UNL     1      -6.807 -11.321  -9.776  1.00  0.00     0.029 A 
ATOM     62  C   UNL     1      -6.563 -10.918  -8.473  1.00  0.00     0.049 A 
ATOM     63  H   UNL     1      -5.394  -9.304  -7.778  1.00  0.00     0.167 HD
ATOM     64  C   UNL     1      -6.759 -11.047  -6.002  1.00  0.00     0.074 A 
ATOM     65  C   UNL     1      -7.271 -11.635  -4.782  1.00  0.00     0.031 C 
ATOM     66  C   UNL     1      -7.055 -11.497  -7.247  1.00  0.00     0.037 A 
BRANCH  53  67
ATOM     67  C   UNL     1      -4.448  -8.219 -11.796  1.00  0.00     0.057 A 
ATOM     68  C   UNL     1      -3.211  -8.416 -12.424  1.00  0.00     0.134 A 
ATOM     69  C   UNL     1      -5.526  -7.831 -12.601  1.00  0.00     0.134 A 
ATOM     70  F   UNL     1      -2.132  -8.769 -11.708  1.00  0.00    -0.206 F 
ATOM     71  C   UNL     1      -3.048  -8.212 -13.795  1.00  0.00     0.040 A 
ATOM     72  C   UNL     1      -5.383  -7.654 -13.977  1.00  0.00     0.040 A 
ATOM     73  F   UNL     1      -6.738  -7.625 -12.064  1.00  0.00    -0.206 F 
ATOM     74  C   UNL     1      -4.139  -7.837 -14.577  1.00  0.00     0.006 A 
ENDBRANCH  53  67
BRANCH  54  75
ATOM     75  C   UNL     1      -5.464  -9.149  -1.893  1.00  0.00     0.057 A 
ATOM     76  C   UNL     1      -5.008 -10.271  -1.190  1.00  0.00     0.134 A 
ATOM     77  C   UNL     1      -6.141  -8.165  -1.162  1.00  0.00     0.134 A 
ATOM     78  F   UNL     1      -4.372 -11.259  -1.836  1.00  0.00    -0.206 F 
ATOM     79  C   UNL     1      -5.237 -10.420   0.179  1.00  0.00     0.040 A 
ATOM     80  C   UNL     1      -6.352  -8.287   0.212  1.00  0.00     0.040 A 
ATOM     81  F   UNL     1      -6.603  -7.064  -1.773  1.00  0.00    -0.206 F 
ATOM     82  C   UNL     1      -5.908  -9.423   0.885  1.00  0.00     0.006 A 
ENDBRANCH  54  75
BRANCH  66  83
ATOM     83  C   UNL     1      -7.934 -12.711  -7.354  1.00  0.00     0.057 A 
ATOM     84  C   UNL     1      -9.299 -12.673  -7.045  1.00  0.00     0.134 A 
ATOM     85  C   UNL     1      -7.412 -13.925  -7.821  1.00  0.00     0.134 A 
ATOM     86  F   UNL     1      -9.861 -11.545  -6.584  1.00  0.00    -0.206 F 
ATOM     87  C   UNL     1     -10.107 -13.805  -7.170  1.00  0.00     0.040 A 
ATOM     88  C   UNL     1      -8.216 -15.054  -7.981  1.00  0.00     0.040 A 
ATOM     89  F   UNL     1      -6.115 -14.029  -8.148  1.00  0.00    -0.206 F 
ATOM     90  C   UNL     1      -9.567 -14.998  -7.648  1.00  0.00     0.006 A 
ENDBRANCH  66  83
ENDBRANCH  40  41
ENDBRANCH  33  35
ENDBRANCH  32  33
ENDBRANCH  31  32
ENDBRANCH  30  31
ENDBRANCH  29  30
ENDBRANCH  28  29
ENDBRANCH   1  28
TORSDOF 21
