REMARK SMILES N#C/C(=C/c1ccc(-c2cccc(C(=O)OCCOCCOCCOCCOC(=O)c3ccc(-c4c5nc(c(-c6c(F)cccc6F)c6ccc([nH]6)c(-c6c(F)cccc6F)c6nc(c(-c7c(F)cccc7F)c7ccc4[nH]7)C=C6)C=C5)cc3)c2)o1)c1ccc(F)cc1
REMARK SMILES IDX 21 1 20 2 19 3 18 4 17 5 16 6 14 7 15 8 13 9 9 10 10 11
REMARK SMILES IDX 85 12 11 13 12 14 8 15 5 16 6 17 86 18 7 19 4 20 3 21 2 22
REMARK SMILES IDX 1 23 87 24 88 25 93 26 89 27 92 28 90 29 91 30 22 31 23 32
REMARK SMILES IDX 24 33 25 34 26 35 27 36 28 37 29 38 30 39 31 40 32 41 84 42
REMARK SMILES IDX 33 43 83 44 34 45 35 46 36 47 77 48 37 49 82 50 76 51 78 52
REMARK SMILES IDX 38 53 81 54 75 55 74 56 39 58 65 59 48 60 64 61 49 62 52 63
REMARK SMILES IDX 63 64 79 65 50 66 51 67 62 69 80 70 53 71 40 72 41 73 46 74
REMARK SMILES IDX 42 75 43 76 45 77 47 78 44 79 66 80 67 81 72 82 68 83 69 84
REMARK SMILES IDX 71 85 73 86 70 87 54 88 55 89 60 90 56 91 57 92 59 93 61 94
REMARK SMILES IDX 58 95
REMARK H PARENT 78 57 52 68
REMARK Flexibility Score: inf
ROOT
ATOM      1  C   UNL     1      10.951   4.609   3.997  1.00  0.00     0.188 C 
ENDROOT
BRANCH   1   2
ATOM      2  C   UNL     1      12.479   4.535   4.180  1.00  0.00     0.188 C 
BRANCH   2   3
ATOM      3  O   UNL     1      13.198   5.506   3.427  1.00  0.00    -0.376 OA
BRANCH   3   4
ATOM      4  C   UNL     1      14.055   5.017   2.409  1.00  0.00     0.202 C 
BRANCH   4   5
ATOM      5  C   UNL     1      13.345   4.517   1.146  1.00  0.00     0.261 C 
BRANCH   5   6
ATOM      6  O   UNL     1      12.336   3.522   1.370  1.00  0.00    -0.460 OA
BRANCH   6   7
ATOM      7  C   UNL     1      12.731   2.300   1.795  1.00  0.00     0.338 C 
ATOM      8  O   UNL     1      13.874   1.923   1.978  1.00  0.00    -0.246 OA
BRANCH   7   9
ATOM      9  C   UNL     1      11.509   1.560   2.194  1.00  0.00     0.060 A 
ATOM     10  C   UNL     1       9.145   1.056   1.845  1.00  0.00     0.018 A 
ATOM     11  C   UNL     1       9.132   0.373   3.066  1.00  0.00     0.012 A 
ATOM     12  C   UNL     1      10.341   1.664   1.431  1.00  0.00     0.027 A 
ATOM     13  C   UNL     1      10.303   0.261   3.832  1.00  0.00     0.002 A 
ATOM     14  C   UNL     1      11.496   0.838   3.389  1.00  0.00     0.016 A 
BRANCH  10  15
ATOM     15  C   UNL     1       7.994   1.109   0.949  1.00  0.00     0.134 A 
ATOM     16  C   UNL     1       5.827   1.085   0.433  1.00  0.00     0.128 A 
ATOM     17  C   UNL     1       6.553   1.220  -0.747  1.00  0.00     0.051 A 
ATOM     18  O   UNL     1       6.734   1.044   1.479  1.00  0.00    -0.457 OA
ATOM     19  C   UNL     1       7.919   1.207  -0.422  1.00  0.00     0.051 A 
BRANCH  16  20
ATOM     20  C   UNL     1       4.409   0.960   0.572  1.00  0.00     0.067 C 
ATOM     21  C   UNL     1       3.717  -0.003  -0.076  1.00  0.00     0.063 C 
BRANCH  21  22
ATOM     22  C   UNL     1       2.197  -0.003  -0.076  1.00  0.00     0.100 C 
ATOM     23  N   UNL     1       0.936  -0.003  -0.076  1.00  0.00    -0.192 NA
ENDBRANCH  21  22
BRANCH  21  24
ATOM     24  C   UNL     1       4.375  -1.105  -0.833  1.00  0.00    -0.007 A 
ATOM     25  C   UNL     1       5.329  -1.931  -0.205  1.00  0.00     0.012 A 
ATOM     26  C   UNL     1       4.091  -1.313  -2.192  1.00  0.00     0.012 A 
ATOM     27  C   UNL     1       6.029  -2.893  -0.934  1.00  0.00     0.040 A 
ATOM     28  C   UNL     1       4.783  -2.289  -2.915  1.00  0.00     0.040 A 
ATOM     29  C   UNL     1       5.754  -3.059  -2.284  1.00  0.00     0.123 A 
ATOM     30  F   UNL     1       6.439  -3.967  -2.990  1.00  0.00    -0.207 F 
ENDBRANCH  21  24
ENDBRANCH  16  20
ENDBRANCH  10  15
ENDBRANCH   7   9
ENDBRANCH   6   7
ENDBRANCH   5   6
ENDBRANCH   4   5
ENDBRANCH   3   4
ENDBRANCH   2   3
ENDBRANCH   1   2
BRANCH   1  31
ATOM     31  O   UNL     1      10.428   5.503   3.027  1.00  0.00    -0.377 OA
BRANCH  31  32
ATOM     32  C   UNL     1      10.861   6.859   3.018  1.00  0.00     0.188 C 
BRANCH  32  33
ATOM     33  C   UNL     1      11.433   7.539   4.284  1.00  0.00     0.188 C 
BRANCH  33  34
ATOM     34  O   UNL     1      11.191   6.846   5.499  1.00  0.00    -0.376 OA
BRANCH  34  35
ATOM     35  C   UNL     1      10.261   7.438   6.393  1.00  0.00     0.202 C 
BRANCH  35  36
ATOM     36  C   UNL     1       8.800   7.360   5.935  1.00  0.00     0.261 C 
BRANCH  36  37
ATOM     37  O   UNL     1       8.509   8.028   4.697  1.00  0.00    -0.460 OA
BRANCH  37  38
ATOM     38  C   UNL     1       8.706   9.363   4.640  1.00  0.00     0.338 C 
ATOM     39  O   UNL     1       9.091  10.099   5.529  1.00  0.00    -0.246 OA
BRANCH  38  40
ATOM     40  C   UNL     1       8.539   9.757   3.228  1.00  0.00     0.060 A 
ATOM     41  C   UNL     1       9.622  10.313   2.532  1.00  0.00     0.016 A 
ATOM     42  C   UNL     1       7.324   9.521   2.583  1.00  0.00     0.016 A 
ATOM     43  C   UNL     1       9.487  10.635   1.180  1.00  0.00     0.010 A 
ATOM     44  C   UNL     1       7.184   9.865   1.240  1.00  0.00     0.010 A 
ATOM     45  C   UNL     1       8.258  10.436   0.536  1.00  0.00    -0.014 A 
BRANCH  45  46
ATOM     46  C   UNL     1       8.019  10.964  -0.826  1.00  0.00     0.031 A 
ATOM     47  C   UNL     1       7.356  12.304  -0.964  1.00  0.00     0.074 A 
ATOM     48  C   UNL     1       8.342  10.252  -1.919  1.00  0.00     0.049 A 
ATOM     49  N   UNL     1       6.932  12.916  -2.038  1.00  0.00    -0.248 NA
ATOM     50  C   UNL     1       7.139  13.049   0.286  1.00  0.00     0.031 C 
ATOM     51  C   UNL     1       9.032   8.965  -1.919  1.00  0.00     0.029 A 
ATOM     52  N   UNL     1       8.109  10.513  -3.247  1.00  0.00    -0.354 N 
ATOM     53  C   UNL     1       6.392  14.117  -1.594  1.00  0.00     0.074 A 
ATOM     54  C   UNL     1       6.517  14.132  -0.152  1.00  0.00     0.031 C 
ATOM     55  C   UNL     1       9.159   8.541  -3.190  1.00  0.00     0.029 A 
ATOM     56  C   UNL     1       8.519   9.505  -4.084  1.00  0.00     0.049 A 
ATOM     57  H   UNL     1       7.689  11.343  -3.567  1.00  0.00     0.167 HD
ATOM     58  C   UNL     1       5.845  15.118  -2.323  1.00  0.00     0.037 A 
ATOM     59  C   UNL     1       8.364   9.367  -5.415  1.00  0.00     0.037 A 
ATOM     60  C   UNL     1       5.701  15.088  -3.754  1.00  0.00     0.049 A 
ATOM     61  C   UNL     1       7.636  10.435  -6.191  1.00  0.00     0.074 A 
ATOM     62  C   UNL     1       5.170  16.055  -4.588  1.00  0.00     0.029 A 
ATOM     63  N   UNL     1       6.072  14.022  -4.560  1.00  0.00    -0.354 N 
ATOM     64  N   UNL     1       7.149  11.578  -5.772  1.00  0.00    -0.248 NA
ATOM     65  C   UNL     1       7.425  10.185  -7.625  1.00  0.00     0.031 C 
ATOM     66  C   UNL     1       5.169  15.552  -5.893  1.00  0.00     0.029 A 
ATOM     67  C   UNL     1       5.748  14.292  -5.879  1.00  0.00     0.049 A 
ATOM     68  H   UNL     1       6.503  13.196  -4.242  1.00  0.00     0.167 HD
ATOM     69  C   UNL     1       6.601  12.195  -6.891  1.00  0.00     0.074 A 
ATOM     70  C   UNL     1       6.822  11.302  -8.010  1.00  0.00     0.031 C 
ATOM     71  C   UNL     1       5.976  13.395  -6.984  1.00  0.00     0.037 A 
BRANCH  58  72
ATOM     72  C   UNL     1       5.327  16.306  -1.567  1.00  0.00     0.057 A 
ATOM     73  C   UNL     1       6.187  17.209  -0.927  1.00  0.00     0.134 A 
ATOM     74  C   UNL     1       3.951  16.543  -1.469  1.00  0.00     0.134 A 
ATOM     75  F   UNL     1       7.516  17.029  -0.968  1.00  0.00    -0.206 F 
ATOM     76  C   UNL     1       5.694  18.285  -0.187  1.00  0.00     0.040 A 
ATOM     77  C   UNL     1       3.447  17.632  -0.755  1.00  0.00     0.040 A 
ATOM     78  F   UNL     1       3.073  15.719  -2.059  1.00  0.00    -0.206 F 
ATOM     79  C   UNL     1       4.320  18.501  -0.103  1.00  0.00     0.006 A 
ENDBRANCH  58  72
BRANCH  59  80
ATOM     80  C   UNL     1       8.895   8.166  -6.108  1.00  0.00     0.057 A 
ATOM     81  C   UNL     1       9.973   8.267  -6.995  1.00  0.00     0.134 A 
ATOM     82  C   UNL     1       8.333   6.897  -5.920  1.00  0.00     0.134 A 
ATOM     83  F   UNL     1      10.536   9.459  -7.239  1.00  0.00    -0.206 F 
ATOM     84  C   UNL     1      10.467   7.153  -7.677  1.00  0.00     0.040 A 
ATOM     85  C   UNL     1       8.831   5.771  -6.577  1.00  0.00     0.040 A 
ATOM     86  F   UNL     1       7.294   6.733  -5.088  1.00  0.00    -0.206 F 
ATOM     87  C   UNL     1       9.899   5.899  -7.463  1.00  0.00     0.006 A 
ENDBRANCH  59  80
BRANCH  71  88
ATOM     88  C   UNL     1       5.511  13.832  -8.343  1.00  0.00     0.057 A 
ATOM     89  C   UNL     1       4.398  13.254  -8.966  1.00  0.00     0.134 A 
ATOM     90  C   UNL     1       6.149  14.887  -9.009  1.00  0.00     0.134 A 
ATOM     91  F   UNL     1       3.751  12.230  -8.388  1.00  0.00    -0.206 F 
ATOM     92  C   UNL     1       3.943  13.701 -10.208  1.00  0.00     0.040 A 
ATOM     93  C   UNL     1       5.688  15.360 -10.239  1.00  0.00     0.040 A 
ATOM     94  F   UNL     1       7.216  15.491  -8.465  1.00  0.00    -0.206 F 
ATOM     95  C   UNL     1       4.584  14.764 -10.843  1.00  0.00     0.006 A 
ENDBRANCH  71  88
ENDBRANCH  45  46
ENDBRANCH  38  40
ENDBRANCH  37  38
ENDBRANCH  36  37
ENDBRANCH  35  36
ENDBRANCH  34  35
ENDBRANCH  33  34
ENDBRANCH  32  33
ENDBRANCH  31  32
ENDBRANCH   1  31
TORSDOF 24
