REMARK SMILES Cc1nsc(N[C@H](C)c2cccs2)c1C(=O)OCCOCCOCCOCCOC(=O)c1ccc(-c2c3nc(c(-c4c(F)cccc4F)c4ccc([nH]4)c(-c4c(F)cccc4F)c4nc(c(-c5c(F)cccc5F)c5ccc2[nH]5)C=C4)C=C3)cc1
REMARK SMILES IDX 22 1 21 2 20 3 19 4 18 5 17 6 15 7 16 8 14 9 1 10 2 11 3 12
REMARK SMILES IDX 4 13 5 14 6 15 7 17 8 18 9 19 10 20 13 21 11 22 12 23 23 24
REMARK SMILES IDX 24 25 25 26 26 27 27 28 28 29 29 30 30 31 31 32 32 33 33 34
REMARK SMILES IDX 85 35 34 36 84 37 35 38 36 39 37 40 78 41 38 42 83 43 77 44
REMARK SMILES IDX 79 45 39 46 82 47 76 48 75 49 40 51 66 52 49 53 65 54 50 55
REMARK SMILES IDX 53 56 64 57 80 58 51 59 52 60 63 62 81 63 54 64 41 65 42 66
REMARK SMILES IDX 47 67 43 68 44 69 46 70 48 71 45 72 67 73 68 74 73 75 69 76
REMARK SMILES IDX 70 77 72 78 74 79 71 80 55 81 56 82 61 83 57 84 58 85 60 86
REMARK SMILES IDX 62 87 59 88
REMARK H PARENT 6 16 79 50 53 61
REMARK Flexibility Score: inf
ROOT
ATOM      1  C   UNL     1      -4.252   6.102  -7.098  1.00  0.00     0.188 C 
ENDROOT
BRANCH   1   2
ATOM      2  C   UNL     1      -4.146   4.561  -7.056  1.00  0.00     0.188 C 
BRANCH   2   3
ATOM      3  O   UNL     1      -5.337   3.890  -7.414  1.00  0.00    -0.376 OA
BRANCH   3   4
ATOM      4  C   UNL     1      -6.119   3.237  -6.441  1.00  0.00     0.202 C 
BRANCH   4   5
ATOM      5  C   UNL     1      -6.563   3.984  -5.174  1.00  0.00     0.261 C 
BRANCH   5   6
ATOM      6  O   UNL     1      -5.629   4.914  -4.614  1.00  0.00    -0.460 OA
BRANCH   6   7
ATOM      7  C   UNL     1      -4.562   4.395  -3.954  1.00  0.00     0.343 C 
ATOM      8  O   UNL     1      -4.412   3.193  -3.739  1.00  0.00    -0.246 OA
BRANCH   7   9
ATOM      9  C   UNL     1      -3.519   5.389  -3.727  1.00  0.00     0.117 A 
ATOM     10  C   UNL     1      -5.011   7.507  -3.283  1.00  0.00     0.069 C 
ATOM     11  C   UNL     1      -3.710   6.780  -3.388  1.00  0.00     0.068 A 
ATOM     12  N   UNL     1      -2.596   7.487  -3.203  1.00  0.00    -0.195 NA
ATOM     13  S   UNL     1      -1.293   6.522  -3.498  1.00  0.00    -0.018 S 
ATOM     14  C   UNL     1      -2.169   5.134  -3.998  1.00  0.00     0.124 A 
BRANCH  14  15
ATOM     15  N   UNL     1      -1.682   4.009  -4.606  1.00  0.00    -0.368 N 
ATOM     16  H   UNL     1      -2.364   3.441  -5.032  1.00  0.00     0.162 HD
BRANCH  15  17
ATOM     17  C   UNL     1      -0.311   3.517  -4.723  1.00  0.00     0.117 C 
ATOM     18  C   UNL     1       0.301   3.298  -3.340  1.00  0.00     0.037 C 
BRANCH  17  19
ATOM     19  C   UNL     1       0.665   4.137  -5.710  1.00  0.00     0.027 A 
ATOM     20  C   UNL     1       0.849   5.432  -6.160  1.00  0.00     0.017 A 
ATOM     21  S   UNL     1       1.817   3.081  -6.467  1.00  0.00    -0.147 S 
ATOM     22  C   UNL     1       1.964   5.565  -7.047  1.00  0.00     0.012 A 
ATOM     23  C   UNL     1       2.577   4.361  -7.295  1.00  0.00     0.065 A 
ENDBRANCH  17  19
ENDBRANCH  15  17
ENDBRANCH  14  15
ENDBRANCH   7   9
ENDBRANCH   6   7
ENDBRANCH   5   6
ENDBRANCH   4   5
ENDBRANCH   3   4
ENDBRANCH   2   3
ENDBRANCH   1   2
BRANCH   1  24
ATOM     24  O   UNL     1      -5.522   6.710  -7.283  1.00  0.00    -0.377 OA
BRANCH  24  25
ATOM     25  C   UNL     1      -6.409   6.196  -8.272  1.00  0.00     0.188 C 
BRANCH  25  26
ATOM     26  C   UNL     1      -5.908   5.452  -9.549  1.00  0.00     0.188 C 
BRANCH  26  27
ATOM     27  O   UNL     1      -4.528   5.135  -9.599  1.00  0.00    -0.376 OA
BRANCH  27  28
ATOM     28  C   UNL     1      -3.561   5.770 -10.412  1.00  0.00     0.202 C 
BRANCH  28  29
ATOM     29  C   UNL     1      -3.395   7.286 -10.392  1.00  0.00     0.261 C 
BRANCH  29  30
ATOM     30  O   UNL     1      -4.590   7.961 -10.079  1.00  0.00    -0.460 OA
BRANCH  30  31
ATOM     31  C   UNL     1      -5.505   7.918 -11.057  1.00  0.00     0.338 C 
ATOM     32  O   UNL     1      -5.399   7.366 -12.149  1.00  0.00    -0.246 OA
BRANCH  31  33
ATOM     33  C   UNL     1      -6.672   8.691 -10.617  1.00  0.00     0.060 A 
ATOM     34  C   UNL     1      -7.679   8.762 -11.577  1.00  0.00     0.016 A 
ATOM     35  C   UNL     1      -6.395   9.727  -9.715  1.00  0.00     0.016 A 
ATOM     36  C   UNL     1      -8.044  10.018 -11.967  1.00  0.00     0.010 A 
ATOM     37  C   UNL     1      -6.718  10.982 -10.130  1.00  0.00     0.010 A 
ATOM     38  C   UNL     1      -7.430  11.095 -11.322  1.00  0.00    -0.014 A 
BRANCH  38  39
ATOM     39  C   UNL     1      -7.569  12.396 -11.908  1.00  0.00     0.031 A 
ATOM     40  C   UNL     1      -8.869  12.994 -11.574  1.00  0.00     0.074 A 
ATOM     41  C   UNL     1      -6.553  12.961 -12.580  1.00  0.00     0.049 A 
ATOM     42  N   UNL     1      -9.856  13.203 -12.376  1.00  0.00    -0.248 NA
ATOM     43  C   UNL     1      -9.206  13.133 -10.147  1.00  0.00     0.031 C 
ATOM     44  C   UNL     1      -5.172  12.492 -12.731  1.00  0.00     0.029 A 
ATOM     45  N   UNL     1      -6.534  14.178 -13.179  1.00  0.00    -0.354 N 
ATOM     46  C   UNL     1     -10.865  13.716 -11.575  1.00  0.00     0.074 A 
ATOM     47  C   UNL     1     -10.505  13.412 -10.219  1.00  0.00     0.031 C 
ATOM     48  C   UNL     1      -4.402  13.517 -13.164  1.00  0.00     0.029 A 
ATOM     49  C   UNL     1      -5.253  14.664 -13.419  1.00  0.00     0.049 A 
ATOM     50  H   UNL     1      -7.351  14.671 -13.421  1.00  0.00     0.167 HD
ATOM     51  C   UNL     1     -11.758  14.608 -12.074  1.00  0.00     0.037 A 
ATOM     52  C   UNL     1      -4.975  15.969 -13.668  1.00  0.00     0.037 A 
ATOM     53  C   UNL     1     -11.757  14.581 -13.517  1.00  0.00     0.049 A 
ATOM     54  C   UNL     1      -6.253  16.602 -14.118  1.00  0.00     0.074 A 
ATOM     55  C   UNL     1     -12.033  13.608 -14.458  1.00  0.00     0.029 A 
ATOM     56  N   UNL     1     -11.034  15.552 -14.171  1.00  0.00    -0.354 N 
ATOM     57  N   UNL     1      -6.840  16.304 -15.248  1.00  0.00    -0.248 NA
ATOM     58  C   UNL     1      -7.133  17.151 -13.091  1.00  0.00     0.031 C 
ATOM     59  C   UNL     1     -11.076  13.813 -15.494  1.00  0.00     0.029 A 
ATOM     60  C   UNL     1     -10.318  14.939 -15.167  1.00  0.00     0.049 A 
ATOM     61  H   UNL     1     -11.032  16.514 -13.961  1.00  0.00     0.167 HD
ATOM     62  C   UNL     1      -8.193  16.223 -14.940  1.00  0.00     0.074 A 
ATOM     63  C   UNL     1      -8.320  16.818 -13.611  1.00  0.00     0.031 C 
ATOM     64  C   UNL     1      -9.037  15.410 -15.644  1.00  0.00     0.037 A 
BRANCH  51  65
ATOM     65  C   UNL     1     -12.312  15.764 -11.283  1.00  0.00     0.057 A 
ATOM     66  C   UNL     1     -13.298  16.568 -11.879  1.00  0.00     0.134 A 
ATOM     67  C   UNL     1     -11.736  16.295 -10.109  1.00  0.00     0.134 A 
ATOM     68  F   UNL     1     -13.926  16.172 -12.996  1.00  0.00    -0.206 F 
ATOM     69  C   UNL     1     -13.612  17.843 -11.399  1.00  0.00     0.040 A 
ATOM     70  C   UNL     1     -12.082  17.544  -9.592  1.00  0.00     0.040 A 
ATOM     71  F   UNL     1     -10.741  15.696  -9.446  1.00  0.00    -0.206 F 
ATOM     72  C   UNL     1     -12.994  18.340 -10.260  1.00  0.00     0.006 A 
ENDBRANCH  51  65
BRANCH  52  73
ATOM     73  C   UNL     1      -3.802  16.739 -13.193  1.00  0.00     0.057 A 
ATOM     74  C   UNL     1      -3.494  18.000 -13.719  1.00  0.00     0.134 A 
ATOM     75  C   UNL     1      -3.083  16.366 -12.040  1.00  0.00     0.134 A 
ATOM     76  F   UNL     1      -4.156  18.471 -14.786  1.00  0.00    -0.206 F 
ATOM     77  C   UNL     1      -2.534  18.840 -13.133  1.00  0.00     0.040 A 
ATOM     78  C   UNL     1      -2.118  17.188 -11.452  1.00  0.00     0.040 A 
ATOM     79  F   UNL     1      -3.349  15.224 -11.391  1.00  0.00    -0.206 F 
ATOM     80  C   UNL     1      -1.847  18.437 -11.992  1.00  0.00     0.006 A 
ENDBRANCH  52  73
BRANCH  64  81
ATOM     81  C   UNL     1      -8.510  14.747 -16.889  1.00  0.00     0.057 A 
ATOM     82  C   UNL     1      -7.481  13.792 -16.887  1.00  0.00     0.134 A 
ATOM     83  C   UNL     1      -9.199  14.927 -18.092  1.00  0.00     0.134 A 
ATOM     84  F   UNL     1      -6.838  13.471 -15.758  1.00  0.00    -0.206 F 
ATOM     85  C   UNL     1      -7.132  13.077 -18.037  1.00  0.00     0.040 A 
ATOM     86  C   UNL     1      -8.884  14.195 -19.239  1.00  0.00     0.040 A 
ATOM     87  F   UNL     1     -10.238  15.775 -18.154  1.00  0.00    -0.206 F 
ATOM     88  C   UNL     1      -7.842  13.272 -19.217  1.00  0.00     0.006 A 
ENDBRANCH  64  81
ENDBRANCH  38  39
ENDBRANCH  31  33
ENDBRANCH  30  31
ENDBRANCH  29  30
ENDBRANCH  28  29
ENDBRANCH  27  28
ENDBRANCH  26  27
ENDBRANCH  25  26
ENDBRANCH  24  25
ENDBRANCH   1  24
TORSDOF 23
