REMARK SMILES O=C(OCCOCCOCCOCCOC(=O)c1c(C(=O)N2CCc3ccccc32)cccc1[N+](=O)[O-])c1ccc(-c2c3nc(c(-c4c(F)cccc4F)c4ccc([nH]4)c(-c4c(F)cccc4F)c4nc(c(-c5c(F)cccc5F)c5ccc2[nH]5)C=C4)C=C3)cc1
REMARK SMILES IDX 9 1 8 2 7 3 6 4 5 5 4 6 3 7 2 8 1 9 38 10 39 11 91 12 40 13
REMARK SMILES IDX 90 14 41 15 42 16 43 17 84 18 44 19 89 20 83 21 85 22 45 23
REMARK SMILES IDX 88 24 82 25 81 26 46 28 72 29 55 30 71 31 56 32 59 33 70 34
REMARK SMILES IDX 86 35 57 36 58 37 69 39 87 40 60 41 47 42 48 43 53 44 49 45
REMARK SMILES IDX 50 46 52 47 54 48 51 49 73 50 74 51 79 52 75 53 76 54 78 55
REMARK SMILES IDX 80 56 77 57 61 58 62 59 67 60 63 61 64 62 66 63 68 64 65 65
REMARK SMILES IDX 10 66 11 67 12 68 13 69 14 70 15 71 16 72 17 73 18 74 19 75
REMARK SMILES IDX 34 76 31 77 33 78 32 79 20 80 21 81 22 82 23 83 30 84 24 85
REMARK SMILES IDX 25 86 29 87 26 88 28 89 27 90 35 91 36 92 37 93
REMARK H PARENT 85 27 59 38
REMARK Flexibility Score: inf
ROOT
ATOM      1  O   UNL     1       2.977  -2.482   2.292  1.00  0.00    -0.377 OA
ENDROOT
BRANCH   1   2
ATOM      2  C   UNL     1       1.658  -2.181   1.832  1.00  0.00     0.188 C 
BRANCH   2   3
ATOM      3  C   UNL     1       1.414  -0.740   1.356  1.00  0.00     0.188 C 
BRANCH   3   4
ATOM      4  O   UNL     1       2.597  -0.087   0.910  1.00  0.00    -0.376 OA
BRANCH   4   5
ATOM      5  C   UNL     1       2.888   1.139   1.562  1.00  0.00     0.202 C 
BRANCH   5   6
ATOM      6  C   UNL     1       3.545   2.101   0.568  1.00  0.00     0.261 C 
BRANCH   6   7
ATOM      7  O   UNL     1       2.758   2.398  -0.608  1.00  0.00    -0.460 OA
BRANCH   7   8
ATOM      8  C   UNL     1       2.067   1.424  -1.256  1.00  0.00     0.338 C 
ATOM      9  O   UNL     1       0.844   1.433  -1.328  1.00  0.00    -0.246 OA
BRANCH   8  10
ATOM     10  C   UNL     1       2.881   0.551  -2.155  1.00  0.00     0.060 A 
ATOM     11  C   UNL     1       4.071  -0.079  -1.767  1.00  0.00     0.016 A 
ATOM     12  C   UNL     1       2.383   0.317  -3.443  1.00  0.00     0.016 A 
ATOM     13  C   UNL     1       4.777  -0.892  -2.656  1.00  0.00     0.010 A 
ATOM     14  C   UNL     1       3.086  -0.495  -4.337  1.00  0.00     0.010 A 
ATOM     15  C   UNL     1       4.298  -1.086  -3.952  1.00  0.00    -0.014 A 
BRANCH  15  16
ATOM     16  C   UNL     1       5.114  -1.800  -4.956  1.00  0.00     0.031 A 
ATOM     17  C   UNL     1       5.911  -0.987  -5.932  1.00  0.00     0.074 A 
ATOM     18  C   UNL     1       5.122  -3.143  -5.012  1.00  0.00     0.049 A 
ATOM     19  N   UNL     1       6.548  -1.367  -7.007  1.00  0.00    -0.248 NA
ATOM     20  C   UNL     1       5.997   0.457  -5.655  1.00  0.00     0.031 C 
ATOM     21  C   UNL     1       4.444  -4.035  -4.072  1.00  0.00     0.029 A 
ATOM     22  N   UNL     1       5.708  -3.990  -5.919  1.00  0.00    -0.354 N 
ATOM     23  C   UNL     1       7.079  -0.208  -7.556  1.00  0.00     0.074 A 
ATOM     24  C   UNL     1       6.700   0.888  -6.691  1.00  0.00     0.031 C 
ATOM     25  C   UNL     1       4.627  -5.306  -4.471  1.00  0.00     0.029 A 
ATOM     26  C   UNL     1       5.391  -5.311  -5.716  1.00  0.00     0.049 A 
ATOM     27  H   UNL     1       6.297  -3.680  -6.645  1.00  0.00     0.167 HD
ATOM     28  C   UNL     1       7.805  -0.072  -8.689  1.00  0.00     0.037 A 
ATOM     29  C   UNL     1       5.651  -6.389  -6.480  1.00  0.00     0.037 A 
ATOM     30  C   UNL     1       8.174  -1.169  -9.541  1.00  0.00     0.049 A 
ATOM     31  C   UNL     1       6.401  -6.205  -7.774  1.00  0.00     0.074 A 
ATOM     32  C   UNL     1       8.909  -1.146 -10.712  1.00  0.00     0.029 A 
ATOM     33  N   UNL     1       7.824  -2.490  -9.309  1.00  0.00    -0.354 N 
ATOM     34  N   UNL     1       6.895  -5.106  -8.294  1.00  0.00    -0.248 NA
ATOM     35  C   UNL     1       6.613  -7.405  -8.597  1.00  0.00     0.031 C 
ATOM     36  C   UNL     1       8.973  -2.453 -11.208  1.00  0.00     0.029 A 
ATOM     37  C   UNL     1       8.306  -3.291 -10.328  1.00  0.00     0.049 A 
ATOM     38  H   UNL     1       7.308  -2.811  -8.533  1.00  0.00     0.167 HD
ATOM     39  C   UNL     1       7.483  -5.483  -9.495  1.00  0.00     0.074 A 
ATOM     40  C   UNL     1       7.299  -6.914  -9.620  1.00  0.00     0.031 C 
ATOM     41  C   UNL     1       8.111  -4.715 -10.418  1.00  0.00     0.037 A 
BRANCH  28  42
ATOM     42  C   UNL     1       8.192   1.318  -9.088  1.00  0.00     0.057 A 
ATOM     43  C   UNL     1       9.208   2.023  -8.433  1.00  0.00     0.134 A 
ATOM     44  C   UNL     1       7.527   1.964 -10.138  1.00  0.00     0.134 A 
ATOM     45  F   UNL     1       9.866   1.468  -7.404  1.00  0.00    -0.206 F 
ATOM     46  C   UNL     1       9.536   3.332  -8.794  1.00  0.00     0.040 A 
ATOM     47  C   UNL     1       7.857   3.264 -10.520  1.00  0.00     0.040 A 
ATOM     48  F   UNL     1       6.540   1.344 -10.803  1.00  0.00    -0.206 F 
ATOM     49  C   UNL     1       8.861   3.954  -9.843  1.00  0.00     0.006 A 
ENDBRANCH  28  42
BRANCH  29  50
ATOM     50  C   UNL     1       5.152  -7.730  -6.080  1.00  0.00     0.057 A 
ATOM     51  C   UNL     1       6.032  -8.744  -5.685  1.00  0.00     0.134 A 
ATOM     52  C   UNL     1       3.786  -8.038  -6.110  1.00  0.00     0.134 A 
ATOM     53  F   UNL     1       7.354  -8.520  -5.665  1.00  0.00    -0.206 F 
ATOM     54  C   UNL     1       5.574 -10.019  -5.347  1.00  0.00     0.040 A 
ATOM     55  C   UNL     1       3.313  -9.302  -5.752  1.00  0.00     0.040 A 
ATOM     56  F   UNL     1       2.891  -7.114  -6.487  1.00  0.00    -0.206 F 
ATOM     57  C   UNL     1       4.209 -10.299  -5.375  1.00  0.00     0.006 A 
ENDBRANCH  29  50
BRANCH  41  58
ATOM     58  C   UNL     1       8.657  -5.408 -11.629  1.00  0.00     0.057 A 
ATOM     59  C   UNL     1       7.824  -5.806 -12.681  1.00  0.00     0.134 A 
ATOM     60  C   UNL     1      10.034  -5.618 -11.772  1.00  0.00     0.134 A 
ATOM     61  F   UNL     1       6.495  -5.641 -12.596  1.00  0.00    -0.206 F 
ATOM     62  C   UNL     1       8.342  -6.396 -13.834  1.00  0.00     0.040 A 
ATOM     63  C   UNL     1      10.566  -6.190 -12.927  1.00  0.00     0.040 A 
ATOM     64  F   UNL     1      10.883  -5.250 -10.801  1.00  0.00    -0.206 F 
ATOM     65  C   UNL     1       9.718  -6.582 -13.962  1.00  0.00     0.006 A 
ENDBRANCH  41  58
ENDBRANCH  15  16
ENDBRANCH   8  10
ENDBRANCH   7   8
ENDBRANCH   6   7
ENDBRANCH   5   6
ENDBRANCH   4   5
ENDBRANCH   3   4
ENDBRANCH   2   3
ENDBRANCH   1   2
BRANCH   1  66
ATOM     66  C   UNL     1       3.950  -2.479   1.246  1.00  0.00     0.188 C 
BRANCH  66  67
ATOM     67  C   UNL     1       4.502  -3.831   0.794  1.00  0.00     0.188 C 
BRANCH  67  68
ATOM     68  O   UNL     1       3.543  -4.720   0.232  1.00  0.00    -0.376 OA
BRANCH  68  69
ATOM     69  C   UNL     1       2.739  -5.460   1.158  1.00  0.00     0.202 C 
BRANCH  69  70
ATOM     70  C   UNL     1       3.456  -6.048   2.376  1.00  0.00     0.261 C 
BRANCH  70  71
ATOM     71  O   UNL     1       3.741  -4.998   3.324  1.00  0.00    -0.459 OA
BRANCH  71  72
ATOM     72  C   UNL     1       4.805  -5.229   4.116  1.00  0.00     0.346 C 
ATOM     73  O   UNL     1       5.453  -6.258   4.199  1.00  0.00    -0.246 OA
BRANCH  72  74
ATOM     74  C   UNL     1       5.012  -4.119   5.064  1.00  0.00     0.150 A 
ATOM     75  C   UNL     1       6.126  -3.250   4.962  1.00  0.00     0.061 A 
ATOM     76  C   UNL     1       4.328  -4.226   6.283  1.00  0.00     0.284 A 
ATOM     77  C   UNL     1       6.645  -2.741   6.156  1.00  0.00     0.015 A 
ATOM     78  C   UNL     1       4.758  -3.556   7.430  1.00  0.00     0.086 A 
ATOM     79  C   UNL     1       5.951  -2.848   7.370  1.00  0.00     0.008 A 
BRANCH  75  80
ATOM     80  C   UNL     1       6.788  -3.008   3.647  1.00  0.00     0.259 C 
ATOM     81  O   UNL     1       6.858  -4.000   2.914  1.00  0.00    -0.269 OA
BRANCH  80  82
ATOM     82  N   UNL     1       7.278  -1.780   3.156  1.00  0.00    -0.308 N 
ATOM     83  C   UNL     1       7.681  -1.754   1.725  1.00  0.00     0.131 C 
ATOM     84  C   UNL     1       7.823  -0.621   3.761  1.00  0.00     0.047 A 
ATOM     85  C   UNL     1       8.475  -0.482   1.464  1.00  0.00     0.059 C 
ATOM     86  C   UNL     1       8.698  -0.005   2.856  1.00  0.00    -0.022 A 
ATOM     87  C   UNL     1       7.737  -0.104   5.036  1.00  0.00     0.026 A 
ATOM     88  C   UNL     1       9.645   0.931   3.251  1.00  0.00     0.006 A 
ATOM     89  C   UNL     1       8.697   0.826   5.465  1.00  0.00     0.002 A 
ATOM     90  C   UNL     1       9.679   1.301   4.589  1.00  0.00     0.000 A 
ENDBRANCH  80  82
ENDBRANCH  75  80
BRANCH  76  91
ATOM     91  N   UNL     1       3.182  -5.106   6.410  1.00  0.00     0.063 N 
ATOM     92  O   UNL     1       3.277  -6.036   7.220  1.00  0.00    -0.258 OA
ATOM     93  O   UNL     1       2.174  -4.821   5.753  1.00  0.00    -0.258 OA
ENDBRANCH  76  91
ENDBRANCH  72  74
ENDBRANCH  71  72
ENDBRANCH  70  71
ENDBRANCH  69  70
ENDBRANCH  68  69
ENDBRANCH  67  68
ENDBRANCH  66  67
ENDBRANCH   1  66
TORSDOF 23
