REMARK SMILES O=C(OCCOCCOCCOCCOC(=O)[C@@H](CCO)NC(=O)c1c(F)ccc([N+](=O)[O-])c1F)c1ccc(-c2c3nc(c(-c4c(F)cccc4F)c4ccc([nH]4)c(-c4c(F)cccc4F)c4nc(c(-c5c(F)cccc5F)c5ccc2[nH]5)C=C4)C=C3)cc1
REMARK SMILES IDX 10 1 9 2 8 3 7 4 6 5 5 6 4 7 3 8 2 9 1 10 36 11 37 12 89 13
REMARK SMILES IDX 38 14 88 15 39 16 40 17 41 18 82 19 42 20 87 21 81 22 83 23
REMARK SMILES IDX 43 24 86 25 80 26 79 27 44 29 70 30 53 31 69 32 54 33 57 34
REMARK SMILES IDX 68 35 84 36 55 37 56 38 67 40 85 41 58 42 45 43 46 44 51 45
REMARK SMILES IDX 47 46 48 47 50 48 52 49 49 50 71 51 72 52 77 53 73 54 74 55
REMARK SMILES IDX 76 56 78 57 75 58 59 59 60 60 65 61 61 62 62 63 64 64 66 65
REMARK SMILES IDX 63 66 11 67 12 68 13 69 14 70 15 71 16 72 17 73 18 74 19 75
REMARK SMILES IDX 20 76 21 77 22 79 23 80 24 82 25 83 26 84 34 85 27 86 28 87
REMARK SMILES IDX 30 88 35 89 29 90 31 91 32 92 33 93
REMARK H PARENT 83 28 57 39 21 78 22 81
REMARK Flexibility Score: inf
ROOT
ATOM      1  C   UNL     1       5.134   3.533   0.353  1.00  0.00     0.188 C 
ENDROOT
BRANCH   1   2
ATOM      2  O   UNL     1       3.854   3.842  -0.196  1.00  0.00    -0.377 OA
BRANCH   2   3
ATOM      3  C   UNL     1       2.767   2.939  -0.019  1.00  0.00     0.188 C 
BRANCH   3   4
ATOM      4  C   UNL     1       2.958   1.605  -0.715  1.00  0.00     0.188 C 
BRANCH   4   5
ATOM      5  O   UNL     1       4.126   0.995  -0.201  1.00  0.00    -0.376 OA
BRANCH   5   6
ATOM      6  C   UNL     1       4.800   0.056  -1.011  1.00  0.00     0.202 C 
BRANCH   6   7
ATOM      7  C   UNL     1       3.966  -1.086  -1.594  1.00  0.00     0.261 C 
BRANCH   7   8
ATOM      8  O   UNL     1       2.572  -1.133  -1.208  1.00  0.00    -0.460 OA
BRANCH   8   9
ATOM      9  C   UNL     1       1.995  -1.773  -0.166  1.00  0.00     0.338 C 
ATOM     10  O   UNL     1       0.792  -2.047  -0.192  1.00  0.00    -0.246 OA
BRANCH   9  11
ATOM     11  C   UNL     1       2.778  -2.148   1.028  1.00  0.00     0.060 A 
ATOM     12  C   UNL     1       3.679  -1.270   1.608  1.00  0.00     0.016 A 
ATOM     13  C   UNL     1       2.527  -3.358   1.679  1.00  0.00     0.016 A 
ATOM     14  C   UNL     1       4.538  -1.675   2.607  1.00  0.00     0.010 A 
ATOM     15  C   UNL     1       3.274  -3.712   2.810  1.00  0.00     0.010 A 
ATOM     16  C   UNL     1       4.341  -2.902   3.231  1.00  0.00    -0.014 A 
BRANCH  16  17
ATOM     17  C   UNL     1       5.344  -3.345   4.226  1.00  0.00     0.031 A 
ATOM     18  C   UNL     1       6.154  -4.572   3.918  1.00  0.00     0.074 A 
ATOM     19  C   UNL     1       5.640  -2.567   5.287  1.00  0.00     0.049 A 
ATOM     20  N   UNL     1       7.027  -5.196   4.661  1.00  0.00    -0.248 NA
ATOM     21  C   UNL     1       5.961  -5.178   2.587  1.00  0.00     0.031 C 
ATOM     22  C   UNL     1       5.007  -1.279   5.598  1.00  0.00     0.029 A 
ATOM     23  N   UNL     1       6.589  -2.704   6.266  1.00  0.00    -0.354 N 
ATOM     24  C   UNL     1       7.443  -6.289   3.911  1.00  0.00     0.074 A 
ATOM     25  C   UNL     1       6.731  -6.252   2.656  1.00  0.00     0.031 C 
ATOM     26  C   UNL     1       5.641  -0.711   6.634  1.00  0.00     0.029 A 
ATOM     27  C   UNL     1       6.641  -1.641   7.139  1.00  0.00     0.049 A 
ATOM     28  H   UNL     1       7.179  -3.489   6.338  1.00  0.00     0.167 HD
ATOM     29  C   UNL     1       8.343  -7.238   4.250  1.00  0.00     0.037 A 
ATOM     30  C   UNL     1       7.385  -1.464   8.247  1.00  0.00     0.037 A 
ATOM     31  C   UNL     1       9.063  -7.227   5.492  1.00  0.00     0.049 A 
ATOM     32  C   UNL     1       8.309  -2.581   8.648  1.00  0.00     0.074 A 
ATOM     33  C   UNL     1       9.925  -8.177   6.004  1.00  0.00     0.029 A 
ATOM     34  N   UNL     1       9.015  -6.185   6.408  1.00  0.00    -0.354 N 
ATOM     35  N   UNL     1       8.594  -3.687   8.001  1.00  0.00    -0.248 NA
ATOM     36  C   UNL     1       8.983  -2.449   9.945  1.00  0.00     0.031 C 
ATOM     37  C   UNL     1      10.376  -7.721   7.247  1.00  0.00     0.029 A 
ATOM     38  C   UNL     1       9.829  -6.469   7.487  1.00  0.00     0.049 A 
ATOM     39  H   UNL     1       8.480  -5.365   6.303  1.00  0.00     0.167 HD
ATOM     40  C   UNL     1       9.478  -4.384   8.811  1.00  0.00     0.074 A 
ATOM     41  C   UNL     1       9.710  -3.557   9.980  1.00  0.00     0.031 C 
ATOM     42  C   UNL     1      10.036  -5.605   8.622  1.00  0.00     0.037 A 
BRANCH  29  43
ATOM     43  C   UNL     1       8.539  -8.374   3.293  1.00  0.00     0.057 A 
ATOM     44  C   UNL     1       7.990  -9.633   3.570  1.00  0.00     0.134 A 
ATOM     45  C   UNL     1       9.250  -8.228   2.096  1.00  0.00     0.134 A 
ATOM     46  F   UNL     1       7.287  -9.836   4.694  1.00  0.00    -0.206 F 
ATOM     47  C   UNL     1       8.148 -10.708   2.693  1.00  0.00     0.040 A 
ATOM     48  C   UNL     1       9.397  -9.291   1.201  1.00  0.00     0.040 A 
ATOM     49  F   UNL     1       9.770  -7.039   1.754  1.00  0.00    -0.206 F 
ATOM     50  C   UNL     1       8.850 -10.537   1.502  1.00  0.00     0.006 A 
ENDBRANCH  29  43
BRANCH  30  51
ATOM     51  C   UNL     1       7.237  -0.240   9.081  1.00  0.00     0.057 A 
ATOM     52  C   UNL     1       6.029   0.068   9.723  1.00  0.00     0.134 A 
ATOM     53  C   UNL     1       8.303   0.645   9.278  1.00  0.00     0.134 A 
ATOM     54  F   UNL     1       4.963  -0.736   9.585  1.00  0.00    -0.206 F 
ATOM     55  C   UNL     1       5.880   1.213  10.508  1.00  0.00     0.040 A 
ATOM     56  C   UNL     1       8.179   1.778  10.088  1.00  0.00     0.040 A 
ATOM     57  F   UNL     1       9.495   0.402   8.713  1.00  0.00    -0.206 F 
ATOM     58  C   UNL     1       6.961   2.068  10.700  1.00  0.00     0.006 A 
ENDBRANCH  30  51
BRANCH  42  59
ATOM     59  C   UNL     1      10.958  -6.098   9.691  1.00  0.00     0.057 A 
ATOM     60  C   UNL     1      12.338  -6.162   9.466  1.00  0.00     0.134 A 
ATOM     61  C   UNL     1      10.470  -6.572  10.915  1.00  0.00     0.134 A 
ATOM     62  F   UNL     1      12.860  -5.732   8.307  1.00  0.00    -0.206 F 
ATOM     63  C   UNL     1      13.203  -6.692  10.421  1.00  0.00     0.040 A 
ATOM     64  C   UNL     1      11.329  -7.080  11.888  1.00  0.00     0.040 A 
ATOM     65  F   UNL     1       9.158  -6.524  11.189  1.00  0.00    -0.206 F 
ATOM     66  C   UNL     1      12.699  -7.150  11.637  1.00  0.00     0.006 A 
ENDBRANCH  42  59
ENDBRANCH  16  17
ENDBRANCH   9  11
ENDBRANCH   8   9
ENDBRANCH   7   8
ENDBRANCH   6   7
ENDBRANCH   5   6
ENDBRANCH   4   5
ENDBRANCH   3   4
ENDBRANCH   2   3
ENDBRANCH   1   2
BRANCH   1  67
ATOM     67  C   UNL     1       5.276   3.526   1.884  1.00  0.00     0.188 C 
BRANCH  67  68
ATOM     68  O   UNL     1       4.172   2.914   2.520  1.00  0.00    -0.376 OA
BRANCH  68  69
ATOM     69  C   UNL     1       3.373   3.729   3.371  1.00  0.00     0.202 C 
BRANCH  69  70
ATOM     70  C   UNL     1       3.063   5.207   3.024  1.00  0.00     0.261 C 
BRANCH  70  71
ATOM     71  O   UNL     1       3.259   5.599   1.649  1.00  0.00    -0.462 OA
BRANCH  71  72
ATOM     72  C   UNL     1       4.011   6.718   1.448  1.00  0.00     0.328 C 
ATOM     73  O   UNL     1       4.465   7.385   2.379  1.00  0.00    -0.250 OA
BRANCH  72  74
ATOM     74  C   UNL     1       4.457   6.985  -0.016  1.00  0.00     0.194 C 
BRANCH  74  75
ATOM     75  C   UNL     1       3.712   6.479  -1.257  1.00  0.00     0.065 C 
BRANCH  75  76
ATOM     76  C   UNL     1       2.204   6.438  -1.149  1.00  0.00     0.159 C 
BRANCH  76  77
ATOM     77  O   UNL     1       1.730   7.746  -0.869  1.00  0.00    -0.396 OA
ATOM     78  H   UNL     1       2.116   8.058  -0.035  1.00  0.00     0.210 HD
ENDBRANCH  76  77
ENDBRANCH  75  76
ENDBRANCH  74  75
BRANCH  74  79
ATOM     79  N   UNL     1       4.631   8.439  -0.172  1.00  0.00    -0.338 N 
ATOM     80  C   UNL     1       5.758   9.203  -0.111  1.00  0.00     0.258 C 
ATOM     81  H   UNL     1       3.801   8.939  -0.349  1.00  0.00     0.164 HD
ATOM     82  O   UNL     1       5.677  10.434  -0.194  1.00  0.00    -0.269 OA
BRANCH  80  83
ATOM     83  C   UNL     1       7.089   8.601   0.023  1.00  0.00     0.118 A 
ATOM     84  C   UNL     1       7.559   7.669  -0.905  1.00  0.00     0.139 A 
ATOM     85  C   UNL     1       7.943   9.071   1.023  1.00  0.00     0.216 A 
ATOM     86  F   UNL     1       6.779   7.232  -1.904  1.00  0.00    -0.206 F 
ATOM     87  C   UNL     1       8.855   7.166  -0.820  1.00  0.00     0.047 A 
ATOM     88  C   UNL     1       9.254   8.594   1.096  1.00  0.00     0.305 A 
ATOM     89  F   UNL     1       7.487   9.977   1.900  1.00  0.00    -0.198 F 
ATOM     90  C   UNL     1       9.712   7.631   0.178  1.00  0.00     0.092 A 
BRANCH  88  91
ATOM     91  N   UNL     1      10.179   9.105   2.107  1.00  0.00     0.065 N 
ATOM     92  O   UNL     1       9.734   9.795   3.030  1.00  0.00    -0.258 OA
ATOM     93  O   UNL     1      11.374   8.796   1.982  1.00  0.00    -0.258 OA
ENDBRANCH  88  91
ENDBRANCH  80  83
ENDBRANCH  74  79
ENDBRANCH  72  74
ENDBRANCH  71  72
ENDBRANCH  70  71
ENDBRANCH  69  70
ENDBRANCH  68  69
ENDBRANCH  67  68
ENDBRANCH   1  67
TORSDOF 26
