REMARK SMILES C[C@@H](Oc1ccc(-c2ccccc2)cc1)C(=O)N1CCC[C@H](C(=O)OCCOCCOCCOCCOC(=O)c2ccc(-c3c4nc(c(-c5c(F)cccc5F)c5ccc([nH]5)c(-c5c(F)cccc5F)c5nc(c(-c6c(F)cccc6F)c6ccc3[nH]6)C=C5)C=C4)cc2)C1
REMARK SMILES IDX 29 1 28 2 27 3 26 4 25 5 23 6 24 7 22 8 18 9 19 10 94 11
REMARK SMILES IDX 20 12 21 13 16 14 17 15 2 16 1 17 3 18 4 19 5 20 15 21 6 22
REMARK SMILES IDX 14 23 7 24 8 25 9 26 13 27 10 28 12 29 11 30 30 31 31 32
REMARK SMILES IDX 32 33 33 34 34 35 35 36 36 37 37 38 38 39 39 40 40 41 41 42
REMARK SMILES IDX 93 43 42 44 92 45 43 46 44 47 45 48 86 49 46 50 91 51 85 52
REMARK SMILES IDX 87 53 47 54 90 55 84 56 83 57 48 59 74 60 57 61 73 62 58 63
REMARK SMILES IDX 61 64 72 65 88 66 59 67 60 68 71 70 89 71 62 72 49 73 50 74
REMARK SMILES IDX 55 75 51 76 52 77 54 78 56 79 53 80 75 81 76 82 81 83 77 84
REMARK SMILES IDX 78 85 80 86 82 87 79 88 63 89 64 90 69 91 65 92 66 93 68 94
REMARK SMILES IDX 70 95 67 96
REMARK H PARENT 87 58 61 69
REMARK Flexibility Score: inf
ROOT
ATOM      1  C   UNL     1      -3.799   3.428  -1.294  1.00  0.00     0.188 C 
ENDROOT
BRANCH   1   2
ATOM      2  O   UNL     1      -3.828   2.899  -2.597  1.00  0.00    -0.376 OA
BRANCH   2   3
ATOM      3  C   UNL     1      -3.072   1.757  -2.949  1.00  0.00     0.202 C 
BRANCH   3   4
ATOM      4  C   UNL     1      -2.295   0.849  -1.978  1.00  0.00     0.261 C 
BRANCH   4   5
ATOM      5  O   UNL     1      -2.675   0.798  -0.598  1.00  0.00    -0.463 OA
BRANCH   5   6
ATOM      6  C   UNL     1      -1.851   1.419   0.279  1.00  0.00     0.310 C 
ATOM      7  O   UNL     1      -0.913   2.138  -0.058  1.00  0.00    -0.252 OA
BRANCH   6   8
ATOM      8  C   UNL     1      -2.098   1.086   1.746  1.00  0.00     0.119 C 
ATOM      9  N   UNL     1      -1.425  -1.250   1.568  1.00  0.00    -0.339 N 
ATOM     10  C   UNL     1      -2.698  -1.780   2.039  1.00  0.00     0.119 C 
ATOM     11  C   UNL     1      -1.050   0.047   2.139  1.00  0.00     0.134 C 
ATOM     12  C   UNL     1      -3.836  -0.807   1.768  1.00  0.00     0.022 C 
ATOM     13  C   UNL     1      -3.477   0.607   2.222  1.00  0.00     0.019 C 
BRANCH   9  14
ATOM     14  C   UNL     1      -0.769  -1.875   0.512  1.00  0.00     0.263 C 
ATOM     15  O   UNL     1      -1.362  -2.639  -0.257  1.00  0.00    -0.271 OA
BRANCH  14  16
ATOM     16  C   UNL     1       0.742  -1.639   0.342  1.00  0.00     0.259 C 
ATOM     17  C   UNL     1       1.056  -0.411  -0.505  1.00  0.00     0.064 C 
BRANCH  16  18
ATOM     18  O   UNL     1       1.260  -1.567   1.675  1.00  0.00    -0.481 OA
BRANCH  18  19
ATOM     19  C   UNL     1       2.588  -1.825   1.772  1.00  0.00     0.120 A 
ATOM     20  C   UNL     1       2.999  -3.064   2.248  1.00  0.00     0.047 A 
ATOM     21  C   UNL     1       3.495  -0.793   1.575  1.00  0.00     0.047 A 
ATOM     22  C   UNL     1       4.350  -3.276   2.521  1.00  0.00     0.012 A 
ATOM     23  C   UNL     1       4.841  -1.013   1.831  1.00  0.00     0.012 A 
ATOM     24  C   UNL     1       5.289  -2.248   2.329  1.00  0.00    -0.018 A 
BRANCH  24  25
ATOM     25  C   UNL     1       6.704  -2.420   2.678  1.00  0.00    -0.018 A 
ATOM     26  C   UNL     1       7.455  -3.495   2.184  1.00  0.00     0.009 A 
ATOM     27  C   UNL     1       7.347  -1.481   3.504  1.00  0.00     0.009 A 
ATOM     28  C   UNL     1       8.811  -3.616   2.492  1.00  0.00     0.001 A 
ATOM     29  C   UNL     1       8.701  -1.599   3.810  1.00  0.00     0.001 A 
ATOM     30  C   UNL     1       9.434  -2.666   3.299  1.00  0.00     0.000 A 
ENDBRANCH  24  25
ENDBRANCH  18  19
ENDBRANCH  16  18
ENDBRANCH  14  16
ENDBRANCH   9  14
ENDBRANCH   6   8
ENDBRANCH   5   6
ENDBRANCH   4   5
ENDBRANCH   3   4
ENDBRANCH   2   3
ENDBRANCH   1   2
BRANCH   1  31
ATOM     31  C   UNL     1      -4.768   2.811  -0.277  1.00  0.00     0.188 C 
BRANCH  31  32
ATOM     32  O   UNL     1      -5.237   1.488  -0.477  1.00  0.00    -0.377 OA
BRANCH  32  33
ATOM     33  C   UNL     1      -6.012   1.161  -1.626  1.00  0.00     0.188 C 
BRANCH  33  34
ATOM     34  C   UNL     1      -6.642   2.262  -2.502  1.00  0.00     0.188 C 
BRANCH  34  35
ATOM     35  O   UNL     1      -6.796   3.516  -1.863  1.00  0.00    -0.376 OA
BRANCH  35  36
ATOM     36  C   UNL     1      -8.045   3.819  -1.263  1.00  0.00     0.202 C 
BRANCH  36  37
ATOM     37  C   UNL     1      -8.581   2.870  -0.180  1.00  0.00     0.261 C 
BRANCH  37  38
ATOM     38  O   UNL     1      -8.796   1.505  -0.572  1.00  0.00    -0.460 OA
BRANCH  38  39
ATOM     39  C   UNL     1      -9.619   1.262  -1.611  1.00  0.00     0.338 C 
ATOM     40  O   UNL     1     -10.258   2.073  -2.262  1.00  0.00    -0.246 OA
BRANCH  39  41
ATOM     41  C   UNL     1      -9.492  -0.167  -1.950  1.00  0.00     0.060 A 
ATOM     42  C   UNL     1      -9.004  -0.538  -3.211  1.00  0.00     0.016 A 
ATOM     43  C   UNL     1      -9.873  -1.135  -1.021  1.00  0.00     0.016 A 
ATOM     44  C   UNL     1      -8.940  -1.886  -3.563  1.00  0.00     0.010 A 
ATOM     45  C   UNL     1      -9.828  -2.482  -1.381  1.00  0.00     0.010 A 
ATOM     46  C   UNL     1      -9.402  -2.859  -2.668  1.00  0.00    -0.014 A 
BRANCH  46  47
ATOM     47  C   UNL     1      -9.674  -4.237  -3.139  1.00  0.00     0.031 A 
ATOM     48  C   UNL     1     -11.092  -4.588  -3.499  1.00  0.00     0.074 A 
ATOM     49  C   UNL     1      -8.701  -5.160  -3.229  1.00  0.00     0.049 A 
ATOM     50  N   UNL     1     -11.614  -5.747  -3.800  1.00  0.00    -0.248 NA
ATOM     51  C   UNL     1     -12.053  -3.472  -3.508  1.00  0.00     0.031 C 
ATOM     52  C   UNL     1      -7.285  -4.929  -2.961  1.00  0.00     0.029 A 
ATOM     53  N   UNL     1      -8.773  -6.492  -3.554  1.00  0.00    -0.354 N 
ATOM     54  C   UNL     1     -12.965  -5.504  -4.015  1.00  0.00     0.074 A 
ATOM     55  C   UNL     1     -13.188  -4.095  -3.782  1.00  0.00     0.031 C 
ATOM     56  C   UNL     1      -6.621  -6.089  -3.110  1.00  0.00     0.029 A 
ATOM     57  C   UNL     1      -7.573  -7.149  -3.441  1.00  0.00     0.049 A 
ATOM     58  H   UNL     1      -9.605  -6.933  -3.841  1.00  0.00     0.167 HD
ATOM     59  C   UNL     1     -13.933  -6.378  -4.377  1.00  0.00     0.037 A 
ATOM     60  C   UNL     1      -7.289  -8.461  -3.556  1.00  0.00     0.037 A 
ATOM     61  C   UNL     1     -13.704  -7.780  -4.603  1.00  0.00     0.049 A 
ATOM     62  C   UNL     1      -8.398  -9.432  -3.877  1.00  0.00     0.074 A 
ATOM     63  C   UNL     1     -14.613  -8.752  -4.981  1.00  0.00     0.029 A 
ATOM     64  N   UNL     1     -12.477  -8.411  -4.461  1.00  0.00    -0.354 N 
ATOM     65  N   UNL     1      -9.671  -9.197  -4.088  1.00  0.00    -0.248 NA
ATOM     66  C   UNL     1      -8.030 -10.852  -3.975  1.00  0.00     0.031 C 
ATOM     67  C   UNL     1     -13.948  -9.981  -5.011  1.00  0.00     0.029 A 
ATOM     68  C   UNL     1     -12.611  -9.764  -4.721  1.00  0.00     0.049 A 
ATOM     69  H   UNL     1     -11.636  -7.963  -4.213  1.00  0.00     0.167 HD
ATOM     70  C   UNL     1     -10.245 -10.429  -4.385  1.00  0.00     0.074 A 
ATOM     71  C   UNL     1      -9.180 -11.408  -4.329  1.00  0.00     0.031 C 
ATOM     72  C   UNL     1     -11.535 -10.723  -4.682  1.00  0.00     0.037 A 
BRANCH  59  73
ATOM     73  C   UNL     1     -15.331  -5.847  -4.511  1.00  0.00     0.057 A 
ATOM     74  C   UNL     1     -15.701  -4.977  -5.545  1.00  0.00     0.134 A 
ATOM     75  C   UNL     1     -16.326  -6.229  -3.602  1.00  0.00     0.134 A 
ATOM     76  F   UNL     1     -14.793  -4.558  -6.439  1.00  0.00    -0.206 F 
ATOM     77  C   UNL     1     -17.003  -4.485  -5.654  1.00  0.00     0.040 A 
ATOM     78  C   UNL     1     -17.639  -5.769  -3.719  1.00  0.00     0.040 A 
ATOM     79  F   UNL     1     -16.042  -7.061  -2.589  1.00  0.00    -0.206 F 
ATOM     80  C   UNL     1     -17.978  -4.888  -4.743  1.00  0.00     0.006 A 
ENDBRANCH  59  73
BRANCH  60  81
ATOM     81  C   UNL     1      -5.900  -8.947  -3.347  1.00  0.00     0.057 A 
ATOM     82  C   UNL     1      -5.155  -9.491  -4.400  1.00  0.00     0.134 A 
ATOM     83  C   UNL     1      -5.294  -8.907  -2.085  1.00  0.00     0.134 A 
ATOM     84  F   UNL     1      -5.689  -9.582  -5.627  1.00  0.00    -0.206 F 
ATOM     85  C   UNL     1      -3.869  -9.998  -4.203  1.00  0.00     0.040 A 
ATOM     86  C   UNL     1      -3.997  -9.382  -1.879  1.00  0.00     0.040 A 
ATOM     87  F   UNL     1      -5.953  -8.401  -1.032  1.00  0.00    -0.206 F 
ATOM     88  C   UNL     1      -3.284  -9.938  -2.939  1.00  0.00     0.006 A 
ENDBRANCH  60  81
BRANCH  72  89
ATOM     89  C   UNL     1     -11.862 -12.146  -5.037  1.00  0.00     0.057 A 
ATOM     90  C   UNL     1     -11.868 -13.173  -4.085  1.00  0.00     0.134 A 
ATOM     91  C   UNL     1     -12.235 -12.478  -6.347  1.00  0.00     0.134 A 
ATOM     92  F   UNL     1     -11.512 -12.926  -2.816  1.00  0.00    -0.206 F 
ATOM     93  C   UNL     1     -12.211 -14.482  -4.428  1.00  0.00     0.040 A 
ATOM     94  C   UNL     1     -12.611 -13.776  -6.694  1.00  0.00     0.040 A 
ATOM     95  F   UNL     1     -12.264 -11.540  -7.306  1.00  0.00    -0.206 F 
ATOM     96  C   UNL     1     -12.593 -14.784  -5.734  1.00  0.00     0.006 A 
ENDBRANCH  72  89
ENDBRANCH  46  47
ENDBRANCH  39  41
ENDBRANCH  38  39
ENDBRANCH  37  38
ENDBRANCH  36  37
ENDBRANCH  35  36
ENDBRANCH  34  35
ENDBRANCH  33  34
ENDBRANCH  32  33
ENDBRANCH  31  32
ENDBRANCH   1  31
TORSDOF 25
