REMARK SMILES C[C@H]1[C@H](C)CC[C@@]2(C(=O)OCCOCCOCCOCCOC(=O)c3ccc(-c4c5nc(c(-c6c(F)cccc6F)c6ccc([nH]6)c(-c6c(F)cccc6F)c6nc(c(-c7c(F)cccc7F)c7ccc4[nH]7)C=C6)C=C5)cc3)CC[C@@]3(C)C(=CC[C@@H]4[C@@]5(C)CC[C@H](O)C(C)(C)[C@@H]5CC[C@]43C)[C@H]12
REMARK SMILES IDX 17 1 16 2 15 3 14 4 13 5 12 6 11 7 10 8 8 9 9 10 7 11 1 12
REMARK SMILES IDX 2 13 3 14 101 15 4 16 5 17 83 18 6 19 79 20 81 21 84 22
REMARK SMILES IDX 80 23 82 24 99 25 85 26 86 27 98 28 100 29 87 30 97 31 88 32
REMARK SMILES IDX 89 33 96 34 90 35 93 36 91 37 94 38 95 39 92 40 18 42 19 43
REMARK SMILES IDX 20 44 21 45 22 46 23 47 24 48 25 49 26 50 78 51 27 52 77 53
REMARK SMILES IDX 28 54 29 55 30 56 71 57 31 58 76 59 70 60 72 61 32 62 75 63
REMARK SMILES IDX 69 64 68 65 33 67 59 68 42 69 58 70 43 71 46 72 57 73 73 74
REMARK SMILES IDX 44 75 45 76 56 78 74 79 47 80 34 81 35 82 40 83 36 84 37 85
REMARK SMILES IDX 39 86 41 87 38 88 60 89 61 90 66 91 62 92 63 93 65 94 67 95
REMARK SMILES IDX 64 96 48 97 49 98 54 99 50 100 51 101 53 102 55 103 52 104
REMARK H PARENT 92 41 72 66 46 77
REMARK Flexibility Score: inf
ROOT
ATOM      1  C   UNL     1      -1.458   1.258  -4.786  1.00  0.00     0.188 C 
ENDROOT
BRANCH   1   2
ATOM      2  O   UNL     1      -1.338   2.064  -3.635  1.00  0.00    -0.377 OA
BRANCH   2   3
ATOM      3  C   UNL     1      -0.543   3.226  -3.666  1.00  0.00     0.188 C 
BRANCH   3   4
ATOM      4  C   UNL     1       0.932   3.057  -4.073  1.00  0.00     0.188 C 
BRANCH   4   5
ATOM      5  O   UNL     1       1.323   1.762  -4.496  1.00  0.00    -0.376 OA
BRANCH   5   6
ATOM      6  C   UNL     1       1.365   0.754  -3.517  1.00  0.00     0.202 C 
BRANCH   6   7
ATOM      7  C   UNL     1       0.721   0.961  -2.155  1.00  0.00     0.261 C 
BRANCH   7   8
ATOM      8  O   UNL     1       1.115   2.043  -1.235  1.00  0.00    -0.463 OA
BRANCH   8   9
ATOM      9  C   UNL     1       1.198   3.344  -0.889  1.00  0.00     0.312 C 
ATOM     10  O   UNL     1       0.951   4.338  -1.556  1.00  0.00    -0.252 OA
BRANCH   9  11
ATOM     11  C   UNL     1       1.590   3.464   0.600  1.00  0.00     0.075 C 
ATOM     12  C   UNL     1       2.106  -0.314   1.754  1.00  0.00     0.008 C 
ATOM     13  C   UNL     1       1.452   0.933   1.164  1.00  0.00    -0.003 C 
ATOM     14  C   UNL     1       0.046   1.212   1.827  1.00  0.00    -0.011 C 
ATOM     15  C   UNL     1       2.436   2.216   1.017  1.00  0.00     0.036 C 
ATOM     16  C   UNL     1      -0.980   0.080   1.608  1.00  0.00     0.008 C 
ATOM     17  C   UNL     1      -0.639   2.478   1.310  1.00  0.00     0.005 C 
ATOM     18  C   UNL     1       3.682   2.281  -0.011  1.00  0.00    -0.063 C 
ATOM     19  C   UNL     1       0.284   3.666   1.387  1.00  0.00     0.020 C 
ATOM     20  C   UNL     1       2.413   4.747   0.847  1.00  0.00     0.020 C 
ATOM     21  C   UNL     1       4.566   3.602  -0.037  1.00  0.00    -0.006 C 
ATOM     22  C   UNL     1       3.830   1.390  -1.015  1.00  0.00    -0.027 C 
ATOM     23  C   UNL     1       3.652   4.856  -0.022  1.00  0.00     0.013 C 
ATOM     24  C   UNL     1       5.391   3.614   1.271  1.00  0.00     0.017 C 
ATOM     25  C   UNL     1       5.581   3.705  -1.355  1.00  0.00    -0.020 C 
ATOM     26  C   UNL     1       4.519   1.701  -2.333  1.00  0.00     0.032 C 
ATOM     27  C   UNL     1       4.749   3.212  -2.587  1.00  0.00     0.006 C 
ATOM     28  C   UNL     1       6.122   5.132  -1.644  1.00  0.00     0.008 C 
ATOM     29  C   UNL     1       6.843   2.818  -1.126  1.00  0.00     0.012 C 
ATOM     30  C   UNL     1       5.207   3.613  -4.090  1.00  0.00    -0.025 C 
ATOM     31  C   UNL     1       6.853   5.251  -2.999  1.00  0.00     0.005 C 
ATOM     32  C   UNL     1       6.059   2.477  -4.689  1.00  0.00     0.012 C 
ATOM     33  C   UNL     1       3.947   3.758  -5.007  1.00  0.00     0.010 C 
ATOM     34  C   UNL     1       5.854   5.046  -4.142  1.00  0.00     0.003 C 
ATOM     35  C   UNL     1       4.198   4.277  -6.429  1.00  0.00     0.033 C 
ATOM     36  C   UNL     1       6.298   5.549  -5.582  1.00  0.00    -0.006 C 
ATOM     37  C   UNL     1       5.022   5.564  -6.483  1.00  0.00     0.120 C 
ATOM     38  C   UNL     1       7.442   4.744  -6.236  1.00  0.00     0.014 C 
ATOM     39  C   UNL     1       6.820   7.010  -5.514  1.00  0.00     0.014 C 
BRANCH  37  40
ATOM     40  O   UNL     1       5.341   5.865  -7.844  1.00  0.00    -0.393 OA
ATOM     41  H   UNL     1       5.892   5.156  -8.211  1.00  0.00     0.210 HD
ENDBRANCH  37  40
ENDBRANCH   9  11
ENDBRANCH   8   9
ENDBRANCH   7   8
ENDBRANCH   6   7
ENDBRANCH   5   6
ENDBRANCH   4   5
ENDBRANCH   3   4
ENDBRANCH   2   3
ENDBRANCH   1   2
BRANCH   1  42
ATOM     42  C   UNL     1      -0.926   1.696  -6.166  1.00  0.00     0.188 C 
BRANCH  42  43
ATOM     43  O   UNL     1      -0.659   3.077  -6.303  1.00  0.00    -0.376 OA
BRANCH  43  44
ATOM     44  C   UNL     1      -1.633   3.919  -6.888  1.00  0.00     0.202 C 
BRANCH  44  45
ATOM     45  C   UNL     1      -2.986   4.079  -6.177  1.00  0.00     0.261 C 
BRANCH  45  46
ATOM     46  O   UNL     1      -3.692   2.873  -5.853  1.00  0.00    -0.460 OA
BRANCH  46  47
ATOM     47  C   UNL     1      -4.020   2.024  -6.851  1.00  0.00     0.338 C 
ATOM     48  O   UNL     1      -3.864   2.200  -8.049  1.00  0.00    -0.246 OA
BRANCH  47  49
ATOM     49  C   UNL     1      -4.339   0.719  -6.217  1.00  0.00     0.060 A 
ATOM     50  C   UNL     1      -3.597  -0.412  -6.606  1.00  0.00     0.016 A 
ATOM     51  C   UNL     1      -5.203   0.647  -5.116  1.00  0.00     0.016 A 
ATOM     52  C   UNL     1      -3.728  -1.612  -5.908  1.00  0.00     0.010 A 
ATOM     53  C   UNL     1      -5.390  -0.574  -4.464  1.00  0.00     0.010 A 
ATOM     54  C   UNL     1      -4.689  -1.715  -4.892  1.00  0.00    -0.014 A 
BRANCH  54  55
ATOM     55  C   UNL     1      -5.271  -3.052  -4.627  1.00  0.00     0.031 A 
ATOM     56  C   UNL     1      -6.322  -3.506  -5.609  1.00  0.00     0.074 A 
ATOM     57  C   UNL     1      -4.899  -3.834  -3.601  1.00  0.00     0.049 A 
ATOM     58  N   UNL     1      -7.036  -4.599  -5.625  1.00  0.00    -0.248 NA
ATOM     59  C   UNL     1      -6.600  -2.594  -6.735  1.00  0.00     0.031 C 
ATOM     60  C   UNL     1      -3.860  -3.530  -2.620  1.00  0.00     0.029 A 
ATOM     61  N   UNL     1      -5.378  -5.062  -3.215  1.00  0.00    -0.354 N 
ATOM     62  C   UNL     1      -7.830  -4.503  -6.762  1.00  0.00     0.074 A 
ATOM     63  C   UNL     1      -7.534  -3.245  -7.400  1.00  0.00     0.031 C 
ATOM     64  C   UNL     1      -3.794  -4.538  -1.730  1.00  0.00     0.029 A 
ATOM     65  C   UNL     1      -4.805  -5.542  -2.062  1.00  0.00     0.049 A 
ATOM     66  H   UNL     1      -6.067  -5.553  -3.718  1.00  0.00     0.167 HD
ATOM     67  C   UNL     1      -8.735  -5.384  -7.239  1.00  0.00     0.037 A 
ATOM     68  C   UNL     1      -5.095  -6.653  -1.355  1.00  0.00     0.037 A 
ATOM     69  C   UNL     1      -9.067  -6.611  -6.581  1.00  0.00     0.049 A 
ATOM     70  C   UNL     1      -6.187  -7.573  -1.848  1.00  0.00     0.074 A 
ATOM     71  C   UNL     1      -9.989  -7.568  -6.956  1.00  0.00     0.029 A 
ATOM     72  N   UNL     1      -8.493  -7.038  -5.394  1.00  0.00    -0.354 N 
ATOM     73  N   UNL     1      -6.921  -7.485  -2.932  1.00  0.00    -0.248 NA
ATOM     74  C   UNL     1      -6.494  -8.746  -1.015  1.00  0.00     0.031 C 
ATOM     75  C   UNL     1     -10.007  -8.556  -5.968  1.00  0.00     0.029 A 
ATOM     76  C   UNL     1      -9.057  -8.239  -5.009  1.00  0.00     0.049 A 
ATOM     77  H   UNL     1      -7.790  -6.558  -4.899  1.00  0.00     0.167 HD
ATOM     78  C   UNL     1      -7.748  -8.603  -2.929  1.00  0.00     0.074 A 
ATOM     79  C   UNL     1      -7.420  -9.359  -1.739  1.00  0.00     0.031 C 
ATOM     80  C   UNL     1      -8.695  -8.976  -3.826  1.00  0.00     0.037 A 
BRANCH  67  81
ATOM     81  C   UNL     1      -9.450  -5.008  -8.500  1.00  0.00     0.057 A 
ATOM     82  C   UNL     1      -8.803  -5.010  -9.743  1.00  0.00     0.134 A 
ATOM     83  C   UNL     1     -10.793  -4.618  -8.467  1.00  0.00     0.134 A 
ATOM     84  F   UNL     1      -7.505  -5.336  -9.834  1.00  0.00    -0.206 F 
ATOM     85  C   UNL     1      -9.466  -4.622 -10.908  1.00  0.00     0.040 A 
ATOM     86  C   UNL     1     -11.473  -4.253  -9.629  1.00  0.00     0.040 A 
ATOM     87  F   UNL     1     -11.462  -4.577  -7.305  1.00  0.00    -0.206 F 
ATOM     88  C   UNL     1     -10.808  -4.250 -10.853  1.00  0.00     0.006 A 
ENDBRANCH  67  81
BRANCH  68  89
ATOM     89  C   UNL     1      -4.375  -6.956  -0.089  1.00  0.00     0.057 A 
ATOM     90  C   UNL     1      -3.531  -8.069   0.021  1.00  0.00     0.134 A 
ATOM     91  C   UNL     1      -4.556  -6.174   1.058  1.00  0.00     0.134 A 
ATOM     92  F   UNL     1      -3.339  -8.876  -1.032  1.00  0.00    -0.206 F 
ATOM     93  C   UNL     1      -2.913  -8.405   1.228  1.00  0.00     0.040 A 
ATOM     94  C   UNL     1      -3.924  -6.483   2.265  1.00  0.00     0.040 A 
ATOM     95  F   UNL     1      -5.356  -5.098   1.025  1.00  0.00    -0.206 F 
ATOM     96  C   UNL     1      -3.107  -7.608   2.354  1.00  0.00     0.006 A 
ENDBRANCH  68  89
BRANCH  80  97
ATOM     97  C   UNL     1      -9.406 -10.274  -3.585  1.00  0.00     0.057 A 
ATOM     98  C   UNL     1     -10.367 -10.418  -2.578  1.00  0.00     0.134 A 
ATOM     99  C   UNL     1      -9.172 -11.373  -4.422  1.00  0.00     0.134 A 
ATOM    100  F   UNL     1     -10.631  -9.403  -1.740  1.00  0.00    -0.206 F 
ATOM    101  C   UNL     1     -11.056 -11.617  -2.397  1.00  0.00     0.040 A 
ATOM    102  C   UNL     1      -9.875 -12.568  -4.269  1.00  0.00     0.040 A 
ATOM    103  F   UNL     1      -8.276 -11.294  -5.417  1.00  0.00    -0.206 F 
ATOM    104  C   UNL     1     -10.816 -12.694  -3.250  1.00  0.00     0.006 A 
ENDBRANCH  80  97
ENDBRANCH  54  55
ENDBRANCH  47  49
ENDBRANCH  46  47
ENDBRANCH  45  46
ENDBRANCH  44  45
ENDBRANCH  43  44
ENDBRANCH  42  43
ENDBRANCH   1  42
TORSDOF 21
