REMARK SMILES O=C(CCCc1nc(-c2ccc(Cl)c(Cl)c2)c(-c2ccccc2)o1)OCCOCCOCCOCCOC(=O)c1ccc(-c2c3nc(c(-c4c(F)cccc4F)c4ccc([nH]4)c(-c4c(F)cccc4F)c4nc(c(-c5c(F)cccc5F)c5ccc2[nH]5)C=C4)C=C3)cc1
REMARK SMILES IDX 30 1 29 2 28 3 27 4 26 5 25 6 2 7 1 8 3 9 4 10 5 11 6 12
REMARK SMILES IDX 7 13 24 14 8 15 17 16 9 17 10 18 16 19 11 20 14 21 12 22
REMARK SMILES IDX 15 23 13 24 18 25 19 26 23 27 20 28 22 29 21 30 31 31 32 32
REMARK SMILES IDX 33 33 34 34 35 35 36 36 37 37 38 38 39 39 40 40 41 41 93 42
REMARK SMILES IDX 42 43 92 44 43 45 44 46 45 47 86 48 46 49 91 50 85 51 87 52
REMARK SMILES IDX 47 53 90 54 84 55 83 56 48 58 74 59 57 60 73 61 58 62 61 63
REMARK SMILES IDX 72 64 88 65 59 66 60 67 71 69 89 70 62 71 49 72 50 73 55 74
REMARK SMILES IDX 51 75 52 76 54 77 56 78 53 79 75 80 76 81 81 82 77 83 78 84
REMARK SMILES IDX 80 85 82 86 79 87 63 88 64 89 69 90 65 91 66 92 68 93 70 94
REMARK SMILES IDX 67 95
REMARK H PARENT 87 57 61 68
REMARK Flexibility Score: inf
ROOT
ATOM      1  C   UNL     1       1.577   1.574  -2.004  1.00  0.00     0.188 C 
ENDROOT
BRANCH   1   2
ATOM      2  C   UNL     1       2.147   1.136  -0.649  1.00  0.00     0.188 C 
BRANCH   2   3
ATOM      3  O   UNL     1       3.340   0.329  -0.702  1.00  0.00    -0.376 OA
BRANCH   3   4
ATOM      4  C   UNL     1       3.221  -0.832  -1.521  1.00  0.00     0.202 C 
BRANCH   4   5
ATOM      5  C   UNL     1       3.780  -2.095  -0.861  1.00  0.00     0.261 C 
BRANCH   5   6
ATOM      6  O   UNL     1       3.682  -2.204   0.567  1.00  0.00    -0.463 OA
BRANCH   6   7
ATOM      7  C   UNL     1       2.711  -1.518   1.199  1.00  0.00     0.305 C 
ATOM      8  O   UNL     1       1.522  -1.606   0.918  1.00  0.00    -0.252 OA
BRANCH   7   9
ATOM      9  C   UNL     1       3.289  -0.528   2.197  1.00  0.00     0.123 C 
BRANCH   9  10
ATOM     10  C   UNL     1       4.631  -0.874   2.845  1.00  0.00     0.021 C 
BRANCH  10  11
ATOM     11  C   UNL     1       5.874  -1.085   1.978  1.00  0.00     0.098 C 
BRANCH  11  12
ATOM     12  C   UNL     1       6.421   0.024   1.143  1.00  0.00     0.195 A 
ATOM     13  N   UNL     1       7.392  -0.114   0.258  1.00  0.00    -0.213 NA
ATOM     14  O   UNL     1       6.042   1.324   1.369  1.00  0.00    -0.440 OA
ATOM     15  C   UNL     1       7.721   1.170  -0.079  1.00  0.00     0.117 A 
ATOM     16  C   UNL     1       6.867   2.066   0.542  1.00  0.00     0.162 A 
BRANCH  15  17
ATOM     17  C   UNL     1       8.846   1.502  -0.927  1.00  0.00     0.006 A 
ATOM     18  C   UNL     1       8.904   1.030  -2.242  1.00  0.00     0.012 A 
ATOM     19  C   UNL     1       9.870   2.330  -0.445  1.00  0.00     0.032 A 
ATOM     20  C   UNL     1       9.952   1.422  -3.081  1.00  0.00     0.023 A 
ATOM     21  C   UNL     1      10.918   2.722  -1.282  1.00  0.00     0.060 A 
ATOM     22  C   UNL     1      10.955   2.275  -2.607  1.00  0.00     0.059 A 
ATOM     23  Cl  UNL     1      12.119   3.776  -0.624  1.00  0.00    -0.083 Cl
ATOM     24  Cl  UNL     1      12.198   2.748  -3.709  1.00  0.00    -0.083 Cl
ENDBRANCH  15  17
BRANCH  16  25
ATOM     25  C   UNL     1       6.691   3.518   0.501  1.00  0.00     0.020 A 
ATOM     26  C   UNL     1       6.157   4.228   1.580  1.00  0.00     0.012 A 
ATOM     27  C   UNL     1       7.078   4.248  -0.639  1.00  0.00     0.012 A 
ATOM     28  C   UNL     1       6.031   5.623   1.525  1.00  0.00     0.001 A 
ATOM     29  C   UNL     1       6.960   5.638  -0.694  1.00  0.00     0.001 A 
ATOM     30  C   UNL     1       6.435   6.327   0.392  1.00  0.00     0.000 A 
ENDBRANCH  16  25
ENDBRANCH  11  12
ENDBRANCH  10  11
ENDBRANCH   9  10
ENDBRANCH   7   9
ENDBRANCH   6   7
ENDBRANCH   5   6
ENDBRANCH   4   5
ENDBRANCH   3   4
ENDBRANCH   2   3
ENDBRANCH   1   2
BRANCH   1  31
ATOM     31  O   UNL     1       2.457   1.305  -3.082  1.00  0.00    -0.377 OA
BRANCH  31  32
ATOM     32  C   UNL     1       3.537   2.205  -3.288  1.00  0.00     0.188 C 
BRANCH  32  33
ATOM     33  C   UNL     1       4.104   3.037  -2.127  1.00  0.00     0.188 C 
BRANCH  33  34
ATOM     34  O   UNL     1       3.124   3.904  -1.552  1.00  0.00    -0.376 OA
BRANCH  34  35
ATOM     35  C   UNL     1       3.337   5.297  -1.761  1.00  0.00     0.202 C 
BRANCH  35  36
ATOM     36  C   UNL     1       2.735   5.799  -3.077  1.00  0.00     0.261 C 
BRANCH  36  37
ATOM     37  O   UNL     1       3.272   5.178  -4.257  1.00  0.00    -0.460 OA
BRANCH  37  38
ATOM     38  C   UNL     1       4.592   5.325  -4.520  1.00  0.00     0.338 C 
ATOM     39  O   UNL     1       5.385   6.029  -3.918  1.00  0.00    -0.246 OA
BRANCH  38  40
ATOM     40  C   UNL     1       4.968   4.304  -5.530  1.00  0.00     0.060 A 
ATOM     41  C   UNL     1       6.150   3.571  -5.348  1.00  0.00     0.016 A 
ATOM     42  C   UNL     1       4.117   3.999  -6.599  1.00  0.00     0.016 A 
ATOM     43  C   UNL     1       6.488   2.545  -6.240  1.00  0.00     0.010 A 
ATOM     44  C   UNL     1       4.460   2.982  -7.493  1.00  0.00     0.010 A 
ATOM     45  C   UNL     1       5.656   2.263  -7.333  1.00  0.00    -0.014 A 
BRANCH  45  46
ATOM     46  C   UNL     1       6.098   1.362  -8.428  1.00  0.00     0.031 A 
ATOM     47  C   UNL     1       6.735   1.988  -9.639  1.00  0.00     0.074 A 
ATOM     48  C   UNL     1       5.880   0.035  -8.396  1.00  0.00     0.049 A 
ATOM     49  N   UNL     1       7.054   1.447 -10.785  1.00  0.00    -0.248 NA
ATOM     50  C   UNL     1       7.039   3.426  -9.543  1.00  0.00     0.031 C 
ATOM     51  C   UNL     1       5.292  -0.705  -7.282  1.00  0.00     0.029 A 
ATOM     52  N   UNL     1       6.102  -0.924  -9.358  1.00  0.00    -0.354 N 
ATOM     53  C   UNL     1       7.575   2.480 -11.554  1.00  0.00     0.074 A 
ATOM     54  C   UNL     1       7.523   3.680 -10.749  1.00  0.00     0.031 C 
ATOM     55  C   UNL     1       5.170  -1.999  -7.636  1.00  0.00     0.029 A 
ATOM     56  C   UNL     1       5.633  -2.169  -9.013  1.00  0.00     0.049 A 
ATOM     57  H   UNL     1       6.554  -0.736 -10.212  1.00  0.00     0.167 HD
ATOM     58  C   UNL     1       8.050   2.435 -12.819  1.00  0.00     0.037 A 
ATOM     59  C   UNL     1       5.547  -3.302  -9.742  1.00  0.00     0.037 A 
ATOM     60  C   UNL     1       8.113   1.245 -13.622  1.00  0.00     0.049 A 
ATOM     61  C   UNL     1       6.022  -3.309 -11.175  1.00  0.00     0.074 A 
ATOM     62  C   UNL     1       8.637   1.094 -14.894  1.00  0.00     0.029 A 
ATOM     63  N   UNL     1       7.623   0.009 -13.238  1.00  0.00    -0.354 N 
ATOM     64  N   UNL     1       6.566  -2.342 -11.874  1.00  0.00    -0.248 NA
ATOM     65  C   UNL     1       5.857  -4.565 -11.927  1.00  0.00     0.031 C 
ATOM     66  C   UNL     1       8.415  -0.225 -15.302  1.00  0.00     0.029 A 
ATOM     67  C   UNL     1       7.795  -0.903 -14.265  1.00  0.00     0.049 A 
ATOM     68  H   UNL     1       7.213  -0.192 -12.366  1.00  0.00     0.167 HD
ATOM     69  C   UNL     1       6.826  -2.877 -13.131  1.00  0.00     0.074 A 
ATOM     70  C   UNL     1       6.394  -4.257 -13.099  1.00  0.00     0.031 C 
ATOM     71  C   UNL     1       7.370  -2.277 -14.218  1.00  0.00     0.037 A 
BRANCH  58  72
ATOM     72  C   UNL     1       8.515   3.720 -13.431  1.00  0.00     0.057 A 
ATOM     73  C   UNL     1       9.726   4.319 -13.065  1.00  0.00     0.134 A 
ATOM     74  C   UNL     1       7.760   4.339 -14.435  1.00  0.00     0.134 A 
ATOM     75  F   UNL     1      10.485   3.782 -12.097  1.00  0.00    -0.206 F 
ATOM     76  C   UNL     1      10.166   5.497 -13.670  1.00  0.00     0.040 A 
ATOM     77  C   UNL     1       8.200   5.505 -15.062  1.00  0.00     0.040 A 
ATOM     78  F   UNL     1       6.590   3.814 -14.829  1.00  0.00    -0.206 F 
ATOM     79  C   UNL     1       9.405   6.088 -14.678  1.00  0.00     0.006 A 
ENDBRANCH  58  72
BRANCH  59  80
ATOM     80  C   UNL     1       4.935  -4.527  -9.163  1.00  0.00     0.057 A 
ATOM     81  C   UNL     1       5.696  -5.677  -8.922  1.00  0.00     0.134 A 
ATOM     82  C   UNL     1       3.561  -4.600  -8.904  1.00  0.00     0.134 A 
ATOM     83  F   UNL     1       7.012  -5.682  -9.184  1.00  0.00    -0.206 F 
ATOM     84  C   UNL     1       5.111  -6.861  -8.469  1.00  0.00     0.040 A 
ATOM     85  C   UNL     1       2.966  -5.769  -8.425  1.00  0.00     0.040 A 
ATOM     86  F   UNL     1       2.773  -3.537  -9.122  1.00  0.00    -0.206 F 
ATOM     87  C   UNL     1       3.741  -6.908  -8.216  1.00  0.00     0.006 A 
ENDBRANCH  59  80
BRANCH  71  88
ATOM     88  C   UNL     1       7.558  -3.106 -15.455  1.00  0.00     0.057 A 
ATOM     89  C   UNL     1       6.479  -3.460 -16.274  1.00  0.00     0.134 A 
ATOM     90  C   UNL     1       8.840  -3.489 -15.871  1.00  0.00     0.134 A 
ATOM     91  F   UNL     1       5.225  -3.132 -15.927  1.00  0.00    -0.206 F 
ATOM     92  C   UNL     1       6.668  -4.175 -17.459  1.00  0.00     0.040 A 
ATOM     93  C   UNL     1       9.043  -4.183 -17.064  1.00  0.00     0.040 A 
ATOM     94  F   UNL     1       9.917  -3.172 -15.137  1.00  0.00    -0.206 F 
ATOM     95  C   UNL     1       7.954  -4.529 -17.861  1.00  0.00     0.006 A 
ENDBRANCH  71  88
ENDBRANCH  45  46
ENDBRANCH  38  40
ENDBRANCH  37  38
ENDBRANCH  36  37
ENDBRANCH  35  36
ENDBRANCH  34  35
ENDBRANCH  33  34
ENDBRANCH  32  33
ENDBRANCH  31  32
ENDBRANCH   1  31
TORSDOF 25
