REMARK SMILES COC[C@@H](C)Nc1ccc([N+](=O)[O-])c(C(=O)OCCOCCOCCOCCOC(=O)c2ccc(-c3c4nc(c(-c5c(F)cccc5F)c5ccc([nH]5)c(-c5c(F)cccc5F)c5nc(c(-c6c(F)cccc6F)c6ccc3[nH]6)C=C5)C=C4)cc2)c1
REMARK SMILES IDX 22 1 21 2 20 3 19 4 18 5 17 6 15 7 16 8 14 9 7 10 8 11 86 12
REMARK SMILES IDX 9 13 10 14 6 15 4 17 5 18 3 19 2 20 1 21 11 22 12 23 13 24
REMARK SMILES IDX 23 25 24 26 25 27 26 28 27 29 28 30 29 31 30 32 31 33 32 34
REMARK SMILES IDX 33 35 85 36 34 37 84 38 35 39 36 40 37 41 78 42 38 43 83 44
REMARK SMILES IDX 77 45 79 46 39 47 82 48 76 49 75 50 40 52 66 53 49 54 65 55
REMARK SMILES IDX 50 56 53 57 64 58 80 59 51 60 52 61 63 63 81 64 54 65 41 66
REMARK SMILES IDX 42 67 47 68 43 69 44 70 46 71 48 72 45 73 67 74 68 75 73 76
REMARK SMILES IDX 69 77 70 78 72 79 74 80 71 81 55 82 56 83 61 84 57 85 58 86
REMARK SMILES IDX 60 87 62 88 59 89
REMARK H PARENT 6 16 79 51 53 62
REMARK Flexibility Score: inf
ROOT
ATOM      1  C   UNL     1      -1.852  -7.264   2.752  1.00  0.00     0.188 C 
ENDROOT
BRANCH   1   2
ATOM      2  C   UNL     1      -3.269  -7.572   3.268  1.00  0.00     0.188 C 
BRANCH   2   3
ATOM      3  O   UNL     1      -4.285  -7.576   2.267  1.00  0.00    -0.376 OA
BRANCH   3   4
ATOM      4  C   UNL     1      -5.260  -6.545   2.388  1.00  0.00     0.202 C 
BRANCH   4   5
ATOM      5  C   UNL     1      -4.757  -5.211   1.842  1.00  0.00     0.261 C 
BRANCH   5   6
ATOM      6  O   UNL     1      -3.615  -4.741   2.573  1.00  0.00    -0.459 OA
BRANCH   6   7
ATOM      7  C   UNL     1      -3.824  -4.109   3.749  1.00  0.00     0.345 C 
ATOM      8  O   UNL     1      -4.884  -3.776   4.240  1.00  0.00    -0.246 OA
BRANCH   7   9
ATOM      9  C   UNL     1      -2.486  -3.912   4.343  1.00  0.00     0.139 A 
ATOM     10  C   UNL     1      -0.207  -3.092   3.917  1.00  0.00     0.036 A 
ATOM     11  C   UNL     1       0.152  -3.562   5.185  1.00  0.00     0.033 A 
ATOM     12  C   UNL     1      -1.533  -3.273   3.520  1.00  0.00     0.048 A 
ATOM     13  C   UNL     1      -0.775  -4.189   6.026  1.00  0.00     0.089 A 
ATOM     14  C   UNL     1      -2.105  -4.361   5.608  1.00  0.00     0.284 A 
BRANCH  10  15
ATOM     15  N   UNL     1       0.739  -2.447   3.151  1.00  0.00    -0.380 N 
ATOM     16  H   UNL     1       1.668  -2.466   3.478  1.00  0.00     0.160 HD
BRANCH  15  17
ATOM     17  C   UNL     1       0.491  -1.735   1.893  1.00  0.00     0.102 C 
ATOM     18  C   UNL     1       1.067  -2.575   0.752  1.00  0.00     0.033 C 
BRANCH  17  19
ATOM     19  C   UNL     1       1.125  -0.327   1.984  1.00  0.00     0.184 C 
BRANCH  19  20
ATOM     20  O   UNL     1       0.527   0.643   1.122  1.00  0.00    -0.383 OA
ATOM     21  C   UNL     1       0.990   0.601  -0.218  1.00  0.00     0.194 C 
ENDBRANCH  19  20
ENDBRANCH  17  19
ENDBRANCH  15  17
ENDBRANCH  10  15
BRANCH  14  22
ATOM     22  N   UNL     1      -3.009  -5.075   6.513  1.00  0.00     0.063 N 
ATOM     23  O   UNL     1      -2.716  -5.074   7.718  1.00  0.00    -0.258 OA
ATOM     24  O   UNL     1      -3.960  -5.698   6.035  1.00  0.00    -0.258 OA
ENDBRANCH  14  22
ENDBRANCH   7   9
ENDBRANCH   6   7
ENDBRANCH   5   6
ENDBRANCH   4   5
ENDBRANCH   3   4
ENDBRANCH   2   3
ENDBRANCH   1   2
BRANCH   1  25
ATOM     25  O   UNL     1      -1.632  -7.168   1.356  1.00  0.00    -0.377 OA
BRANCH  25  26
ATOM     26  C   UNL     1      -2.215  -8.134   0.491  1.00  0.00     0.188 C 
BRANCH  26  27
ATOM     27  C   UNL     1      -2.524  -9.561   0.989  1.00  0.00     0.188 C 
BRANCH  27  28
ATOM     28  O   UNL     1      -1.856  -9.933   2.188  1.00  0.00    -0.376 OA
BRANCH  28  29
ATOM     29  C   UNL     1      -0.835 -10.911   2.064  1.00  0.00     0.202 C 
BRANCH  29  30
ATOM     30  C   UNL     1       0.479 -10.345   1.517  1.00  0.00     0.261 C 
BRANCH  30  31
ATOM     31  O   UNL     1       0.399  -9.847   0.172  1.00  0.00    -0.460 OA
BRANCH  31  32
ATOM     32  C   UNL     1       0.056 -10.732  -0.788  1.00  0.00     0.338 C 
ATOM     33  O   UNL     1      -0.150 -11.924  -0.664  1.00  0.00    -0.246 OA
BRANCH  32  34
ATOM     34  C   UNL     1      -0.200  -9.967  -2.021  1.00  0.00     0.060 A 
ATOM     35  C   UNL     1      -1.451 -10.079  -2.642  1.00  0.00     0.016 A 
ATOM     36  C   UNL     1       0.791  -9.139  -2.551  1.00  0.00     0.016 A 
ATOM     37  C   UNL     1      -1.701  -9.381  -3.822  1.00  0.00     0.010 A 
ATOM     38  C   UNL     1       0.547  -8.458  -3.743  1.00  0.00     0.010 A 
ATOM     39  C   UNL     1      -0.687  -8.604  -4.398  1.00  0.00    -0.014 A 
BRANCH  39  40
ATOM     40  C   UNL     1      -0.827  -8.124  -5.791  1.00  0.00     0.031 A 
ATOM     41  C   UNL     1      -0.274  -8.986  -6.890  1.00  0.00     0.074 A 
ATOM     42  C   UNL     1      -1.425  -6.955  -6.075  1.00  0.00     0.049 A 
ATOM     43  N   UNL     1      -0.216  -8.760  -8.176  1.00  0.00    -0.248 NA
ATOM     44  C   UNL     1       0.294 -10.282  -6.479  1.00  0.00     0.031 C 
ATOM     45  C   UNL     1      -2.033  -6.052  -5.100  1.00  0.00     0.029 A 
ATOM     46  N   UNL     1      -1.606  -6.325  -7.280  1.00  0.00    -0.354 N 
ATOM     47  C   UNL     1       0.387  -9.883  -8.726  1.00  0.00     0.074 A 
ATOM     48  C   UNL     1       0.710 -10.775  -7.635  1.00  0.00     0.031 C 
ATOM     49  C   UNL     1      -2.512  -4.974  -5.747  1.00  0.00     0.029 A 
ATOM     50  C   UNL     1      -2.218  -5.100  -7.174  1.00  0.00     0.049 A 
ATOM     51  H   UNL     1      -1.325  -6.714  -8.140  1.00  0.00     0.167 HD
ATOM     52  C   UNL     1       0.640 -10.154 -10.028  1.00  0.00     0.037 A 
ATOM     53  C   UNL     1      -2.487  -4.183  -8.123  1.00  0.00     0.037 A 
ATOM     54  C   UNL     1       0.338  -9.260 -11.111  1.00  0.00     0.049 A 
ATOM     55  C   UNL     1      -2.110  -4.468  -9.555  1.00  0.00     0.074 A 
ATOM     56  C   UNL     1       0.565  -9.436 -12.464  1.00  0.00     0.029 A 
ATOM     57  N   UNL     1      -0.253  -8.015 -10.960  1.00  0.00    -0.354 N 
ATOM     58  N   UNL     1      -1.556  -5.540 -10.070  1.00  0.00    -0.248 NA
ATOM     59  C   UNL     1      -2.397  -3.413 -10.539  1.00  0.00     0.031 C 
ATOM     60  C   UNL     1       0.147  -8.278 -13.129  1.00  0.00     0.029 A 
ATOM     61  C   UNL     1      -0.381  -7.402 -12.195  1.00  0.00     0.049 A 
ATOM     62  H   UNL     1      -0.538  -7.625 -10.103  1.00  0.00     0.167 HD
ATOM     63  C   UNL     1      -1.460  -5.302 -11.436  1.00  0.00     0.074 A 
ATOM     64  C   UNL     1      -2.019  -3.987 -11.672  1.00  0.00     0.031 C 
ATOM     65  C   UNL     1      -0.956  -6.099 -12.410  1.00  0.00     0.037 A 
BRANCH  52  66
ATOM     66  C   UNL     1       1.295 -11.466 -10.338  1.00  0.00     0.057 A 
ATOM     67  C   UNL     1       0.598 -12.677 -10.239  1.00  0.00     0.134 A 
ATOM     68  C   UNL     1       2.631 -11.519 -10.750  1.00  0.00     0.134 A 
ATOM     69  F   UNL     1      -0.680 -12.695  -9.828  1.00  0.00    -0.206 F 
ATOM     70  C   UNL     1       1.213 -13.897 -10.521  1.00  0.00     0.040 A 
ATOM     71  C   UNL     1       3.251 -12.731 -11.058  1.00  0.00     0.040 A 
ATOM     72  F   UNL     1       3.355 -10.395 -10.862  1.00  0.00    -0.206 F 
ATOM     73  C   UNL     1       2.543 -13.925 -10.938  1.00  0.00     0.006 A 
ENDBRANCH  52  66
BRANCH  53  74
ATOM     74  C   UNL     1      -3.139  -2.898  -7.763  1.00  0.00     0.057 A 
ATOM     75  C   UNL     1      -4.442  -2.605  -8.182  1.00  0.00     0.134 A 
ATOM     76  C   UNL     1      -2.460  -1.915  -7.032  1.00  0.00     0.134 A 
ATOM     77  F   UNL     1      -5.133  -3.496  -8.909  1.00  0.00    -0.206 F 
ATOM     78  C   UNL     1      -5.039  -1.374  -7.908  1.00  0.00     0.040 A 
ATOM     79  C   UNL     1      -3.054  -0.689  -6.730  1.00  0.00     0.040 A 
ATOM     80  F   UNL     1      -1.208  -2.133  -6.604  1.00  0.00    -0.206 F 
ATOM     81  C   UNL     1      -4.345  -0.412  -7.176  1.00  0.00     0.006 A 
ENDBRANCH  53  74
BRANCH  65  82
ATOM     82  C   UNL     1      -1.028  -5.596 -13.821  1.00  0.00     0.057 A 
ATOM     83  C   UNL     1      -0.189  -4.577 -14.288  1.00  0.00     0.134 A 
ATOM     84  C   UNL     1      -1.917  -6.174 -14.737  1.00  0.00     0.134 A 
ATOM     85  F   UNL     1       0.676  -3.975 -13.458  1.00  0.00    -0.206 F 
ATOM     86  C   UNL     1      -0.246  -4.136 -15.611  1.00  0.00     0.040 A 
ATOM     87  C   UNL     1      -1.965  -5.759 -16.068  1.00  0.00     0.040 A 
ATOM     88  F   UNL     1      -2.741  -7.162 -14.356  1.00  0.00    -0.206 F 
ATOM     89  C   UNL     1      -1.131  -4.734 -16.507  1.00  0.00     0.006 A 
ENDBRANCH  65  82
ENDBRANCH  39  40
ENDBRANCH  32  34
ENDBRANCH  31  32
ENDBRANCH  30  31
ENDBRANCH  29  30
ENDBRANCH  28  29
ENDBRANCH  27  28
ENDBRANCH  26  27
ENDBRANCH  25  26
ENDBRANCH   1  25
TORSDOF 25
