REMARK SMILES C[C@@]1(O)N(CC(=O)OCCOCCOCCOCCOC(=O)c2ccc(-c3c4nc(c(-c5c(F)cccc5F)c5ccc([nH]5)c(-c5c(F)cccc5F)c5nc(c(-c6c(F)cccc6F)c6ccc3[nH]6)C=C5)C=C4)cc2)C(=O)OC12CCCCC2
REMARK SMILES IDX 14 1 13 2 12 3 11 4 10 5 9 6 8 7 6 8 7 9 5 10 4 11 1 12 2 13
REMARK SMILES IDX 80 14 77 15 79 16 81 17 85 18 78 19 82 20 84 21 83 22 3 23
REMARK SMILES IDX 15 25 16 26 17 27 18 28 19 29 20 30 21 31 22 32 23 33 24 34
REMARK SMILES IDX 76 35 25 36 75 37 26 38 27 39 28 40 69 41 29 42 74 43 68 44
REMARK SMILES IDX 70 45 30 46 73 47 67 48 66 49 31 51 57 52 40 53 56 54 41 55
REMARK SMILES IDX 44 56 55 57 71 58 42 59 43 60 54 62 72 63 45 64 32 65 33 66
REMARK SMILES IDX 38 67 34 68 35 69 37 70 39 71 36 72 58 73 59 74 64 75 60 76
REMARK SMILES IDX 61 77 63 78 65 79 62 80 46 81 47 82 52 83 48 84 49 85 51 86
REMARK SMILES IDX 53 87 50 88
REMARK H PARENT 3 24 70 50 44 61
REMARK Flexibility Score: inf
ROOT
ATOM      1  O   UNL     1       3.113   2.618   0.458  1.00  0.00    -0.377 OA
ENDROOT
BRANCH   1   2
ATOM      2  C   UNL     1       3.196   2.010  -0.820  1.00  0.00     0.188 C 
BRANCH   2   3
ATOM      3  C   UNL     1       3.077   3.015  -1.965  1.00  0.00     0.188 C 
BRANCH   3   4
ATOM      4  O   UNL     1       3.820   4.214  -1.812  1.00  0.00    -0.376 OA
BRANCH   4   5
ATOM      5  C   UNL     1       3.463   5.065  -0.719  1.00  0.00     0.202 C 
BRANCH   5   6
ATOM      6  C   UNL     1       1.964   5.359  -0.473  1.00  0.00     0.261 C 
BRANCH   6   7
ATOM      7  O   UNL     1       1.156   4.253   0.054  1.00  0.00    -0.462 OA
BRANCH   7   8
ATOM      8  C   UNL     1       0.037   3.954  -0.652  1.00  0.00     0.325 C 
ATOM      9  O   UNL     1      -0.273   4.539  -1.692  1.00  0.00    -0.250 OA
BRANCH   8  10
ATOM     10  C   UNL     1      -0.870   2.809  -0.141  1.00  0.00     0.248 C 
BRANCH  10  11
ATOM     11  N   UNL     1      -0.802   1.905   1.026  1.00  0.00    -0.265 N 
ATOM     12  C   UNL     1       0.227  -0.058  -0.132  1.00  0.00     0.072 C 
ATOM     13  C   UNL     1       0.025   0.742   1.161  1.00  0.00     0.181 C 
ATOM     14  C   UNL     1      -0.631  -0.089   2.327  1.00  0.00     0.161 C 
ATOM     15  C   UNL     1      -1.848   1.844   1.927  1.00  0.00     0.413 C 
ATOM     16  O   UNL     1      -1.810   0.681   2.651  1.00  0.00    -0.438 OA
ATOM     17  C   UNL     1      -1.067  -1.520   1.923  1.00  0.00     0.054 C 
ATOM     18  C   UNL     1       0.226  -0.140   3.618  1.00  0.00     0.054 C 
ATOM     19  O   UNL     1      -2.738   2.659   2.035  1.00  0.00    -0.224 OA
ATOM     20  C   UNL     1      -1.617  -2.379   3.061  1.00  0.00     0.004 C 
ATOM     21  C   UNL     1      -0.398  -0.987   4.732  1.00  0.00     0.004 C 
ATOM     22  C   UNL     1      -0.675  -2.404   4.254  1.00  0.00     0.000 C 
BRANCH  13  23
ATOM     23  O   UNL     1       1.273   1.212   1.602  1.00  0.00    -0.367 OA
ATOM     24  H   UNL     1       1.693   1.727   0.895  1.00  0.00     0.213 HD
ENDBRANCH  13  23
ENDBRANCH  10  11
ENDBRANCH   8  10
ENDBRANCH   7   8
ENDBRANCH   6   7
ENDBRANCH   5   6
ENDBRANCH   4   5
ENDBRANCH   3   4
ENDBRANCH   2   3
ENDBRANCH   1   2
BRANCH   1  25
ATOM     25  C   UNL     1       4.102   2.344   1.448  1.00  0.00     0.188 C 
BRANCH  25  26
ATOM     26  C   UNL     1       5.365   1.596   1.022  1.00  0.00     0.188 C 
BRANCH  26  27
ATOM     27  O   UNL     1       5.242   0.216   0.664  1.00  0.00    -0.376 OA
BRANCH  27  28
ATOM     28  C   UNL     1       4.175  -0.554   1.210  1.00  0.00     0.202 C 
BRANCH  28  29
ATOM     29  C   UNL     1       4.399  -1.107   2.618  1.00  0.00     0.261 C 
BRANCH  29  30
ATOM     30  O   UNL     1       4.382  -0.071   3.612  1.00  0.00    -0.460 OA
BRANCH  30  31
ATOM     31  C   UNL     1       5.604   0.342   4.013  1.00  0.00     0.338 C 
ATOM     32  O   UNL     1       6.686  -0.109   3.678  1.00  0.00    -0.246 OA
BRANCH  31  33
ATOM     33  C   UNL     1       5.477   1.564   4.825  1.00  0.00     0.060 A 
ATOM     34  C   UNL     1       6.336   2.627   4.520  1.00  0.00     0.016 A 
ATOM     35  C   UNL     1       4.625   1.627   5.931  1.00  0.00     0.016 A 
ATOM     36  C   UNL     1       6.411   3.721   5.369  1.00  0.00     0.010 A 
ATOM     37  C   UNL     1       4.711   2.724   6.793  1.00  0.00     0.010 A 
ATOM     38  C   UNL     1       5.651   3.739   6.544  1.00  0.00    -0.014 A 
BRANCH  38  39
ATOM     39  C   UNL     1       6.051   4.689   7.605  1.00  0.00     0.031 A 
ATOM     40  C   UNL     1       6.961   4.194   8.697  1.00  0.00     0.074 A 
ATOM     41  C   UNL     1       5.715   5.987   7.527  1.00  0.00     0.049 A 
ATOM     42  N   UNL     1       7.516   4.852   9.681  1.00  0.00    -0.248 NA
ATOM     43  C   UNL     1       7.296   2.761   8.668  1.00  0.00     0.031 C 
ATOM     44  C   UNL     1       4.897   6.585   6.474  1.00  0.00     0.029 A 
ATOM     45  N   UNL     1       6.047   7.037   8.340  1.00  0.00    -0.354 N 
ATOM     46  C   UNL     1       8.268   3.916  10.382  1.00  0.00     0.074 A 
ATOM     47  C   UNL     1       8.057   2.637   9.743  1.00  0.00     0.031 C 
ATOM     48  C   UNL     1       4.802   7.907   6.698  1.00  0.00     0.029 A 
ATOM     49  C   UNL     1       5.530   8.237   7.921  1.00  0.00     0.049 A 
ATOM     50  H   UNL     1       6.602   6.941   9.148  1.00  0.00     0.167 HD
ATOM     51  C   UNL     1       9.075   4.108  11.453  1.00  0.00     0.037 A 
ATOM     52  C   UNL     1       5.637   9.461   8.471  1.00  0.00     0.037 A 
ATOM     53  C   UNL     1       9.266   5.383  12.092  1.00  0.00     0.049 A 
ATOM     54  C   UNL     1       6.462   9.632   9.719  1.00  0.00     0.074 A 
ATOM     55  C   UNL     1      10.040   5.690  13.197  1.00  0.00     0.029 A 
ATOM     56  N   UNL     1       8.665   6.565  11.684  1.00  0.00    -0.354 N 
ATOM     57  N   UNL     1       7.169   8.744  10.377  1.00  0.00    -0.248 NA
ATOM     58  C   UNL     1       6.511  10.983  10.292  1.00  0.00     0.031 C 
ATOM     59  C   UNL     1       9.864   7.048  13.488  1.00  0.00     0.029 A 
ATOM     60  C   UNL     1       9.035   7.601  12.525  1.00  0.00     0.049 A 
ATOM     61  H   UNL     1       8.064   6.654  10.909  1.00  0.00     0.167 HD
ATOM     62  C   UNL     1       7.782   9.436  11.415  1.00  0.00     0.074 A 
ATOM     63  C   UNL     1       7.368  10.819  11.290  1.00  0.00     0.031 C 
ATOM     64  C   UNL     1       8.617   8.974  12.379  1.00  0.00     0.037 A 
BRANCH  51  65
ATOM     65  C   UNL     1       9.771   2.897  12.009  1.00  0.00     0.057 A 
ATOM     66  C   UNL     1      10.781   2.227  11.303  1.00  0.00     0.134 A 
ATOM     67  C   UNL     1       9.411   2.380  13.260  1.00  0.00     0.134 A 
ATOM     68  F   UNL     1      11.162   2.655  10.090  1.00  0.00    -0.206 F 
ATOM     69  C   UNL     1      11.377   1.066  11.802  1.00  0.00     0.040 A 
ATOM     70  C   UNL     1      10.023   1.239  13.784  1.00  0.00     0.040 A 
ATOM     71  F   UNL     1       8.454   2.970  13.992  1.00  0.00    -0.206 F 
ATOM     72  C   UNL     1      11.001   0.572  13.049  1.00  0.00     0.006 A 
ENDBRANCH  51  65
BRANCH  52  73
ATOM     73  C   UNL     1       4.965  10.623   7.837  1.00  0.00     0.057 A 
ATOM     74  C   UNL     1       5.704  11.657   7.251  1.00  0.00     0.134 A 
ATOM     75  C   UNL     1       3.569  10.736   7.816  1.00  0.00     0.134 A 
ATOM     76  F   UNL     1       7.044  11.616   7.257  1.00  0.00    -0.206 F 
ATOM     77  C   UNL     1       5.082  12.771   6.685  1.00  0.00     0.040 A 
ATOM     78  C   UNL     1       2.933  11.831   7.229  1.00  0.00     0.040 A 
ATOM     79  F   UNL     1       2.804   9.778   8.358  1.00  0.00    -0.206 F 
ATOM     80  C   UNL     1       3.691  12.857   6.668  1.00  0.00     0.006 A 
ENDBRANCH  52  73
BRANCH  64  81
ATOM     81  C   UNL     1       9.185   9.988  13.334  1.00  0.00     0.057 A 
ATOM     82  C   UNL     1       8.396  10.646  14.286  1.00  0.00     0.134 A 
ATOM     83  C   UNL     1      10.550  10.304  13.298  1.00  0.00     0.134 A 
ATOM     84  F   UNL     1       7.080  10.397  14.368  1.00  0.00    -0.206 F 
ATOM     85  C   UNL     1       8.934  11.614  15.136  1.00  0.00     0.040 A 
ATOM     86  C   UNL     1      11.106  11.243  14.167  1.00  0.00     0.040 A 
ATOM     87  F   UNL     1      11.368   9.702  12.421  1.00  0.00    -0.206 F 
ATOM     88  C   UNL     1      10.294  11.911  15.081  1.00  0.00     0.006 A 
ENDBRANCH  64  81
ENDBRANCH  38  39
ENDBRANCH  31  33
ENDBRANCH  30  31
ENDBRANCH  29  30
ENDBRANCH  28  29
ENDBRANCH  27  28
ENDBRANCH  26  27
ENDBRANCH  25  26
ENDBRANCH   1  25
TORSDOF 22
