REMARK SMILES COC(=O)c1ccc(C)c(NC(=O)[C@H]2CC=CC[C@H]2C(=O)OCCOCCOCCOCCOC(=O)c2ccc(-c3c4nc(c(-c5c(F)cccc5F)c5ccc([nH]5)c(-c5c(F)cccc5F)c5nc(c(-c6c(F)cccc6F)c6ccc3[nH]6)C=C5)C=C4)cc2)c1
REMARK SMILES IDX 27 1 26 2 25 3 24 4 23 5 22 6 20 7 21 8 19 9 14 10 15 11
REMARK SMILES IDX 16 12 18 13 17 14 12 15 11 16 13 18 10 19 5 20 6 21 91 22
REMARK SMILES IDX 7 23 8 24 9 25 3 26 4 27 2 28 1 29 28 30 29 31 30 32 31 33
REMARK SMILES IDX 32 34 33 35 34 36 35 37 36 38 37 39 38 40 90 41 39 42 89 43
REMARK SMILES IDX 40 44 41 45 42 46 83 47 43 48 88 49 82 50 84 51 44 52 87 53
REMARK SMILES IDX 81 54 80 55 45 57 71 58 54 59 70 60 55 61 58 62 69 63 85 64
REMARK SMILES IDX 56 65 57 66 68 68 86 69 59 70 46 71 47 72 52 73 48 74 49 75
REMARK SMILES IDX 51 76 53 77 50 78 72 79 73 80 78 81 74 82 75 83 77 84 79 85
REMARK SMILES IDX 76 86 60 87 61 88 66 89 62 90 63 91 65 92 67 93 64 94
REMARK H PARENT 11 17 84 56 58 67
REMARK Flexibility Score: inf
ROOT
ATOM      1  C   UNL     1       5.086   0.760   4.197  1.00  0.00     0.188 C 
ENDROOT
BRANCH   1   2
ATOM      2  C   UNL     1       5.689   2.127   4.453  1.00  0.00     0.188 C 
BRANCH   2   3
ATOM      3  O   UNL     1       6.252   2.817   3.355  1.00  0.00    -0.376 OA
BRANCH   3   4
ATOM      4  C   UNL     1       5.891   2.527   2.039  1.00  0.00     0.202 C 
BRANCH   4   5
ATOM      5  C   UNL     1       6.491   1.330   1.318  1.00  0.00     0.261 C 
BRANCH   5   6
ATOM      6  O   UNL     1       7.749   0.736   1.652  1.00  0.00    -0.463 OA
BRANCH   6   7
ATOM      7  C   UNL     1       8.198   0.632   2.912  1.00  0.00     0.310 C 
ATOM      8  O   UNL     1       8.344   1.521   3.735  1.00  0.00    -0.252 OA
BRANCH   7   9
ATOM      9  C   UNL     1       8.662  -0.746   3.244  1.00  0.00     0.116 C 
ATOM     10  C   UNL     1       7.667  -1.895   2.966  1.00  0.00     0.097 C 
ATOM     11  C   UNL     1       8.385  -3.248   3.039  1.00  0.00     0.041 C 
ATOM     12  C   UNL     1       9.710  -3.265   2.335  1.00  0.00    -0.030 C 
ATOM     13  C   UNL     1      10.124  -0.865   2.810  1.00  0.00     0.043 C 
ATOM     14  C   UNL     1      10.494  -2.186   2.235  1.00  0.00    -0.030 C 
BRANCH  10  15
ATOM     15  C   UNL     1       6.774  -1.922   1.731  1.00  0.00     0.228 C 
ATOM     16  N   UNL     1       5.411  -2.074   1.730  1.00  0.00    -0.326 N 
ATOM     17  H   UNL     1       5.099  -2.128   0.797  1.00  0.00     0.169 HD
ATOM     18  O   UNL     1       7.275  -1.825   0.602  1.00  0.00    -0.274 OA
BRANCH  16  19
ATOM     19  C   UNL     1       4.284  -2.180   2.599  1.00  0.00     0.044 A 
ATOM     20  C   UNL     1       1.839  -1.676   2.649  1.00  0.00     0.062 A 
ATOM     21  C   UNL     1       1.818  -1.852   4.024  1.00  0.00     0.016 A 
ATOM     22  C   UNL     1       3.054  -1.865   1.949  1.00  0.00     0.042 A 
ATOM     23  C   UNL     1       2.986  -2.255   4.666  1.00  0.00     0.006 A 
ATOM     24  C   UNL     1       4.211  -2.465   3.973  1.00  0.00    -0.027 A 
ATOM     25  C   UNL     1       5.312  -2.974   4.850  1.00  0.00     0.046 C 
BRANCH  20  26
ATOM     26  C   UNL     1       0.633  -1.053   2.011  1.00  0.00     0.337 C 
ATOM     27  O   UNL     1      -0.497  -1.097   2.464  1.00  0.00    -0.246 OA
BRANCH  26  28
ATOM     28  O   UNL     1       1.030  -0.207   1.024  1.00  0.00    -0.465 OA
ATOM     29  C   UNL     1       0.630  -0.568  -0.290  1.00  0.00     0.282 C 
ENDBRANCH  26  28
ENDBRANCH  20  26
ENDBRANCH  16  19
ENDBRANCH  10  15
ENDBRANCH   7   9
ENDBRANCH   6   7
ENDBRANCH   5   6
ENDBRANCH   4   5
ENDBRANCH   3   4
ENDBRANCH   2   3
ENDBRANCH   1   2
BRANCH   1  30
ATOM     30  O   UNL     1       3.685   0.721   3.973  1.00  0.00    -0.377 OA
BRANCH  30  31
ATOM     31  C   UNL     1       3.163   1.194   2.739  1.00  0.00     0.188 C 
BRANCH  31  32
ATOM     32  C   UNL     1       2.640   2.611   2.753  1.00  0.00     0.188 C 
BRANCH  32  33
ATOM     33  O   UNL     1       3.004   3.187   3.984  1.00  0.00    -0.376 OA
BRANCH  33  34
ATOM     34  C   UNL     1       2.062   2.971   5.025  1.00  0.00     0.202 C 
BRANCH  34  35
ATOM     35  C   UNL     1       0.959   4.013   4.865  1.00  0.00     0.261 C 
BRANCH  35  36
ATOM     36  O   UNL     1       1.586   5.311   4.691  1.00  0.00    -0.460 OA
BRANCH  36  37
ATOM     37  C   UNL     1       1.898   5.637   3.401  1.00  0.00     0.338 C 
ATOM     38  O   UNL     1       1.140   5.493   2.441  1.00  0.00    -0.246 OA
BRANCH  37  39
ATOM     39  C   UNL     1       3.355   5.965   3.237  1.00  0.00     0.060 A 
ATOM     40  C   UNL     1       3.893   6.247   1.964  1.00  0.00     0.016 A 
ATOM     41  C   UNL     1       4.234   5.711   4.284  1.00  0.00     0.016 A 
ATOM     42  C   UNL     1       5.291   6.230   1.733  1.00  0.00     0.010 A 
ATOM     43  C   UNL     1       5.597   5.612   4.026  1.00  0.00     0.010 A 
ATOM     44  C   UNL     1       6.165   5.886   2.764  1.00  0.00    -0.014 A 
BRANCH  44  45
ATOM     45  C   UNL     1       7.631   5.655   2.662  1.00  0.00     0.031 A 
ATOM     46  C   UNL     1       8.557   6.202   3.715  1.00  0.00     0.074 A 
ATOM     47  C   UNL     1       8.180   4.678   1.889  1.00  0.00     0.049 A 
ATOM     48  N   UNL     1       9.849   6.065   3.694  1.00  0.00    -0.248 NA
ATOM     49  C   UNL     1       8.131   7.008   4.861  1.00  0.00     0.031 C 
ATOM     50  C   UNL     1       9.292   3.848   2.349  1.00  0.00     0.029 A 
ATOM     51  N   UNL     1       7.872   4.115   0.655  1.00  0.00    -0.354 N 
ATOM     52  C   UNL     1      10.288   6.263   4.978  1.00  0.00     0.074 A 
ATOM     53  C   UNL     1       9.269   7.098   5.559  1.00  0.00     0.031 C 
ATOM     54  C   UNL     1       9.702   3.033   1.382  1.00  0.00     0.029 A 
ATOM     55  C   UNL     1       8.905   3.305   0.210  1.00  0.00     0.049 A 
ATOM     56  H   UNL     1       7.033   4.270   0.164  1.00  0.00     0.167 HD
ATOM     57  C   UNL     1      11.346   5.542   5.463  1.00  0.00     0.037 A 
ATOM     58  C   UNL     1       9.321   3.000  -1.039  1.00  0.00     0.037 A 
ATOM     59  C   UNL     1      11.972   4.660   4.440  1.00  0.00     0.049 A 
ATOM     60  C   UNL     1      10.781   3.346  -1.077  1.00  0.00     0.074 A 
ATOM     61  C   UNL     1      12.304   3.313   4.402  1.00  0.00     0.029 A 
ATOM     62  N   UNL     1      12.209   5.124   3.136  1.00  0.00    -0.354 N 
ATOM     63  N   UNL     1      11.233   4.290  -0.280  1.00  0.00    -0.248 NA
ATOM     64  C   UNL     1      11.853   2.630  -1.762  1.00  0.00     0.031 C 
ATOM     65  C   UNL     1      12.769   2.991   3.089  1.00  0.00     0.029 A 
ATOM     66  C   UNL     1      12.736   4.139   2.311  1.00  0.00     0.049 A 
ATOM     67  H   UNL     1      12.023   6.045   2.840  1.00  0.00     0.167 HD
ATOM     68  C   UNL     1      12.575   4.138  -0.142  1.00  0.00     0.074 A 
ATOM     69  C   UNL     1      12.940   3.147  -1.152  1.00  0.00     0.031 C 
ATOM     70  C   UNL     1      13.275   4.450   0.987  1.00  0.00     0.037 A 
BRANCH  57  71
ATOM     71  C   UNL     1      11.767   5.525   6.942  1.00  0.00     0.057 A 
ATOM     72  C   UNL     1      13.004   4.971   7.334  1.00  0.00     0.134 A 
ATOM     73  C   UNL     1      11.015   6.020   8.032  1.00  0.00     0.134 A 
ATOM     74  F   UNL     1      13.825   4.391   6.449  1.00  0.00    -0.206 F 
ATOM     75  C   UNL     1      13.472   4.976   8.663  1.00  0.00     0.040 A 
ATOM     76  C   UNL     1      11.503   6.105   9.349  1.00  0.00     0.040 A 
ATOM     77  F   UNL     1       9.734   6.383   7.918  1.00  0.00    -0.206 F 
ATOM     78  C   UNL     1      12.741   5.583   9.671  1.00  0.00     0.006 A 
ENDBRANCH  57  71
BRANCH  58  79
ATOM     79  C   UNL     1       8.268   2.758  -2.042  1.00  0.00     0.057 A 
ATOM     80  C   UNL     1       7.800   1.436  -2.176  1.00  0.00     0.134 A 
ATOM     81  C   UNL     1       7.349   3.773  -2.339  1.00  0.00     0.134 A 
ATOM     82  F   UNL     1       8.613   0.403  -1.904  1.00  0.00    -0.206 F 
ATOM     83  C   UNL     1       6.448   1.146  -2.425  1.00  0.00     0.040 A 
ATOM     84  C   UNL     1       5.990   3.498  -2.552  1.00  0.00     0.040 A 
ATOM     85  F   UNL     1       7.702   5.059  -2.195  1.00  0.00    -0.206 F 
ATOM     86  C   UNL     1       5.529   2.184  -2.557  1.00  0.00     0.006 A 
ENDBRANCH  58  79
BRANCH  70  87
ATOM     87  C   UNL     1      14.446   5.387   0.842  1.00  0.00     0.057 A 
ATOM     88  C   UNL     1      14.820   5.979  -0.376  1.00  0.00     0.134 A 
ATOM     89  C   UNL     1      15.145   5.843   1.979  1.00  0.00     0.134 A 
ATOM     90  F   UNL     1      14.226   5.652  -1.534  1.00  0.00    -0.206 F 
ATOM     91  C   UNL     1      15.812   6.960  -0.454  1.00  0.00     0.040 A 
ATOM     92  C   UNL     1      16.109   6.849   1.916  1.00  0.00     0.040 A 
ATOM     93  F   UNL     1      14.911   5.352   3.204  1.00  0.00    -0.206 F 
ATOM     94  C   UNL     1      16.450   7.409   0.696  1.00  0.00     0.006 A 
ENDBRANCH  70  87
ENDBRANCH  44  45
ENDBRANCH  37  39
ENDBRANCH  36  37
ENDBRANCH  35  36
ENDBRANCH  34  35
ENDBRANCH  33  34
ENDBRANCH  32  33
ENDBRANCH  31  32
ENDBRANCH  30  31
ENDBRANCH   1  30
TORSDOF 24
