REMARK SMILES Cc1cc(Br)cc2c1O[C@H](C(F)(F)F)C(C(=O)OCCOCCOCCOCCOC(=O)c1ccc(-c3c4nc(c(-c5c(F)cccc5F)c5ccc([nH]5)c(-c5c(F)cccc5F)c5nc(c(-c6c(F)cccc6F)c6ccc3[nH]6)C=C5)C=C4)cc1)=C2
REMARK SMILES IDX 25 1 24 2 23 3 22 4 21 5 20 6 19 7 18 8 16 9 17 10 15 11
REMARK SMILES IDX 1 12 2 13 3 14 8 15 4 16 7 17 9 18 5 19 6 20 87 21 10 22
REMARK SMILES IDX 11 23 12 24 13 25 14 26 26 27 27 28 28 29 29 30 30 31 31 32
REMARK SMILES IDX 32 33 33 34 34 35 86 36 35 37 85 38 36 39 37 40 38 41 79 42
REMARK SMILES IDX 39 43 84 44 78 45 80 46 40 47 83 48 77 49 76 50 41 52 67 53
REMARK SMILES IDX 50 54 66 55 51 56 54 57 65 58 81 59 52 60 53 61 64 63 82 64
REMARK SMILES IDX 55 65 42 66 43 67 48 68 44 69 45 70 47 71 49 72 46 73 68 74
REMARK SMILES IDX 69 75 74 76 70 77 71 78 73 79 75 80 72 81 56 82 57 83 62 84
REMARK SMILES IDX 58 85 59 86 61 87 63 88 60 89
REMARK H PARENT 80 51 54 62
REMARK Flexibility Score: inf
ROOT
ATOM      1  C   UNL     1       5.283  -7.528   0.217  1.00  0.00     0.188 C 
ENDROOT
BRANCH   1   2
ATOM      2  O   UNL     1       4.136  -6.675   0.160  1.00  0.00    -0.377 OA
BRANCH   2   3
ATOM      3  C   UNL     1       3.585  -6.223   1.388  1.00  0.00     0.188 C 
BRANCH   3   4
ATOM      4  C   UNL     1       2.663  -7.261   2.057  1.00  0.00     0.188 C 
BRANCH   4   5
ATOM      5  O   UNL     1       2.862  -8.579   1.575  1.00  0.00    -0.376 OA
BRANCH   5   6
ATOM      6  C   UNL     1       2.100  -9.092   0.495  1.00  0.00     0.202 C 
BRANCH   6   7
ATOM      7  C   UNL     1       1.697  -8.274  -0.747  1.00  0.00     0.261 C 
BRANCH   7   8
ATOM      8  O   UNL     1       1.502  -6.870  -0.576  1.00  0.00    -0.460 OA
BRANCH   8   9
ATOM      9  C   UNL     1       0.345  -6.461  -0.026  1.00  0.00     0.338 C 
ATOM     10  O   UNL     1      -0.587  -7.163   0.321  1.00  0.00    -0.246 OA
BRANCH   9  11
ATOM     11  C   UNL     1       0.470  -5.011   0.249  1.00  0.00     0.087 C 
ATOM     12  C   UNL     1       1.094   0.061  -0.065  1.00  0.00     0.048 C 
ATOM     13  C   UNL     1       0.633  -0.903   0.993  1.00  0.00    -0.007 A 
ATOM     14  C   UNL     1       0.164  -0.416   2.222  1.00  0.00     0.023 A 
ATOM     15  C   UNL     1       0.663  -2.290   0.772  1.00  0.00     0.130 A 
ATOM     16  C   UNL     1      -0.267  -1.302   3.208  1.00  0.00     0.019 A 
ATOM     17  C   UNL     1       0.182  -3.171   1.747  1.00  0.00     0.019 A 
ATOM     18  O   UNL     1       1.169  -2.710  -0.426  1.00  0.00    -0.475 OA
ATOM     19  Br  UNL     1      -0.911  -0.634   4.855  1.00  0.00    -0.051 Br
ATOM     20  C   UNL     1      -0.258  -2.676   2.979  1.00  0.00     0.027 A 
ATOM     21  C   UNL     1       0.075  -4.590   1.456  1.00  0.00     0.027 C 
ATOM     22  C   UNL     1       1.097  -4.115  -0.787  1.00  0.00     0.316 C 
BRANCH  22  23
ATOM     23  C   UNL     1       0.392  -4.219  -2.145  1.00  0.00     0.430 C 
ATOM     24  F   UNL     1       0.917  -3.349  -3.042  1.00  0.00    -0.167 F 
ATOM     25  F   UNL     1       0.514  -5.453  -2.688  1.00  0.00    -0.167 F 
ATOM     26  F   UNL     1      -0.930  -3.950  -2.046  1.00  0.00    -0.167 F 
ENDBRANCH  22  23
ENDBRANCH   9  11
ENDBRANCH   8   9
ENDBRANCH   7   8
ENDBRANCH   6   7
ENDBRANCH   5   6
ENDBRANCH   4   5
ENDBRANCH   3   4
ENDBRANCH   2   3
ENDBRANCH   1   2
BRANCH   1  27
ATOM     27  C   UNL     1       5.644  -8.338   1.488  1.00  0.00     0.188 C 
BRANCH  27  28
ATOM     28  O   UNL     1       5.438  -7.638   2.707  1.00  0.00    -0.376 OA
BRANCH  28  29
ATOM     29  C   UNL     1       6.572  -7.166   3.413  1.00  0.00     0.202 C 
BRANCH  29  30
ATOM     30  C   UNL     1       7.340  -6.013   2.755  1.00  0.00     0.261 C 
BRANCH  30  31
ATOM     31  O   UNL     1       7.820  -6.263   1.426  1.00  0.00    -0.460 OA
BRANCH  31  32
ATOM     32  C   UNL     1       8.730  -7.248   1.270  1.00  0.00     0.338 C 
ATOM     33  O   UNL     1       9.229  -7.940   2.141  1.00  0.00    -0.246 OA
BRANCH  32  34
ATOM     34  C   UNL     1       8.883  -7.481  -0.180  1.00  0.00     0.060 A 
ATOM     35  C   UNL     1       8.569  -8.742  -0.706  1.00  0.00     0.016 A 
ATOM     36  C   UNL     1       9.320  -6.452  -1.016  1.00  0.00     0.016 A 
ATOM     37  C   UNL     1       8.725  -8.985  -2.070  1.00  0.00     0.010 A 
ATOM     38  C   UNL     1       9.501  -6.704  -2.377  1.00  0.00     0.010 A 
ATOM     39  C   UNL     1       9.237  -7.981  -2.902  1.00  0.00    -0.014 A 
BRANCH  39  40
ATOM     40  C   UNL     1       9.707  -8.324  -4.265  1.00  0.00     0.031 A 
ATOM     41  C   UNL     1      11.165  -8.639  -4.448  1.00  0.00     0.074 A 
ATOM     42  C   UNL     1       8.864  -8.377  -5.310  1.00  0.00     0.049 A 
ATOM     43  N   UNL     1      11.828  -8.903  -5.544  1.00  0.00    -0.248 NA
ATOM     44  C   UNL     1      11.988  -8.662  -3.226  1.00  0.00     0.031 C 
ATOM     45  C   UNL     1       7.422  -8.151  -5.248  1.00  0.00     0.029 A 
ATOM     46  N   UNL     1       9.110  -8.635  -6.636  1.00  0.00    -0.354 N 
ATOM     47  C   UNL     1      13.140  -9.124  -5.144  1.00  0.00     0.074 A 
ATOM     48  C   UNL     1      13.190  -8.929  -3.712  1.00  0.00     0.031 C 
ATOM     49  C   UNL     1       6.910  -8.276  -6.485  1.00  0.00     0.029 A 
ATOM     50  C   UNL     1       7.993  -8.552  -7.429  1.00  0.00     0.049 A 
ATOM     51  H   UNL     1      10.003  -8.860  -6.984  1.00  0.00     0.167 HD
ATOM     52  C   UNL     1      14.205  -9.470  -5.901  1.00  0.00     0.037 A 
ATOM     53  C   UNL     1       7.867  -8.664  -8.767  1.00  0.00     0.037 A 
ATOM     54  C   UNL     1      14.155  -9.655  -7.327  1.00  0.00     0.049 A 
ATOM     55  C   UNL     1       9.089  -8.946  -9.604  1.00  0.00     0.074 A 
ATOM     56  C   UNL     1      15.183  -9.999  -8.186  1.00  0.00     0.029 A 
ATOM     57  N   UNL     1      13.015  -9.506  -8.102  1.00  0.00    -0.354 N 
ATOM     58  N   UNL     1      10.326  -9.154  -9.220  1.00  0.00    -0.248 NA
ATOM     59  C   UNL     1       8.898  -9.007 -11.061  1.00  0.00     0.031 C 
ATOM     60  C   UNL     1      14.677 -10.005  -9.488  1.00  0.00     0.029 A 
ATOM     61  C   UNL     1      13.321  -9.726  -9.434  1.00  0.00     0.049 A 
ATOM     62  H   UNL     1      12.122  -9.277  -7.757  1.00  0.00     0.167 HD
ATOM     63  C   UNL     1      11.052  -9.397 -10.380  1.00  0.00     0.074 A 
ATOM     64  C   UNL     1      10.115  -9.325 -11.481  1.00  0.00     0.031 C 
ATOM     65  C   UNL     1      12.376  -9.658 -10.520  1.00  0.00     0.037 A 
BRANCH  52  66
ATOM     66  C   UNL     1      15.522  -9.656  -5.207  1.00  0.00     0.057 A 
ATOM     67  C   UNL     1      15.768 -10.756  -4.375  1.00  0.00     0.134 A 
ATOM     68  C   UNL     1      16.572  -8.753  -5.414  1.00  0.00     0.134 A 
ATOM     69  F   UNL     1      14.798 -11.648  -4.120  1.00  0.00    -0.206 F 
ATOM     70  C   UNL     1      17.010 -10.946  -3.767  1.00  0.00     0.040 A 
ATOM     71  C   UNL     1      17.826  -8.947  -4.833  1.00  0.00     0.040 A 
ATOM     72  F   UNL     1      16.402  -7.678  -6.198  1.00  0.00    -0.206 F 
ATOM     73  C   UNL     1      18.047 -10.046  -4.004  1.00  0.00     0.006 A 
ENDBRANCH  52  66
BRANCH  53  74
ATOM     74  C   UNL     1       6.533  -8.508  -9.402  1.00  0.00     0.057 A 
ATOM     75  C   UNL     1       5.890  -9.592 -10.011  1.00  0.00     0.134 A 
ATOM     76  C   UNL     1       5.870  -7.274  -9.423  1.00  0.00     0.134 A 
ATOM     77  F   UNL     1       6.485 -10.794 -10.049  1.00  0.00    -0.206 F 
ATOM     78  C   UNL     1       4.642  -9.456 -10.621  1.00  0.00     0.040 A 
ATOM     79  C   UNL     1       4.610  -7.129 -10.006  1.00  0.00     0.040 A 
ATOM     80  F   UNL     1       6.433  -6.194  -8.862  1.00  0.00    -0.206 F 
ATOM     81  C   UNL     1       3.995  -8.222 -10.612  1.00  0.00     0.006 A 
ENDBRANCH  53  74
BRANCH  65  82
ATOM     82  C   UNL     1      12.896  -9.913 -11.906  1.00  0.00     0.057 A 
ATOM     83  C   UNL     1      13.020  -8.887 -12.851  1.00  0.00     0.134 A 
ATOM     84  C   UNL     1      13.354 -11.187 -12.272  1.00  0.00     0.134 A 
ATOM     85  F   UNL     1      12.595  -7.647 -12.567  1.00  0.00    -0.206 F 
ATOM     86  C   UNL     1      13.566  -9.121 -14.114  1.00  0.00     0.040 A 
ATOM     87  C   UNL     1      13.929 -11.426 -13.521  1.00  0.00     0.040 A 
ATOM     88  F   UNL     1      13.279 -12.212 -11.411  1.00  0.00    -0.206 F 
ATOM     89  C   UNL     1      14.032 -10.391 -14.448  1.00  0.00     0.006 A 
ENDBRANCH  65  82
ENDBRANCH  39  40
ENDBRANCH  32  34
ENDBRANCH  31  32
ENDBRANCH  30  31
ENDBRANCH  29  30
ENDBRANCH  28  29
ENDBRANCH  27  28
ENDBRANCH   1  27
TORSDOF 21
