REMARK SMILES O=C(OCCOCCOCCOCCOC(=O)[C@H]1[C@H]2CC[C@H](C2)[C@@H]1C(=O)Nc1sc2c(c1C(=O)NC1CCCCC1)CCCC2)c1ccc(-c2c3nc(c(-c4c(F)cccc4F)c4ccc([nH]4)c(-c4c(F)cccc4F)c4nc(c(-c5c(F)cccc5F)c5ccc2[nH]5)C=C4)C=C3)cc1
REMARK SMILES IDX 10 1 9 2 8 3 7 4 6 5 5 6 4 7 3 8 2 9 1 10 46 11 47 12 99 13
REMARK SMILES IDX 48 14 98 15 49 16 50 17 51 18 92 19 52 20 97 21 91 22 93 23
REMARK SMILES IDX 53 24 96 25 90 26 89 27 54 29 80 30 63 31 79 32 64 33 67 34
REMARK SMILES IDX 78 35 94 36 65 37 66 38 77 40 95 41 68 42 55 43 56 44 61 45
REMARK SMILES IDX 57 46 58 47 60 48 62 49 59 50 81 51 82 52 87 53 83 54 84 55
REMARK SMILES IDX 86 56 88 57 85 58 69 59 70 60 75 61 71 62 72 63 74 64 76 65
REMARK SMILES IDX 73 66 11 67 12 68 13 69 14 70 15 71 16 72 17 73 18 74 19 75
REMARK SMILES IDX 24 76 20 77 23 78 22 79 21 80 25 81 26 82 27 83 28 85 29 86
REMARK SMILES IDX 32 87 30 88 31 89 45 90 42 91 44 92 43 93 33 94 34 95 35 96
REMARK SMILES IDX 36 98 37 99 41 100 38 101 40 102 39 103
REMARK H PARENT 93 28 67 39 27 84 35 97
REMARK Flexibility Score: inf
ROOT
ATOM      1  C   UNL     1       3.805  -3.553  -1.065  1.00  0.00     0.188 C 
ENDROOT
BRANCH   1   2
ATOM      2  O   UNL     1       4.790  -2.578  -1.377  1.00  0.00    -0.377 OA
BRANCH   2   3
ATOM      3  C   UNL     1       4.511  -1.257  -0.928  1.00  0.00     0.188 C 
BRANCH   3   4
ATOM      4  C   UNL     1       3.065  -0.787  -1.113  1.00  0.00     0.188 C 
BRANCH   4   5
ATOM      5  O   UNL     1       2.172  -1.537  -0.299  1.00  0.00    -0.376 OA
BRANCH   5   6
ATOM      6  C   UNL     1       0.942  -1.997  -0.846  1.00  0.00     0.202 C 
BRANCH   6   7
ATOM      7  C   UNL     1      -0.085  -0.919  -1.133  1.00  0.00     0.261 C 
BRANCH   7   8
ATOM      8  O   UNL     1       0.403   0.428  -1.073  1.00  0.00    -0.460 OA
BRANCH   8   9
ATOM      9  C   UNL     1       0.885   1.160  -0.048  1.00  0.00     0.338 C 
ATOM     10  O   UNL     1       1.423   2.235  -0.320  1.00  0.00    -0.246 OA
BRANCH   9  11
ATOM     11  C   UNL     1       0.782   0.808   1.398  1.00  0.00     0.060 A 
ATOM     12  C   UNL     1       0.849  -0.468   1.960  1.00  0.00     0.016 A 
ATOM     13  C   UNL     1       0.717   1.904   2.275  1.00  0.00     0.016 A 
ATOM     14  C   UNL     1       0.816  -0.672   3.329  1.00  0.00     0.010 A 
ATOM     15  C   UNL     1       0.672   1.718   3.654  1.00  0.00     0.010 A 
ATOM     16  C   UNL     1       0.688   0.420   4.170  1.00  0.00    -0.014 A 
BRANCH  16  17
ATOM     17  C   UNL     1       0.288   0.158   5.553  1.00  0.00     0.031 A 
ATOM     18  C   UNL     1      -1.157   0.352   5.871  1.00  0.00     0.074 A 
ATOM     19  C   UNL     1       1.166  -0.341   6.433  1.00  0.00     0.049 A 
ATOM     20  N   UNL     1      -1.754   0.409   7.025  1.00  0.00    -0.248 NA
ATOM     21  C   UNL     1      -2.057   0.513   4.713  1.00  0.00     0.031 C 
ATOM     22  C   UNL     1       2.542  -0.735   6.123  1.00  0.00     0.029 A 
ATOM     23  N   UNL     1       1.027  -0.601   7.765  1.00  0.00    -0.354 N 
ATOM     24  C   UNL     1      -3.084   0.681   6.735  1.00  0.00     0.074 A 
ATOM     25  C   UNL     1      -3.213   0.765   5.301  1.00  0.00     0.031 C 
ATOM     26  C   UNL     1       3.133  -1.163   7.250  1.00  0.00     0.029 A 
ATOM     27  C   UNL     1       2.203  -0.982   8.359  1.00  0.00     0.049 A 
ATOM     28  H   UNL     1       0.174  -0.522   8.249  1.00  0.00     0.167 HD
ATOM     29  C   UNL     1      -4.090   0.871   7.615  1.00  0.00     0.037 A 
ATOM     30  C   UNL     1       2.494  -1.087   9.667  1.00  0.00     0.037 A 
ATOM     31  C   UNL     1      -3.885   0.773   9.033  1.00  0.00     0.049 A 
ATOM     32  C   UNL     1       1.395  -0.772  10.644  1.00  0.00     0.074 A 
ATOM     33  C   UNL     1      -4.778   0.992  10.061  1.00  0.00     0.029 A 
ATOM     34  N   UNL     1      -2.670   0.421   9.615  1.00  0.00    -0.354 N 
ATOM     35  N   UNL     1       0.155  -0.410  10.397  1.00  0.00    -0.248 NA
ATOM     36  C   UNL     1       1.725  -0.858  12.069  1.00  0.00     0.031 C 
ATOM     37  C   UNL     1      -4.086   0.829  11.266  1.00  0.00     0.029 A 
ATOM     38  C   UNL     1      -2.780   0.438  10.990  1.00  0.00     0.049 A 
ATOM     39  H   UNL     1      -1.851   0.193   9.118  1.00  0.00     0.167 HD
ATOM     40  C   UNL     1      -0.454  -0.252  11.632  1.00  0.00     0.074 A 
ATOM     41  C   UNL     1       0.560  -0.556  12.627  1.00  0.00     0.031 C 
ATOM     42  C   UNL     1      -1.731   0.103  11.926  1.00  0.00     0.037 A 
BRANCH  29  43
ATOM     43  C   UNL     1      -5.408   1.313   7.051  1.00  0.00     0.057 A 
ATOM     44  C   UNL     1      -6.201   0.490   6.237  1.00  0.00     0.134 A 
ATOM     45  C   UNL     1      -5.840   2.633   7.240  1.00  0.00     0.134 A 
ATOM     46  F   UNL     1      -5.829  -0.774   5.982  1.00  0.00    -0.206 F 
ATOM     47  C   UNL     1      -7.342   0.978   5.594  1.00  0.00     0.040 A 
ATOM     48  C   UNL     1      -6.996   3.122   6.629  1.00  0.00     0.040 A 
ATOM     49  F   UNL     1      -5.128   3.482   7.996  1.00  0.00    -0.206 F 
ATOM     50  C   UNL     1      -7.742   2.298   5.789  1.00  0.00     0.006 A 
ENDBRANCH  29  43
BRANCH  30  51
ATOM     51  C   UNL     1       3.876  -1.425  10.088  1.00  0.00     0.057 A 
ATOM     52  C   UNL     1       4.177  -2.647  10.696  1.00  0.00     0.134 A 
ATOM     53  C   UNL     1       4.947  -0.555   9.833  1.00  0.00     0.134 A 
ATOM     54  F   UNL     1       3.199  -3.520  10.977  1.00  0.00    -0.206 F 
ATOM     55  C   UNL     1       5.488  -2.993  11.034  1.00  0.00     0.040 A 
ATOM     56  C   UNL     1       6.264  -0.897  10.143  1.00  0.00     0.040 A 
ATOM     57  F   UNL     1       4.731   0.631   9.244  1.00  0.00    -0.206 F 
ATOM     58  C   UNL     1       6.537  -2.121  10.748  1.00  0.00     0.006 A 
ENDBRANCH  30  51
BRANCH  42  59
ATOM     59  C   UNL     1      -2.115   0.117  13.372  1.00  0.00     0.057 A 
ATOM     60  C   UNL     1      -1.724   1.149  14.232  1.00  0.00     0.134 A 
ATOM     61  C   UNL     1      -2.985  -0.861  13.870  1.00  0.00     0.134 A 
ATOM     62  F   UNL     1      -0.884   2.106  13.811  1.00  0.00    -0.206 F 
ATOM     63  C   UNL     1      -2.188   1.206  15.545  1.00  0.00     0.040 A 
ATOM     64  C   UNL     1      -3.478  -0.797  15.171  1.00  0.00     0.040 A 
ATOM     65  F   UNL     1      -3.401  -1.866  13.085  1.00  0.00    -0.206 F 
ATOM     66  C   UNL     1      -3.079   0.239  16.012  1.00  0.00     0.006 A 
ENDBRANCH  42  59
ENDBRANCH  16  17
ENDBRANCH   9  11
ENDBRANCH   8   9
ENDBRANCH   7   8
ENDBRANCH   6   7
ENDBRANCH   5   6
ENDBRANCH   4   5
ENDBRANCH   3   4
ENDBRANCH   2   3
ENDBRANCH   1   2
BRANCH   1  67
ATOM     67  C   UNL     1       3.487  -3.886   0.414  1.00  0.00     0.188 C 
BRANCH  67  68
ATOM     68  O   UNL     1       3.926  -2.895   1.326  1.00  0.00    -0.376 OA
BRANCH  68  69
ATOM     69  C   UNL     1       5.105  -3.129   2.078  1.00  0.00     0.202 C 
BRANCH  69  70
ATOM     70  C   UNL     1       6.433  -3.513   1.396  1.00  0.00     0.261 C 
BRANCH  70  71
ATOM     71  O   UNL     1       6.363  -4.270   0.185  1.00  0.00    -0.463 OA
BRANCH  71  72
ATOM     72  C   UNL     1       5.987  -5.569   0.298  1.00  0.00     0.310 C 
ATOM     73  O   UNL     1       5.766  -6.133   1.349  1.00  0.00    -0.252 OA
BRANCH  72  74
ATOM     74  C   UNL     1       5.847  -6.182  -1.091  1.00  0.00     0.115 C 
ATOM     75  C   UNL     1       7.053  -7.118  -1.323  1.00  0.00     0.004 C 
ATOM     76  C   UNL     1       4.593  -7.100  -1.279  1.00  0.00     0.096 C 
ATOM     77  C   UNL     1       7.212  -8.198  -0.252  1.00  0.00     0.005 C 
ATOM     78  C   UNL     1       6.504  -7.965  -2.443  1.00  0.00     0.009 C 
ATOM     79  C   UNL     1       5.263  -8.421  -1.665  1.00  0.00     0.003 C 
ATOM     80  C   UNL     1       5.921  -9.018  -0.398  1.00  0.00     0.005 C 
BRANCH  76  81
ATOM     81  C   UNL     1       3.370  -6.592  -2.123  1.00  0.00     0.229 C 
ATOM     82  O   UNL     1       2.341  -6.300  -1.484  1.00  0.00    -0.274 OA
ATOM     83  N   UNL     1       3.333  -6.245  -3.442  1.00  0.00    -0.317 N 
ATOM     84  H   UNL     1       2.625  -5.598  -3.665  1.00  0.00     0.170 HD
BRANCH  83  85
ATOM     85  C   UNL     1       4.100  -6.628  -4.517  1.00  0.00     0.108 A 
ATOM     86  S   UNL     1       4.291  -8.305  -4.730  1.00  0.00    -0.122 S 
ATOM     87  C   UNL     1       4.463  -5.914  -5.687  1.00  0.00     0.078 A 
ATOM     88  C   UNL     1       5.638  -7.980  -5.686  1.00  0.00     0.011 A 
ATOM     89  C   UNL     1       5.470  -6.784  -6.379  1.00  0.00    -0.019 A 
ATOM     90  C   UNL     1       6.786  -8.939  -5.787  1.00  0.00     0.047 C 
ATOM     91  C   UNL     1       6.373  -6.610  -7.579  1.00  0.00     0.037 C 
ATOM     92  C   UNL     1       7.932  -8.266  -6.538  1.00  0.00     0.006 C 
ATOM     93  C   UNL     1       7.362  -7.755  -7.857  1.00  0.00     0.005 C 
BRANCH  87  94
ATOM     94  C   UNL     1       3.775  -4.583  -5.865  1.00  0.00     0.254 C 
ATOM     95  O   UNL     1       2.636  -4.471  -5.373  1.00  0.00    -0.269 OA
ATOM     96  N   UNL     1       4.154  -3.385  -6.438  1.00  0.00    -0.349 N 
ATOM     97  H   UNL     1       3.423  -2.735  -6.323  1.00  0.00     0.164 HD
BRANCH  96  98
ATOM     98  C   UNL     1       5.263  -2.729  -7.160  1.00  0.00     0.082 C 
ATOM     99  C   UNL     1       5.888  -1.552  -6.388  1.00  0.00     0.025 C 
ATOM    100  C   UNL     1       6.286  -3.728  -7.560  1.00  0.00     0.025 C 
ATOM    101  C   UNL     1       7.233  -1.083  -6.978  1.00  0.00     0.002 C 
ATOM    102  C   UNL     1       7.592  -3.233  -8.139  1.00  0.00     0.002 C 
ATOM    103  C   UNL     1       8.207  -2.237  -7.179  1.00  0.00     0.000 C 
ENDBRANCH  96  98
ENDBRANCH  87  94
ENDBRANCH  83  85
ENDBRANCH  76  81
ENDBRANCH  72  74
ENDBRANCH  71  72
ENDBRANCH  70  71
ENDBRANCH  69  70
ENDBRANCH  68  69
ENDBRANCH  67  68
ENDBRANCH   1  67
TORSDOF 24
