REMARK SMILES C[NH2+][C@@]1(C(=O)OCCOCCOCCOCCOC(=O)c2ccc(-c3c4nc(c(-c5c(F)cccc5F)c5ccc([nH]5)c(-c5c(F)cccc5F)c5nc(c(-c6c(F)cccc6F)c6ccc3[nH]6)C=C5)C=C4)cc2)CCC[C@H](Oc2cccc(OC)c2)C1
REMARK SMILES IDX 11 1 10 2 9 3 8 4 7 5 6 6 4 7 5 8 3 9 75 10 88 11 76 12
REMARK SMILES IDX 78 13 77 14 2 15 1 16 79 19 80 20 81 21 87 22 82 23 84 24
REMARK SMILES IDX 83 25 85 26 86 27 12 28 13 29 14 30 15 31 16 32 17 33 18 34
REMARK SMILES IDX 19 35 20 36 21 37 22 38 74 39 23 40 73 41 24 42 25 43 26 44
REMARK SMILES IDX 67 45 27 46 72 47 66 48 68 49 28 50 71 51 65 52 64 53 29 55
REMARK SMILES IDX 55 56 38 57 54 58 39 59 42 60 53 61 69 62 40 63 41 64 52 66
REMARK SMILES IDX 70 67 43 68 30 69 31 70 36 71 32 72 33 73 35 74 37 75 34 76
REMARK SMILES IDX 56 77 57 78 62 79 58 80 59 81 61 82 63 83 60 84 44 85 45 86
REMARK SMILES IDX 50 87 46 88 47 89 49 90 51 91 48 92
REMARK H PARENT 2 17 2 18 68 54 42 65
REMARK Flexibility Score: inf
ROOT
ATOM      1  C   UNL     1      -1.137   1.009  -2.260  1.00  0.00     0.188 C 
ENDROOT
BRANCH   1   2
ATOM      2  C   UNL     1      -0.446   0.413  -3.490  1.00  0.00     0.188 C 
BRANCH   2   3
ATOM      3  O   UNL     1      -1.240  -0.014  -4.579  1.00  0.00    -0.376 OA
BRANCH   3   4
ATOM      4  C   UNL     1      -2.221  -1.032  -4.504  1.00  0.00     0.202 C 
BRANCH   4   5
ATOM      5  C   UNL     1      -2.285  -2.146  -3.446  1.00  0.00     0.261 C 
BRANCH   5   6
ATOM      6  O   UNL     1      -2.175  -1.763  -2.065  1.00  0.00    -0.459 OA
BRANCH   6   7
ATOM      7  C   UNL     1      -1.022  -2.111  -1.444  1.00  0.00     0.368 C 
ATOM      8  O   UNL     1      -0.098  -2.677  -2.033  1.00  0.00    -0.245 OA
BRANCH   7   9
ATOM      9  C   UNL     1      -0.936  -1.827   0.108  1.00  0.00     0.197 C 
ATOM     10  C   UNL     1      -1.481  -3.104   0.785  1.00  0.00     0.081 C 
ATOM     11  C   UNL     1      -1.593  -0.584   0.773  1.00  0.00     0.126 C 
ATOM     12  C   UNL     1      -3.005  -3.139   0.826  1.00  0.00     0.011 C 
ATOM     13  C   UNL     1      -3.122  -0.600   0.937  1.00  0.00     0.180 C 
ATOM     14  C   UNL     1      -3.558  -1.930   1.567  1.00  0.00     0.046 C 
BRANCH   9  15
ATOM     15  N   UNL     1       0.546  -1.827   0.421  1.00  0.00    -0.334 N 
ATOM     16  C   UNL     1       1.234  -0.558   0.211  1.00  0.00     0.331 C 
ATOM     17  H   UNL     1       0.660  -2.087   1.401  1.00  0.00     0.347 HD
ATOM     18  H   UNL     1       0.970  -2.485  -0.233  1.00  0.00     0.347 HD
ENDBRANCH   9  15
BRANCH  13  19
ATOM     19  O   UNL     1      -3.680  -0.334  -0.348  1.00  0.00    -0.490 OA
BRANCH  19  20
ATOM     20  C   UNL     1      -5.032  -0.302  -0.502  1.00  0.00     0.123 A 
ATOM     21  C   UNL     1      -5.967  -0.105   0.509  1.00  0.00     0.047 A 
ATOM     22  C   UNL     1      -5.456  -0.538  -1.811  1.00  0.00     0.092 A 
ATOM     23  C   UNL     1      -7.318  -0.307   0.241  1.00  0.00     0.008 A 
ATOM     24  C   UNL     1      -6.804  -0.709  -2.093  1.00  0.00     0.122 A 
ATOM     25  C   UNL     1      -7.723  -0.659  -1.045  1.00  0.00     0.046 A 
BRANCH  24  26
ATOM     26  O   UNL     1      -7.307  -0.964  -3.339  1.00  0.00    -0.497 OA
ATOM     27  C   UNL     1      -6.566  -0.403  -4.423  1.00  0.00     0.278 C 
ENDBRANCH  24  26
ENDBRANCH  19  20
ENDBRANCH  13  19
ENDBRANCH   7   9
ENDBRANCH   6   7
ENDBRANCH   5   6
ENDBRANCH   4   5
ENDBRANCH   3   4
ENDBRANCH   2   3
ENDBRANCH   1   2
BRANCH   1  28
ATOM     28  O   UNL     1      -1.912   2.178  -2.364  1.00  0.00    -0.377 OA
BRANCH  28  29
ATOM     29  C   UNL     1      -2.923   2.154  -3.340  1.00  0.00     0.188 C 
BRANCH  29  30
ATOM     30  C   UNL     1      -2.509   2.875  -4.628  1.00  0.00     0.188 C 
BRANCH  30  31
ATOM     31  O   UNL     1      -1.398   3.766  -4.674  1.00  0.00    -0.376 OA
BRANCH  31  32
ATOM     32  C   UNL     1      -0.808   4.288  -3.495  1.00  0.00     0.202 C 
BRANCH  32  33
ATOM     33  C   UNL     1      -1.640   5.163  -2.535  1.00  0.00     0.261 C 
BRANCH  33  34
ATOM     34  O   UNL     1      -3.036   4.859  -2.405  1.00  0.00    -0.460 OA
BRANCH  34  35
ATOM     35  C   UNL     1      -3.857   5.488  -3.268  1.00  0.00     0.338 C 
ATOM     36  O   UNL     1      -3.541   6.298  -4.138  1.00  0.00    -0.246 OA
BRANCH  35  37
ATOM     37  C   UNL     1      -5.233   4.976  -3.119  1.00  0.00     0.060 A 
ATOM     38  C   UNL     1      -5.861   4.413  -4.239  1.00  0.00     0.016 A 
ATOM     39  C   UNL     1      -5.932   5.110  -1.916  1.00  0.00     0.016 A 
ATOM     40  C   UNL     1      -7.196   4.021  -4.175  1.00  0.00     0.010 A 
ATOM     41  C   UNL     1      -7.283   4.743  -1.863  1.00  0.00     0.010 A 
ATOM     42  C   UNL     1      -7.931   4.234  -3.004  1.00  0.00    -0.014 A 
BRANCH  42  43
ATOM     43  C   UNL     1      -9.412   4.128  -3.048  1.00  0.00     0.031 A 
ATOM     44  C   UNL     1     -10.216   5.378  -3.238  1.00  0.00     0.074 A 
ATOM     45  C   UNL     1     -10.044   2.944  -3.013  1.00  0.00     0.049 A 
ATOM     46  N   UNL     1     -11.515   5.526  -3.275  1.00  0.00    -0.248 NA
ATOM     47  C   UNL     1      -9.457   6.621  -3.439  1.00  0.00     0.031 C 
ATOM     48  C   UNL     1      -9.379   1.653  -2.978  1.00  0.00     0.029 A 
ATOM     49  N   UNL     1     -11.382   2.631  -3.003  1.00  0.00    -0.354 N 
ATOM     50  C   UNL     1     -11.729   6.872  -3.525  1.00  0.00     0.074 A 
ATOM     51  C   UNL     1     -10.430   7.508  -3.580  1.00  0.00     0.031 C 
ATOM     52  C   UNL     1     -10.305   0.682  -2.920  1.00  0.00     0.029 A 
ATOM     53  C   UNL     1     -11.625   1.289  -2.840  1.00  0.00     0.049 A 
ATOM     54  H   UNL     1     -12.095   3.302  -3.103  1.00  0.00     0.167 HD
ATOM     55  C   UNL     1     -12.904   7.515  -3.712  1.00  0.00     0.037 A 
ATOM     56  C   UNL     1     -12.770   0.622  -2.606  1.00  0.00     0.037 A 
ATOM     57  C   UNL     1     -14.195   6.881  -3.641  1.00  0.00     0.049 A 
ATOM     58  C   UNL     1     -14.063   1.382  -2.628  1.00  0.00     0.074 A 
ATOM     59  C   UNL     1     -15.444   7.452  -3.810  1.00  0.00     0.029 A 
ATOM     60  N   UNL     1     -14.403   5.537  -3.366  1.00  0.00    -0.354 N 
ATOM     61  N   UNL     1     -14.260   2.657  -2.858  1.00  0.00    -0.248 NA
ATOM     62  C   UNL     1     -15.293   0.616  -2.391  1.00  0.00     0.031 C 
ATOM     63  C   UNL     1     -16.409   6.467  -3.577  1.00  0.00     0.029 A 
ATOM     64  C   UNL     1     -15.762   5.268  -3.325  1.00  0.00     0.049 A 
ATOM     65  H   UNL     1     -13.691   4.873  -3.222  1.00  0.00     0.167 HD
ATOM     66  C   UNL     1     -15.635   2.837  -2.848  1.00  0.00     0.074 A 
ATOM     67  C   UNL     1     -16.224   1.541  -2.581  1.00  0.00     0.031 C 
ATOM     68  C   UNL     1     -16.342   3.974  -3.062  1.00  0.00     0.037 A 
BRANCH  55  69
ATOM     69  C   UNL     1     -12.836   8.988  -3.975  1.00  0.00     0.057 A 
ATOM     70  C   UNL     1     -12.351   9.505  -5.183  1.00  0.00     0.134 A 
ATOM     71  C   UNL     1     -13.263   9.902  -3.004  1.00  0.00     0.134 A 
ATOM     72  F   UNL     1     -11.906   8.683  -6.146  1.00  0.00    -0.206 F 
ATOM     73  C   UNL     1     -12.269  10.881  -5.406  1.00  0.00     0.040 A 
ATOM     74  C   UNL     1     -13.212  11.278  -3.226  1.00  0.00     0.040 A 
ATOM     75  F   UNL     1     -13.735   9.472  -1.824  1.00  0.00    -0.206 F 
ATOM     76  C   UNL     1     -12.707  11.771  -4.427  1.00  0.00     0.006 A 
ENDBRANCH  55  69
BRANCH  56  77
ATOM     77  C   UNL     1     -12.743  -0.831  -2.293  1.00  0.00     0.057 A 
ATOM     78  C   UNL     1     -13.270  -1.784  -3.171  1.00  0.00     0.134 A 
ATOM     79  C   UNL     1     -12.213  -1.297  -1.081  1.00  0.00     0.134 A 
ATOM     80  F   UNL     1     -13.811  -1.400  -4.336  1.00  0.00    -0.206 F 
ATOM     81  C   UNL     1     -13.294  -3.143  -2.848  1.00  0.00     0.040 A 
ATOM     82  C   UNL     1     -12.211  -2.655  -0.755  1.00  0.00     0.040 A 
ATOM     83  F   UNL     1     -11.688  -0.438  -0.194  1.00  0.00    -0.206 F 
ATOM     84  C   UNL     1     -12.761  -3.582  -1.637  1.00  0.00     0.006 A 
ENDBRANCH  56  77
BRANCH  68  85
ATOM     85  C   UNL     1     -17.838   3.856  -3.071  1.00  0.00     0.057 A 
ATOM     86  C   UNL     1     -18.574   3.622  -1.904  1.00  0.00     0.134 A 
ATOM     87  C   UNL     1     -18.552   4.006  -4.268  1.00  0.00     0.134 A 
ATOM     88  F   UNL     1     -17.950   3.451  -0.728  1.00  0.00    -0.206 F 
ATOM     89  C   UNL     1     -19.966   3.518  -1.929  1.00  0.00     0.040 A 
ATOM     90  C   UNL     1     -19.944   3.935  -4.301  1.00  0.00     0.040 A 
ATOM     91  F   UNL     1     -17.907   4.238  -5.422  1.00  0.00    -0.206 F 
ATOM     92  C   UNL     1     -20.655   3.683  -3.130  1.00  0.00     0.006 A 
ENDBRANCH  68  85
ENDBRANCH  42  43
ENDBRANCH  35  37
ENDBRANCH  34  35
ENDBRANCH  33  34
ENDBRANCH  32  33
ENDBRANCH  31  32
ENDBRANCH  30  31
ENDBRANCH  29  30
ENDBRANCH  28  29
ENDBRANCH   1  28
TORSDOF 24
