REMARK SMILES NC(=O)[C@@H]1CCCCN1C(=O)N[C@H]1C=C[C@@H](C(=O)OCCOCCOCCOCCOC(=O)c2ccc(-c3c4nc(c(-c5c(F)cccc5F)c5ccc([nH]5)c(-c5c(F)cccc5F)c5nc(c(-c6c(F)cccc6F)c6ccc3[nH]6)C=C5)C=C4)cc2)C1
REMARK SMILES IDX 24 1 23 2 22 3 21 4 20 5 19 6 17 7 18 8 16 9 13 10 14 11
REMARK SMILES IDX 88 12 15 13 12 14 10 15 11 16 9 18 4 19 5 20 6 21 8 22 7 23
REMARK SMILES IDX 2 24 1 25 3 28 25 29 26 30 27 31 28 32 29 33 30 34 31 35
REMARK SMILES IDX 32 36 33 37 34 38 35 39 87 40 36 41 86 42 37 43 38 44 39 45
REMARK SMILES IDX 80 46 40 47 85 48 79 49 81 50 41 51 84 52 78 53 77 54 42 56
REMARK SMILES IDX 68 57 51 58 67 59 52 60 55 61 66 62 82 63 53 64 54 65 65 67
REMARK SMILES IDX 83 68 56 69 43 70 44 71 49 72 45 73 46 74 48 75 50 76 47 77
REMARK SMILES IDX 69 78 70 79 75 80 71 81 72 82 74 83 76 84 73 85 57 86 58 87
REMARK SMILES IDX 63 88 59 89 60 90 62 91 64 92 61 93
REMARK H PARENT 12 17 1 26 1 27 81 55 55 66
REMARK Flexibility Score: inf
ROOT
ATOM      1  C   UNL     1      -2.587   8.342   3.469  1.00  0.00     0.188 C 
ENDROOT
BRANCH   1   2
ATOM      2  C   UNL     1      -2.159   9.813   3.594  1.00  0.00     0.188 C 
BRANCH   2   3
ATOM      3  O   UNL     1      -3.127  10.851   3.630  1.00  0.00    -0.376 OA
BRANCH   3   4
ATOM      4  C   UNL     1      -4.211  10.877   2.714  1.00  0.00     0.202 C 
BRANCH   4   5
ATOM      5  C   UNL     1      -4.040  10.583   1.213  1.00  0.00     0.261 C 
BRANCH   5   6
ATOM      6  O   UNL     1      -3.135   9.527   0.851  1.00  0.00    -0.463 OA
BRANCH   6   7
ATOM      7  C   UNL     1      -1.973   9.918   0.282  1.00  0.00     0.312 C 
ATOM      8  O   UNL     1      -1.663  11.090   0.083  1.00  0.00    -0.252 OA
BRANCH   7   9
ATOM      9  C   UNL     1      -1.056   8.776  -0.137  1.00  0.00     0.124 C 
ATOM     10  C   UNL     1      -0.575   6.467  -0.648  1.00  0.00     0.107 C 
ATOM     11  C   UNL     1      -0.956   7.217  -1.888  1.00  0.00    -0.006 C 
ATOM     12  C   UNL     1      -1.229   7.359   0.414  1.00  0.00     0.048 C 
ATOM     13  C   UNL     1      -1.177   8.511  -1.611  1.00  0.00    -0.014 C 
BRANCH  10  14
ATOM     14  N   UNL     1      -1.055   5.110  -0.670  1.00  0.00    -0.332 N 
ATOM     15  C   UNL     1      -0.611   3.921  -0.204  1.00  0.00     0.318 C 
ATOM     16  O   UNL     1      -1.149   2.949  -0.739  1.00  0.00    -0.249 OA
ATOM     17  H   UNL     1      -1.917   5.028  -1.139  1.00  0.00     0.165 HD
BRANCH  15  18
ATOM     18  N   UNL     1       0.345   3.784   0.775  1.00  0.00    -0.313 N 
ATOM     19  C   UNL     1       0.888   2.423   1.068  1.00  0.00     0.176 C 
ATOM     20  C   UNL     1       1.143   2.248   2.588  1.00  0.00     0.035 C 
ATOM     21  C   UNL     1       1.970   3.366   3.195  1.00  0.00     0.004 C 
ATOM     22  C   UNL     1       1.147   4.852   1.366  1.00  0.00     0.122 C 
ATOM     23  C   UNL     1       1.335   4.702   2.868  1.00  0.00     0.022 C 
BRANCH  19  24
ATOM     24  C   UNL     1       0.117   1.122   0.710  1.00  0.00     0.240 C 
ATOM     25  N   UNL     1       0.838   0.221  -0.036  1.00  0.00    -0.368 N 
ATOM     26  H   UNL     1       0.428  -0.631  -0.308  1.00  0.00     0.159 HD
ATOM     27  H   UNL     1       1.764   0.429  -0.298  1.00  0.00     0.159 HD
ATOM     28  O   UNL     1      -0.993   0.819   1.139  1.00  0.00    -0.273 OA
ENDBRANCH  19  24
ENDBRANCH  15  18
ENDBRANCH  10  14
ENDBRANCH   7   9
ENDBRANCH   6   7
ENDBRANCH   5   6
ENDBRANCH   4   5
ENDBRANCH   3   4
ENDBRANCH   2   3
ENDBRANCH   1   2
BRANCH   1  29
ATOM     29  O   UNL     1      -3.904   8.149   2.999  1.00  0.00    -0.377 OA
BRANCH  29  30
ATOM     30  C   UNL     1      -4.888   7.834   3.975  1.00  0.00     0.188 C 
BRANCH  30  31
ATOM     31  C   UNL     1      -4.790   8.523   5.353  1.00  0.00     0.188 C 
BRANCH  31  32
ATOM     32  O   UNL     1      -3.510   8.424   5.966  1.00  0.00    -0.376 OA
BRANCH  32  33
ATOM     33  C   UNL     1      -3.297   7.408   6.936  1.00  0.00     0.202 C 
BRANCH  33  34
ATOM     34  C   UNL     1      -3.338   5.944   6.465  1.00  0.00     0.261 C 
BRANCH  34  35
ATOM     35  O   UNL     1      -4.554   5.504   5.842  1.00  0.00    -0.460 OA
BRANCH  35  36
ATOM     36  C   UNL     1      -5.699   5.597   6.546  1.00  0.00     0.338 C 
ATOM     37  O   UNL     1      -5.824   5.963   7.704  1.00  0.00    -0.246 OA
BRANCH  36  38
ATOM     38  C   UNL     1      -6.823   5.376   5.612  1.00  0.00     0.060 A 
ATOM     39  C   UNL     1      -7.780   6.387   5.453  1.00  0.00     0.016 A 
ATOM     40  C   UNL     1      -6.930   4.182   4.895  1.00  0.00     0.016 A 
ATOM     41  C   UNL     1      -8.874   6.189   4.610  1.00  0.00     0.010 A 
ATOM     42  C   UNL     1      -8.038   3.976   4.068  1.00  0.00     0.010 A 
ATOM     43  C   UNL     1      -9.034   4.963   3.954  1.00  0.00    -0.014 A 
BRANCH  43  44
ATOM     44  C   UNL     1     -10.336   4.628   3.329  1.00  0.00     0.031 A 
ATOM     45  C   UNL     1     -11.305   3.786   4.112  1.00  0.00     0.074 A 
ATOM     46  C   UNL     1     -10.662   5.063   2.100  1.00  0.00     0.049 A 
ATOM     47  N   UNL     1     -12.470   3.308   3.760  1.00  0.00    -0.248 NA
ATOM     48  C   UNL     1     -10.894   3.430   5.479  1.00  0.00     0.031 C 
ATOM     49  C   UNL     1      -9.830   5.915   1.257  1.00  0.00     0.029 A 
ATOM     50  N   UNL     1     -11.784   4.826   1.345  1.00  0.00    -0.354 N 
ATOM     51  C   UNL     1     -12.924   2.584   4.855  1.00  0.00     0.074 A 
ATOM     52  C   UNL     1     -11.895   2.658   5.868  1.00  0.00     0.031 C 
ATOM     53  C   UNL     1     -10.460   6.112   0.086  1.00  0.00     0.029 A 
ATOM     54  C   UNL     1     -11.721   5.370   0.087  1.00  0.00     0.049 A 
ATOM     55  H   UNL     1     -12.558   4.315   1.674  1.00  0.00     0.167 HD
ATOM     56  C   UNL     1     -14.096   1.921   5.006  1.00  0.00     0.037 A 
ATOM     57  C   UNL     1     -12.569   5.255  -0.954  1.00  0.00     0.037 A 
ATOM     58  C   UNL     1     -15.110   1.838   3.989  1.00  0.00     0.049 A 
ATOM     59  C   UNL     1     -13.833   4.450  -0.797  1.00  0.00     0.074 A 
ATOM     60  C   UNL     1     -16.342   1.210   4.048  1.00  0.00     0.029 A 
ATOM     61  N   UNL     1     -14.999   2.382   2.717  1.00  0.00    -0.354 N 
ATOM     62  N   UNL     1     -14.274   3.796   0.251  1.00  0.00    -0.248 NA
ATOM     63  C   UNL     1     -14.720   4.372  -1.967  1.00  0.00     0.031 C 
ATOM     64  C   UNL     1     -16.947   1.318   2.791  1.00  0.00     0.029 A 
ATOM     65  C   UNL     1     -16.125   2.075   1.970  1.00  0.00     0.049 A 
ATOM     66  H   UNL     1     -14.234   2.910   2.393  1.00  0.00     0.167 HD
ATOM     67  C   UNL     1     -15.497   3.251  -0.122  1.00  0.00     0.074 A 
ATOM     68  C   UNL     1     -15.733   3.661  -1.492  1.00  0.00     0.031 C 
ATOM     69  C   UNL     1     -16.350   2.487   0.606  1.00  0.00     0.037 A 
BRANCH  56  70
ATOM     70  C   UNL     1     -14.308   1.196   6.305  1.00  0.00     0.057 A 
ATOM     71  C   UNL     1     -14.466   1.873   7.523  1.00  0.00     0.134 A 
ATOM     72  C   UNL     1     -14.335  -0.204   6.340  1.00  0.00     0.134 A 
ATOM     73  F   UNL     1     -14.435   3.214   7.565  1.00  0.00    -0.206 F 
ATOM     74  C   UNL     1     -14.596   1.185   8.731  1.00  0.00     0.040 A 
ATOM     75  C   UNL     1     -14.499  -0.903   7.537  1.00  0.00     0.040 A 
ATOM     76  F   UNL     1     -14.196  -0.917   5.213  1.00  0.00    -0.206 F 
ATOM     77  C   UNL     1     -14.616  -0.208   8.739  1.00  0.00     0.006 A 
ENDBRANCH  56  70
BRANCH  57  78
ATOM     78  C   UNL     1     -12.235   5.910  -2.244  1.00  0.00     0.057 A 
ATOM     79  C   UNL     1     -12.957   7.014  -2.709  1.00  0.00     0.134 A 
ATOM     80  C   UNL     1     -11.171   5.455  -3.034  1.00  0.00     0.134 A 
ATOM     81  F   UNL     1     -14.002   7.481  -2.011  1.00  0.00    -0.206 F 
ATOM     82  C   UNL     1     -12.635   7.642  -3.914  1.00  0.00     0.040 A 
ATOM     83  C   UNL     1     -10.822   6.089  -4.227  1.00  0.00     0.040 A 
ATOM     84  F   UNL     1     -10.441   4.400  -2.643  1.00  0.00    -0.206 F 
ATOM     85  C   UNL     1     -11.558   7.185  -4.672  1.00  0.00     0.006 A 
ENDBRANCH  57  78
BRANCH  69  86
ATOM     86  C   UNL     1     -17.640   2.071  -0.045  1.00  0.00     0.057 A 
ATOM     87  C   UNL     1     -17.685   1.125  -1.077  1.00  0.00     0.134 A 
ATOM     88  C   UNL     1     -18.862   2.587   0.408  1.00  0.00     0.134 A 
ATOM     89  F   UNL     1     -16.552   0.597  -1.566  1.00  0.00    -0.206 F 
ATOM     90  C   UNL     1     -18.895   0.725  -1.649  1.00  0.00     0.040 A 
ATOM     91  C   UNL     1     -20.079   2.172  -0.135  1.00  0.00     0.040 A 
ATOM     92  F   UNL     1     -18.895   3.489   1.401  1.00  0.00    -0.206 F 
ATOM     93  C   UNL     1     -20.097   1.242  -1.172  1.00  0.00     0.006 A 
ENDBRANCH  69  86
ENDBRANCH  43  44
ENDBRANCH  36  38
ENDBRANCH  35  36
ENDBRANCH  34  35
ENDBRANCH  33  34
ENDBRANCH  32  33
ENDBRANCH  31  32
ENDBRANCH  30  31
ENDBRANCH  29  30
ENDBRANCH   1  29
TORSDOF 23
