REMARK SMILES C[C@@]1(C(=O)OCCOCCOCCOCCOC(=O)c2ccc(-c3c4nc(c(-c5c(F)cccc5F)c5ccc([nH]5)c(-c5c(F)cccc5F)c5nc(c(-c6c(F)cccc6F)c6ccc3[nH]6)C=C5)C=C4)cc2)CCCN1c1ncnc2c1CCCCC2
REMARK SMILES IDX 10 1 9 2 8 3 7 4 6 5 5 6 3 7 4 8 2 9 1 10 74 11 77 12 75 13
REMARK SMILES IDX 76 14 78 15 79 16 83 17 80 18 82 19 81 20 84 21 85 22 88 24
REMARK SMILES IDX 87 25 86 26 11 28 12 29 13 30 14 31 15 32 16 33 17 34 18 35
REMARK SMILES IDX 19 36 20 37 21 38 73 39 22 40 72 41 23 42 24 43 25 44 66 45
REMARK SMILES IDX 26 46 71 47 65 48 67 49 27 50 70 51 64 52 63 53 28 55 54 56
REMARK SMILES IDX 37 57 53 58 38 59 41 60 52 61 68 62 39 63 40 64 51 66 69 67
REMARK SMILES IDX 42 68 29 69 30 70 35 71 31 72 32 73 34 74 36 75 33 76 55 77
REMARK SMILES IDX 56 78 61 79 57 80 58 81 60 82 62 83 59 84 43 85 44 86 49 87
REMARK SMILES IDX 45 88 46 89 48 90 50 91 47 92
REMARK H PARENT 67 54 41 65
REMARK Flexibility Score: 90.00
ROOT
ATOM      1  C   UNL     1      -3.860   0.838   1.102  1.00  0.00     0.188 C 
ENDROOT
BRANCH   1   2
ATOM      2  C   UNL     1      -2.998  -0.419   1.220  1.00  0.00     0.188 C 
BRANCH   2   3
ATOM      3  O   UNL     1      -2.808  -0.878   2.564  1.00  0.00    -0.376 OA
BRANCH   3   4
ATOM      4  C   UNL     1      -2.816   0.134   3.562  1.00  0.00     0.202 C 
BRANCH   4   5
ATOM      5  C   UNL     1      -1.617   1.106   3.551  1.00  0.00     0.261 C 
BRANCH   5   6
ATOM      6  O   UNL     1      -1.080   1.496   2.254  1.00  0.00    -0.461 OA
BRANCH   6   7
ATOM      7  C   UNL     1      -0.025   0.727   1.836  1.00  0.00     0.331 C 
ATOM      8  O   UNL     1       0.317  -0.282   2.452  1.00  0.00    -0.249 OA
BRANCH   7   9
ATOM      9  C   UNL     1       0.836   1.292   0.648  1.00  0.00     0.136 C 
ATOM     10  C   UNL     1       1.480   0.068  -0.029  1.00  0.00     0.047 C 
ATOM     11  C   UNL     1       1.895   2.180   1.345  1.00  0.00     0.042 C 
ATOM     12  N   UNL     1       0.165   2.254  -0.330  1.00  0.00    -0.340 N 
ATOM     13  C   UNL     1       1.235   3.551   1.356  1.00  0.00     0.025 C 
ATOM     14  C   UNL     1       0.624   3.628  -0.032  1.00  0.00     0.119 C 
BRANCH  12  15
ATOM     15  C   UNL     1       0.232   2.034  -1.727  1.00  0.00     0.136 A 
ATOM     16  N   UNL     1       1.437   1.976  -2.321  1.00  0.00    -0.219 NA
ATOM     17  C   UNL     1      -0.936   1.920  -2.503  1.00  0.00     0.016 A 
ATOM     18  C   UNL     1       1.490   1.700  -3.643  1.00  0.00     0.224 A 
ATOM     19  C   UNL     1      -0.758   1.435  -3.943  1.00  0.00     0.049 A 
ATOM     20  N   UNL     1       0.476   1.374  -4.468  1.00  0.00    -0.241 NA
BRANCH  17  21
ATOM     21  C   UNL     1      -2.348   2.357  -1.612  1.00  0.00     0.041 C 
BRANCH  21  22
ATOM     22  C   UNL     1      -4.148   2.582  -2.217  1.00  0.00     0.005 CG0
ATOM     23  G   UNL     1      -4.883   1.803  -3.851  1.00  0.00     0.000 G0
ENDBRANCH  21  22
ENDBRANCH  17  21
BRANCH  19  24
ATOM     24  C   UNL     1      -1.948   0.858  -5.119  1.00  0.00     0.057 C 
BRANCH  24  25
ATOM     25  C   UNL     1      -3.767   1.264  -5.300  1.00  0.00     0.006 C 
BRANCH  25  26
ATOM     26  C   UNL     1      -4.883   1.803  -3.851  1.00  0.00     0.001 CG0
ATOM     27  G   UNL     1      -4.148   2.582  -2.217  1.00  0.00     0.000 G0
ENDBRANCH  25  26
ENDBRANCH  24  25
ENDBRANCH  19  24
ENDBRANCH  12  15
ENDBRANCH   7   9
ENDBRANCH   6   7
ENDBRANCH   5   6
ENDBRANCH   4   5
ENDBRANCH   3   4
ENDBRANCH   2   3
ENDBRANCH   1   2
BRANCH   1  28
ATOM     28  O   UNL     1      -5.223   0.447   1.114  1.00  0.00    -0.377 OA
BRANCH  28  29
ATOM     29  C   UNL     1      -5.837   0.613  -0.164  1.00  0.00     0.188 C 
BRANCH  29  30
ATOM     30  C   UNL     1      -5.125  -0.070  -1.410  1.00  0.00     0.188 C 
BRANCH  30  31
ATOM     31  O   UNL     1      -3.782   0.410  -1.715  1.00  0.00    -0.376 OA
BRANCH  31  32
ATOM     32  C   UNL     1      -3.154   0.808  -3.090  1.00  0.00     0.202 C 
BRANCH  32  33
ATOM     33  C   UNL     1      -2.845   2.714  -3.858  1.00  0.00     0.261 C 
BRANCH  33  34
ATOM     34  O   UNL     1      -3.970   3.755  -4.522  1.00  0.00    -0.460 OA
BRANCH  34  35
ATOM     35  C   UNL     1      -5.019   4.612  -4.363  1.00  0.00     0.338 C 
ATOM     36  O   UNL     1      -5.706   4.898  -5.343  1.00  0.00    -0.246 OA
BRANCH  35  37
ATOM     37  C   UNL     1      -5.499   5.236  -3.087  1.00  0.00     0.060 A 
ATOM     38  C   UNL     1      -6.487   4.639  -2.271  1.00  0.00     0.016 A 
ATOM     39  C   UNL     1      -5.189   6.579  -2.874  1.00  0.00     0.016 A 
ATOM     40  C   UNL     1      -7.146   5.373  -1.264  1.00  0.00     0.010 A 
ATOM     41  C   UNL     1      -5.878   7.323  -1.900  1.00  0.00     0.010 A 
ATOM     42  C   UNL     1      -6.890   6.741  -1.115  1.00  0.00    -0.014 A 
BRANCH  42  43
ATOM     43  C   UNL     1      -7.790   7.628  -0.318  1.00  0.00     0.031 A 
ATOM     44  C   UNL     1      -8.899   8.367  -1.032  1.00  0.00     0.074 A 
ATOM     45  C   UNL     1      -7.605   7.832   1.000  1.00  0.00     0.049 A 
ATOM     46  N   UNL     1      -9.686   9.321  -0.599  1.00  0.00    -0.248 NA
ATOM     47  C   UNL     1      -9.147   7.975  -2.428  1.00  0.00     0.031 C 
ATOM     48  C   UNL     1      -6.617   7.148   1.828  1.00  0.00     0.029 A 
ATOM     49  N   UNL     1      -8.228   8.700   1.867  1.00  0.00    -0.354 N 
ATOM     50  C   UNL     1     -10.507   9.655  -1.672  1.00  0.00     0.074 A 
ATOM     51  C   UNL     1     -10.116   8.807  -2.778  1.00  0.00     0.031 C 
ATOM     52  C   UNL     1      -6.675   7.646   3.077  1.00  0.00     0.029 A 
ATOM     53  C   UNL     1      -7.675   8.711   3.126  1.00  0.00     0.049 A 
ATOM     54  H   UNL     1      -8.996   9.260   1.610  1.00  0.00     0.167 HD
ATOM     55  C   UNL     1     -11.491  10.587  -1.735  1.00  0.00     0.037 A 
ATOM     56  C   UNL     1      -7.919   9.513   4.184  1.00  0.00     0.037 A 
ATOM     57  C   UNL     1     -11.870  11.442  -0.638  1.00  0.00     0.049 A 
ATOM     58  C   UNL     1      -8.966  10.593   4.071  1.00  0.00     0.074 A 
ATOM     59  C   UNL     1     -12.853  12.417  -0.598  1.00  0.00     0.029 A 
ATOM     60  N   UNL     1     -11.273  11.429   0.614  1.00  0.00    -0.354 N 
ATOM     61  N   UNL     1      -9.731  10.902   3.052  1.00  0.00    -0.248 NA
ATOM     62  C   UNL     1      -9.181  11.436   5.257  1.00  0.00     0.031 C 
ATOM     63  C   UNL     1     -12.817  13.026   0.662  1.00  0.00     0.029 A 
ATOM     64  C   UNL     1     -11.850  12.393   1.426  1.00  0.00     0.049 A 
ATOM     65  H   UNL     1     -10.546  10.823   0.887  1.00  0.00     0.167 HD
ATOM     66  C   UNL     1     -10.531  11.956   3.479  1.00  0.00     0.074 A 
ATOM     67  C   UNL     1     -10.172  12.218   4.858  1.00  0.00     0.031 C 
ATOM     68  C   UNL     1     -11.476  12.647   2.794  1.00  0.00     0.037 A 
BRANCH  55  69
ATOM     69  C   UNL     1     -12.206  10.759  -3.048  1.00  0.00     0.057 A 
ATOM     70  C   UNL     1     -13.098   9.799  -3.543  1.00  0.00     0.134 A 
ATOM     71  C   UNL     1     -12.026  11.921  -3.813  1.00  0.00     0.134 A 
ATOM     72  F   UNL     1     -13.312   8.659  -2.868  1.00  0.00    -0.206 F 
ATOM     73  C   UNL     1     -13.764   9.974  -4.759  1.00  0.00     0.040 A 
ATOM     74  C   UNL     1     -12.706  12.119  -5.017  1.00  0.00     0.040 A 
ATOM     75  F   UNL     1     -11.195  12.888  -3.397  1.00  0.00    -0.206 F 
ATOM     76  C   UNL     1     -13.572  11.140  -5.497  1.00  0.00     0.006 A 
ENDBRANCH  55  69
BRANCH  56  77
ATOM     77  C   UNL     1      -7.140   9.349   5.441  1.00  0.00     0.057 A 
ATOM     78  C   UNL     1      -7.746   8.900   6.620  1.00  0.00     0.134 A 
ATOM     79  C   UNL     1      -5.774   9.656   5.501  1.00  0.00     0.134 A 
ATOM     80  F   UNL     1      -9.058   8.621   6.640  1.00  0.00    -0.206 F 
ATOM     81  C   UNL     1      -7.029   8.770   7.812  1.00  0.00     0.040 A 
ATOM     82  C   UNL     1      -5.038   9.505   6.678  1.00  0.00     0.040 A 
ATOM     83  F   UNL     1      -5.131  10.099   4.410  1.00  0.00    -0.206 F 
ATOM     84  C   UNL     1      -5.668   9.066   7.840  1.00  0.00     0.006 A 
ENDBRANCH  56  77
BRANCH  68  85
ATOM     85  C   UNL     1     -12.204  13.731   3.539  1.00  0.00     0.057 A 
ATOM     86  C   UNL     1     -11.578  14.932   3.899  1.00  0.00     0.134 A 
ATOM     87  C   UNL     1     -13.549  13.573   3.897  1.00  0.00     0.134 A 
ATOM     88  F   UNL     1     -10.288  15.143   3.597  1.00  0.00    -0.206 F 
ATOM     89  C   UNL     1     -12.253  15.920   4.619  1.00  0.00     0.040 A 
ATOM     90  C   UNL     1     -14.242  14.566   4.591  1.00  0.00     0.040 A 
ATOM     91  F   UNL     1     -14.213  12.453   3.574  1.00  0.00    -0.206 F 
ATOM     92  C   UNL     1     -13.591  15.739   4.964  1.00  0.00     0.006 A 
ENDBRANCH  68  85
ENDBRANCH  42  43
ENDBRANCH  35  37
ENDBRANCH  34  35
ENDBRANCH  33  34
ENDBRANCH  32  33
ENDBRANCH  31  32
ENDBRANCH  30  31
ENDBRANCH  29  30
ENDBRANCH  28  29
ENDBRANCH   1  28
TORSDOF 21
