REMARK SMILES CC[C@@H](NC(=O)[C@H](C)C[NH2+]C)C(=O)OCCOCCOCCOCCOC(=O)c1ccc(-c2c3nc(c(-c4c(F)cccc4F)c4ccc([nH]4)c(-c4c(F)cccc4F)c4nc(c(-c5c(F)cccc5F)c5ccc2[nH]5)C=C4)C=C3)cc1
REMARK SMILES IDX 19 1 18 2 17 3 16 4 15 5 14 6 12 7 13 8 3 9 2 10 1 11 4 12
REMARK SMILES IDX 5 13 6 15 7 16 8 17 9 18 10 19 11 20 20 23 21 24 22 25 23 26
REMARK SMILES IDX 24 27 25 28 26 29 27 30 28 31 29 32 30 33 82 34 31 35 81 36
REMARK SMILES IDX 32 37 33 38 34 39 75 40 35 41 80 42 74 43 76 44 36 45 79 46
REMARK SMILES IDX 73 47 72 48 37 50 63 51 46 52 62 53 47 54 50 55 61 56 77 57
REMARK SMILES IDX 48 58 49 59 60 61 78 62 51 63 38 64 39 65 44 66 40 67 41 68
REMARK SMILES IDX 43 69 45 70 42 71 64 72 65 73 70 74 66 75 67 76 69 77 71 78
REMARK SMILES IDX 68 79 52 80 53 81 58 82 54 83 55 84 57 85 59 86 56 87
REMARK H PARENT 4 14 10 21 10 22 76 49 50 60
REMARK Flexibility Score: inf
ROOT
ATOM      1  C   UNL     1       2.552   0.664   2.027  1.00  0.00     0.188 C 
ENDROOT
BRANCH   1   2
ATOM      2  C   UNL     1       1.833   1.688   2.920  1.00  0.00     0.188 C 
BRANCH   2   3
ATOM      3  O   UNL     1       2.038   1.500   4.315  1.00  0.00    -0.376 OA
BRANCH   3   4
ATOM      4  C   UNL     1       1.032   0.745   4.973  1.00  0.00     0.202 C 
BRANCH   4   5
ATOM      5  C   UNL     1       1.081  -0.756   4.709  1.00  0.00     0.261 C 
BRANCH   5   6
ATOM      6  O   UNL     1       0.710  -1.257   3.403  1.00  0.00    -0.462 OA
BRANCH   6   7
ATOM      7  C   UNL     1      -0.434  -0.893   2.786  1.00  0.00     0.328 C 
ATOM      8  O   UNL     1      -1.204  -0.035   3.201  1.00  0.00    -0.250 OA
BRANCH   7   9
ATOM      9  C   UNL     1      -0.738  -1.792   1.567  1.00  0.00     0.192 C 
BRANCH   9  10
ATOM     10  C   UNL     1       0.465  -2.299   0.745  1.00  0.00     0.033 C 
ATOM     11  C   UNL     1       0.111  -2.511  -0.732  1.00  0.00     0.007 C 
ENDBRANCH   9  10
BRANCH   9  12
ATOM     12  N   UNL     1      -1.760  -2.841   1.741  1.00  0.00    -0.342 N 
ATOM     13  C   UNL     1      -1.950  -3.840   2.643  1.00  0.00     0.229 C 
ATOM     14  H   UNL     1      -2.460  -2.810   1.050  1.00  0.00     0.164 HD
ATOM     15  O   UNL     1      -2.568  -4.829   2.235  1.00  0.00    -0.275 OA
BRANCH  13  16
ATOM     16  C   UNL     1      -1.533  -3.767   4.109  1.00  0.00     0.130 C 
ATOM     17  C   UNL     1      -2.103  -2.517   4.787  1.00  0.00     0.024 C 
BRANCH  16  18
ATOM     18  C   UNL     1      -0.045  -4.126   4.272  1.00  0.00     0.273 C 
BRANCH  18  19
ATOM     19  N   UNL     1       0.460  -4.081   5.652  1.00  0.00    -0.348 N 
ATOM     20  C   UNL     1       1.901  -4.322   5.688  1.00  0.00     0.330 C 
ATOM     21  H   UNL     1      -0.013  -4.796   6.205  1.00  0.00     0.346 HD
ATOM     22  H   UNL     1       0.275  -3.154   6.037  1.00  0.00     0.346 HD
ENDBRANCH  18  19
ENDBRANCH  16  18
ENDBRANCH  13  16
ENDBRANCH   9  12
ENDBRANCH   7   9
ENDBRANCH   6   7
ENDBRANCH   5   6
ENDBRANCH   4   5
ENDBRANCH   3   4
ENDBRANCH   2   3
ENDBRANCH   1   2
BRANCH   1  23
ATOM     23  O   UNL     1       3.078  -0.461   2.713  1.00  0.00    -0.377 OA
BRANCH  23  24
ATOM     24  C   UNL     1       4.372  -0.366   3.301  1.00  0.00     0.188 C 
BRANCH  24  25
ATOM     25  C   UNL     1       4.890   0.997   3.792  1.00  0.00     0.188 C 
BRANCH  25  26
ATOM     26  O   UNL     1       4.692   2.049   2.859  1.00  0.00    -0.376 OA
BRANCH  26  27
ATOM     27  C   UNL     1       5.745   2.396   1.973  1.00  0.00     0.202 C 
BRANCH  27  28
ATOM     28  C   UNL     1       6.200   1.339   0.955  1.00  0.00     0.261 C 
BRANCH  28  29
ATOM     29  O   UNL     1       6.738   0.117   1.483  1.00  0.00    -0.460 OA
BRANCH  29  30
ATOM     30  C   UNL     1       7.732   0.192   2.398  1.00  0.00     0.338 C 
ATOM     31  O   UNL     1       8.309   1.178   2.781  1.00  0.00    -0.246 OA
BRANCH  30  32
ATOM     32  C   UNL     1       7.861  -1.151   3.012  1.00  0.00     0.060 A 
ATOM     33  C   UNL     1       7.799  -1.263   4.408  1.00  0.00     0.016 A 
ATOM     34  C   UNL     1       8.052  -2.284   2.217  1.00  0.00     0.016 A 
ATOM     35  C   UNL     1       7.988  -2.504   5.016  1.00  0.00     0.010 A 
ATOM     36  C   UNL     1       8.263  -3.522   2.827  1.00  0.00     0.010 A 
ATOM     37  C   UNL     1       8.279  -3.626   4.229  1.00  0.00    -0.014 A 
BRANCH  37  38
ATOM     38  C   UNL     1       8.860  -4.832   4.866  1.00  0.00     0.031 A 
ATOM     39  C   UNL     1      10.360  -4.940   4.918  1.00  0.00     0.074 A 
ATOM     40  C   UNL     1       8.089  -5.795   5.399  1.00  0.00     0.049 A 
ATOM     41  N   UNL     1      11.111  -5.907   5.375  1.00  0.00    -0.248 NA
ATOM     42  C   UNL     1      11.115  -3.797   4.375  1.00  0.00     0.031 C 
ATOM     43  C   UNL     1       6.629  -5.782   5.452  1.00  0.00     0.029 A 
ATOM     44  N   UNL     1       8.440  -6.981   5.993  1.00  0.00    -0.354 N 
ATOM     45  C   UNL     1      12.422  -5.492   5.171  1.00  0.00     0.074 A 
ATOM     46  C   UNL     1      12.366  -4.202   4.523  1.00  0.00     0.031 C 
ATOM     47  C   UNL     1       6.207  -6.918   6.038  1.00  0.00     0.029 A 
ATOM     48  C   UNL     1       7.364  -7.747   6.371  1.00  0.00     0.049 A 
ATOM     49  H   UNL     1       9.374  -7.257   6.135  1.00  0.00     0.167 HD
ATOM     50  C   UNL     1      13.571  -6.127   5.499  1.00  0.00     0.037 A 
ATOM     51  C   UNL     1       7.327  -8.984   6.903  1.00  0.00     0.037 A 
ATOM     52  C   UNL     1      13.624  -7.414   6.138  1.00  0.00     0.049 A 
ATOM     53  C   UNL     1       8.621  -9.708   7.183  1.00  0.00     0.074 A 
ATOM     54  C   UNL     1      14.737  -8.137   6.527  1.00  0.00     0.029 A 
ATOM     55  N   UNL     1      12.514  -8.173   6.471  1.00  0.00    -0.354 N 
ATOM     56  N   UNL     1       9.855  -9.297   7.013  1.00  0.00    -0.248 NA
ATOM     57  C   UNL     1       8.515 -11.069   7.729  1.00  0.00     0.031 C 
ATOM     58  C   UNL     1      14.301  -9.360   7.046  1.00  0.00     0.029 A 
ATOM     59  C   UNL     1      12.915  -9.372   7.035  1.00  0.00     0.049 A 
ATOM     60  H   UNL     1      11.578  -7.901   6.328  1.00  0.00     0.167 HD
ATOM     61  C   UNL     1      10.669 -10.332   7.464  1.00  0.00     0.074 A 
ATOM     62  C   UNL     1       9.787 -11.385   7.922  1.00  0.00     0.031 C 
ATOM     63  C   UNL     1      12.022 -10.404   7.498  1.00  0.00     0.037 A 
BRANCH  50  64
ATOM     64  C   UNL     1      14.860  -5.451   5.139  1.00  0.00     0.057 A 
ATOM     65  C   UNL     1      15.309  -4.304   5.807  1.00  0.00     0.134 A 
ATOM     66  C   UNL     1      15.672  -5.966   4.121  1.00  0.00     0.134 A 
ATOM     67  F   UNL     1      14.569  -3.748   6.778  1.00  0.00    -0.206 F 
ATOM     68  C   UNL     1      16.510  -3.682   5.461  1.00  0.00     0.040 A 
ATOM     69  C   UNL     1      16.888  -5.368   3.784  1.00  0.00     0.040 A 
ATOM     70  F   UNL     1      15.300  -7.060   3.440  1.00  0.00    -0.206 F 
ATOM     71  C   UNL     1      17.307  -4.219   4.451  1.00  0.00     0.006 A 
ENDBRANCH  50  64
BRANCH  51  72
ATOM     72  C   UNL     1       6.024  -9.636   7.198  1.00  0.00     0.057 A 
ATOM     73  C   UNL     1       5.626  -9.901   8.513  1.00  0.00     0.134 A 
ATOM     74  C   UNL     1       5.165 -10.045   6.171  1.00  0.00     0.134 A 
ATOM     75  F   UNL     1       6.418  -9.558   9.540  1.00  0.00    -0.206 F 
ATOM     76  C   UNL     1       4.432 -10.567   8.797  1.00  0.00     0.040 A 
ATOM     77  C   UNL     1       3.955 -10.688   6.440  1.00  0.00     0.040 A 
ATOM     78  F   UNL     1       5.489  -9.824   4.888  1.00  0.00    -0.206 F 
ATOM     79  C   UNL     1       3.591 -10.958   7.758  1.00  0.00     0.006 A 
ENDBRANCH  51  72
BRANCH  63  80
ATOM     80  C   UNL     1      12.636 -11.639   8.091  1.00  0.00     0.057 A 
ATOM     81  C   UNL     1      12.610 -12.873   7.430  1.00  0.00     0.134 A 
ATOM     82  C   UNL     1      13.309 -11.578   9.320  1.00  0.00     0.134 A 
ATOM     83  F   UNL     1      11.975 -13.002   6.256  1.00  0.00    -0.206 F 
ATOM     84  C   UNL     1      13.210 -14.008   7.980  1.00  0.00     0.040 A 
ATOM     85  C   UNL     1      13.937 -12.698   9.865  1.00  0.00     0.040 A 
ATOM     86  F   UNL     1      13.383 -10.424   9.999  1.00  0.00    -0.206 F 
ATOM     87  C   UNL     1      13.883 -13.919   9.198  1.00  0.00     0.006 A 
ENDBRANCH  63  80
ENDBRANCH  37  38
ENDBRANCH  30  32
ENDBRANCH  29  30
ENDBRANCH  28  29
ENDBRANCH  27  28
ENDBRANCH  26  27
ENDBRANCH  25  26
ENDBRANCH  24  25
ENDBRANCH  23  24
ENDBRANCH   1  23
TORSDOF 25
