REMARK SMILES CC[C@@H](C(=O)OCCOCCOCCOCCOC(=O)c1ccc(-c2c3nc(c(-c4c(F)cccc4F)c4ccc([nH]4)c(-c4c(F)cccc4F)c4nc(c(-c5c(F)cccc5F)c5ccc2[nH]5)C=C4)C=C3)cc1)N1C(=O)/C(=C/C(C)=C/c2ccccc2)SC1=S
REMARK SMILES IDX 11 1 10 2 9 3 8 4 7 5 6 6 4 7 5 8 3 9 2 10 1 11 75 12 76 13
REMARK SMILES IDX 90 14 77 15 78 16 89 17 91 18 79 19 80 20 81 21 82 22 83 23
REMARK SMILES IDX 84 24 88 25 85 26 87 27 86 28 12 29 13 30 14 31 15 32 16 33
REMARK SMILES IDX 17 34 18 35 19 36 20 37 21 38 22 39 74 40 23 41 73 42 24 43
REMARK SMILES IDX 25 44 26 45 67 46 27 47 72 48 66 49 68 50 28 51 71 52 65 53
REMARK SMILES IDX 64 54 29 56 55 57 38 58 54 59 39 60 42 61 53 62 69 63 40 64
REMARK SMILES IDX 41 65 52 67 70 68 43 69 30 70 31 71 36 72 32 73 33 74 35 75
REMARK SMILES IDX 37 76 34 77 56 78 57 79 62 80 58 81 59 82 61 83 63 84 60 85
REMARK SMILES IDX 44 86 45 87 50 88 46 89 47 90 49 91 51 92 48 93
REMARK H PARENT 68 55 42 66
REMARK Flexibility Score: inf
ROOT
ATOM      1  C   UNL     1      -1.644   1.764   1.306  1.00  0.00     0.188 C 
ENDROOT
BRANCH   1   2
ATOM      2  C   UNL     1      -1.654   3.163   1.947  1.00  0.00     0.188 C 
BRANCH   2   3
ATOM      3  O   UNL     1      -1.406   4.231   1.036  1.00  0.00    -0.376 OA
BRANCH   3   4
ATOM      4  C   UNL     1      -0.123   4.841   1.118  1.00  0.00     0.202 C 
BRANCH   4   5
ATOM      5  C   UNL     1       1.042   3.942   0.703  1.00  0.00     0.261 C 
BRANCH   5   6
ATOM      6  O   UNL     1       1.083   2.793   1.564  1.00  0.00    -0.462 OA
BRANCH   6   7
ATOM      7  C   UNL     1       2.288   2.209   1.760  1.00  0.00     0.329 C 
ATOM      8  O   UNL     1       3.341   2.607   1.276  1.00  0.00    -0.250 OA
BRANCH   7   9
ATOM      9  C   UNL     1       2.146   0.872   2.508  1.00  0.00     0.201 C 
BRANCH   9  10
ATOM     10  C   UNL     1       1.760  -0.213   1.446  1.00  0.00     0.034 C 
ATOM     11  C   UNL     1       2.061   0.075  -0.022  1.00  0.00     0.007 C 
ENDBRANCH   9  10
BRANCH   9  12
ATOM     12  N   UNL     1       1.203   0.844   3.682  1.00  0.00    -0.278 N 
ATOM     13  C   UNL     1       0.874  -0.391   4.244  1.00  0.00     0.266 C 
ATOM     14  C   UNL     1       0.955   1.892   4.547  1.00  0.00     0.149 C 
ATOM     15  O   UNL     1       1.260  -1.489   3.863  1.00  0.00    -0.268 OA
ATOM     16  C   UNL     1       0.093  -0.226   5.511  1.00  0.00     0.080 C 
ATOM     17  S   UNL     1      -0.314   1.425   5.674  1.00  0.00    -0.054 SA
ATOM     18  S   UNL     1       1.681   3.388   4.676  1.00  0.00    -0.052 S 
ATOM     19  C   UNL     1      -0.078  -1.248   6.365  1.00  0.00     0.024 C 
BRANCH  19  20
ATOM     20  C   UNL     1      -0.689  -1.333   7.699  1.00  0.00    -0.049 C 
ATOM     21  C   UNL     1      -1.001  -2.747   8.144  1.00  0.00     0.044 C 
ATOM     22  C   UNL     1      -0.892  -0.274   8.509  1.00  0.00     0.011 C 
BRANCH  22  23
ATOM     23  C   UNL     1      -1.421  -0.279   9.880  1.00  0.00    -0.025 A 
ATOM     24  C   UNL     1      -2.568   0.472  10.168  1.00  0.00     0.008 A 
ATOM     25  C   UNL     1      -0.738  -0.912  10.924  1.00  0.00     0.008 A 
ATOM     26  C   UNL     1      -3.026   0.586  11.482  1.00  0.00     0.001 A 
ATOM     27  C   UNL     1      -1.198  -0.797  12.238  1.00  0.00     0.001 A 
ATOM     28  C   UNL     1      -2.339  -0.046  12.517  1.00  0.00     0.000 A 
ENDBRANCH  22  23
ENDBRANCH  19  20
ENDBRANCH   9  12
ENDBRANCH   7   9
ENDBRANCH   6   7
ENDBRANCH   5   6
ENDBRANCH   4   5
ENDBRANCH   3   4
ENDBRANCH   2   3
ENDBRANCH   1   2
BRANCH   1  29
ATOM     29  O   UNL     1      -1.337   1.662  -0.076  1.00  0.00    -0.377 OA
BRANCH  29  30
ATOM     30  C   UNL     1      -2.055   2.467  -1.008  1.00  0.00     0.188 C 
BRANCH  30  31
ATOM     31  C   UNL     1      -3.448   3.038  -0.662  1.00  0.00     0.188 C 
BRANCH  31  32
ATOM     32  O   UNL     1      -4.140   2.349   0.371  1.00  0.00    -0.376 OA
BRANCH  32  33
ATOM     33  C   UNL     1      -5.180   1.471  -0.037  1.00  0.00     0.202 C 
BRANCH  33  34
ATOM     34  C   UNL     1      -4.694   0.193  -0.731  1.00  0.00     0.261 C 
BRANCH  34  35
ATOM     35  O   UNL     1      -4.072   0.397  -2.010  1.00  0.00    -0.460 OA
BRANCH  35  36
ATOM     36  C   UNL     1      -4.801   1.008  -2.967  1.00  0.00     0.338 C 
ATOM     37  O   UNL     1      -5.964   1.367  -2.905  1.00  0.00    -0.246 OA
BRANCH  36  38
ATOM     38  C   UNL     1      -3.891   1.338  -4.076  1.00  0.00     0.060 A 
ATOM     39  C   UNL     1      -3.722   2.680  -4.442  1.00  0.00     0.016 A 
ATOM     40  C   UNL     1      -3.215   0.321  -4.753  1.00  0.00     0.016 A 
ATOM     41  C   UNL     1      -2.900   3.005  -5.520  1.00  0.00     0.010 A 
ATOM     42  C   UNL     1      -2.411   0.646  -5.845  1.00  0.00     0.010 A 
ATOM     43  C   UNL     1      -2.279   1.985  -6.253  1.00  0.00    -0.014 A 
BRANCH  43  44
ATOM     44  C   UNL     1      -1.674   2.286  -7.570  1.00  0.00     0.031 A 
ATOM     45  C   UNL     1      -2.526   2.108  -8.795  1.00  0.00     0.074 A 
ATOM     46  C   UNL     1      -0.401   2.702  -7.680  1.00  0.00     0.049 A 
ATOM     47  N   UNL     1      -2.208   2.242 -10.056  1.00  0.00    -0.248 NA
ATOM     48  C   UNL     1      -3.929   1.723  -8.563  1.00  0.00     0.031 C 
ATOM     49  C   UNL     1       0.511   2.944  -6.566  1.00  0.00     0.029 A 
ATOM     50  N   UNL     1       0.345   2.979  -8.797  1.00  0.00    -0.354 N 
ATOM     51  C   UNL     1      -3.367   1.955 -10.766  1.00  0.00     0.074 A 
ATOM     52  C   UNL     1      -4.387   1.613  -9.800  1.00  0.00     0.031 C 
ATOM     53  C   UNL     1       1.706   3.320  -7.058  1.00  0.00     0.029 A 
ATOM     54  C   UNL     1       1.647   3.313  -8.519  1.00  0.00     0.049 A 
ATOM     55  H   UNL     1      -0.018   2.942  -9.712  1.00  0.00     0.167 HD
ATOM     56  C   UNL     1      -3.565   1.980 -12.104  1.00  0.00     0.037 A 
ATOM     57  C   UNL     1       2.675   3.561  -9.354  1.00  0.00     0.037 A 
ATOM     58  C   UNL     1      -2.548   2.310 -13.065  1.00  0.00     0.049 A 
ATOM     59  C   UNL     1       2.450   3.507 -10.843  1.00  0.00     0.074 A 
ATOM     60  C   UNL     1      -2.652   2.376 -14.443  1.00  0.00     0.029 A 
ATOM     61  N   UNL     1      -1.235   2.619 -12.745  1.00  0.00    -0.354 N 
ATOM     62  N   UNL     1       1.345   3.263 -11.506  1.00  0.00    -0.248 NA
ATOM     63  C   UNL     1       3.617   3.762 -11.700  1.00  0.00     0.031 C 
ATOM     64  C   UNL     1      -1.389   2.681 -14.960  1.00  0.00     0.029 A 
ATOM     65  C   UNL     1      -0.511   2.853 -13.902  1.00  0.00     0.049 A 
ATOM     66  H   UNL     1      -0.871   2.666 -11.832  1.00  0.00     0.167 HD
ATOM     67  C   UNL     1       1.676   3.365 -12.852  1.00  0.00     0.074 A 
ATOM     68  C   UNL     1       3.083   3.701 -12.912  1.00  0.00     0.031 C 
ATOM     69  C   UNL     1       0.886   3.198 -13.942  1.00  0.00     0.037 A 
BRANCH  56  70
ATOM     70  C   UNL     1      -4.930   1.613 -12.603  1.00  0.00     0.057 A 
ATOM     71  C   UNL     1      -6.028   2.467 -12.445  1.00  0.00     0.134 A 
ATOM     72  C   UNL     1      -5.143   0.397 -13.264  1.00  0.00     0.134 A 
ATOM     73  F   UNL     1      -5.893   3.637 -11.803  1.00  0.00    -0.206 F 
ATOM     74  C   UNL     1      -7.296   2.116 -12.911  1.00  0.00     0.040 A 
ATOM     75  C   UNL     1      -6.401   0.046 -13.755  1.00  0.00     0.040 A 
ATOM     76  F   UNL     1      -4.133  -0.466 -13.447  1.00  0.00    -0.206 F 
ATOM     77  C   UNL     1      -7.484   0.905 -13.574  1.00  0.00     0.006 A 
ENDBRANCH  56  70
BRANCH  57  78
ATOM     78  C   UNL     1       4.022   3.865  -8.809  1.00  0.00     0.057 A 
ATOM     79  C   UNL     1       4.588   5.138  -8.942  1.00  0.00     0.134 A 
ATOM     80  C   UNL     1       4.790   2.882  -8.173  1.00  0.00     0.134 A 
ATOM     81  F   UNL     1       3.912   6.115  -9.565  1.00  0.00    -0.206 F 
ATOM     82  C   UNL     1       5.875   5.419  -8.479  1.00  0.00     0.040 A 
ATOM     83  C   UNL     1       6.068   3.155  -7.684  1.00  0.00     0.040 A 
ATOM     84  F   UNL     1       4.306   1.641  -8.017  1.00  0.00    -0.206 F 
ATOM     85  C   UNL     1       6.617   4.425  -7.843  1.00  0.00     0.006 A 
ENDBRANCH  57  78
BRANCH  69  86
ATOM     86  C   UNL     1       1.511   3.414 -15.289  1.00  0.00     0.057 A 
ATOM     87  C   UNL     1       2.400   2.490 -15.850  1.00  0.00     0.134 A 
ATOM     88  C   UNL     1       1.173   4.537 -16.057  1.00  0.00     0.134 A 
ATOM     89  F   UNL     1       2.772   1.400 -15.162  1.00  0.00    -0.206 F 
ATOM     90  C   UNL     1       2.945   2.683 -17.121  1.00  0.00     0.040 A 
ATOM     91  C   UNL     1       1.692   4.727 -17.338  1.00  0.00     0.040 A 
ATOM     92  F   UNL     1       0.318   5.455 -15.582  1.00  0.00    -0.206 F 
ATOM     93  C   UNL     1       2.585   3.800 -17.872  1.00  0.00     0.006 A 
ENDBRANCH  69  86
ENDBRANCH  43  44
ENDBRANCH  36  38
ENDBRANCH  35  36
ENDBRANCH  34  35
ENDBRANCH  33  34
ENDBRANCH  32  33
ENDBRANCH  31  32
ENDBRANCH  30  31
ENDBRANCH  29  30
ENDBRANCH   1  29
TORSDOF 24
