REMARK SMILES O=C(OCCOCCOCCOCCOC(=O)c1ccn(-c2cc(-c3ccncc3)nc(-c3ccccc3F)n2)n1)c1ccc(-c2c3nc(c(-c4c(F)cccc4F)c4ccc([nH]4)c(-c4c(F)cccc4F)c4nc(c(-c5c(F)cccc5F)c5ccc2[nH]5)C=C4)C=C3)cc1
REMARK SMILES IDX 9 1 8 2 7 3 6 4 5 5 4 6 3 7 2 8 1 9 42 10 43 11 95 12 44 13
REMARK SMILES IDX 94 14 45 15 46 16 47 17 88 18 48 19 93 20 87 21 89 22 49 23
REMARK SMILES IDX 92 24 86 25 85 26 50 28 76 29 59 30 75 31 60 32 63 33 74 34
REMARK SMILES IDX 90 35 61 36 62 37 73 39 91 40 64 41 51 42 52 43 57 44 53 45
REMARK SMILES IDX 54 46 56 47 58 48 55 49 77 50 78 51 83 52 79 53 80 54 82 55
REMARK SMILES IDX 84 56 81 57 65 58 66 59 71 60 67 61 68 62 70 63 72 64 69 65
REMARK SMILES IDX 10 66 11 67 12 68 13 69 14 70 15 71 16 72 17 73 18 74 19 75
REMARK SMILES IDX 41 76 20 77 21 78 22 79 23 80 40 81 24 82 32 83 31 84 25 85
REMARK SMILES IDX 26 86 30 87 27 88 29 89 28 90 33 91 34 92 38 93 35 94 37 95
REMARK SMILES IDX 39 96 36 97
REMARK H PARENT 89 27 63 38
REMARK Flexibility Score: inf
ROOT
ATOM      1  O   UNL     1       2.727   0.301   3.151  1.00  0.00    -0.377 OA
ENDROOT
BRANCH   1   2
ATOM      2  C   UNL     1       2.241   0.020   1.852  1.00  0.00     0.188 C 
BRANCH   2   3
ATOM      3  C   UNL     1       2.912  -1.147   1.110  1.00  0.00     0.188 C 
BRANCH   3   4
ATOM      4  O   UNL     1       4.217  -1.139   0.553  1.00  0.00    -0.376 OA
BRANCH   4   5
ATOM      5  C   UNL     1       4.969  -0.042   0.091  1.00  0.00     0.202 C 
BRANCH   5   6
ATOM      6  C   UNL     1       4.432   1.034  -0.850  1.00  0.00     0.261 C 
BRANCH   6   7
ATOM      7  O   UNL     1       3.061   1.385  -0.714  1.00  0.00    -0.460 OA
BRANCH   7   8
ATOM      8  C   UNL     1       1.962   0.832  -1.261  1.00  0.00     0.338 C 
ATOM      9  O   UNL     1       0.874   1.356  -1.022  1.00  0.00    -0.246 OA
BRANCH   8  10
ATOM     10  C   UNL     1       1.955  -0.424  -2.059  1.00  0.00     0.060 A 
ATOM     11  C   UNL     1       3.041  -0.979  -2.733  1.00  0.00     0.016 A 
ATOM     12  C   UNL     1       0.698  -1.055  -2.170  1.00  0.00     0.016 A 
ATOM     13  C   UNL     1       2.847  -2.022  -3.623  1.00  0.00     0.010 A 
ATOM     14  C   UNL     1       0.504  -2.117  -3.038  1.00  0.00     0.010 A 
ATOM     15  C   UNL     1       1.566  -2.534  -3.826  1.00  0.00    -0.014 A 
BRANCH  15  16
ATOM     16  C   UNL     1       1.402  -3.459  -4.934  1.00  0.00     0.031 A 
ATOM     17  C   UNL     1       2.193  -4.715  -4.866  1.00  0.00     0.074 A 
ATOM     18  C   UNL     1       0.603  -3.180  -5.981  1.00  0.00     0.049 A 
ATOM     19  N   UNL     1       3.149  -5.103  -5.648  1.00  0.00    -0.248 NA
ATOM     20  C   UNL     1       1.940  -5.611  -3.730  1.00  0.00     0.031 C 
ATOM     21  C   UNL     1      -0.412  -2.131  -6.112  1.00  0.00     0.029 A 
ATOM     22  N   UNL     1       0.502  -3.856  -7.156  1.00  0.00    -0.354 N 
ATOM     23  C   UNL     1       3.521  -6.368  -5.200  1.00  0.00     0.074 A 
ATOM     24  C   UNL     1       2.815  -6.590  -3.963  1.00  0.00     0.031 C 
ATOM     25  C   UNL     1      -1.169  -2.379  -7.205  1.00  0.00     0.029 A 
ATOM     26  C   UNL     1      -0.592  -3.499  -7.926  1.00  0.00     0.049 A 
ATOM     27  H   UNL     1       1.152  -4.540  -7.436  1.00  0.00     0.167 HD
ATOM     28  C   UNL     1       4.264  -7.220  -5.956  1.00  0.00     0.037 A 
ATOM     29  C   UNL     1      -1.018  -4.130  -9.045  1.00  0.00     0.037 A 
ATOM     30  C   UNL     1       4.976  -6.538  -7.000  1.00  0.00     0.049 A 
ATOM     31  C   UNL     1       0.130  -4.894  -9.591  1.00  0.00     0.074 A 
ATOM     32  C   UNL     1       5.970  -5.581  -7.025  1.00  0.00     0.029 A 
ATOM     33  N   UNL     1       4.463  -6.572  -8.272  1.00  0.00    -0.354 N 
ATOM     34  N   UNL     1       1.193  -4.347 -10.112  1.00  0.00    -0.248 NA
ATOM     35  C   UNL     1       0.279  -6.281  -9.179  1.00  0.00     0.031 C 
ATOM     36  C   UNL     1       5.663  -4.760  -8.147  1.00  0.00     0.029 A 
ATOM     37  C   UNL     1       4.526  -5.291  -8.757  1.00  0.00     0.049 A 
ATOM     38  H   UNL     1       4.116  -7.363  -8.745  1.00  0.00     0.167 HD
ATOM     39  C   UNL     1       2.241  -5.169  -9.727  1.00  0.00     0.074 A 
ATOM     40  C   UNL     1       1.608  -6.389  -9.236  1.00  0.00     0.031 C 
ATOM     41  C   UNL     1       3.510  -4.688  -9.590  1.00  0.00     0.037 A 
BRANCH  28  42
ATOM     42  C   UNL     1       4.127  -8.716  -5.911  1.00  0.00     0.057 A 
ATOM     43  C   UNL     1       2.934  -9.366  -5.536  1.00  0.00     0.134 A 
ATOM     44  C   UNL     1       5.101  -9.538  -6.504  1.00  0.00     0.134 A 
ATOM     45  F   UNL     1       1.877  -8.689  -5.068  1.00  0.00    -0.206 F 
ATOM     46  C   UNL     1       2.730 -10.736  -5.714  1.00  0.00     0.040 A 
ATOM     47  C   UNL     1       4.888 -10.903  -6.732  1.00  0.00     0.040 A 
ATOM     48  F   UNL     1       6.262  -9.026  -6.940  1.00  0.00    -0.206 F 
ATOM     49  C   UNL     1       3.700 -11.507  -6.336  1.00  0.00     0.006 A 
ENDBRANCH  28  42
BRANCH  29  50
ATOM     50  C   UNL     1      -2.416  -4.408  -9.441  1.00  0.00     0.057 A 
ATOM     51  C   UNL     1      -3.441  -4.538  -8.486  1.00  0.00     0.134 A 
ATOM     52  C   UNL     1      -2.722  -4.843 -10.737  1.00  0.00     0.134 A 
ATOM     53  F   UNL     1      -3.238  -4.218  -7.200  1.00  0.00    -0.206 F 
ATOM     54  C   UNL     1      -4.686  -5.093  -8.795  1.00  0.00     0.040 A 
ATOM     55  C   UNL     1      -3.962  -5.409 -11.059  1.00  0.00     0.040 A 
ATOM     56  F   UNL     1      -1.796  -4.794 -11.707  1.00  0.00    -0.206 F 
ATOM     57  C   UNL     1      -4.944  -5.548 -10.082  1.00  0.00     0.006 A 
ENDBRANCH  29  50
BRANCH  41  58
ATOM     58  C   UNL     1       3.805  -3.302 -10.094  1.00  0.00     0.057 A 
ATOM     59  C   UNL     1       4.830  -3.131 -11.033  1.00  0.00     0.134 A 
ATOM     60  C   UNL     1       3.257  -2.139  -9.533  1.00  0.00     0.134 A 
ATOM     61  F   UNL     1       5.439  -4.200 -11.569  1.00  0.00    -0.206 F 
ATOM     62  C   UNL     1       5.298  -1.865 -11.390  1.00  0.00     0.040 A 
ATOM     63  C   UNL     1       3.695  -0.864  -9.907  1.00  0.00     0.040 A 
ATOM     64  F   UNL     1       2.339  -2.204  -8.561  1.00  0.00    -0.206 F 
ATOM     65  C   UNL     1       4.729  -0.725 -10.829  1.00  0.00     0.006 A 
ENDBRANCH  41  58
ENDBRANCH  15  16
ENDBRANCH   8  10
ENDBRANCH   7   8
ENDBRANCH   6   7
ENDBRANCH   5   6
ENDBRANCH   4   5
ENDBRANCH   3   4
ENDBRANCH   2   3
ENDBRANCH   1   2
BRANCH   1  66
ATOM     66  C   UNL     1       4.039   0.815   3.178  1.00  0.00     0.188 C 
BRANCH  66  67
ATOM     67  C   UNL     1       5.106  -0.194   3.650  1.00  0.00     0.188 C 
BRANCH  67  68
ATOM     68  O   UNL     1       4.756  -1.504   4.082  1.00  0.00    -0.376 OA
BRANCH  68  69
ATOM     69  C   UNL     1       3.527  -1.757   4.744  1.00  0.00     0.202 C 
BRANCH  69  70
ATOM     70  C   UNL     1       3.178  -0.991   6.027  1.00  0.00     0.261 C 
BRANCH  70  71
ATOM     71  O   UNL     1       3.439   0.418   5.991  1.00  0.00    -0.458 OA
BRANCH  71  72
ATOM     72  C   UNL     1       4.582   0.830   6.610  1.00  0.00     0.358 C 
ATOM     73  O   UNL     1       5.321   0.108   7.272  1.00  0.00    -0.244 OA
BRANCH  72  74
ATOM     74  C   UNL     1       4.864   2.250   6.364  1.00  0.00     0.170 A 
ATOM     75  C   UNL     1       4.303   3.349   7.057  1.00  0.00     0.058 A 
ATOM     76  N   UNL     1       5.721   2.669   5.404  1.00  0.00    -0.159 NA
ATOM     77  C   UNL     1       4.998   4.443   6.605  1.00  0.00     0.118 A 
ATOM     78  N   UNL     1       5.846   3.998   5.622  1.00  0.00    -0.222 N 
BRANCH  78  79
ATOM     79  C   UNL     1       6.834   4.779   4.971  1.00  0.00     0.158 A 
ATOM     80  C   UNL     1       6.804   4.904   3.595  1.00  0.00     0.078 A 
ATOM     81  N   UNL     1       7.719   5.417   5.763  1.00  0.00    -0.209 NA
ATOM     82  C   UNL     1       7.731   5.780   3.060  1.00  0.00     0.077 A 
ATOM     83  C   UNL     1       8.644   6.153   5.135  1.00  0.00     0.165 A 
ATOM     84  N   UNL     1       8.686   6.368   3.812  1.00  0.00    -0.228 NA
BRANCH  82  85
ATOM     85  C   UNL     1       7.718   6.221   1.657  1.00  0.00     0.003 A 
ATOM     86  C   UNL     1       6.602   6.865   1.108  1.00  0.00     0.030 A 
ATOM     87  C   UNL     1       8.861   6.106   0.856  1.00  0.00     0.030 A 
ATOM     88  C   UNL     1       6.674   7.348  -0.191  1.00  0.00     0.111 A 
ATOM     89  C   UNL     1       8.834   6.612  -0.435  1.00  0.00     0.111 A 
ATOM     90  N   UNL     1       7.761   7.222  -0.979  1.00  0.00    -0.265 NA
ENDBRANCH  82  85
BRANCH  83  91
ATOM     91  C   UNL     1       9.727   6.681   5.946  1.00  0.00     0.055 A 
ATOM     92  C   UNL     1      10.670   5.819   6.537  1.00  0.00     0.015 A 
ATOM     93  C   UNL     1       9.853   8.052   6.176  1.00  0.00     0.134 A 
ATOM     94  C   UNL     1      11.705   6.325   7.328  1.00  0.00     0.001 A 
ATOM     95  C   UNL     1      10.878   8.563   6.970  1.00  0.00     0.040 A 
ATOM     96  F   UNL     1       8.963   8.910   5.654  1.00  0.00    -0.206 F 
ATOM     97  C   UNL     1      11.808   7.698   7.545  1.00  0.00     0.003 A 
ENDBRANCH  83  91
ENDBRANCH  78  79
ENDBRANCH  72  74
ENDBRANCH  71  72
ENDBRANCH  70  71
ENDBRANCH  69  70
ENDBRANCH  68  69
ENDBRANCH  67  68
ENDBRANCH  66  67
ENDBRANCH   1  66
TORSDOF 23
