REMARK SMILES CC(C)CSc1cc2c(cc1Cl)C=C(C(=O)OCCOCCOCCOCCOC(=O)c1ccc(-c3c4nc(c(-c5c(F)cccc5F)c5ccc([nH]5)c(-c5c(F)cccc5F)c5nc(c(-c6c(F)cccc6F)c6ccc3[nH]6)C=C5)C=C4)cc1)[C@H](C(F)(F)F)O2
REMARK SMILES IDX 22 1 21 2 20 3 19 4 18 5 17 6 15 7 16 8 14 9 6 10 7 11 11 12
REMARK SMILES IDX 8 13 10 14 12 15 9 16 91 17 13 18 86 19 5 20 4 21 2 22 1 23
REMARK SMILES IDX 3 24 87 25 88 26 89 27 90 28 23 29 24 30 25 31 26 32 27 33
REMARK SMILES IDX 28 34 29 35 30 36 31 37 32 38 33 39 85 40 34 41 84 42 35 43
REMARK SMILES IDX 36 44 37 45 78 46 38 47 83 48 77 49 79 50 39 51 82 52 76 53
REMARK SMILES IDX 75 54 40 56 66 57 49 58 65 59 50 60 53 61 64 62 80 63 51 64
REMARK SMILES IDX 52 65 63 67 81 68 54 69 41 70 42 71 47 72 43 73 44 74 46 75
REMARK SMILES IDX 48 76 45 77 67 78 68 79 73 80 69 81 70 82 72 83 74 84 71 85
REMARK SMILES IDX 55 86 56 87 61 88 57 89 58 90 60 91 62 92 59 93
REMARK H PARENT 79 55 53 66
REMARK Flexibility Score: inf
ROOT
ATOM      1  C   UNL     1       2.648   0.657  -7.306  1.00  0.00     0.188 C 
ENDROOT
BRANCH   1   2
ATOM      2  C   UNL     1       1.814   0.234  -8.519  1.00  0.00     0.188 C 
BRANCH   2   3
ATOM      3  O   UNL     1       1.966   0.972  -9.716  1.00  0.00    -0.376 OA
BRANCH   3   4
ATOM      4  C   UNL     1       1.298   2.219  -9.880  1.00  0.00     0.202 C 
BRANCH   4   5
ATOM      5  C   UNL     1      -0.019   2.559  -9.161  1.00  0.00     0.261 C 
BRANCH   5   6
ATOM      6  O   UNL     1       0.010   2.420  -7.729  1.00  0.00    -0.460 OA
BRANCH   6   7
ATOM      7  C   UNL     1      -0.929   1.597  -7.212  1.00  0.00     0.338 C 
ATOM      8  O   UNL     1      -1.819   1.036  -7.835  1.00  0.00    -0.246 OA
BRANCH   7   9
ATOM      9  C   UNL     1      -0.706   1.329  -5.783  1.00  0.00     0.087 C 
ATOM     10  C   UNL     1      -1.287  -1.101  -1.421  1.00  0.00     0.030 A 
ATOM     11  C   UNL     1      -1.560   0.202  -1.870  1.00  0.00     0.063 A 
ATOM     12  C   UNL     1      -0.729  -2.021  -2.329  1.00  0.00     0.055 A 
ATOM     13  C   UNL     1      -1.249   0.591  -3.176  1.00  0.00     0.129 A 
ATOM     14  C   UNL     1      -0.430  -1.634  -3.640  1.00  0.00     0.033 A 
ATOM     15  Cl  UNL     1      -0.385  -3.666  -1.905  1.00  0.00    -0.083 Cl
ATOM     16  C   UNL     1      -0.691  -0.329  -4.065  1.00  0.00     0.019 A 
ATOM     17  O   UNL     1      -1.593   1.869  -3.537  1.00  0.00    -0.475 OA
ATOM     18  C   UNL     1      -0.530   0.040  -5.460  1.00  0.00     0.027 C 
ATOM     19  C   UNL     1      -1.023   2.395  -4.777  1.00  0.00     0.316 C 
BRANCH  10  20
ATOM     20  S   UNL     1      -1.702  -1.580   0.257  1.00  0.00    -0.124 SA
BRANCH  20  21
ATOM     21  C   UNL     1      -0.996  -0.225   1.264  1.00  0.00     0.078 C 
BRANCH  21  22
ATOM     22  C   UNL     1       0.532  -0.258   1.446  1.00  0.00    -0.007 C 
ATOM     23  C   UNL     1       1.312   0.099   0.179  1.00  0.00     0.008 C 
ATOM     24  C   UNL     1       0.919   0.724   2.558  1.00  0.00     0.008 C 
ENDBRANCH  21  22
ENDBRANCH  20  21
ENDBRANCH  10  20
BRANCH  19  25
ATOM     25  C   UNL     1       0.130   3.356  -4.437  1.00  0.00     0.430 C 
ATOM     26  F   UNL     1       0.983   2.838  -3.524  1.00  0.00    -0.167 F 
ATOM     27  F   UNL     1       0.854   3.720  -5.515  1.00  0.00    -0.167 F 
ATOM     28  F   UNL     1      -0.366   4.506  -3.911  1.00  0.00    -0.167 F 
ENDBRANCH  19  25
ENDBRANCH   7   9
ENDBRANCH   6   7
ENDBRANCH   5   6
ENDBRANCH   4   5
ENDBRANCH   3   4
ENDBRANCH   2   3
ENDBRANCH   1   2
BRANCH   1  29
ATOM     29  O   UNL     1       2.601   2.025  -6.939  1.00  0.00    -0.377 OA
BRANCH  29  30
ATOM     30  C   UNL     1       3.548   2.933  -7.501  1.00  0.00     0.188 C 
BRANCH  30  31
ATOM     31  C   UNL     1       4.733   2.383  -8.309  1.00  0.00     0.188 C 
BRANCH  31  32
ATOM     32  O   UNL     1       5.619   1.461  -7.671  1.00  0.00    -0.376 OA
BRANCH  32  33
ATOM     33  C   UNL     1       5.784   1.527  -6.257  1.00  0.00     0.202 C 
BRANCH  33  34
ATOM     34  C   UNL     1       6.844   2.518  -5.793  1.00  0.00     0.261 C 
BRANCH  34  35
ATOM     35  O   UNL     1       6.387   3.867  -5.955  1.00  0.00    -0.460 OA
BRANCH  35  36
ATOM     36  C   UNL     1       6.869   4.523  -7.038  1.00  0.00     0.338 C 
ATOM     37  O   UNL     1       7.674   4.125  -7.853  1.00  0.00    -0.246 OA
BRANCH  36  38
ATOM     38  C   UNL     1       6.132   5.796  -7.167  1.00  0.00     0.060 A 
ATOM     39  C   UNL     1       5.873   6.588  -6.046  1.00  0.00     0.016 A 
ATOM     40  C   UNL     1       5.731   6.210  -8.443  1.00  0.00     0.016 A 
ATOM     41  C   UNL     1       5.244   7.819  -6.210  1.00  0.00     0.010 A 
ATOM     42  C   UNL     1       5.109   7.447  -8.607  1.00  0.00     0.010 A 
ATOM     43  C   UNL     1       4.891   8.271  -7.493  1.00  0.00    -0.014 A 
BRANCH  43  44
ATOM     44  C   UNL     1       4.460   9.675  -7.668  1.00  0.00     0.031 A 
ATOM     45  C   UNL     1       3.032  10.034  -7.928  1.00  0.00     0.074 A 
ATOM     46  C   UNL     1       5.401  10.633  -7.572  1.00  0.00     0.049 A 
ATOM     47  N   UNL     1       2.486  11.221  -7.998  1.00  0.00    -0.248 NA
ATOM     48  C   UNL     1       2.097   8.921  -8.142  1.00  0.00     0.031 C 
ATOM     49  C   UNL     1       6.829  10.386  -7.354  1.00  0.00     0.029 A 
ATOM     50  N   UNL     1       5.302  11.998  -7.627  1.00  0.00    -0.354 N 
ATOM     51  C   UNL     1       1.137  11.003  -8.239  1.00  0.00     0.074 A 
ATOM     52  C   UNL     1       0.960   9.569  -8.360  1.00  0.00     0.031 C 
ATOM     53  C   UNL     1       7.466  11.562  -7.253  1.00  0.00     0.029 A 
ATOM     54  C   UNL     1       6.501  12.640  -7.435  1.00  0.00     0.049 A 
ATOM     55  H   UNL     1       4.455  12.472  -7.788  1.00  0.00     0.167 HD
ATOM     56  C   UNL     1       0.141  11.918  -8.333  1.00  0.00     0.037 A 
ATOM     57  C   UNL     1       6.787  13.954  -7.406  1.00  0.00     0.037 A 
ATOM     58  C   UNL     1       0.340  13.344  -8.248  1.00  0.00     0.049 A 
ATOM     59  C   UNL     1       5.671  14.944  -7.581  1.00  0.00     0.074 A 
ATOM     60  C   UNL     1      -0.605  14.354  -8.310  1.00  0.00     0.029 A 
ATOM     61  N   UNL     1       1.574  13.965  -8.104  1.00  0.00    -0.354 N 
ATOM     62  N   UNL     1       4.386  14.726  -7.729  1.00  0.00    -0.248 NA
ATOM     63  C   UNL     1       6.045  16.364  -7.579  1.00  0.00     0.031 C 
ATOM     64  C   UNL     1       0.062  15.584  -8.266  1.00  0.00     0.029 A 
ATOM     65  C   UNL     1       1.417  15.342  -8.108  1.00  0.00     0.049 A 
ATOM     66  H   UNL     1       2.434  13.495  -8.012  1.00  0.00     0.167 HD
ATOM     67  C   UNL     1       3.795  15.980  -7.805  1.00  0.00     0.074 A 
ATOM     68  C   UNL     1       4.861  16.952  -7.668  1.00  0.00     0.031 C 
ATOM     69  C   UNL     1       2.488  16.299  -7.972  1.00  0.00     0.037 A 
BRANCH  56  70
ATOM     70  C   UNL     1      -1.252  11.400  -8.554  1.00  0.00     0.057 A 
ATOM     71  C   UNL     1      -1.927  11.639  -9.757  1.00  0.00     0.134 A 
ATOM     72  C   UNL     1      -1.940  10.688  -7.561  1.00  0.00     0.134 A 
ATOM     73  F   UNL     1      -1.334  12.323 -10.747  1.00  0.00    -0.206 F 
ATOM     74  C   UNL     1      -3.231  11.187  -9.967  1.00  0.00     0.040 A 
ATOM     75  C   UNL     1      -3.234  10.206  -7.770  1.00  0.00     0.040 A 
ATOM     76  F   UNL     1      -1.351  10.418  -6.386  1.00  0.00    -0.206 F 
ATOM     77  C   UNL     1      -3.885  10.460  -8.975  1.00  0.00     0.006 A 
ENDBRANCH  56  70
BRANCH  57  78
ATOM     78  C   UNL     1       8.183  14.411  -7.192  1.00  0.00     0.057 A 
ATOM     79  C   UNL     1       9.177  14.193  -8.153  1.00  0.00     0.134 A 
ATOM     80  C   UNL     1       8.549  15.102  -6.031  1.00  0.00     0.134 A 
ATOM     81  F   UNL     1       8.894  13.526  -9.282  1.00  0.00    -0.206 F 
ATOM     82  C   UNL     1      10.483  14.649  -7.971  1.00  0.00     0.040 A 
ATOM     83  C   UNL     1       9.844  15.591  -5.849  1.00  0.00     0.040 A 
ATOM     84  F   UNL     1       7.638  15.353  -5.079  1.00  0.00    -0.206 F 
ATOM     85  C   UNL     1      10.816  15.362  -6.821  1.00  0.00     0.006 A 
ENDBRANCH  57  78
BRANCH  69  86
ATOM     86  C   UNL     1       2.139  17.761  -7.974  1.00  0.00     0.057 A 
ATOM     87  C   UNL     1       1.413  18.320  -6.915  1.00  0.00     0.134 A 
ATOM     88  C   UNL     1       2.509  18.614  -9.023  1.00  0.00     0.134 A 
ATOM     89  F   UNL     1       1.021  17.559  -5.881  1.00  0.00    -0.206 F 
ATOM     90  C   UNL     1       1.068  19.671  -6.897  1.00  0.00     0.040 A 
ATOM     91  C   UNL     1       2.198  19.975  -9.001  1.00  0.00     0.040 A 
ATOM     92  F   UNL     1       3.219  18.148 -10.061  1.00  0.00    -0.206 F 
ATOM     93  C   UNL     1       1.469  20.505  -7.938  1.00  0.00     0.006 A 
ENDBRANCH  69  86
ENDBRANCH  43  44
ENDBRANCH  36  38
ENDBRANCH  35  36
ENDBRANCH  34  35
ENDBRANCH  33  34
ENDBRANCH  32  33
ENDBRANCH  31  32
ENDBRANCH  30  31
ENDBRANCH  29  30
ENDBRANCH   1  29
TORSDOF 24
