REMARK SMILES O=C(OCCOCCOCCOCCOC(=O)[C@@H](CCCCl)P(=O)(c1ccccc1)c1ccccc1)c1ccc(-c2c3nc(c(-c4c(F)cccc4F)c4ccc([nH]4)c(-c4c(F)cccc4F)c4nc(c(-c5c(F)cccc5F)c5ccc2[nH]5)C=C4)C=C3)cc1
REMARK SMILES IDX 10 1 9 2 8 3 7 4 6 5 5 6 4 7 3 8 2 9 1 10 37 11 38 12 90 13
REMARK SMILES IDX 39 14 89 15 40 16 41 17 42 18 83 19 43 20 88 21 82 22 84 23
REMARK SMILES IDX 44 24 87 25 81 26 80 27 45 29 71 30 54 31 70 32 55 33 58 34
REMARK SMILES IDX 69 35 85 36 56 37 57 38 68 40 86 41 59 42 46 43 47 44 52 45
REMARK SMILES IDX 48 46 49 47 51 48 53 49 50 50 72 51 73 52 78 53 74 54 75 55
REMARK SMILES IDX 77 56 79 57 76 58 60 59 61 60 66 61 62 62 63 63 65 64 67 65
REMARK SMILES IDX 64 66 11 67 12 68 13 69 14 70 15 71 16 72 17 73 18 74 19 75
REMARK SMILES IDX 20 76 21 77 22 78 23 79 24 80 25 81 26 82 30 83 27 84 29 85
REMARK SMILES IDX 28 86 31 87 32 88 36 89 33 90 35 91 34 92
REMARK H PARENT 84 28 58 39
REMARK Flexibility Score: inf
ROOT
ATOM      1  C   UNL     1       4.693  -0.356   3.311  1.00  0.00     0.188 C 
ENDROOT
BRANCH   1   2
ATOM      2  O   UNL     1       3.349   0.033   3.593  1.00  0.00    -0.377 OA
BRANCH   2   3
ATOM      3  C   UNL     1       2.338  -0.226   2.622  1.00  0.00     0.188 C 
BRANCH   3   4
ATOM      4  C   UNL     1       2.591   0.411   1.267  1.00  0.00     0.188 C 
BRANCH   4   5
ATOM      5  O   UNL     1       3.884   0.059   0.806  1.00  0.00    -0.376 OA
BRANCH   5   6
ATOM      6  C   UNL     1       4.691   1.105   0.287  1.00  0.00     0.202 C 
BRANCH   6   7
ATOM      7  C   UNL     1       4.201   1.691  -1.031  1.00  0.00     0.261 C 
BRANCH   7   8
ATOM      8  O   UNL     1       2.863   1.317  -1.411  1.00  0.00    -0.460 OA
BRANCH   8   9
ATOM      9  C   UNL     1       2.369   0.220  -2.027  1.00  0.00     0.338 C 
ATOM     10  O   UNL     1       1.190   0.248  -2.381  1.00  0.00    -0.246 OA
BRANCH   9  11
ATOM     11  C   UNL     1       3.120  -1.045  -2.288  1.00  0.00     0.060 A 
ATOM     12  C   UNL     1       4.209  -1.503  -1.555  1.00  0.00     0.016 A 
ATOM     13  C   UNL     1       2.602  -1.907  -3.273  1.00  0.00     0.016 A 
ATOM     14  C   UNL     1       4.769  -2.751  -1.752  1.00  0.00     0.010 A 
ATOM     15  C   UNL     1       3.165  -3.168  -3.500  1.00  0.00     0.010 A 
ATOM     16  C   UNL     1       4.257  -3.583  -2.733  1.00  0.00    -0.014 A 
BRANCH  16  17
ATOM     17  C   UNL     1       5.041  -4.785  -3.035  1.00  0.00     0.031 A 
ATOM     18  C   UNL     1       5.964  -4.716  -4.208  1.00  0.00     0.074 A 
ATOM     19  C   UNL     1       5.064  -5.806  -2.160  1.00  0.00     0.049 A 
ATOM     20  N   UNL     1       6.703  -5.649  -4.736  1.00  0.00    -0.248 NA
ATOM     21  C   UNL     1       6.094  -3.399  -4.864  1.00  0.00     0.031 C 
ATOM     22  C   UNL     1       4.347  -5.841  -0.881  1.00  0.00     0.029 A 
ATOM     23  N   UNL     1       5.738  -6.994  -2.196  1.00  0.00    -0.354 N 
ATOM     24  C   UNL     1       7.343  -5.049  -5.811  1.00  0.00     0.074 A 
ATOM     25  C   UNL     1       6.935  -3.666  -5.850  1.00  0.00     0.031 C 
ATOM     26  C   UNL     1       4.614  -7.002  -0.261  1.00  0.00     0.029 A 
ATOM     27  C   UNL     1       5.447  -7.817  -1.135  1.00  0.00     0.049 A 
ATOM     28  H   UNL     1       6.370  -7.236  -2.911  1.00  0.00     0.167 HD
ATOM     29  C   UNL     1       8.177  -5.632  -6.699  1.00  0.00     0.037 A 
ATOM     30  C   UNL     1       5.771  -9.109  -0.948  1.00  0.00     0.037 A 
ATOM     31  C   UNL     1       8.553  -7.014  -6.611  1.00  0.00     0.049 A 
ATOM     32  C   UNL     1       6.587  -9.773  -2.027  1.00  0.00     0.074 A 
ATOM     33  C   UNL     1       9.327  -7.760  -7.475  1.00  0.00     0.029 A 
ATOM     34  N   UNL     1       8.164  -7.858  -5.577  1.00  0.00    -0.354 N 
ATOM     35  N   UNL     1       7.123  -9.242  -3.102  1.00  0.00    -0.248 NA
ATOM     36  C   UNL     1       6.820 -11.215  -1.889  1.00  0.00     0.031 C 
ATOM     37  C   UNL     1       9.361  -9.072  -6.992  1.00  0.00     0.029 A 
ATOM     38  C   UNL     1       8.654  -9.129  -5.798  1.00  0.00     0.049 A 
ATOM     39  H   UNL     1       7.620  -7.589  -4.802  1.00  0.00     0.167 HD
ATOM     40  C   UNL     1       7.765 -10.278  -3.763  1.00  0.00     0.074 A 
ATOM     41  C   UNL     1       7.575 -11.464  -2.949  1.00  0.00     0.031 C 
ATOM     42  C   UNL     1       8.439 -10.267  -4.940  1.00  0.00     0.037 A 
BRANCH  29  43
ATOM     43  C   UNL     1       8.621  -4.809  -7.867  1.00  0.00     0.057 A 
ATOM     44  C   UNL     1       9.572  -3.788  -7.756  1.00  0.00     0.134 A 
ATOM     45  C   UNL     1       8.054  -5.031  -9.129  1.00  0.00     0.134 A 
ATOM     46  F   UNL     1      10.123  -3.497  -6.568  1.00  0.00    -0.206 F 
ATOM     47  C   UNL     1       9.937  -3.011  -8.858  1.00  0.00     0.040 A 
ATOM     48  C   UNL     1       8.425  -4.275 -10.241  1.00  0.00     0.040 A 
ATOM     49  F   UNL     1       7.120  -5.980  -9.298  1.00  0.00    -0.206 F 
ATOM     50  C   UNL     1       9.367  -3.258 -10.107  1.00  0.00     0.006 A 
ENDBRANCH  29  43
BRANCH  30  51
ATOM     51  C   UNL     1       5.238  -9.878   0.209  1.00  0.00     0.057 A 
ATOM     52  C   UNL     1       6.086 -10.481   1.145  1.00  0.00     0.134 A 
ATOM     53  C   UNL     1       3.860 -10.085   0.372  1.00  0.00     0.134 A 
ATOM     54  F   UNL     1       7.415 -10.343   1.040  1.00  0.00    -0.206 F 
ATOM     55  C   UNL     1       5.589 -11.284   2.176  1.00  0.00     0.040 A 
ATOM     56  C   UNL     1       3.348 -10.857   1.416  1.00  0.00     0.040 A 
ATOM     57  F   UNL     1       2.985  -9.542  -0.487  1.00  0.00    -0.206 F 
ATOM     58  C   UNL     1       4.215 -11.473   2.314  1.00  0.00     0.006 A 
ENDBRANCH  30  51
BRANCH  42  59
ATOM     59  C   UNL     1       9.032 -11.567  -5.384  1.00  0.00     0.057 A 
ATOM     60  C   UNL     1       8.236 -12.603  -5.886  1.00  0.00     0.134 A 
ATOM     61  C   UNL     1      10.419 -11.754  -5.366  1.00  0.00     0.134 A 
ATOM     62  F   UNL     1       6.900 -12.483  -5.913  1.00  0.00    -0.206 F 
ATOM     63  C   UNL     1       8.802 -13.792  -6.342  1.00  0.00     0.040 A 
ATOM     64  C   UNL     1      10.998 -12.926  -5.849  1.00  0.00     0.040 A 
ATOM     65  F   UNL     1      11.232 -10.791  -4.906  1.00  0.00    -0.206 F 
ATOM     66  C   UNL     1      10.187 -13.951  -6.334  1.00  0.00     0.006 A 
ENDBRANCH  42  59
ENDBRANCH  16  17
ENDBRANCH   9  11
ENDBRANCH   8   9
ENDBRANCH   7   8
ENDBRANCH   6   7
ENDBRANCH   5   6
ENDBRANCH   4   5
ENDBRANCH   3   4
ENDBRANCH   2   3
ENDBRANCH   1   2
BRANCH   1  67
ATOM     67  C   UNL     1       5.007  -1.772   2.788  1.00  0.00     0.188 C 
BRANCH  67  68
ATOM     68  O   UNL     1       3.884  -2.616   2.569  1.00  0.00    -0.376 OA
BRANCH  68  69
ATOM     69  C   UNL     1       3.699  -3.633   3.544  1.00  0.00     0.202 C 
BRANCH  69  70
ATOM     70  C   UNL     1       2.857  -3.249   4.774  1.00  0.00     0.261 C 
BRANCH  70  71
ATOM     71  O   UNL     1       3.098  -1.984   5.415  1.00  0.00    -0.463 OA
BRANCH  71  72
ATOM     72  C   UNL     1       4.324  -1.784   5.931  1.00  0.00     0.317 C 
ATOM     73  O   UNL     1       5.285  -2.529   5.734  1.00  0.00    -0.251 OA
BRANCH  72  74
ATOM     74  C   UNL     1       4.412  -0.622   6.907  1.00  0.00     0.169 C 
BRANCH  74  75
ATOM     75  C   UNL     1       3.832   0.763   6.606  1.00  0.00     0.025 C 
BRANCH  75  76
ATOM     76  C   UNL     1       2.363   0.957   6.226  1.00  0.00     0.018 C 
BRANCH  76  77
ATOM     77  C   UNL     1       1.454   1.476   7.328  1.00  0.00     0.109 C 
ATOM     78  Cl  UNL     1       1.924   3.108   7.869  1.00  0.00    -0.127 Cl
ENDBRANCH  76  77
ENDBRANCH  75  76
ENDBRANCH  74  75
BRANCH  74  79
ATOM     79  P   UNL     1       4.376  -1.458   8.509  1.00  0.00     0.156 P 
ATOM     80  O   UNL     1       3.688  -2.801   8.311  1.00  0.00    -0.313 OA
BRANCH  79  81
ATOM     81  C   UNL     1       6.136  -1.635   8.879  1.00  0.00     0.017 A 
ATOM     82  C   UNL     1       6.714  -2.907   8.882  1.00  0.00     0.012 A 
ATOM     83  C   UNL     1       6.949  -0.507   9.079  1.00  0.00     0.012 A 
ATOM     84  C   UNL     1       8.082  -3.054   9.097  1.00  0.00     0.001 A 
ATOM     85  C   UNL     1       8.318  -0.656   9.284  1.00  0.00     0.001 A 
ATOM     86  C   UNL     1       8.882  -1.930   9.298  1.00  0.00     0.000 A 
ENDBRANCH  79  81
BRANCH  79  87
ATOM     87  C   UNL     1       3.695  -0.679   9.952  1.00  0.00     0.017 A 
ATOM     88  C   UNL     1       3.621   0.680  10.242  1.00  0.00     0.012 A 
ATOM     89  C   UNL     1       3.296  -1.595  10.951  1.00  0.00     0.012 A 
ATOM     90  C   UNL     1       3.150   1.103  11.492  1.00  0.00     0.001 A 
ATOM     91  C   UNL     1       2.847  -1.180  12.197  1.00  0.00     0.001 A 
ATOM     92  C   UNL     1       2.773   0.177  12.468  1.00  0.00     0.000 A 
ENDBRANCH  79  87
ENDBRANCH  74  79
ENDBRANCH  72  74
ENDBRANCH  71  72
ENDBRANCH  70  71
ENDBRANCH  69  70
ENDBRANCH  68  69
ENDBRANCH  67  68
ENDBRANCH   1  67
TORSDOF 26
