REMARK SMILES Cc1ccc(N2C(=O)C[C@H](Sc3ccccc3C(=O)OCCOCCOCCOCCOC(=O)c3ccc(-c4c5nc(c(-c6c(F)cccc6F)c6ccc([nH]6)c(-c6c(F)cccc6F)c6nc(c(-c7c(F)cccc7F)c7ccc4[nH]7)C=C6)C=C5)cc3)C2=O)cc1
REMARK SMILES IDX 25 1 24 2 23 3 22 4 21 5 20 6 18 7 19 8 17 9 12 10 13 11
REMARK SMILES IDX 14 12 16 13 15 14 11 15 10 16 6 17 7 18 89 19 8 20 9 21
REMARK SMILES IDX 90 22 5 23 1 24 2 25 3 26 92 27 4 28 91 29 26 30 27 31 28 32
REMARK SMILES IDX 29 33 30 34 31 35 32 36 33 37 34 38 35 39 36 40 88 41 37 42
REMARK SMILES IDX 87 43 38 44 39 45 40 46 81 47 41 48 86 49 80 50 82 51 42 52
REMARK SMILES IDX 85 53 79 54 78 55 43 57 69 58 52 59 68 60 53 61 56 62 67 63
REMARK SMILES IDX 83 64 54 65 55 66 66 68 84 69 57 70 44 71 45 72 50 73 46 74
REMARK SMILES IDX 47 75 49 76 51 77 48 78 70 79 71 80 76 81 72 82 73 83 75 84
REMARK SMILES IDX 77 85 74 86 58 87 59 88 64 89 60 90 61 91 63 92 65 93 62 94
REMARK H PARENT 82 56 56 67
REMARK Flexibility Score: inf
ROOT
ATOM      1  C   UNL     1      -3.375   3.078  -0.245  1.00  0.00     0.188 C 
ENDROOT
BRANCH   1   2
ATOM      2  C   UNL     1      -4.793   2.530  -0.048  1.00  0.00     0.188 C 
BRANCH   2   3
ATOM      3  O   UNL     1      -5.313   1.831  -1.165  1.00  0.00    -0.376 OA
BRANCH   3   4
ATOM      4  C   UNL     1      -6.383   0.912  -0.977  1.00  0.00     0.202 C 
BRANCH   4   5
ATOM      5  C   UNL     1      -7.586   1.249  -0.109  1.00  0.00     0.261 C 
BRANCH   5   6
ATOM      6  O   UNL     1      -7.243   1.999   1.037  1.00  0.00    -0.460 OA
BRANCH   6   7
ATOM      7  C   UNL     1      -7.436   1.386   2.212  1.00  0.00     0.339 C 
ATOM      8  O   UNL     1      -8.153   0.420   2.428  1.00  0.00    -0.246 OA
BRANCH   7   9
ATOM      9  C   UNL     1      -6.355   1.905   3.069  1.00  0.00     0.073 A 
ATOM     10  C   UNL     1      -5.543   1.031   3.818  1.00  0.00     0.023 A 
ATOM     11  C   UNL     1      -4.549   1.612   4.613  1.00  0.00     0.016 A 
ATOM     12  C   UNL     1      -4.302   2.993   4.592  1.00  0.00     0.001 A 
ATOM     13  C   UNL     1      -6.082   3.296   3.023  1.00  0.00     0.017 A 
ATOM     14  C   UNL     1      -5.043   3.833   3.770  1.00  0.00     0.001 A 
BRANCH  10  15
ATOM     15  S   UNL     1      -5.774  -0.745   4.014  1.00  0.00    -0.111 SA
BRANCH  15  16
ATOM     16  C   UNL     1      -4.896  -1.593   2.631  1.00  0.00     0.151 C 
ATOM     17  N   UNL     1      -2.859  -0.802   1.802  1.00  0.00    -0.250 N 
ATOM     18  C   UNL     1      -3.773  -0.571   0.815  1.00  0.00     0.235 C 
ATOM     19  C   UNL     1      -3.391  -1.602   2.777  1.00  0.00     0.247 C 
ATOM     20  O   UNL     1      -3.539  -0.172  -0.299  1.00  0.00    -0.274 OA
ATOM     21  C   UNL     1      -5.117  -1.056   1.250  1.00  0.00     0.126 C 
ATOM     22  O   UNL     1      -2.784  -2.284   3.591  1.00  0.00    -0.273 OA
BRANCH  17  23
ATOM     23  C   UNL     1      -1.494  -0.649   1.492  1.00  0.00     0.052 A 
ATOM     24  C   UNL     1       2.484  -0.076  -0.069  1.00  0.00     0.044 C 
ATOM     25  C   UNL     1       1.088  -0.262   0.448  1.00  0.00    -0.051 A 
ATOM     26  C   UNL     1       0.538  -1.548   0.536  1.00  0.00     0.005 A 
ATOM     27  C   UNL     1       0.331   0.832   0.877  1.00  0.00     0.005 A 
ATOM     28  C   UNL     1      -0.743  -1.744   1.062  1.00  0.00     0.027 A 
ATOM     29  C   UNL     1      -0.956   0.639   1.387  1.00  0.00     0.027 A 
ENDBRANCH  17  23
ENDBRANCH  15  16
ENDBRANCH  10  15
ENDBRANCH   7   9
ENDBRANCH   6   7
ENDBRANCH   5   6
ENDBRANCH   4   5
ENDBRANCH   3   4
ENDBRANCH   2   3
ENDBRANCH   1   2
BRANCH   1  30
ATOM     30  O   UNL     1      -3.110   3.814  -1.436  1.00  0.00    -0.377 OA
BRANCH  30  31
ATOM     31  C   UNL     1      -2.993   3.015  -2.612  1.00  0.00     0.188 C 
BRANCH  31  32
ATOM     32  C   UNL     1      -1.963   1.901  -2.601  1.00  0.00     0.188 C 
BRANCH  32  33
ATOM     33  O   UNL     1      -2.682   0.684  -2.773  1.00  0.00    -0.376 OA
BRANCH  33  34
ATOM     34  C   UNL     1      -1.904  -0.497  -2.864  1.00  0.00     0.202 C 
BRANCH  34  35
ATOM     35  C   UNL     1      -0.963  -0.474  -4.073  1.00  0.00     0.261 C 
BRANCH  35  36
ATOM     36  O   UNL     1      -1.741  -0.474  -5.298  1.00  0.00    -0.460 OA
BRANCH  36  37
ATOM     37  C   UNL     1      -1.994   0.737  -5.875  1.00  0.00     0.338 C 
ATOM     38  O   UNL     1      -1.139   1.501  -6.295  1.00  0.00    -0.246 OA
BRANCH  37  39
ATOM     39  C   UNL     1      -3.449   1.084  -5.787  1.00  0.00     0.060 A 
ATOM     40  C   UNL     1      -3.929   2.347  -6.175  1.00  0.00     0.016 A 
ATOM     41  C   UNL     1      -4.284   0.254  -5.057  1.00  0.00     0.016 A 
ATOM     42  C   UNL     1      -5.160   2.832  -5.678  1.00  0.00     0.010 A 
ATOM     43  C   UNL     1      -5.408   0.796  -4.459  1.00  0.00     0.010 A 
ATOM     44  C   UNL     1      -5.861   2.100  -4.725  1.00  0.00    -0.014 A 
BRANCH  44  45
ATOM     45  C   UNL     1      -6.971   2.615  -3.869  1.00  0.00     0.031 A 
ATOM     46  C   UNL     1      -8.187   1.721  -3.692  1.00  0.00     0.074 A 
ATOM     47  C   UNL     1      -6.710   3.632  -2.991  1.00  0.00     0.049 A 
ATOM     48  N   UNL     1      -9.160   1.920  -2.867  1.00  0.00    -0.248 NA
ATOM     49  C   UNL     1      -8.366   0.443  -4.392  1.00  0.00     0.031 C 
ATOM     50  C   UNL     1      -7.369   3.911  -1.714  1.00  0.00     0.029 A 
ATOM     51  N   UNL     1      -5.715   4.626  -2.995  1.00  0.00    -0.354 N 
ATOM     52  C   UNL     1      -9.832   0.721  -2.647  1.00  0.00     0.074 A 
ATOM     53  C   UNL     1      -9.357  -0.137  -3.701  1.00  0.00     0.031 C 
ATOM     54  C   UNL     1      -6.816   4.954  -1.071  1.00  0.00     0.029 A 
ATOM     55  C   UNL     1      -6.114   5.655  -2.099  1.00  0.00     0.049 A 
ATOM     56  H   UNL     1      -4.887   4.612  -3.526  1.00  0.00     0.167 HD
ATOM     57  C   UNL     1     -10.601   0.573  -1.514  1.00  0.00     0.037 A 
ATOM     58  C   UNL     1      -6.590   6.833  -2.603  1.00  0.00     0.037 A 
ATOM     59  C   UNL     1     -10.739   1.864  -0.779  1.00  0.00     0.049 A 
ATOM     60  C   UNL     1      -8.134   6.934  -2.455  1.00  0.00     0.074 A 
ATOM     61  C   UNL     1     -10.650   2.288   0.538  1.00  0.00     0.029 A 
ATOM     62  N   UNL     1     -10.850   3.046  -1.514  1.00  0.00    -0.354 N 
ATOM     63  N   UNL     1      -8.884   5.997  -1.909  1.00  0.00    -0.248 NA
ATOM     64  C   UNL     1      -8.971   8.057  -2.849  1.00  0.00     0.031 C 
ATOM     65  C   UNL     1     -10.655   3.725   0.558  1.00  0.00     0.029 A 
ATOM     66  C   UNL     1     -10.811   4.186  -0.740  1.00  0.00     0.049 A 
ATOM     67  H   UNL     1     -10.947   3.064  -2.494  1.00  0.00     0.167 HD
ATOM     68  C   UNL     1     -10.209   6.301  -1.891  1.00  0.00     0.074 A 
ATOM     69  C   UNL     1     -10.209   7.615  -2.527  1.00  0.00     0.031 C 
ATOM     70  C   UNL     1     -11.173   5.458  -1.374  1.00  0.00     0.037 A 
BRANCH  57  71
ATOM     71  C   UNL     1     -11.125  -0.764  -0.928  1.00  0.00     0.057 A 
ATOM     72  C   UNL     1     -12.018  -0.773   0.171  1.00  0.00     0.134 A 
ATOM     73  C   UNL     1     -10.730  -2.066  -1.315  1.00  0.00     0.134 A 
ATOM     74  F   UNL     1     -12.546   0.361   0.650  1.00  0.00    -0.206 F 
ATOM     75  C   UNL     1     -12.435  -1.943   0.841  1.00  0.00     0.040 A 
ATOM     76  C   UNL     1     -11.191  -3.248  -0.693  1.00  0.00     0.040 A 
ATOM     77  F   UNL     1      -9.839  -2.282  -2.287  1.00  0.00    -0.206 F 
ATOM     78  C   UNL     1     -12.030  -3.191   0.405  1.00  0.00     0.006 A 
ENDBRANCH  57  71
BRANCH  58  79
ATOM     79  C   UNL     1      -5.586   7.300  -3.631  1.00  0.00     0.057 A 
ATOM     80  C   UNL     1      -4.285   7.551  -3.111  1.00  0.00     0.134 A 
ATOM     81  C   UNL     1      -5.628   6.784  -4.933  1.00  0.00     0.134 A 
ATOM     82  F   UNL     1      -4.147   8.071  -1.880  1.00  0.00    -0.206 F 
ATOM     83  C   UNL     1      -3.123   7.061  -3.727  1.00  0.00     0.040 A 
ATOM     84  C   UNL     1      -4.458   6.329  -5.577  1.00  0.00     0.040 A 
ATOM     85  F   UNL     1      -6.805   6.499  -5.508  1.00  0.00    -0.206 F 
ATOM     86  C   UNL     1      -3.216   6.395  -4.942  1.00  0.00     0.006 A 
ENDBRANCH  58  79
BRANCH  70  87
ATOM     87  C   UNL     1     -12.661   5.698  -1.502  1.00  0.00     0.057 A 
ATOM     88  C   UNL     1     -13.238   6.962  -1.438  1.00  0.00     0.134 A 
ATOM     89  C   UNL     1     -13.583   4.629  -1.663  1.00  0.00     0.134 A 
ATOM     90  F   UNL     1     -12.525   8.030  -1.055  1.00  0.00    -0.206 F 
ATOM     91  C   UNL     1     -14.591   7.172  -1.725  1.00  0.00     0.040 A 
ATOM     92  C   UNL     1     -14.941   4.819  -1.895  1.00  0.00     0.040 A 
ATOM     93  F   UNL     1     -13.229   3.339  -1.611  1.00  0.00    -0.206 F 
ATOM     94  C   UNL     1     -15.442   6.101  -1.982  1.00  0.00     0.006 A 
ENDBRANCH  70  87
ENDBRANCH  44  45
ENDBRANCH  37  39
ENDBRANCH  36  37
ENDBRANCH  35  36
ENDBRANCH  34  35
ENDBRANCH  33  34
ENDBRANCH  32  33
ENDBRANCH  31  32
ENDBRANCH  30  31
ENDBRANCH   1  30
TORSDOF 23
