REMARK SMILES C[C@H](CCO)S[C@H]1CC[C@]([NH2+]C2CC2)(C(=O)OCCOCCOCCOCCOC(=O)c2ccc(-c3c4nc(c(-c5c(F)cccc5F)c5ccc([nH]5)c(-c5c(F)cccc5F)c5nc(c(-c6c(F)cccc6F)c6ccc3[nH]6)C=C5)C=C4)cc2)C1
REMARK SMILES IDX 21 1 20 2 19 3 18 4 17 5 15 6 16 7 10 8 7 9 8 10 86 11 9 12
REMARK SMILES IDX 6 13 2 14 1 15 3 16 4 17 5 18 11 20 12 23 13 24 14 25 22 26
REMARK SMILES IDX 23 27 24 28 25 29 26 30 27 31 28 32 29 33 30 34 31 35 32 36
REMARK SMILES IDX 33 37 85 38 34 39 84 40 35 41 36 42 37 43 78 44 38 45 83 46
REMARK SMILES IDX 77 47 79 48 39 49 82 50 76 51 75 52 40 54 66 55 49 56 65 57
REMARK SMILES IDX 50 58 53 59 64 60 80 61 51 62 52 63 63 65 81 66 54 67 41 68
REMARK SMILES IDX 42 69 47 70 43 71 44 72 46 73 48 74 45 75 67 76 68 77 73 78
REMARK SMILES IDX 69 79 70 80 72 81 74 82 71 83 55 84 56 85 61 86 57 87 58 88
REMARK SMILES IDX 60 89 62 90 59 91
REMARK H PARENT 5 19 11 21 11 22 79 53 53 64
REMARK Flexibility Score: inf
ROOT
ATOM      1  C   UNL     1      -1.099   6.444  -1.813  1.00  0.00     0.188 C 
ENDROOT
BRANCH   1   2
ATOM      2  O   UNL     1       0.243   6.896  -1.968  1.00  0.00    -0.376 OA
BRANCH   2   3
ATOM      3  C   UNL     1       1.017   6.519  -3.096  1.00  0.00     0.202 C 
BRANCH   3   4
ATOM      4  C   UNL     1       1.133   5.049  -3.539  1.00  0.00     0.261 C 
BRANCH   4   5
ATOM      5  O   UNL     1       0.012   4.207  -3.247  1.00  0.00    -0.459 OA
BRANCH   5   6
ATOM      6  C   UNL     1       0.104   3.482  -2.095  1.00  0.00     0.368 C 
ATOM      7  O   UNL     1       1.107   3.450  -1.391  1.00  0.00    -0.245 OA
BRANCH   6   8
ATOM      8  C   UNL     1      -1.179   2.625  -1.836  1.00  0.00     0.195 C 
ATOM      9  C   UNL     1      -1.475   0.788  -0.213  1.00  0.00     0.054 C 
ATOM     10  C   UNL     1      -0.661   0.286  -1.394  1.00  0.00     0.022 C 
ATOM     11  C   UNL     1      -1.289   2.317  -0.323  1.00  0.00     0.095 C 
ATOM     12  C   UNL     1      -0.903   1.276  -2.523  1.00  0.00     0.082 C 
BRANCH   9  13
ATOM     13  S   UNL     1      -3.277   0.468  -0.017  1.00  0.00    -0.155 SA
BRANCH  13  14
ATOM     14  C   UNL     1      -3.800  -0.987  -1.008  1.00  0.00     0.046 C 
ATOM     15  C   UNL     1      -3.372  -2.233  -0.238  1.00  0.00     0.019 C 
BRANCH  14  16
ATOM     16  C   UNL     1      -3.542  -1.147  -2.524  1.00  0.00     0.042 C 
BRANCH  16  17
ATOM     17  C   UNL     1      -4.497  -0.422  -3.482  1.00  0.00     0.157 C 
BRANCH  17  18
ATOM     18  O   UNL     1      -3.854   0.609  -4.215  1.00  0.00    -0.396 OA
ATOM     19  H   UNL     1      -3.514   1.278  -3.600  1.00  0.00     0.210 HD
ENDBRANCH  17  18
ENDBRANCH  16  17
ENDBRANCH  14  16
ENDBRANCH  13  14
ENDBRANCH   9  13
BRANCH   8  20
ATOM     20  N   UNL     1      -2.370   3.281  -2.431  1.00  0.00    -0.330 N 
ATOM     21  H   UNL     1      -2.374   3.026  -3.418  1.00  0.00     0.347 HD
ATOM     22  H   UNL     1      -2.228   4.257  -2.171  1.00  0.00     0.347 HD
BRANCH  20  23
ATOM     23  C   UNL     1      -3.720   3.029  -1.939  1.00  0.00     0.183 C 
ATOM     24  C   UNL     1      -4.447   4.046  -1.106  1.00  0.00     0.071 C 
ATOM     25  C   UNL     1      -4.904   3.763  -2.506  1.00  0.00     0.071 C 
ENDBRANCH  20  23
ENDBRANCH   8  20
ENDBRANCH   6   8
ENDBRANCH   5   6
ENDBRANCH   4   5
ENDBRANCH   3   4
ENDBRANCH   2   3
ENDBRANCH   1   2
BRANCH   1  26
ATOM     26  C   UNL     1      -2.037   6.309  -3.023  1.00  0.00     0.188 C 
BRANCH  26  27
ATOM     27  O   UNL     1      -1.402   6.387  -4.282  1.00  0.00    -0.377 OA
BRANCH  27  28
ATOM     28  C   UNL     1      -1.658   7.584  -4.997  1.00  0.00     0.188 C 
BRANCH  28  29
ATOM     29  C   UNL     1      -1.543   8.905  -4.203  1.00  0.00     0.188 C 
BRANCH  29  30
ATOM     30  O   UNL     1      -2.260   8.933  -2.975  1.00  0.00    -0.376 OA
BRANCH  30  31
ATOM     31  C   UNL     1      -3.564   9.497  -2.927  1.00  0.00     0.202 C 
BRANCH  31  32
ATOM     32  C   UNL     1      -4.703   8.829  -3.723  1.00  0.00     0.261 C 
BRANCH  32  33
ATOM     33  O   UNL     1      -4.474   8.619  -5.123  1.00  0.00    -0.460 OA
BRANCH  33  34
ATOM     34  C   UNL     1      -4.238   9.711  -5.884  1.00  0.00     0.338 C 
ATOM     35  O   UNL     1      -4.266  10.869  -5.532  1.00  0.00    -0.246 OA
BRANCH  34  36
ATOM     36  C   UNL     1      -3.721   9.241  -7.191  1.00  0.00     0.060 A 
ATOM     37  C   UNL     1      -2.448   9.667  -7.596  1.00  0.00     0.016 A 
ATOM     38  C   UNL     1      -4.467   8.378  -7.997  1.00  0.00     0.016 A 
ATOM     39  C   UNL     1      -1.932   9.261  -8.825  1.00  0.00     0.010 A 
ATOM     40  C   UNL     1      -3.963   8.000  -9.246  1.00  0.00     0.010 A 
ATOM     41  C   UNL     1      -2.710   8.470  -9.679  1.00  0.00    -0.014 A 
BRANCH  41  42
ATOM     42  C   UNL     1      -2.314   8.340 -11.101  1.00  0.00     0.031 A 
ATOM     43  C   UNL     1      -2.939   9.279 -12.096  1.00  0.00     0.074 A 
ATOM     44  C   UNL     1      -1.395   7.444 -11.499  1.00  0.00     0.049 A 
ATOM     45  N   UNL     1      -2.791   9.339 -13.393  1.00  0.00    -0.248 NA
ATOM     46  C   UNL     1      -3.860  10.290 -11.548  1.00  0.00     0.031 C 
ATOM     47  C   UNL     1      -0.679   6.518 -10.625  1.00  0.00     0.029 A 
ATOM     48  N   UNL     1      -0.915   7.165 -12.755  1.00  0.00    -0.354 N 
ATOM     49  C   UNL     1      -3.605  10.382 -13.816  1.00  0.00     0.074 A 
ATOM     50  C   UNL     1      -4.267  10.909 -12.644  1.00  0.00     0.031 C 
ATOM     51  C   UNL     1       0.140   5.759 -11.375  1.00  0.00     0.029 A 
ATOM     52  C   UNL     1      -0.022   6.122 -12.782  1.00  0.00     0.049 A 
ATOM     53  H   UNL     1      -1.184   7.665 -13.559  1.00  0.00     0.167 HD
ATOM     54  C   UNL     1      -3.780  10.862 -15.069  1.00  0.00     0.037 A 
ATOM     55  C   UNL     1       0.571   5.515 -13.829  1.00  0.00     0.037 A 
ATOM     56  C   UNL     1      -3.122  10.333 -16.234  1.00  0.00     0.049 A 
ATOM     57  C   UNL     1       0.294   6.013 -15.226  1.00  0.00     0.074 A 
ATOM     58  C   UNL     1      -3.219  10.760 -17.546  1.00  0.00     0.029 A 
ATOM     59  N   UNL     1      -2.254   9.252 -16.226  1.00  0.00    -0.354 N 
ATOM     60  N   UNL     1      -0.457   7.015 -15.616  1.00  0.00    -0.248 NA
ATOM     61  C   UNL     1       0.951   5.295 -16.328  1.00  0.00     0.031 C 
ATOM     62  C   UNL     1      -2.459   9.898 -18.341  1.00  0.00     0.029 A 
ATOM     63  C   UNL     1      -1.833   8.976 -17.517  1.00  0.00     0.049 A 
ATOM     64  H   UNL     1      -1.977   8.754 -15.423  1.00  0.00     0.167 HD
ATOM     65  C   UNL     1      -0.337   7.067 -17.001  1.00  0.00     0.074 A 
ATOM     66  C   UNL     1       0.570   6.005 -17.381  1.00  0.00     0.031 C 
ATOM     67  C   UNL     1      -0.923   7.919 -17.879  1.00  0.00     0.037 A 
BRANCH  54  68
ATOM     68  C   UNL     1      -4.753  11.991 -15.248  1.00  0.00     0.057 A 
ATOM     69  C   UNL     1      -4.488  13.285 -14.780  1.00  0.00     0.134 A 
ATOM     70  C   UNL     1      -5.963  11.785 -15.923  1.00  0.00     0.134 A 
ATOM     71  F   UNL     1      -3.356  13.548 -14.109  1.00  0.00    -0.206 F 
ATOM     72  C   UNL     1      -5.401  14.326 -14.957  1.00  0.00     0.040 A 
ATOM     73  C   UNL     1      -6.870  12.824 -16.133  1.00  0.00     0.040 A 
ATOM     74  F   UNL     1      -6.279  10.571 -16.398  1.00  0.00    -0.206 F 
ATOM     75  C   UNL     1      -6.593  14.098 -15.643  1.00  0.00     0.006 A 
ENDBRANCH  54  68
BRANCH  55  76
ATOM     76  C   UNL     1       1.467   4.350 -13.609  1.00  0.00     0.057 A 
ATOM     77  C   UNL     1       2.837   4.420 -13.889  1.00  0.00     0.134 A 
ATOM     78  C   UNL     1       0.967   3.126 -13.147  1.00  0.00     0.134 A 
ATOM     79  F   UNL     1       3.373   5.555 -14.359  1.00  0.00    -0.206 F 
ATOM     80  C   UNL     1       3.672   3.311 -13.739  1.00  0.00     0.040 A 
ATOM     81  C   UNL     1       1.796   2.018 -12.964  1.00  0.00     0.040 A 
ATOM     82  F   UNL     1      -0.337   2.990 -12.862  1.00  0.00    -0.206 F 
ATOM     83  C   UNL     1       3.152   2.106 -13.270  1.00  0.00     0.006 A 
ENDBRANCH  55  76
BRANCH  67  84
ATOM     84  C   UNL     1      -0.570   7.769 -19.332  1.00  0.00     0.057 A 
ATOM     85  C   UNL     1      -1.008   6.680 -20.097  1.00  0.00     0.134 A 
ATOM     86  C   UNL     1       0.180   8.756 -19.987  1.00  0.00     0.134 A 
ATOM     87  F   UNL     1      -1.722   5.695 -19.531  1.00  0.00    -0.206 F 
ATOM     88  C   UNL     1      -0.690   6.565 -21.452  1.00  0.00     0.040 A 
ATOM     89  C   UNL     1       0.476   8.668 -21.347  1.00  0.00     0.040 A 
ATOM     90  F   UNL     1       0.620   9.833 -19.318  1.00  0.00    -0.206 F 
ATOM     91  C   UNL     1       0.047   7.565 -22.082  1.00  0.00     0.006 A 
ENDBRANCH  67  84
ENDBRANCH  41  42
ENDBRANCH  34  36
ENDBRANCH  33  34
ENDBRANCH  32  33
ENDBRANCH  31  32
ENDBRANCH  30  31
ENDBRANCH  29  30
ENDBRANCH  28  29
ENDBRANCH  27  28
ENDBRANCH  26  27
ENDBRANCH   1  26
TORSDOF 27
