REMARK SMILES C[C@@](NC(=O)CSCc1ccccc1)(C(=O)OCCOCCOCCOCCOC(=O)c1ccc(-c2c3nc(c(-c4c(F)cccc4F)c4ccc([nH]4)c(-c4c(F)cccc4F)c4nc(c(-c5c(F)cccc5F)c5ccc2[nH]5)C=C4)C=C3)cc1)C1CC1
REMARK SMILES IDX 21 1 20 2 19 3 18 4 17 5 15 6 16 7 2 8 1 9 3 10 4 11 5 13
REMARK SMILES IDX 6 14 7 15 8 16 9 17 10 18 14 19 11 20 13 21 12 22 86 23
REMARK SMILES IDX 87 24 88 25 22 26 23 27 24 28 25 29 26 30 27 31 28 32 29 33
REMARK SMILES IDX 30 34 31 35 32 36 33 37 85 38 34 39 84 40 35 41 36 42 37 43
REMARK SMILES IDX 78 44 38 45 83 46 77 47 79 48 39 49 82 50 76 51 75 52 40 54
REMARK SMILES IDX 66 55 49 56 65 57 50 58 53 59 64 60 80 61 51 62 52 63 63 65
REMARK SMILES IDX 81 66 54 67 41 68 42 69 47 70 43 71 44 72 46 73 48 74 45 75
REMARK SMILES IDX 67 76 68 77 73 78 69 79 70 80 72 81 74 82 71 83 55 84 56 85
REMARK SMILES IDX 61 86 57 87 58 88 60 89 62 90 59 91
REMARK H PARENT 3 12 79 53 53 64
REMARK Flexibility Score: inf
ROOT
ATOM      1  C   UNL     1      -2.388  -1.626   2.015  1.00  0.00     0.188 C 
ENDROOT
BRANCH   1   2
ATOM      2  O   UNL     1      -3.752  -1.256   1.976  1.00  0.00    -0.376 OA
BRANCH   2   3
ATOM      3  C   UNL     1      -4.137   0.058   1.605  1.00  0.00     0.202 C 
BRANCH   3   4
ATOM      4  C   UNL     1      -3.185   1.253   1.685  1.00  0.00     0.261 C 
BRANCH   4   5
ATOM      5  O   UNL     1      -1.833   0.990   1.280  1.00  0.00    -0.461 OA
BRANCH   5   6
ATOM      6  C   UNL     1      -0.861   1.397   2.125  1.00  0.00     0.331 C 
ATOM      7  O   UNL     1      -1.098   1.898   3.225  1.00  0.00    -0.249 OA
BRANCH   6   8
ATOM      8  C   UNL     1       0.604   1.266   1.570  1.00  0.00     0.138 C 
ATOM      9  C   UNL     1       0.916   0.648   0.193  1.00  0.00     0.048 C 
BRANCH   8  10
ATOM     10  N   UNL     1       1.125   2.662   1.537  1.00  0.00    -0.340 N 
ATOM     11  C   UNL     1       0.705   3.749   0.815  1.00  0.00     0.230 C 
ATOM     12  H   UNL     1       1.894   2.830   2.129  1.00  0.00     0.164 HD
ATOM     13  O   UNL     1       1.530   4.651   0.630  1.00  0.00    -0.274 OA
BRANCH  11  14
ATOM     14  C   UNL     1      -0.742   3.941   0.362  1.00  0.00     0.169 C 
BRANCH  14  15
ATOM     15  S   UNL     1      -1.252   2.862  -1.011  1.00  0.00    -0.147 SA
BRANCH  15  16
ATOM     16  C   UNL     1      -1.174   3.945  -2.448  1.00  0.00     0.105 C 
BRANCH  16  17
ATOM     17  C   UNL     1      -2.151   5.079  -2.338  1.00  0.00    -0.038 A 
ATOM     18  C   UNL     1      -1.674   6.391  -2.264  1.00  0.00     0.004 A 
ATOM     19  C   UNL     1      -3.531   4.840  -2.225  1.00  0.00     0.004 A 
ATOM     20  C   UNL     1      -2.554   7.444  -2.029  1.00  0.00     0.000 A 
ATOM     21  C   UNL     1      -4.409   5.895  -1.985  1.00  0.00     0.000 A 
ATOM     22  C   UNL     1      -3.917   7.194  -1.878  1.00  0.00     0.000 A 
ENDBRANCH  16  17
ENDBRANCH  15  16
ENDBRANCH  14  15
ENDBRANCH  11  14
ENDBRANCH   8  10
BRANCH   8  23
ATOM     23  C   UNL     1       1.384   0.522   2.684  1.00  0.00     0.026 C 
ATOM     24  C   UNL     1       1.506  -0.995   2.729  1.00  0.00     0.007 C 
ATOM     25  C   UNL     1       2.730  -0.147   2.519  1.00  0.00     0.007 C 
ENDBRANCH   8  23
ENDBRANCH   6   8
ENDBRANCH   5   6
ENDBRANCH   4   5
ENDBRANCH   3   4
ENDBRANCH   2   3
ENDBRANCH   1   2
BRANCH   1  26
ATOM     26  C   UNL     1      -1.580  -1.732   0.708  1.00  0.00     0.188 C 
BRANCH  26  27
ATOM     27  O   UNL     1      -1.987  -0.991  -0.423  1.00  0.00    -0.377 OA
BRANCH  27  28
ATOM     28  C   UNL     1      -3.124  -1.392  -1.170  1.00  0.00     0.188 C 
BRANCH  28  29
ATOM     29  C   UNL     1      -3.981  -2.591  -0.723  1.00  0.00     0.188 C 
BRANCH  29  30
ATOM     30  O   UNL     1      -3.281  -3.585   0.001  1.00  0.00    -0.376 OA
BRANCH  30  31
ATOM     31  C   UNL     1      -2.785  -4.722  -0.685  1.00  0.00     0.202 C 
BRANCH  31  32
ATOM     32  C   UNL     1      -1.825  -4.507  -1.864  1.00  0.00     0.261 C 
BRANCH  32  33
ATOM     33  O   UNL     1      -2.306  -3.690  -2.941  1.00  0.00    -0.460 OA
BRANCH  33  34
ATOM     34  C   UNL     1      -3.421  -4.081  -3.591  1.00  0.00     0.338 C 
ATOM     35  O   UNL     1      -4.090  -5.080  -3.389  1.00  0.00    -0.246 OA
BRANCH  34  36
ATOM     36  C   UNL     1      -3.790  -2.983  -4.504  1.00  0.00     0.060 A 
ATOM     37  C   UNL     1      -4.952  -2.238  -4.263  1.00  0.00     0.016 A 
ATOM     38  C   UNL     1      -2.960  -2.680  -5.584  1.00  0.00     0.016 A 
ATOM     39  C   UNL     1      -5.291  -1.184  -5.112  1.00  0.00     0.010 A 
ATOM     40  C   UNL     1      -3.316  -1.644  -6.447  1.00  0.00     0.010 A 
ATOM     41  C   UNL     1      -4.491  -0.904  -6.226  1.00  0.00    -0.014 A 
BRANCH  41  42
ATOM     42  C   UNL     1      -4.944   0.053  -7.261  1.00  0.00     0.031 A 
ATOM     43  C   UNL     1      -5.598  -0.496  -8.497  1.00  0.00     0.074 A 
ATOM     44  C   UNL     1      -4.731   1.373  -7.126  1.00  0.00     0.049 A 
ATOM     45  N   UNL     1      -5.918   0.114  -9.607  1.00  0.00    -0.248 NA
ATOM     46  C   UNL     1      -5.927  -1.932  -8.480  1.00  0.00     0.031 C 
ATOM     47  C   UNL     1      -4.150   2.024  -5.952  1.00  0.00     0.029 A 
ATOM     48  N   UNL     1      -4.953   2.402  -8.008  1.00  0.00    -0.354 N 
ATOM     49  C   UNL     1      -6.460  -0.866 -10.430  1.00  0.00     0.074 A 
ATOM     50  C   UNL     1      -6.423  -2.110  -9.695  1.00  0.00     0.031 C 
ATOM     51  C   UNL     1      -4.025   3.339  -6.202  1.00  0.00     0.029 A 
ATOM     52  C   UNL     1      -4.469   3.611  -7.569  1.00  0.00     0.049 A 
ATOM     53  H   UNL     1      -5.414   2.285  -8.870  1.00  0.00     0.167 HD
ATOM     54  C   UNL     1      -6.937  -0.734 -11.688  1.00  0.00     0.037 A 
ATOM     55  C   UNL     1      -4.349   4.786  -8.219  1.00  0.00     0.037 A 
ATOM     56  C   UNL     1      -6.979   0.512 -12.406  1.00  0.00     0.049 A 
ATOM     57  C   UNL     1      -4.817   4.886  -9.651  1.00  0.00     0.074 A 
ATOM     58  C   UNL     1      -7.494   0.761 -13.665  1.00  0.00     0.029 A 
ATOM     59  N   UNL     1      -6.471   1.712 -11.933  1.00  0.00    -0.354 N 
ATOM     60  N   UNL     1      -5.374   3.969 -10.407  1.00  0.00    -0.248 NA
ATOM     61  C   UNL     1      -4.633   6.180 -10.324  1.00  0.00     0.031 C 
ATOM     62  C   UNL     1      -7.234   2.097 -13.983  1.00  0.00     0.029 A 
ATOM     63  C   UNL     1      -6.616   2.695 -12.896  1.00  0.00     0.049 A 
ATOM     64  H   UNL     1      -6.067   1.845 -11.045  1.00  0.00     0.167 HD
ATOM     65  C   UNL     1      -5.627   4.582 -11.630  1.00  0.00     0.074 A 
ATOM     66  C   UNL     1      -5.181   5.954 -11.509  1.00  0.00     0.031 C 
ATOM     67  C   UNL     1      -6.176   4.059 -12.753  1.00  0.00     0.037 A 
BRANCH  54  68
ATOM     68  C   UNL     1      -7.415  -1.966 -12.395  1.00  0.00     0.057 A 
ATOM     69  C   UNL     1      -8.618  -2.600 -12.061  1.00  0.00     0.134 A 
ATOM     70  C   UNL     1      -6.692  -2.481 -13.480  1.00  0.00     0.134 A 
ATOM     71  F   UNL     1      -9.350  -2.166 -11.024  1.00  0.00    -0.206 F 
ATOM     72  C   UNL     1      -9.082  -3.705 -12.777  1.00  0.00     0.040 A 
ATOM     73  C   UNL     1      -7.158  -3.568 -14.219  1.00  0.00     0.040 A 
ATOM     74  F   UNL     1      -5.532  -1.919 -13.852  1.00  0.00    -0.206 F 
ATOM     75  C   UNL     1      -8.356  -4.184 -13.867  1.00  0.00     0.006 A 
ENDBRANCH  54  68
BRANCH  55  76
ATOM     76  C   UNL     1      -3.704   5.951  -7.556  1.00  0.00     0.057 A 
ATOM     77  C   UNL     1      -4.419   7.123  -7.284  1.00  0.00     0.134 A 
ATOM     78  C   UNL     1      -2.341   5.941  -7.231  1.00  0.00     0.134 A 
ATOM     79  F   UNL     1      -5.721   7.207  -7.596  1.00  0.00    -0.206 F 
ATOM     80  C   UNL     1      -3.798   8.251  -6.744  1.00  0.00     0.040 A 
ATOM     81  C   UNL     1      -1.714   7.050  -6.661  1.00  0.00     0.040 A 
ATOM     82  F   UNL     1      -1.595   4.852  -7.468  1.00  0.00    -0.206 F 
ATOM     83  C   UNL     1      -2.441   8.215  -6.428  1.00  0.00     0.006 A 
ENDBRANCH  55  76
BRANCH  67  84
ATOM     84  C   UNL     1      -6.356   4.971 -13.932  1.00  0.00     0.057 A 
ATOM     85  C   UNL     1      -5.269   5.409 -14.700  1.00  0.00     0.134 A 
ATOM     86  C   UNL     1      -7.637   5.357 -14.347  1.00  0.00     0.134 A 
ATOM     87  F   UNL     1      -4.015   5.083 -14.352  1.00  0.00    -0.206 F 
ATOM     88  C   UNL     1      -5.450   6.212 -15.828  1.00  0.00     0.040 A 
ATOM     89  C   UNL     1      -7.833   6.134 -15.489  1.00  0.00     0.040 A 
ATOM     90  F   UNL     1      -8.722   4.961 -13.664  1.00  0.00    -0.206 F 
ATOM     91  C   UNL     1      -6.737   6.567 -16.231  1.00  0.00     0.006 A 
ENDBRANCH  67  84
ENDBRANCH  41  42
ENDBRANCH  34  36
ENDBRANCH  33  34
ENDBRANCH  32  33
ENDBRANCH  31  32
ENDBRANCH  30  31
ENDBRANCH  29  30
ENDBRANCH  28  29
ENDBRANCH  27  28
ENDBRANCH  26  27
ENDBRANCH   1  26
TORSDOF 26
