REMARK SMILES CC[C@@H](Oc1cc(Cl)ccc1Cl)C(=O)NNC(=O)[C@@H]1[C@@H]2CC[C@@H](C2)[C@@H]1C(=O)OCCOCCOCCOCCOC(=O)c1ccc(-c2c3nc(c(-c4c(F)cccc4F)c4ccc([nH]4)c(-c4c(F)cccc4F)c4nc(c(-c5c(F)cccc5F)c5ccc2[nH]5)C=C4)C=C3)cc1
REMARK SMILES IDX 32 1 31 2 30 3 29 4 28 5 26 6 27 7 25 8 19 9 20 10 21 11
REMARK SMILES IDX 24 12 23 13 22 14 17 15 16 16 18 18 15 19 13 20 14 21 3 23
REMARK SMILES IDX 2 24 1 25 4 26 5 27 6 28 11 29 7 30 10 31 12 32 8 33 9 34
REMARK SMILES IDX 33 35 34 36 35 37 36 38 37 39 38 40 39 41 40 42 41 43 42 44
REMARK SMILES IDX 43 45 44 46 96 47 45 48 95 49 46 50 47 51 48 52 89 53 49 54
REMARK SMILES IDX 94 55 88 56 90 57 50 58 93 59 87 60 86 61 51 63 77 64 60 65
REMARK SMILES IDX 76 66 61 67 64 68 75 69 91 70 62 71 63 72 74 74 92 75 65 76
REMARK SMILES IDX 52 77 53 78 58 79 54 80 55 81 57 82 59 83 56 84 78 85 79 86
REMARK SMILES IDX 84 87 80 88 81 89 83 90 85 91 82 92 66 93 67 94 72 95 68 96
REMARK SMILES IDX 69 97 71 98 73 99 70 100
REMARK H PARENT 16 17 15 22 90 62 64 73
REMARK Flexibility Score: inf
ROOT
ATOM      1  C   UNL     1      -2.731  -0.640   8.582  1.00  0.00     0.188 C 
ENDROOT
BRANCH   1   2
ATOM      2  O   UNL     1      -1.648  -1.527   8.735  1.00  0.00    -0.376 OA
BRANCH   2   3
ATOM      3  C   UNL     1      -1.312  -2.395   7.657  1.00  0.00     0.202 C 
BRANCH   3   4
ATOM      4  C   UNL     1      -2.138  -2.563   6.355  1.00  0.00     0.261 C 
BRANCH   4   5
ATOM      5  O   UNL     1      -2.612  -1.384   5.644  1.00  0.00    -0.463 OA
BRANCH   5   6
ATOM      6  C   UNL     1      -3.953  -1.190   5.683  1.00  0.00     0.310 C 
ATOM      7  O   UNL     1      -4.687  -1.986   6.274  1.00  0.00    -0.252 OA
BRANCH   6   8
ATOM      8  C   UNL     1      -4.561  -0.068   4.811  1.00  0.00     0.115 C 
ATOM      9  C   UNL     1      -4.408   1.509   4.705  1.00  0.00     0.098 C 
ATOM     10  C   UNL     1      -5.830   2.040   4.966  1.00  0.00     0.003 C 
ATOM     11  C   UNL     1      -6.205   1.834   6.437  1.00  0.00     0.005 C 
ATOM     12  C   UNL     1      -6.688   0.987   4.267  1.00  0.00     0.009 C 
ATOM     13  C   UNL     1      -6.117  -0.153   5.092  1.00  0.00     0.004 C 
ATOM     14  C   UNL     1      -6.426   0.330   6.527  1.00  0.00     0.005 C 
BRANCH   9  15
ATOM     15  C   UNL     1      -3.220   2.427   5.064  1.00  0.00     0.242 C 
ATOM     16  N   UNL     1      -3.263   3.580   5.843  1.00  0.00    -0.267 N 
ATOM     17  H   UNL     1      -2.392   4.022   5.971  1.00  0.00     0.191 HD
ATOM     18  O   UNL     1      -2.152   2.224   4.465  1.00  0.00    -0.273 OA
BRANCH  16  19
ATOM     19  N   UNL     1      -4.334   4.211   6.473  1.00  0.00    -0.264 N 
ATOM     20  C   UNL     1      -4.369   5.008   7.603  1.00  0.00     0.279 C 
ATOM     21  O   UNL     1      -5.480   5.504   7.853  1.00  0.00    -0.269 OA
ATOM     22  H   UNL     1      -5.208   4.066   6.044  1.00  0.00     0.191 HD
BRANCH  20  23
ATOM     23  C   UNL     1      -3.205   5.265   8.626  1.00  0.00     0.263 C 
BRANCH  23  24
ATOM     24  C   UNL     1      -3.117   4.041   9.559  1.00  0.00     0.052 C 
ATOM     25  C   UNL     1      -2.596   4.285  10.974  1.00  0.00     0.008 C 
ENDBRANCH  23  24
BRANCH  23  26
ATOM     26  O   UNL     1      -2.003   5.591   7.929  1.00  0.00    -0.479 OA
BRANCH  26  27
ATOM     27  C   UNL     1      -1.056   6.381   8.553  1.00  0.00     0.140 A 
ATOM     28  C   UNL     1      -0.099   5.788   9.395  1.00  0.00     0.068 A 
ATOM     29  C   UNL     1      -0.778   7.650   8.024  1.00  0.00     0.083 A 
ATOM     30  C   UNL     1       1.084   6.460   9.726  1.00  0.00     0.044 A 
ATOM     31  C   UNL     1       0.420   8.311   8.337  1.00  0.00     0.026 A 
ATOM     32  Cl  UNL     1      -1.836   8.379   6.872  1.00  0.00    -0.080 Cl
ATOM     33  Cl  UNL     1       2.255   5.701  10.735  1.00  0.00    -0.084 Cl
ATOM     34  C   UNL     1       1.354   7.714   9.187  1.00  0.00     0.022 A 
ENDBRANCH  26  27
ENDBRANCH  23  26
ENDBRANCH  20  23
ENDBRANCH  16  19
ENDBRANCH   9  15
ENDBRANCH   6   8
ENDBRANCH   5   6
ENDBRANCH   4   5
ENDBRANCH   3   4
ENDBRANCH   2   3
ENDBRANCH   1   2
BRANCH   1  35
ATOM     35  C   UNL     1      -2.382   0.666   7.876  1.00  0.00     0.188 C 
BRANCH  35  36
ATOM     36  O   UNL     1      -1.577   0.582   6.712  1.00  0.00    -0.377 OA
BRANCH  36  37
ATOM     37  C   UNL     1      -0.155   0.517   6.832  1.00  0.00     0.188 C 
BRANCH  37  38
ATOM     38  C   UNL     1       0.432   1.247   8.034  1.00  0.00     0.188 C 
BRANCH  38  39
ATOM     39  O   UNL     1       0.244   2.660   8.096  1.00  0.00    -0.376 OA
BRANCH  39  40
ATOM     40  C   UNL     1      -0.415   3.283   7.005  1.00  0.00     0.202 C 
BRANCH  40  41
ATOM     41  C   UNL     1       0.323   4.472   6.417  1.00  0.00     0.261 C 
BRANCH  41  42
ATOM     42  O   UNL     1       1.493   3.994   5.789  1.00  0.00    -0.460 OA
BRANCH  42  43
ATOM     43  C   UNL     1       2.491   3.717   6.656  1.00  0.00     0.338 C 
ATOM     44  O   UNL     1       2.627   4.033   7.823  1.00  0.00    -0.246 OA
BRANCH  43  45
ATOM     45  C   UNL     1       3.335   2.785   5.934  1.00  0.00     0.060 A 
ATOM     46  C   UNL     1       3.809   1.646   6.591  1.00  0.00     0.016 A 
ATOM     47  C   UNL     1       3.597   3.052   4.588  1.00  0.00     0.016 A 
ATOM     48  C   UNL     1       4.601   0.764   5.887  1.00  0.00     0.010 A 
ATOM     49  C   UNL     1       4.383   2.177   3.886  1.00  0.00     0.010 A 
ATOM     50  C   UNL     1       4.917   1.071   4.560  1.00  0.00    -0.014 A 
BRANCH  50  51
ATOM     51  C   UNL     1       6.016   0.382   3.902  1.00  0.00     0.031 A 
ATOM     52  C   UNL     1       7.335   1.082   3.899  1.00  0.00     0.074 A 
ATOM     53  C   UNL     1       5.757  -0.764   3.266  1.00  0.00     0.049 A 
ATOM     54  N   UNL     1       8.418   0.788   3.241  1.00  0.00    -0.248 NA
ATOM     55  C   UNL     1       7.438   2.304   4.723  1.00  0.00     0.031 C 
ATOM     56  C   UNL     1       4.463  -1.451   3.253  1.00  0.00     0.029 A 
ATOM     57  N   UNL     1       6.562  -1.528   2.479  1.00  0.00    -0.354 N 
ATOM     58  C   UNL     1       9.323   1.791   3.559  1.00  0.00     0.074 A 
ATOM     59  C   UNL     1       8.657   2.726   4.433  1.00  0.00     0.031 C 
ATOM     60  C   UNL     1       4.560  -2.535   2.469  1.00  0.00     0.029 A 
ATOM     61  C   UNL     1       5.903  -2.582   1.903  1.00  0.00     0.049 A 
ATOM     62  H   UNL     1       7.518  -1.342   2.338  1.00  0.00     0.167 HD
ATOM     63  C   UNL     1      10.604   1.896   3.150  1.00  0.00     0.037 A 
ATOM     64  C   UNL     1       6.356  -3.453   0.989  1.00  0.00     0.037 A 
ATOM     65  C   UNL     1      11.207   0.935   2.269  1.00  0.00     0.049 A 
ATOM     66  C   UNL     1       7.778  -3.293   0.526  1.00  0.00     0.074 A 
ATOM     67  C   UNL     1      12.501   0.887   1.795  1.00  0.00     0.029 A 
ATOM     68  N   UNL     1      10.530  -0.151   1.724  1.00  0.00    -0.354 N 
ATOM     69  N   UNL     1       8.659  -2.379   0.866  1.00  0.00    -0.248 NA
ATOM     70  C   UNL     1       8.271  -4.280  -0.436  1.00  0.00     0.031 C 
ATOM     71  C   UNL     1      12.594  -0.202   0.921  1.00  0.00     0.029 A 
ATOM     72  C   UNL     1      11.374  -0.865   0.896  1.00  0.00     0.049 A 
ATOM     73  H   UNL     1       9.589  -0.378   1.902  1.00  0.00     0.167 HD
ATOM     74  C   UNL     1       9.821  -2.693   0.178  1.00  0.00     0.074 A 
ATOM     75  C   UNL     1       9.531  -3.895  -0.585  1.00  0.00     0.031 C 
ATOM     76  C   UNL     1      11.021  -2.058   0.166  1.00  0.00     0.037 A 
BRANCH  63  77
ATOM     77  C   UNL     1      11.394   3.077   3.627  1.00  0.00     0.057 A 
ATOM     78  C   UNL     1      11.766   3.229   4.970  1.00  0.00     0.134 A 
ATOM     79  C   UNL     1      11.792   4.078   2.733  1.00  0.00     0.134 A 
ATOM     80  F   UNL     1      11.393   2.322   5.886  1.00  0.00    -0.206 F 
ATOM     81  C   UNL     1      12.489   4.340   5.409  1.00  0.00     0.040 A 
ATOM     82  C   UNL     1      12.539   5.180   3.154  1.00  0.00     0.040 A 
ATOM     83  F   UNL     1      11.459   4.004   1.435  1.00  0.00    -0.206 F 
ATOM     84  C   UNL     1      12.885   5.316   4.496  1.00  0.00     0.006 A 
ENDBRANCH  63  77
BRANCH  64  85
ATOM     85  C   UNL     1       5.468  -4.523   0.480  1.00  0.00     0.057 A 
ATOM     86  C   UNL     1       5.698  -5.864   0.805  1.00  0.00     0.134 A 
ATOM     87  C   UNL     1       4.351  -4.234  -0.315  1.00  0.00     0.134 A 
ATOM     88  F   UNL     1       6.752  -6.202   1.562  1.00  0.00    -0.206 F 
ATOM     89  C   UNL     1       4.866  -6.882   0.339  1.00  0.00     0.040 A 
ATOM     90  C   UNL     1       3.495  -5.240  -0.766  1.00  0.00     0.040 A 
ATOM     91  F   UNL     1       4.062  -2.966  -0.643  1.00  0.00    -0.206 F 
ATOM     92  C   UNL     1       3.757  -6.570  -0.446  1.00  0.00     0.006 A 
ENDBRANCH  64  85
BRANCH  76  93
ATOM     93  C   UNL     1      12.095  -2.677  -0.674  1.00  0.00     0.057 A 
ATOM     94  C   UNL     1      12.065  -2.611  -2.071  1.00  0.00     0.134 A 
ATOM     95  C   UNL     1      13.196  -3.295  -0.070  1.00  0.00     0.134 A 
ATOM     96  F   UNL     1      11.028  -2.042  -2.704  1.00  0.00    -0.206 F 
ATOM     97  C   UNL     1      13.086  -3.163  -2.842  1.00  0.00     0.040 A 
ATOM     98  C   UNL     1      14.239  -3.820  -0.829  1.00  0.00     0.040 A 
ATOM     99  F   UNL     1      13.286  -3.375   1.267  1.00  0.00    -0.206 F 
ATOM    100  C   UNL     1      14.181  -3.761  -2.220  1.00  0.00     0.006 A 
ENDBRANCH  76  93
ENDBRANCH  50  51
ENDBRANCH  43  45
ENDBRANCH  42  43
ENDBRANCH  41  42
ENDBRANCH  40  41
ENDBRANCH  39  40
ENDBRANCH  38  39
ENDBRANCH  37  38
ENDBRANCH  36  37
ENDBRANCH  35  36
ENDBRANCH   1  35
TORSDOF 26
