REMARK SMILES O=C(Cc1cncnc1N1CCC2(CC1)OCCC[C@@H]2O)OCCOCCOCCOCCOC(=O)c1ccc(-c2c3nc(c(-c4c(F)cccc4F)c4ccc([nH]4)c(-c4c(F)cccc4F)c4nc(c(-c5c(F)cccc5F)c5ccc2[nH]5)C=C4)C=C3)cc1
REMARK SMILES IDX 27 1 26 2 25 3 24 4 23 5 22 6 2 7 1 8 3 9 4 10 5 11 9 12
REMARK SMILES IDX 6 13 8 14 7 15 10 16 11 17 15 18 12 19 14 20 13 21 16 22
REMARK SMILES IDX 20 23 17 24 19 25 18 26 21 27 28 29 29 30 30 31 31 32 32 33
REMARK SMILES IDX 33 34 34 35 35 36 36 37 37 38 38 39 90 40 39 41 89 42 40 43
REMARK SMILES IDX 41 44 42 45 83 46 43 47 88 48 82 49 84 50 44 51 87 52 81 53
REMARK SMILES IDX 80 54 45 56 71 57 54 58 70 59 55 60 58 61 69 62 85 63 56 64
REMARK SMILES IDX 57 65 68 67 86 68 59 69 46 70 47 71 52 72 48 73 49 74 51 75
REMARK SMILES IDX 53 76 50 77 72 78 73 79 78 80 74 81 75 82 77 83 79 84 76 85
REMARK SMILES IDX 60 86 61 87 66 88 62 89 63 90 65 91 67 92 64 93
REMARK H PARENT 21 28 84 55 58 66
REMARK Flexibility Score: inf
ROOT
ATOM      1  C   UNL     1       2.299  -2.249   1.066  1.00  0.00     0.188 C 
ENDROOT
BRANCH   1   2
ATOM      2  C   UNL     1       3.168  -2.499  -0.195  1.00  0.00     0.188 C 
BRANCH   2   3
ATOM      3  O   UNL     1       4.533  -2.116  -0.101  1.00  0.00    -0.376 OA
BRANCH   3   4
ATOM      4  C   UNL     1       5.013  -0.805  -0.315  1.00  0.00     0.202 C 
BRANCH   4   5
ATOM      5  C   UNL     1       4.205   0.376   0.187  1.00  0.00     0.261 C 
BRANCH   5   6
ATOM      6  O   UNL     1       2.798   0.290  -0.093  1.00  0.00    -0.463 OA
BRANCH   6   7
ATOM      7  C   UNL     1       2.150   0.104  -1.260  1.00  0.00     0.310 C 
ATOM      8  O   UNL     1       1.008  -0.359  -1.251  1.00  0.00    -0.252 OA
BRANCH   7   9
ATOM      9  C   UNL     1       2.867   0.351  -2.545  1.00  0.00     0.163 C 
BRANCH   9  10
ATOM     10  C   UNL     1       3.665   1.612  -2.586  1.00  0.00     0.024 A 
ATOM     11  C   UNL     1       4.882   1.610  -3.241  1.00  0.00     0.121 A 
ATOM     12  C   UNL     1       3.275   2.800  -1.960  1.00  0.00     0.135 A 
ATOM     13  N   UNL     1       5.692   2.671  -3.283  1.00  0.00    -0.244 NA
ATOM     14  N   UNL     1       4.072   3.876  -1.976  1.00  0.00    -0.219 NA
ATOM     15  C   UNL     1       5.233   3.759  -2.648  1.00  0.00     0.224 A 
BRANCH  12  16
ATOM     16  N   UNL     1       2.059   2.850  -1.295  1.00  0.00    -0.356 N 
ATOM     17  C   UNL     1       0.940   3.401  -2.037  1.00  0.00     0.121 C 
ATOM     18  C   UNL     1       1.978   3.118   0.143  1.00  0.00     0.121 C 
ATOM     19  C   UNL     1      -0.301   2.621  -1.630  1.00  0.00     0.060 C 
ATOM     20  C   UNL     1       0.756   2.374   0.721  1.00  0.00     0.060 C 
ATOM     21  C   UNL     1      -0.544   2.578  -0.095  1.00  0.00     0.097 C 
ATOM     22  O   UNL     1      -1.039   3.852   0.372  1.00  0.00    -0.372 OA
ATOM     23  C   UNL     1      -1.566   1.429   0.214  1.00  0.00     0.146 C 
ATOM     24  C   UNL     1      -2.354   4.209  -0.028  1.00  0.00     0.161 C 
ATOM     25  C   UNL     1      -2.960   1.782  -0.300  1.00  0.00     0.037 C 
ATOM     26  C   UNL     1      -3.388   3.131   0.262  1.00  0.00     0.031 C 
BRANCH  23  27
ATOM     27  O   UNL     1      -1.664   1.169   1.620  1.00  0.00    -0.390 OA
ATOM     28  H   UNL     1      -1.997   1.960   2.072  1.00  0.00     0.211 HD
ENDBRANCH  23  27
ENDBRANCH  12  16
ENDBRANCH   9  10
ENDBRANCH   7   9
ENDBRANCH   6   7
ENDBRANCH   5   6
ENDBRANCH   4   5
ENDBRANCH   3   4
ENDBRANCH   2   3
ENDBRANCH   1   2
BRANCH   1  29
ATOM     29  O   UNL     1       2.777  -2.822   2.281  1.00  0.00    -0.377 OA
BRANCH  29  30
ATOM     30  C   UNL     1       4.113  -2.482   2.606  1.00  0.00     0.188 C 
BRANCH  30  31
ATOM     31  C   UNL     1       5.165  -3.511   2.140  1.00  0.00     0.188 C 
BRANCH  31  32
ATOM     32  O   UNL     1       4.821  -4.691   1.427  1.00  0.00    -0.376 OA
BRANCH  32  33
ATOM     33  C   UNL     1       3.585  -5.359   1.611  1.00  0.00     0.202 C 
BRANCH  33  34
ATOM     34  C   UNL     1       3.082  -5.789   2.994  1.00  0.00     0.261 C 
BRANCH  34  35
ATOM     35  O   UNL     1       3.443  -4.950   4.087  1.00  0.00    -0.460 OA
BRANCH  35  36
ATOM     36  C   UNL     1       4.626  -5.264   4.662  1.00  0.00     0.338 C 
ATOM     37  O   UNL     1       5.368  -6.182   4.384  1.00  0.00    -0.246 OA
BRANCH  36  38
ATOM     38  C   UNL     1       4.983  -4.178   5.594  1.00  0.00     0.060 A 
ATOM     39  C   UNL     1       6.258  -3.608   5.475  1.00  0.00     0.016 A 
ATOM     40  C   UNL     1       4.091  -3.745   6.578  1.00  0.00     0.016 A 
ATOM     41  C   UNL     1       6.673  -2.643   6.377  1.00  0.00     0.010 A 
ATOM     42  C   UNL     1       4.526  -2.815   7.520  1.00  0.00     0.010 A 
ATOM     43  C   UNL     1       5.839  -2.317   7.450  1.00  0.00    -0.014 A 
BRANCH  43  44
ATOM     44  C   UNL     1       6.483  -1.744   8.647  1.00  0.00     0.031 A 
ATOM     45  C   UNL     1       6.963  -2.709   9.697  1.00  0.00     0.074 A 
ATOM     46  C   UNL     1       6.729  -0.430   8.743  1.00  0.00     0.049 A 
ATOM     47  N   UNL     1       7.586  -2.474  10.820  1.00  0.00    -0.248 NA
ATOM     48  C   UNL     1       6.710  -4.138   9.437  1.00  0.00     0.031 C 
ATOM     49  C   UNL     1       6.376   0.574   7.741  1.00  0.00     0.029 A 
ATOM     50  N   UNL     1       7.348   0.279   9.736  1.00  0.00    -0.354 N 
ATOM     51  C   UNL     1       7.783  -3.720  11.404  1.00  0.00     0.074 A 
ATOM     52  C   UNL     1       7.191  -4.705  10.530  1.00  0.00     0.031 C 
ATOM     53  C   UNL     1       6.785   1.779   8.176  1.00  0.00     0.029 A 
ATOM     54  C   UNL     1       7.397   1.628   9.495  1.00  0.00     0.049 A 
ATOM     55  H   UNL     1       7.723  -0.139  10.545  1.00  0.00     0.167 HD
ATOM     56  C   UNL     1       8.409  -4.014  12.566  1.00  0.00     0.037 A 
ATOM     57  C   UNL     1       7.871   2.620  10.270  1.00  0.00     0.037 A 
ATOM     58  C   UNL     1       8.995  -3.022  13.426  1.00  0.00     0.049 A 
ATOM     59  C   UNL     1       8.485   2.274  11.601  1.00  0.00     0.074 A 
ATOM     60  C   UNL     1       9.663  -3.204  14.622  1.00  0.00     0.029 A 
ATOM     61  N   UNL     1       8.970  -1.657  13.180  1.00  0.00    -0.354 N 
ATOM     62  N   UNL     1       8.681   1.096  12.145  1.00  0.00    -0.248 NA
ATOM     63  C   UNL     1       8.949   3.399  12.423  1.00  0.00     0.031 C 
ATOM     64  C   UNL     1       9.984  -1.943  15.134  1.00  0.00     0.029 A 
ATOM     65  C   UNL     1       9.582  -0.980  14.220  1.00  0.00     0.049 A 
ATOM     66  H   UNL     1       8.575  -1.232  12.384  1.00  0.00     0.167 HD
ATOM     67  C   UNL     1       9.327   1.335  13.353  1.00  0.00     0.074 A 
ATOM     68  C   UNL     1       9.497   2.770  13.453  1.00  0.00     0.031 C 
ATOM     69  C   UNL     1       9.747   0.451  14.293  1.00  0.00     0.037 A 
BRANCH  56  70
ATOM     70  C   UNL     1       8.436  -5.454  12.991  1.00  0.00     0.057 A 
ATOM     71  C   UNL     1       9.187  -6.423  12.312  1.00  0.00     0.134 A 
ATOM     72  C   UNL     1       7.691  -5.876  14.099  1.00  0.00     0.134 A 
ATOM     73  F   UNL     1       9.905  -6.093  11.228  1.00  0.00    -0.206 F 
ATOM     74  C   UNL     1       9.174  -7.764  12.704  1.00  0.00     0.040 A 
ATOM     75  C   UNL     1       7.695  -7.206  14.520  1.00  0.00     0.040 A 
ATOM     76  F   UNL     1       6.946  -5.002  14.793  1.00  0.00    -0.206 F 
ATOM     77  C   UNL     1       8.431  -8.156  13.817  1.00  0.00     0.006 A 
ENDBRANCH  56  70
BRANCH  57  78
ATOM     78  C   UNL     1       7.783   4.030   9.813  1.00  0.00     0.057 A 
ATOM     79  C   UNL     1       8.934   4.770   9.518  1.00  0.00     0.134 A 
ATOM     80  C   UNL     1       6.549   4.680   9.686  1.00  0.00     0.134 A 
ATOM     81  F   UNL     1      10.146   4.210   9.640  1.00  0.00    -0.206 F 
ATOM     82  C   UNL     1       8.863   6.111   9.135  1.00  0.00     0.040 A 
ATOM     83  C   UNL     1       6.462   6.011   9.276  1.00  0.00     0.040 A 
ATOM     84  F   UNL     1       5.408   4.027   9.951  1.00  0.00    -0.206 F 
ATOM     85  C   UNL     1       7.623   6.733   9.009  1.00  0.00     0.006 A 
ENDBRANCH  57  78
BRANCH  69  86
ATOM     86  C   UNL     1      10.481   1.008  15.480  1.00  0.00     0.057 A 
ATOM     87  C   UNL     1       9.841   1.778  16.460  1.00  0.00     0.134 A 
ATOM     88  C   UNL     1      11.846   0.743  15.656  1.00  0.00     0.134 A 
ATOM     89  F   UNL     1       8.538   2.076  16.348  1.00  0.00    -0.206 F 
ATOM     90  C   UNL     1      10.541   2.296  17.551  1.00  0.00     0.040 A 
ATOM     91  C   UNL     1      12.547   1.225  16.761  1.00  0.00     0.040 A 
ATOM     92  F   UNL     1      12.517  -0.000  14.763  1.00  0.00    -0.206 F 
ATOM     93  C   UNL     1      11.897   2.014  17.706  1.00  0.00     0.006 A 
ENDBRANCH  69  86
ENDBRANCH  43  44
ENDBRANCH  36  38
ENDBRANCH  35  36
ENDBRANCH  34  35
ENDBRANCH  33  34
ENDBRANCH  32  33
ENDBRANCH  31  32
ENDBRANCH  30  31
ENDBRANCH  29  30
ENDBRANCH   1  29
TORSDOF 23
