REMARK SMILES Cc1cc([C@H](O)CC2(CC(=O)OCCOCCOCCOCCOC(=O)c3ccc(-c4c5nc(c(-c6c(F)cccc6F)c6ccc([nH]6)c(-c6c(F)cccc6F)c6nc(c(-c7c(F)cccc7F)c7ccc4[nH]7)C=C6)C=C5)cc3)CCCC2)ccc1F
REMARK SMILES IDX 17 1 16 2 15 3 14 4 13 5 12 6 10 7 11 8 9 9 8 10 81 11 84 12
REMARK SMILES IDX 82 13 83 14 7 15 5 16 4 17 1 18 2 19 3 20 87 21 86 22 88 23
REMARK SMILES IDX 85 24 6 25 18 27 19 28 20 29 21 30 22 31 23 32 24 33 25 34
REMARK SMILES IDX 26 35 27 36 28 37 80 38 29 39 79 40 30 41 31 42 32 43 73 44
REMARK SMILES IDX 33 45 78 46 72 47 74 48 34 49 77 50 71 51 70 52 35 54 61 55
REMARK SMILES IDX 44 56 60 57 45 58 48 59 59 60 75 61 46 62 47 63 58 65 76 66
REMARK SMILES IDX 49 67 36 68 37 69 42 70 38 71 39 72 41 73 43 74 40 75 62 76
REMARK SMILES IDX 63 77 68 78 64 79 65 80 67 81 69 82 66 83 50 84 51 85 56 86
REMARK SMILES IDX 52 87 53 88 55 89 57 90 54 91
REMARK H PARENT 6 26 74 53 48 64
REMARK Flexibility Score: inf
ROOT
ATOM      1  C   UNL     1      -6.508   1.897   1.470  1.00  0.00     0.188 C 
ENDROOT
BRANCH   1   2
ATOM      2  C   UNL     1      -7.169   0.686   2.171  1.00  0.00     0.188 C 
BRANCH   2   3
ATOM      3  O   UNL     1      -8.053   0.850   3.275  1.00  0.00    -0.376 OA
BRANCH   3   4
ATOM      4  C   UNL     1      -8.130   2.102   3.929  1.00  0.00     0.202 C 
BRANCH   4   5
ATOM      5  C   UNL     1      -6.862   2.613   4.643  1.00  0.00     0.261 C 
BRANCH   5   6
ATOM      6  O   UNL     1      -5.599   2.157   4.107  1.00  0.00    -0.463 OA
BRANCH   6   7
ATOM      7  C   UNL     1      -5.143   0.987   4.596  1.00  0.00     0.306 C 
ATOM      8  O   UNL     1      -5.688   0.383   5.518  1.00  0.00    -0.252 OA
BRANCH   7   9
ATOM      9  C   UNL     1      -3.884   0.410   3.944  1.00  0.00     0.129 C 
BRANCH   9  10
ATOM     10  C   UNL     1      -3.032   0.952   2.725  1.00  0.00    -0.016 C 
ATOM     11  C   UNL     1      -1.548   0.632   3.085  1.00  0.00     0.008 C 
ATOM     12  C   UNL     1      -2.934   2.487   2.613  1.00  0.00     0.008 C 
ATOM     13  C   UNL     1      -1.109   1.740   4.040  1.00  0.00     0.001 C 
ATOM     14  C   UNL     1      -1.989   2.941   3.720  1.00  0.00     0.001 C 
BRANCH  10  15
ATOM     15  C   UNL     1      -3.407   0.190   1.376  1.00  0.00     0.044 C 
BRANCH  15  16
ATOM     16  C   UNL     1      -2.872   0.772   0.033  1.00  0.00     0.145 C 
BRANCH  16  17
ATOM     17  C   UNL     1      -3.336   0.173  -1.290  1.00  0.00    -0.019 A 
ATOM     18  C   UNL     1      -4.643  -3.017  -2.961  1.00  0.00     0.047 C 
ATOM     19  C   UNL     1      -4.167  -1.612  -2.742  1.00  0.00    -0.015 A 
ATOM     20  C   UNL     1      -3.761  -1.153  -1.470  1.00  0.00     0.012 A 
ATOM     21  C   UNL     1      -4.170  -0.724  -3.823  1.00  0.00     0.126 A 
ATOM     22  C   UNL     1      -3.714   0.575  -3.681  1.00  0.00     0.040 A 
ATOM     23  F   UNL     1      -4.625  -1.123  -5.019  1.00  0.00    -0.207 F 
ATOM     24  C   UNL     1      -3.273   1.005  -2.430  1.00  0.00     0.009 A 
ENDBRANCH  16  17
BRANCH  16  25
ATOM     25  O   UNL     1      -1.450   0.726   0.007  1.00  0.00    -0.388 OA
ATOM     26  H   UNL     1      -1.157  -0.199  -0.020  1.00  0.00     0.211 HD
ENDBRANCH  16  25
ENDBRANCH  15  16
ENDBRANCH  10  15
ENDBRANCH   9  10
ENDBRANCH   7   9
ENDBRANCH   6   7
ENDBRANCH   5   6
ENDBRANCH   4   5
ENDBRANCH   3   4
ENDBRANCH   2   3
ENDBRANCH   1   2
BRANCH   1  27
ATOM     27  O   UNL     1      -7.125   3.151   1.677  1.00  0.00    -0.377 OA
BRANCH  27  28
ATOM     28  C   UNL     1      -8.057   3.620   0.722  1.00  0.00     0.188 C 
BRANCH  28  29
ATOM     29  C   UNL     1      -9.006   2.635   0.013  1.00  0.00     0.188 C 
BRANCH  29  30
ATOM     30  O   UNL     1      -8.450   1.346  -0.206  1.00  0.00    -0.376 OA
BRANCH  30  31
ATOM     31  C   UNL     1      -8.280   0.872  -1.528  1.00  0.00     0.202 C 
BRANCH  31  32
ATOM     32  C   UNL     1      -6.916   1.164  -2.163  1.00  0.00     0.261 C 
BRANCH  32  33
ATOM     33  O   UNL     1      -6.297   2.383  -1.769  1.00  0.00    -0.460 OA
BRANCH  33  34
ATOM     34  C   UNL     1      -6.961   3.465  -2.203  1.00  0.00     0.338 C 
ATOM     35  O   UNL     1      -8.040   3.474  -2.764  1.00  0.00    -0.246 OA
BRANCH  34  36
ATOM     36  C   UNL     1      -6.169   4.685  -1.980  1.00  0.00     0.060 A 
ATOM     37  C   UNL     1      -6.900   5.856  -2.210  1.00  0.00     0.016 A 
ATOM     38  C   UNL     1      -4.807   4.576  -2.245  1.00  0.00     0.016 A 
ATOM     39  C   UNL     1      -6.392   6.736  -3.129  1.00  0.00     0.010 A 
ATOM     40  C   UNL     1      -4.299   5.447  -3.165  1.00  0.00     0.010 A 
ATOM     41  C   UNL     1      -5.148   6.433  -3.676  1.00  0.00    -0.014 A 
BRANCH  41  42
ATOM     42  C   UNL     1      -4.658   7.136  -4.825  1.00  0.00     0.031 A 
ATOM     43  C   UNL     1      -4.144   8.481  -4.587  1.00  0.00     0.074 A 
ATOM     44  C   UNL     1      -4.748   6.564  -6.042  1.00  0.00     0.049 A 
ATOM     45  N   UNL     1      -4.271   9.451  -5.416  1.00  0.00    -0.248 NA
ATOM     46  C   UNL     1      -3.554   8.869  -3.308  1.00  0.00     0.031 C 
ATOM     47  C   UNL     1      -4.100   6.999  -7.266  1.00  0.00     0.029 A 
ATOM     48  N   UNL     1      -5.615   5.544  -6.443  1.00  0.00    -0.354 N 
ATOM     49  C   UNL     1      -3.483  10.469  -4.940  1.00  0.00     0.074 A 
ATOM     50  C   UNL     1      -3.190  10.127  -3.568  1.00  0.00     0.031 C 
ATOM     51  C   UNL     1      -4.716   6.426  -8.312  1.00  0.00     0.029 A 
ATOM     52  C   UNL     1      -5.889   5.730  -7.806  1.00  0.00     0.049 A 
ATOM     53  H   UNL     1      -5.969   4.825  -5.871  1.00  0.00     0.167 HD
ATOM     54  C   UNL     1      -2.990  11.374  -5.827  1.00  0.00     0.037 A 
ATOM     55  C   UNL     1      -7.161   5.947  -8.252  1.00  0.00     0.037 A 
ATOM     56  C   UNL     1      -3.432  11.048  -7.177  1.00  0.00     0.049 A 
ATOM     57  C   UNL     1      -7.340   7.300  -8.895  1.00  0.00     0.074 A 
ATOM     58  C   UNL     1      -2.847  10.272  -8.166  1.00  0.00     0.029 A 
ATOM     59  N   UNL     1      -4.769  11.184  -7.521  1.00  0.00    -0.354 N 
ATOM     60  N   UNL     1      -6.590   8.334  -8.629  1.00  0.00    -0.248 NA
ATOM     61  C   UNL     1      -8.356   7.590  -9.899  1.00  0.00     0.031 C 
ATOM     62  C   UNL     1      -3.840   9.950  -9.120  1.00  0.00     0.029 A 
ATOM     63  C   UNL     1      -5.026  10.535  -8.713  1.00  0.00     0.049 A 
ATOM     64  H   UNL     1      -5.439  11.673  -6.991  1.00  0.00     0.167 HD
ATOM     65  C   UNL     1      -6.980   9.398  -9.407  1.00  0.00     0.074 A 
ATOM     66  C   UNL     1      -8.084   8.875 -10.189  1.00  0.00     0.031 C 
ATOM     67  C   UNL     1      -6.340  10.605  -9.333  1.00  0.00     0.037 A 
BRANCH  54  68
ATOM     68  C   UNL     1      -1.831  12.280  -5.519  1.00  0.00     0.057 A 
ATOM     69  C   UNL     1      -0.886  12.595  -6.514  1.00  0.00     0.134 A 
ATOM     70  C   UNL     1      -1.570  12.842  -4.259  1.00  0.00     0.134 A 
ATOM     71  F   UNL     1      -1.037  12.203  -7.785  1.00  0.00    -0.206 F 
ATOM     72  C   UNL     1       0.275  13.328  -6.254  1.00  0.00     0.040 A 
ATOM     73  C   UNL     1      -0.389  13.542  -3.973  1.00  0.00     0.040 A 
ATOM     74  F   UNL     1      -2.463  12.769  -3.262  1.00  0.00    -0.206 F 
ATOM     75  C   UNL     1       0.544  13.780  -4.973  1.00  0.00     0.006 A 
ENDBRANCH  54  68
BRANCH  55  76
ATOM     76  C   UNL     1      -8.200   5.230  -7.474  1.00  0.00     0.057 A 
ATOM     77  C   UNL     1      -8.292   3.834  -7.613  1.00  0.00     0.134 A 
ATOM     78  C   UNL     1      -8.806   5.804  -6.351  1.00  0.00     0.134 A 
ATOM     79  F   UNL     1      -7.726   3.224  -8.667  1.00  0.00    -0.206 F 
ATOM     80  C   UNL     1      -8.868   3.030  -6.628  1.00  0.00     0.040 A 
ATOM     81  C   UNL     1      -9.383   5.008  -5.357  1.00  0.00     0.040 A 
ATOM     82  F   UNL     1      -8.749   7.127  -6.144  1.00  0.00    -0.206 F 
ATOM     83  C   UNL     1      -9.391   3.618  -5.483  1.00  0.00     0.006 A 
ENDBRANCH  55  76
BRANCH  67  84
ATOM     84  C   UNL     1      -6.783  11.945  -9.894  1.00  0.00     0.057 A 
ATOM     85  C   UNL     1      -8.077  12.248 -10.333  1.00  0.00     0.134 A 
ATOM     86  C   UNL     1      -5.901  13.060  -9.872  1.00  0.00     0.134 A 
ATOM     87  F   UNL     1      -9.060  11.342 -10.324  1.00  0.00    -0.206 F 
ATOM     88  C   UNL     1      -8.453  13.534 -10.754  1.00  0.00     0.040 A 
ATOM     89  C   UNL     1      -6.284  14.357 -10.223  1.00  0.00     0.040 A 
ATOM     90  F   UNL     1      -4.623  12.958  -9.482  1.00  0.00    -0.206 F 
ATOM     91  C   UNL     1      -7.564  14.597 -10.682  1.00  0.00     0.006 A 
ENDBRANCH  67  84
ENDBRANCH  41  42
ENDBRANCH  34  36
ENDBRANCH  33  34
ENDBRANCH  32  33
ENDBRANCH  31  32
ENDBRANCH  30  31
ENDBRANCH  29  30
ENDBRANCH  28  29
ENDBRANCH  27  28
ENDBRANCH   1  27
TORSDOF 25
