REMARK SMILES Cc1n[nH]c(C)c1CC(=O)N1CC[C@H](C(=O)OCCOCCOCCOCCOC(=O)c2ccc(-c3c4nc(c(-c5c(F)cccc5F)c5ccc([nH]5)c(-c5c(F)cccc5F)c5nc(c(-c6c(F)cccc6F)c6ccc3[nH]6)C=C5)C=C4)cc2)[C@H]1C
REMARK SMILES IDX 22 1 21 2 20 3 19 4 18 5 17 6 15 7 16 8 14 9 11 10 12 11
REMARK SMILES IDX 86 12 13 13 87 14 9 15 10 16 8 17 7 18 1 19 2 20 3 21 4 22
REMARK SMILES IDX 5 23 6 25 23 26 24 27 25 28 26 29 27 30 28 31 29 32 30 33
REMARK SMILES IDX 31 34 32 35 33 36 85 37 34 38 84 39 35 40 36 41 37 42 78 43
REMARK SMILES IDX 38 44 83 45 77 46 79 47 39 48 82 49 76 50 75 51 40 53 66 54
REMARK SMILES IDX 49 55 65 56 50 57 53 58 64 59 80 60 51 61 52 62 63 64 81 65
REMARK SMILES IDX 54 66 41 67 42 68 47 69 43 70 44 71 46 72 48 73 45 74 67 75
REMARK SMILES IDX 68 76 73 77 69 78 70 79 72 80 74 81 71 82 55 83 56 84 61 85
REMARK SMILES IDX 57 86 58 87 60 88 62 89 59 90
REMARK H PARENT 4 24 79 52 53 63
REMARK Flexibility Score: inf
ROOT
ATOM      1  C   UNL     1      -2.654  -2.258   3.837  1.00  0.00     0.188 C 
ENDROOT
BRANCH   1   2
ATOM      2  C   UNL     1      -2.642  -2.850   5.264  1.00  0.00     0.188 C 
BRANCH   2   3
ATOM      3  O   UNL     1      -3.281  -2.187   6.348  1.00  0.00    -0.376 OA
BRANCH   3   4
ATOM      4  C   UNL     1      -3.509  -0.791   6.286  1.00  0.00     0.202 C 
BRANCH   4   5
ATOM      5  C   UNL     1      -2.310   0.163   6.098  1.00  0.00     0.261 C 
BRANCH   5   6
ATOM      6  O   UNL     1      -1.252  -0.258   5.206  1.00  0.00    -0.463 OA
BRANCH   6   7
ATOM      7  C   UNL     1      -0.198  -0.869   5.793  1.00  0.00     0.311 C 
ATOM      8  O   UNL     1      -0.089  -1.014   7.008  1.00  0.00    -0.252 OA
BRANCH   7   9
ATOM      9  C   UNL     1       0.892  -1.379   4.854  1.00  0.00     0.123 C 
ATOM     10  N   UNL     1       0.560  -2.596   2.785  1.00  0.00    -0.339 N 
ATOM     11  C   UNL     1       0.607  -3.582   3.849  1.00  0.00     0.121 C 
ATOM     12  C   UNL     1       0.854  -1.243   3.308  1.00  0.00     0.096 C 
ATOM     13  C   UNL     1       1.149  -2.876   5.078  1.00  0.00     0.039 C 
ATOM     14  C   UNL     1       2.245  -0.792   2.863  1.00  0.00     0.032 C 
BRANCH  10  15
ATOM     15  C   UNL     1       0.048  -2.997   1.559  1.00  0.00     0.227 C 
ATOM     16  O   UNL     1      -0.588  -4.063   1.495  1.00  0.00    -0.275 OA
BRANCH  15  17
ATOM     17  C   UNL     1       0.416  -2.334   0.236  1.00  0.00     0.139 C 
BRANCH  17  18
ATOM     18  C   UNL     1       0.271  -0.864   0.062  1.00  0.00     0.005 A 
ATOM     19  C   UNL     1      -2.328  -0.569   0.062  1.00  0.00     0.069 C 
ATOM     20  C   UNL     1      -0.924  -0.093   0.020  1.00  0.00     0.063 A 
ATOM     21  N   UNL     1      -0.669   1.207  -0.167  1.00  0.00    -0.181 NA
ATOM     22  N   UNL     1       0.654   1.260  -0.348  1.00  0.00    -0.282 N 
ATOM     23  C   UNL     1       1.257   0.035  -0.322  1.00  0.00     0.036 A 
ATOM     24  H   UNL     1       1.147   2.101  -0.487  1.00  0.00     0.190 HD
ATOM     25  C   UNL     1       2.682  -0.141  -0.702  1.00  0.00     0.066 C 
ENDBRANCH  17  18
ENDBRANCH  15  17
ENDBRANCH  10  15
ENDBRANCH   7   9
ENDBRANCH   6   7
ENDBRANCH   5   6
ENDBRANCH   4   5
ENDBRANCH   3   4
ENDBRANCH   2   3
ENDBRANCH   1   2
BRANCH   1  26
ATOM     26  O   UNL     1      -3.575  -1.201   3.643  1.00  0.00    -0.377 OA
BRANCH  26  27
ATOM     27  C   UNL     1      -4.776  -1.551   2.981  1.00  0.00     0.188 C 
BRANCH  27  28
ATOM     28  C   UNL     1      -5.515  -2.792   3.510  1.00  0.00     0.188 C 
BRANCH  28  29
ATOM     29  O   UNL     1      -4.681  -3.929   3.615  1.00  0.00    -0.376 OA
BRANCH  29  30
ATOM     30  C   UNL     1      -4.601  -4.923   2.614  1.00  0.00     0.202 C 
BRANCH  30  31
ATOM     31  C   UNL     1      -4.380  -4.613   1.122  1.00  0.00     0.261 C 
BRANCH  31  32
ATOM     32  O   UNL     1      -4.839  -3.357   0.621  1.00  0.00    -0.460 OA
BRANCH  32  33
ATOM     33  C   UNL     1      -6.152  -3.244   0.340  1.00  0.00     0.338 C 
ATOM     34  O   UNL     1      -7.012  -4.099   0.479  1.00  0.00    -0.246 OA
BRANCH  33  35
ATOM     35  C   UNL     1      -6.423  -1.827   0.018  1.00  0.00     0.060 A 
ATOM     36  C   UNL     1      -7.294  -1.110   0.849  1.00  0.00     0.016 A 
ATOM     37  C   UNL     1      -5.809  -1.201  -1.070  1.00  0.00     0.016 A 
ATOM     38  C   UNL     1      -7.577   0.227   0.579  1.00  0.00     0.010 A 
ATOM     39  C   UNL     1      -6.118   0.132  -1.359  1.00  0.00     0.010 A 
ATOM     40  C   UNL     1      -7.031   0.838  -0.556  1.00  0.00    -0.014 A 
BRANCH  40  41
ATOM     41  C   UNL     1      -7.605   2.122  -1.024  1.00  0.00     0.031 A 
ATOM     42  C   UNL     1      -8.666   2.070  -2.090  1.00  0.00     0.074 A 
ATOM     43  C   UNL     1      -7.242   3.297  -0.483  1.00  0.00     0.049 A 
ATOM     44  N   UNL     1      -9.289   3.047  -2.695  1.00  0.00    -0.248 NA
ATOM     45  C   UNL     1      -9.080   0.727  -2.532  1.00  0.00     0.031 C 
ATOM     46  C   UNL     1      -6.267   3.471   0.591  1.00  0.00     0.029 A 
ATOM     47  N   UNL     1      -7.654   4.574  -0.777  1.00  0.00    -0.354 N 
ATOM     48  C   UNL     1     -10.167   2.439  -3.583  1.00  0.00     0.074 A 
ATOM     49  C   UNL     1      -9.968   1.012  -3.471  1.00  0.00     0.031 C 
ATOM     50  C   UNL     1      -6.137   4.784   0.851  1.00  0.00     0.029 A 
ATOM     51  C   UNL     1      -6.994   5.542  -0.060  1.00  0.00     0.049 A 
ATOM     52  H   UNL     1      -8.355   4.776  -1.438  1.00  0.00     0.167 HD
ATOM     53  C   UNL     1     -11.069   3.018  -4.410  1.00  0.00     0.037 A 
ATOM     54  C   UNL     1      -7.054   6.885  -0.157  1.00  0.00     0.037 A 
ATOM     55  C   UNL     1     -11.254   4.439  -4.529  1.00  0.00     0.049 A 
ATOM     56  C   UNL     1      -7.997   7.509  -1.156  1.00  0.00     0.074 A 
ATOM     57  C   UNL     1     -12.128   5.129  -5.349  1.00  0.00     0.029 A 
ATOM     58  N   UNL     1     -10.545   5.388  -3.808  1.00  0.00    -0.354 N 
ATOM     59  N   UNL     1      -8.829   6.928  -1.988  1.00  0.00    -0.248 NA
ATOM     60  C   UNL     1      -8.014   8.978  -1.225  1.00  0.00     0.031 C 
ATOM     61  C   UNL     1     -11.912   6.497  -5.162  1.00  0.00     0.029 A 
ATOM     62  C   UNL     1     -10.949   6.659  -4.179  1.00  0.00     0.049 A 
ATOM     63  H   UNL     1      -9.856   5.188  -3.133  1.00  0.00     0.167 HD
ATOM     64  C   UNL     1      -9.487   7.957  -2.653  1.00  0.00     0.074 A 
ATOM     65  C   UNL     1      -8.970   9.198  -2.116  1.00  0.00     0.031 C 
ATOM     66  C   UNL     1     -10.433   7.884  -3.622  1.00  0.00     0.037 A 
BRANCH  53  67
ATOM     67  C   UNL     1     -11.906   2.110  -5.263  1.00  0.00     0.057 A 
ATOM     68  C   UNL     1     -12.908   1.298  -4.716  1.00  0.00     0.134 A 
ATOM     69  C   UNL     1     -11.726   2.068  -6.651  1.00  0.00     0.134 A 
ATOM     70  F   UNL     1     -13.119   1.277  -3.391  1.00  0.00    -0.206 F 
ATOM     71  C   UNL     1     -13.688   0.462  -5.517  1.00  0.00     0.040 A 
ATOM     72  C   UNL     1     -12.520   1.258  -7.465  1.00  0.00     0.040 A 
ATOM     73  F   UNL     1     -10.784   2.820  -7.240  1.00  0.00    -0.206 F 
ATOM     74  C   UNL     1     -13.500   0.448  -6.897  1.00  0.00     0.006 A 
ENDBRANCH  53  67
BRANCH  54  75
ATOM     75  C   UNL     1      -6.171   7.738   0.681  1.00  0.00     0.057 A 
ATOM     76  C   UNL     1      -6.691   8.601   1.653  1.00  0.00     0.134 A 
ATOM     77  C   UNL     1      -4.783   7.748   0.492  1.00  0.00     0.134 A 
ATOM     78  F   UNL     1      -8.014   8.659   1.866  1.00  0.00    -0.206 F 
ATOM     79  C   UNL     1      -5.870   9.461   2.385  1.00  0.00     0.040 A 
ATOM     80  C   UNL     1      -3.947   8.580   1.238  1.00  0.00     0.040 A 
ATOM     81  F   UNL     1      -4.218   6.950  -0.426  1.00  0.00    -0.206 F 
ATOM     82  C   UNL     1      -4.492   9.449   2.180  1.00  0.00     0.006 A 
ENDBRANCH  54  75
BRANCH  66  83
ATOM     83  C   UNL     1     -11.009   9.176  -4.128  1.00  0.00     0.057 A 
ATOM     84  C   UNL     1     -10.269  10.062  -4.921  1.00  0.00     0.134 A 
ATOM     85  C   UNL     1     -12.341   9.515  -3.853  1.00  0.00     0.134 A 
ATOM     86  F   UNL     1      -8.985   9.803  -5.214  1.00  0.00    -0.206 F 
ATOM     87  C   UNL     1     -10.824  11.250  -5.400  1.00  0.00     0.040 A 
ATOM     88  C   UNL     1     -12.916  10.684  -4.353  1.00  0.00     0.040 A 
ATOM     89  F   UNL     1     -13.111   8.706  -3.111  1.00  0.00    -0.206 F 
ATOM     90  C   UNL     1     -12.154  11.559  -5.123  1.00  0.00     0.006 A 
ENDBRANCH  66  83
ENDBRANCH  40  41
ENDBRANCH  33  35
ENDBRANCH  32  33
ENDBRANCH  31  32
ENDBRANCH  30  31
ENDBRANCH  29  30
ENDBRANCH  28  29
ENDBRANCH  27  28
ENDBRANCH  26  27
ENDBRANCH   1  26
TORSDOF 23
