REMARK SMILES Cc1ccc(C(=O)N2CCCC[C@@H]2C(=O)OCCOCCOCCOCCOC(=O)c2ccc(-c3c4nc(c(-c5c(F)cccc5F)c5ccc([nH]5)c(-c5c(F)cccc5F)c5nc(c(-c6c(F)cccc6F)c6ccc3[nH]6)C=C5)C=C4)cc2)cc1S(=O)(=O)N1CCCCC1
REMARK SMILES IDX 21 1 20 2 19 3 18 4 17 5 16 6 14 7 15 8 13 9 8 10 9 11 10 12
REMARK SMILES IDX 12 13 11 14 6 15 7 16 5 17 1 18 2 19 3 20 86 21 4 22 85 23
REMARK SMILES IDX 87 24 88 25 89 26 90 27 91 28 95 29 92 30 94 31 93 32 22 33
REMARK SMILES IDX 23 34 24 35 25 36 26 37 27 38 28 39 29 40 30 41 31 42 32 43
REMARK SMILES IDX 84 44 33 45 83 46 34 47 35 48 36 49 77 50 37 51 82 52 76 53
REMARK SMILES IDX 78 54 38 55 81 56 75 57 74 58 39 60 65 61 48 62 64 63 49 64
REMARK SMILES IDX 52 65 63 66 79 67 50 68 51 69 62 71 80 72 53 73 40 74 41 75
REMARK SMILES IDX 46 76 42 77 43 78 45 79 47 80 44 81 66 82 67 83 72 84 68 85
REMARK SMILES IDX 69 86 71 87 73 88 70 89 54 90 55 91 60 92 56 93 57 94 59 95
REMARK SMILES IDX 61 96 58 97
REMARK H PARENT 78 59 52 70
REMARK Flexibility Score: inf
ROOT
ATOM      1  C   UNL     1      -5.711   2.893  -4.863  1.00  0.00     0.188 C 
ENDROOT
BRANCH   1   2
ATOM      2  C   UNL     1      -4.377   2.194  -5.245  1.00  0.00     0.188 C 
BRANCH   2   3
ATOM      3  O   UNL     1      -4.191   0.527  -5.643  1.00  0.00    -0.376 OA
BRANCH   3   4
ATOM      4  C   UNL     1      -3.066  -0.705  -4.960  1.00  0.00     0.202 C 
BRANCH   4   5
ATOM      5  C   UNL     1      -2.076  -0.659  -3.341  1.00  0.00     0.261 C 
BRANCH   5   6
ATOM      6  O   UNL     1      -2.145   0.677  -2.091  1.00  0.00    -0.462 OA
BRANCH   6   7
ATOM      7  C   UNL     1      -2.199   2.253  -1.825  1.00  0.00     0.328 C 
ATOM      8  O   UNL     1      -1.909   3.144  -2.648  1.00  0.00    -0.250 OA
BRANCH   7   9
ATOM      9  C   UNL     1      -2.973   2.836  -0.508  1.00  0.00     0.195 C 
ATOM     10  N   UNL     1      -3.612   1.938   0.454  1.00  0.00    -0.325 N 
ATOM     11  C   UNL     1      -4.550   2.505   1.419  1.00  0.00     0.121 C 
ATOM     12  C   UNL     1      -5.759   3.052   0.709  1.00  0.00     0.022 C 
ATOM     13  C   UNL     1      -3.981   4.017  -0.945  1.00  0.00     0.037 C 
ATOM     14  C   UNL     1      -5.327   4.192  -0.193  1.00  0.00     0.005 C 
BRANCH  10  15
ATOM     15  C   UNL     1      -3.161   0.641   0.699  1.00  0.00     0.254 C 
ATOM     16  O   UNL     1      -3.681   0.025   1.630  1.00  0.00    -0.269 OA
BRANCH  15  17
ATOM     17  C   UNL     1      -1.843   0.243   0.021  1.00  0.00     0.041 A 
ATOM     18  C   UNL     1       2.970  -1.635   0.688  1.00  0.00     0.046 C 
ATOM     19  C   UNL     1       1.675  -0.925   0.514  1.00  0.00    -0.031 A 
ATOM     20  C   UNL     1       0.546  -1.774  -0.410  1.00  0.00     0.005 A 
ATOM     21  C   UNL     1       1.166   0.624   1.178  1.00  0.00     0.086 A 
ATOM     22  C   UNL     1      -1.084  -1.235  -0.673  1.00  0.00     0.014 A 
ATOM     23  C   UNL     1      -0.788   1.256   0.802  1.00  0.00     0.035 A 
BRANCH  21  24
ATOM     24  S   UNL     1       2.674   1.502   2.153  1.00  0.00     0.243 S 
ATOM     25  O   UNL     1       2.782   2.942   1.986  1.00  0.00    -0.207 OA
ATOM     26  O   UNL     1       2.678   0.934   3.486  1.00  0.00    -0.207 OA
BRANCH  24  27
ATOM     27  N   UNL     1       4.061   0.970   1.347  1.00  0.00    -0.198 NA
ATOM     28  C   UNL     1       5.199   0.967   2.268  1.00  0.00     0.102 C 
ATOM     29  C   UNL     1       4.222   1.280  -0.082  1.00  0.00     0.102 C 
ATOM     30  C   UNL     1       6.541   0.953   1.593  1.00  0.00     0.017 C 
ATOM     31  C   UNL     1       5.595   0.991  -0.669  1.00  0.00     0.017 C 
ATOM     32  C   UNL     1       6.485   0.212   0.273  1.00  0.00     0.003 C 
ENDBRANCH  24  27
ENDBRANCH  21  24
ENDBRANCH  15  17
ENDBRANCH  10  15
ENDBRANCH   7   9
ENDBRANCH   6   7
ENDBRANCH   5   6
ENDBRANCH   4   5
ENDBRANCH   3   4
ENDBRANCH   2   3
ENDBRANCH   1   2
BRANCH   1  33
ATOM     33  O   UNL     1      -6.741   2.987  -5.819  1.00  0.00    -0.377 OA
BRANCH  33  34
ATOM     34  C   UNL     1      -6.609   1.972  -6.782  1.00  0.00     0.188 C 
BRANCH  34  35
ATOM     35  C   UNL     1      -5.624   2.357  -7.889  1.00  0.00     0.188 C 
BRANCH  35  36
ATOM     36  O   UNL     1      -4.492   3.105  -7.510  1.00  0.00    -0.376 OA
BRANCH  36  37
ATOM     37  C   UNL     1      -4.388   4.513  -7.518  1.00  0.00     0.202 C 
BRANCH  37  38
ATOM     38  C   UNL     1      -4.271   4.934  -8.966  1.00  0.00     0.261 C 
BRANCH  38  39
ATOM     39  O   UNL     1      -3.076   4.355  -9.576  1.00  0.00    -0.460 OA
BRANCH  39  40
ATOM     40  C   UNL     1      -3.041   2.995  -9.728  1.00  0.00     0.338 C 
ATOM     41  O   UNL     1      -3.814   2.352 -10.423  1.00  0.00    -0.246 OA
BRANCH  40  42
ATOM     42  C   UNL     1      -2.089   2.382  -8.732  1.00  0.00     0.060 A 
ATOM     43  C   UNL     1      -2.177   1.027  -8.459  1.00  0.00     0.016 A 
ATOM     44  C   UNL     1      -1.448   3.184  -7.792  1.00  0.00     0.016 A 
ATOM     45  C   UNL     1      -1.914   0.577  -7.154  1.00  0.00     0.010 A 
ATOM     46  C   UNL     1      -1.412   2.764  -6.453  1.00  0.00     0.010 A 
ATOM     47  C   UNL     1      -1.842   1.478  -6.059  1.00  0.00    -0.014 A 
BRANCH  47  48
ATOM     48  C   UNL     1      -2.219   1.354  -4.364  1.00  0.00     0.031 A 
ATOM     49  C   UNL     1      -0.550   1.509  -3.834  1.00  0.00     0.074 A 
ATOM     50  C   UNL     1      -3.656   0.990  -3.509  1.00  0.00     0.049 A 
ATOM     51  N   UNL     1      -0.076   1.442  -2.619  1.00  0.00    -0.248 NA
ATOM     52  C   UNL     1       0.611   1.592  -4.750  1.00  0.00     0.031 C 
ATOM     53  C   UNL     1      -4.407   1.370  -2.247  1.00  0.00     0.029 A 
ATOM     54  N   UNL     1      -4.611  -0.187  -3.546  1.00  0.00    -0.354 N 
ATOM     55  C   UNL     1       1.121   2.079  -2.565  1.00  0.00     0.074 A 
ATOM     56  C   UNL     1       1.597   1.937  -3.914  1.00  0.00     0.031 C 
ATOM     57  C   UNL     1      -4.916   0.365  -1.508  1.00  0.00     0.029 A 
ATOM     58  C   UNL     1      -4.846  -0.780  -2.309  1.00  0.00     0.049 A 
ATOM     59  H   UNL     1      -5.030  -0.506  -4.377  1.00  0.00     0.167 HD
ATOM     60  C   UNL     1       1.452   2.758  -1.421  1.00  0.00     0.037 A 
ATOM     61  C   UNL     1      -5.224  -2.011  -1.890  1.00  0.00     0.037 A 
ATOM     62  C   UNL     1       0.775   2.163  -0.128  1.00  0.00     0.049 A 
ATOM     63  C   UNL     1      -4.446  -2.436  -0.568  1.00  0.00     0.074 A 
ATOM     64  C   UNL     1       0.447   2.537   1.601  1.00  0.00     0.029 A 
ATOM     65  N   UNL     1       0.254   0.389  -0.340  1.00  0.00    -0.354 N 
ATOM     66  N   UNL     1      -3.405  -1.761  -0.117  1.00  0.00    -0.248 NA
ATOM     67  C   UNL     1      -4.663  -3.558   0.343  1.00  0.00     0.031 C 
ATOM     68  C   UNL     1      -0.183   0.932   2.597  1.00  0.00     0.029 A 
ATOM     69  C   UNL     1      -0.394  -0.457   1.384  1.00  0.00     0.049 A 
ATOM     70  H   UNL     1       0.288  -0.088  -1.200  1.00  0.00     0.167 HD
ATOM     71  C   UNL     1      -2.724  -2.305   1.028  1.00  0.00     0.074 A 
ATOM     72  C   UNL     1      -3.671  -3.423   1.272  1.00  0.00     0.031 C 
ATOM     73  C   UNL     1      -1.419  -1.901   1.632  1.00  0.00     0.037 A 
BRANCH  60  74
ATOM     74  C   UNL     1       2.579   3.824  -1.476  1.00  0.00     0.057 A 
ATOM     75  C   UNL     1       2.832   4.659  -0.387  1.00  0.00     0.134 A 
ATOM     76  C   UNL     1       3.576   3.940  -2.481  1.00  0.00     0.134 A 
ATOM     77  F   UNL     1       1.846   4.983   0.460  1.00  0.00    -0.206 F 
ATOM     78  C   UNL     1       4.111   5.205  -0.138  1.00  0.00     0.040 A 
ATOM     79  C   UNL     1       4.858   4.460  -2.255  1.00  0.00     0.040 A 
ATOM     80  F   UNL     1       3.356   3.644  -3.763  1.00  0.00    -0.206 F 
ATOM     81  C   UNL     1       5.159   5.021  -1.034  1.00  0.00     0.006 A 
ENDBRANCH  60  74
BRANCH  61  82
ATOM     82  C   UNL     1      -6.068  -2.615  -3.007  1.00  0.00     0.057 A 
ATOM     83  C   UNL     1      -7.233  -1.844  -3.329  1.00  0.00     0.134 A 
ATOM     84  C   UNL     1      -5.481  -3.248  -4.116  1.00  0.00     0.134 A 
ATOM     85  F   UNL     1      -7.870  -1.173  -2.355  1.00  0.00    -0.206 F 
ATOM     86  C   UNL     1      -7.596  -1.504  -4.651  1.00  0.00     0.040 A 
ATOM     87  C   UNL     1      -5.869  -2.945  -5.449  1.00  0.00     0.040 A 
ATOM     88  F   UNL     1      -4.374  -3.987  -3.958  1.00  0.00    -0.206 F 
ATOM     89  C   UNL     1      -6.874  -2.015  -5.718  1.00  0.00     0.006 A 
ENDBRANCH  61  82
BRANCH  73  90
ATOM     90  C   UNL     1      -0.619  -3.035   2.310  1.00  0.00     0.057 A 
ATOM     91  C   UNL     1      -0.705  -4.390   1.921  1.00  0.00     0.134 A 
ATOM     92  C   UNL     1       0.501  -2.731   3.103  1.00  0.00     0.134 A 
ATOM     93  F   UNL     1      -1.631  -4.836   1.063  1.00  0.00    -0.206 F 
ATOM     94  C   UNL     1       0.232  -5.358   2.301  1.00  0.00     0.040 A 
ATOM     95  C   UNL     1       1.497  -3.672   3.404  1.00  0.00     0.040 A 
ATOM     96  F   UNL     1       0.730  -1.491   3.550  1.00  0.00    -0.206 F 
ATOM     97  C   UNL     1       1.365  -4.992   3.005  1.00  0.00     0.006 A 
ENDBRANCH  73  90
ENDBRANCH  47  48
ENDBRANCH  40  42
ENDBRANCH  39  40
ENDBRANCH  38  39
ENDBRANCH  37  38
ENDBRANCH  36  37
ENDBRANCH  35  36
ENDBRANCH  34  35
ENDBRANCH  33  34
ENDBRANCH   1  33
TORSDOF 24
