REMARK SMILES O=C(OCCOCCOCCOCCOC(=O)[C@H]1Cc2c([nH]c3ccccc23)[C@H](c2c[nH]c3ccccc23)[NH2+]1)c1ccc(-c2c3nc(c(-c4c(F)cccc4F)c4ccc([nH]4)c(-c4c(F)cccc4F)c4nc(c(-c5c(F)cccc5F)c5ccc2[nH]5)C=C4)C=C3)cc1
REMARK SMILES IDX 8 1 7 2 6 3 5 4 4 5 3 6 2 7 1 8 40 9 41 10 93 11 42 12 92 13
REMARK SMILES IDX 43 14 44 15 45 16 86 17 46 18 91 19 85 20 87 21 47 22 90 23
REMARK SMILES IDX 84 24 83 25 48 27 74 28 57 29 73 30 58 31 61 32 72 33 88 34
REMARK SMILES IDX 59 35 60 36 71 38 89 39 62 40 49 41 50 42 55 43 51 44 52 45
REMARK SMILES IDX 54 46 56 47 53 48 75 49 76 50 81 51 77 52 78 53 80 54 82 55
REMARK SMILES IDX 79 56 63 57 64 58 69 59 65 60 66 61 68 62 70 63 67 64 9 65
REMARK SMILES IDX 10 66 11 67 12 68 13 69 14 70 15 71 16 72 17 73 18 74 19 75
REMARK SMILES IDX 39 76 20 77 29 78 21 81 28 82 22 83 23 84 27 85 24 87 26 88
REMARK SMILES IDX 25 89 30 90 31 91 38 92 32 93 33 94 37 95 34 97 36 98 35 99
REMARK H PARENT 87 26 61 37 39 79 39 80 22 86 32 96
REMARK Flexibility Score: inf
ROOT
ATOM      1  C   UNL     1       1.733   0.462   2.479  1.00  0.00     0.188 C 
ENDROOT
BRANCH   1   2
ATOM      2  C   UNL     1       2.122   0.697   1.020  1.00  0.00     0.188 C 
BRANCH   2   3
ATOM      3  O   UNL     1       3.466   0.274   0.765  1.00  0.00    -0.376 OA
BRANCH   3   4
ATOM      4  C   UNL     1       4.280   1.223   0.067  1.00  0.00     0.202 C 
BRANCH   4   5
ATOM      5  C   UNL     1       4.199   1.105  -1.451  1.00  0.00     0.261 C 
BRANCH   5   6
ATOM      6  O   UNL     1       2.884   0.751  -1.896  1.00  0.00    -0.460 OA
BRANCH   6   7
ATOM      7  C   UNL     1       2.328  -0.484  -1.949  1.00  0.00     0.338 C 
ATOM      8  O   UNL     1       1.153  -0.564  -2.308  1.00  0.00    -0.246 OA
BRANCH   7   9
ATOM      9  C   UNL     1       3.036  -1.768  -1.612  1.00  0.00     0.060 A 
ATOM     10  C   UNL     1       4.229  -1.898  -0.895  1.00  0.00     0.016 A 
ATOM     11  C   UNL     1       2.401  -2.954  -2.028  1.00  0.00     0.016 A 
ATOM     12  C   UNL     1       4.790  -3.134  -0.616  1.00  0.00     0.010 A 
ATOM     13  C   UNL     1       2.966  -4.207  -1.775  1.00  0.00     0.010 A 
ATOM     14  C   UNL     1       4.179  -4.288  -1.089  1.00  0.00    -0.014 A 
BRANCH  14  15
ATOM     15  C   UNL     1       4.985  -5.514  -1.063  1.00  0.00     0.031 A 
ATOM     16  C   UNL     1       5.766  -5.839  -2.300  1.00  0.00     0.074 A 
ATOM     17  C   UNL     1       5.152  -6.186   0.088  1.00  0.00     0.049 A 
ATOM     18  N   UNL     1       6.531  -6.862  -2.554  1.00  0.00    -0.248 NA
ATOM     19  C   UNL     1       5.694  -4.852  -3.395  1.00  0.00     0.031 C 
ATOM     20  C   UNL     1       4.562  -5.815   1.376  1.00  0.00     0.029 A 
ATOM     21  N   UNL     1       5.893  -7.301   0.365  1.00  0.00    -0.354 N 
ATOM     22  C   UNL     1       7.006  -6.657  -3.843  1.00  0.00     0.074 A 
ATOM     23  C   UNL     1       6.456  -5.412  -4.320  1.00  0.00     0.031 C 
ATOM     24  C   UNL     1       4.967  -6.693   2.309  1.00  0.00     0.029 A 
ATOM     25  C   UNL     1       5.786  -7.716   1.670  1.00  0.00     0.049 A 
ATOM     26  H   UNL     1       6.448  -7.761  -0.305  1.00  0.00     0.167 HD
ATOM     27  C   UNL     1       7.820  -7.460  -4.563  1.00  0.00     0.037 A 
ATOM     28  C   UNL     1       6.269  -8.830   2.250  1.00  0.00     0.037 A 
ATOM     29  C   UNL     1       8.339  -8.697  -4.052  1.00  0.00     0.049 A 
ATOM     30  C   UNL     1       7.069  -9.773   1.389  1.00  0.00     0.074 A 
ATOM     31  C   UNL     1       9.099  -9.652  -4.696  1.00  0.00     0.029 A 
ATOM     32  N   UNL     1       8.138  -9.143  -2.751  1.00  0.00    -0.354 N 
ATOM     33  N   UNL     1       7.444  -9.632   0.137  1.00  0.00    -0.248 NA
ATOM     34  C   UNL     1       7.496 -11.033   2.005  1.00  0.00     0.031 C 
ATOM     35  C   UNL     1       9.320 -10.700  -3.795  1.00  0.00     0.029 A 
ATOM     36  C   UNL     1       8.744 -10.371  -2.575  1.00  0.00     0.049 A 
ATOM     37  H   UNL     1       7.638  -8.655  -2.058  1.00  0.00     0.167 HD
ATOM     38  C   UNL     1       8.166 -10.773  -0.178  1.00  0.00     0.074 A 
ATOM     39  C   UNL     1       8.193 -11.587   1.022  1.00  0.00     0.031 C 
ATOM     40  C   UNL     1       8.751 -11.129  -1.349  1.00  0.00     0.037 A 
BRANCH  27  41
ATOM     41  C   UNL     1       8.098  -7.057  -5.979  1.00  0.00     0.057 A 
ATOM     42  C   UNL     1       8.935  -5.982  -6.305  1.00  0.00     0.134 A 
ATOM     43  C   UNL     1       7.475  -7.732  -7.036  1.00  0.00     0.134 A 
ATOM     44  F   UNL     1       9.533  -5.268  -5.339  1.00  0.00    -0.206 F 
ATOM     45  C   UNL     1       9.126  -5.581  -7.630  1.00  0.00     0.040 A 
ATOM     46  C   UNL     1       7.675  -7.355  -8.365  1.00  0.00     0.040 A 
ATOM     47  F   UNL     1       6.648  -8.760  -6.793  1.00  0.00    -0.206 F 
ATOM     48  C   UNL     1       8.497  -6.271  -8.664  1.00  0.00     0.006 A 
ENDBRANCH  27  41
BRANCH  28  49
ATOM     49  C   UNL     1       5.951  -9.151   3.667  1.00  0.00     0.057 A 
ATOM     50  C   UNL     1       6.950  -9.256   4.641  1.00  0.00     0.134 A 
ATOM     51  C   UNL     1       4.633  -9.399   4.077  1.00  0.00     0.134 A 
ATOM     52  F   UNL     1       8.235  -9.053   4.315  1.00  0.00    -0.206 F 
ATOM     53  C   UNL     1       6.656  -9.617   5.959  1.00  0.00     0.040 A 
ATOM     54  C   UNL     1       4.320  -9.730   5.396  1.00  0.00     0.040 A 
ATOM     55  F   UNL     1       3.623  -9.320   3.198  1.00  0.00    -0.206 F 
ATOM     56  C   UNL     1       5.336  -9.852   6.340  1.00  0.00     0.006 A 
ENDBRANCH  28  49
BRANCH  40  57
ATOM     57  C   UNL     1       9.497 -12.427  -1.362  1.00  0.00     0.057 A 
ATOM     58  C   UNL     1       8.833 -13.659  -1.368  1.00  0.00     0.134 A 
ATOM     59  C   UNL     1      10.896 -12.437  -1.431  1.00  0.00     0.134 A 
ATOM     60  F   UNL     1       7.494 -13.711  -1.292  1.00  0.00    -0.206 F 
ATOM     61  C   UNL     1       9.538 -14.860  -1.423  1.00  0.00     0.040 A 
ATOM     62  C   UNL     1      11.609 -13.630  -1.516  1.00  0.00     0.040 A 
ATOM     63  F   UNL     1      11.585 -11.286  -1.441  1.00  0.00    -0.206 F 
ATOM     64  C   UNL     1      10.930 -14.847  -1.506  1.00  0.00     0.006 A 
ENDBRANCH  40  57
ENDBRANCH  14  15
ENDBRANCH   7   9
ENDBRANCH   6   7
ENDBRANCH   5   6
ENDBRANCH   4   5
ENDBRANCH   3   4
ENDBRANCH   2   3
ENDBRANCH   1   2
BRANCH   1  65
ATOM     65  O   UNL     1       2.462   1.245   3.418  1.00  0.00    -0.377 OA
BRANCH  65  66
ATOM     66  C   UNL     1       3.877   1.187   3.300  1.00  0.00     0.188 C 
BRANCH  66  67
ATOM     67  C   UNL     1       4.591  -0.161   3.481  1.00  0.00     0.188 C 
BRANCH  67  68
ATOM     68  O   UNL     1       3.729  -1.235   3.822  1.00  0.00    -0.376 OA
BRANCH  68  69
ATOM     69  C   UNL     1       3.738  -1.599   5.198  1.00  0.00     0.202 C 
BRANCH  69  70
ATOM     70  C   UNL     1       3.052  -0.615   6.156  1.00  0.00     0.261 C 
BRANCH  70  71
ATOM     71  O   UNL     1       3.560   0.732   6.170  1.00  0.00    -0.459 OA
BRANCH  71  72
ATOM     72  C   UNL     1       4.841   0.979   6.559  1.00  0.00     0.365 C 
ATOM     73  O   UNL     1       5.603   0.120   6.990  1.00  0.00    -0.245 OA
BRANCH  72  74
ATOM     74  C   UNL     1       5.218   2.468   6.362  1.00  0.00     0.298 C 
ATOM     75  C   UNL     1       6.506   2.575   5.500  1.00  0.00     0.115 C 
ATOM     76  N   UNL     1       4.104   3.231   5.720  1.00  0.00    -0.323 N 
ATOM     77  C   UNL     1       6.671   3.969   4.985  1.00  0.00    -0.006 A 
ATOM     78  C   UNL     1       4.280   4.671   5.662  1.00  0.00     0.264 C 
ATOM     79  H   UNL     1       3.251   3.041   6.245  1.00  0.00     0.347 HD
ATOM     80  H   UNL     1       4.073   2.916   4.751  1.00  0.00     0.347 HD
ATOM     81  C   UNL     1       5.660   4.910   5.107  1.00  0.00     0.083 A 
ATOM     82  C   UNL     1       7.738   4.564   4.261  1.00  0.00     0.003 A 
ATOM     83  N   UNL     1       6.114   6.077   4.554  1.00  0.00    -0.353 N 
ATOM     84  C   UNL     1       7.388   5.901   4.053  1.00  0.00     0.046 A 
ATOM     85  C   UNL     1       8.970   4.100   3.760  1.00  0.00     0.010 A 
ATOM     86  H   UNL     1       5.606   6.920   4.520  1.00  0.00     0.166 HD
ATOM     87  C   UNL     1       8.246   6.812   3.423  1.00  0.00     0.026 A 
ATOM     88  C   UNL     1       9.828   4.994   3.110  1.00  0.00     0.001 A 
ATOM     89  C   UNL     1       9.478   6.334   2.963  1.00  0.00     0.002 A 
BRANCH  78  90
ATOM     90  C   UNL     1       4.007   5.315   7.003  1.00  0.00     0.041 A 
ATOM     91  C   UNL     1       4.190   6.662   7.280  1.00  0.00     0.093 A 
ATOM     92  C   UNL     1       3.491   4.731   8.229  1.00  0.00     0.009 A 
ATOM     93  N   UNL     1       3.956   6.876   8.608  1.00  0.00    -0.361 N 
ATOM     94  C   UNL     1       3.583   5.707   9.221  1.00  0.00     0.046 A 
ATOM     95  C   UNL     1       2.999   3.462   8.625  1.00  0.00     0.011 A 
ATOM     96  H   UNL     1       4.043   7.746   9.061  1.00  0.00     0.166 HD
ATOM     97  C   UNL     1       3.318   5.448  10.573  1.00  0.00     0.026 A 
ATOM     98  C   UNL     1       2.746   3.178   9.968  1.00  0.00     0.001 A 
ATOM     99  C   UNL     1       2.926   4.157  10.932  1.00  0.00     0.002 A 
ENDBRANCH  78  90
ENDBRANCH  72  74
ENDBRANCH  71  72
ENDBRANCH  70  71
ENDBRANCH  69  70
ENDBRANCH  68  69
ENDBRANCH  67  68
ENDBRANCH  66  67
ENDBRANCH  65  66
ENDBRANCH   1  65
TORSDOF 21
