REMARK SMILES O=C(OCCOCCOCCOCCOC(=O)[C@H]1CC[C@H](CN2C(=O)c3cccnc3C2=O)O1)c1ccc(-c2c3nc(c(-c4c(F)cccc4F)c4ccc([nH]4)c(-c4c(F)cccc4F)c4nc(c(-c5c(F)cccc5F)c5ccc2[nH]5)C=C4)C=C3)cc1
REMARK SMILES IDX 9 1 8 2 7 3 6 4 5 5 4 6 3 7 2 8 1 9 35 10 36 11 88 12 37 13
REMARK SMILES IDX 87 14 38 15 39 16 40 17 81 18 41 19 86 20 80 21 82 22 42 23
REMARK SMILES IDX 85 24 79 25 78 26 43 28 69 29 52 30 68 31 53 32 56 33 67 34
REMARK SMILES IDX 83 35 54 36 55 37 66 39 84 40 57 41 44 42 45 43 50 44 46 45
REMARK SMILES IDX 47 46 49 47 51 48 48 49 70 50 71 51 76 52 72 53 73 54 75 55
REMARK SMILES IDX 77 56 74 57 58 58 59 59 64 60 60 61 61 62 63 63 65 64 62 65
REMARK SMILES IDX 10 66 11 67 12 68 13 69 14 70 15 71 16 72 17 73 18 74 19 75
REMARK SMILES IDX 34 76 20 77 21 78 22 79 23 80 24 81 32 82 25 83 26 84 31 85
REMARK SMILES IDX 33 86 27 87 30 88 28 89 29 90
REMARK H PARENT 82 27 56 38
REMARK Flexibility Score: inf
ROOT
ATOM      1  O   UNL     1       6.114   3.300  -1.995  1.00  0.00    -0.377 OA
ENDROOT
BRANCH   1   2
ATOM      2  C   UNL     1       6.927   2.798  -3.041  1.00  0.00     0.188 C 
BRANCH   2   3
ATOM      3  C   UNL     1       6.607   3.349  -4.425  1.00  0.00     0.188 C 
BRANCH   3   4
ATOM      4  O   UNL     1       6.849   4.748  -4.456  1.00  0.00    -0.376 OA
BRANCH   4   5
ATOM      5  C   UNL     1       6.119   5.587  -5.341  1.00  0.00     0.202 C 
BRANCH   5   6
ATOM      6  C   UNL     1       6.035   5.162  -6.805  1.00  0.00     0.261 C 
BRANCH   6   7
ATOM      7  O   UNL     1       6.600   3.875  -7.142  1.00  0.00    -0.460 OA
BRANCH   7   8
ATOM      8  C   UNL     1       7.877   3.466  -7.336  1.00  0.00     0.338 C 
ATOM      9  O   UNL     1       8.083   2.310  -7.700  1.00  0.00    -0.246 OA
BRANCH   8  10
ATOM     10  C   UNL     1       9.056   4.343  -7.123  1.00  0.00     0.060 A 
ATOM     11  C   UNL     1       9.101   5.351  -6.179  1.00  0.00     0.016 A 
ATOM     12  C   UNL     1      10.229   4.088  -7.841  1.00  0.00     0.016 A 
ATOM     13  C   UNL     1      10.133   6.245  -6.091  1.00  0.00     0.010 A 
ATOM     14  C   UNL     1      11.354   4.904  -7.669  1.00  0.00     0.010 A 
ATOM     15  C   UNL     1      11.275   6.025  -6.832  1.00  0.00    -0.014 A 
BRANCH  15  16
ATOM     16  C   UNL     1      12.250   7.120  -6.817  1.00  0.00     0.031 A 
ATOM     17  C   UNL     1      12.364   7.942  -8.060  1.00  0.00     0.074 A 
ATOM     18  C   UNL     1      12.799   7.501  -5.647  1.00  0.00     0.049 A 
ATOM     19  N   UNL     1      13.169   8.931  -8.324  1.00  0.00    -0.248 NA
ATOM     20  C   UNL     1      11.430   7.615  -9.155  1.00  0.00     0.031 C 
ATOM     21  C   UNL     1      12.559   6.861  -4.345  1.00  0.00     0.029 A 
ATOM     22  N   UNL     1      13.620   8.552  -5.349  1.00  0.00    -0.354 N 
ATOM     23  C   UNL     1      12.869   9.311  -9.624  1.00  0.00     0.074 A 
ATOM     24  C   UNL     1      11.822   8.445 -10.106  1.00  0.00     0.031 C 
ATOM     25  C   UNL     1      13.197   7.552  -3.389  1.00  0.00     0.029 A 
ATOM     26  C   UNL     1      13.971   8.609  -4.022  1.00  0.00     0.049 A 
ATOM     27  H   UNL     1      13.929   9.204  -6.018  1.00  0.00     0.167 HD
ATOM     28  C   UNL     1      13.434  10.304 -10.343  1.00  0.00     0.037 A 
ATOM     29  C   UNL     1      14.873   9.397  -3.412  1.00  0.00     0.037 A 
ATOM     30  C   UNL     1      14.469  11.145  -9.812  1.00  0.00     0.049 A 
ATOM     31  C   UNL     1      15.592  10.399  -4.272  1.00  0.00     0.074 A 
ATOM     32  C   UNL     1      15.214  12.114 -10.450  1.00  0.00     0.029 A 
ATOM     33  N   UNL     1      14.893  11.109  -8.487  1.00  0.00    -0.354 N 
ATOM     34  N   UNL     1      15.411  10.677  -5.543  1.00  0.00    -0.248 NA
ATOM     35  C   UNL     1      16.649  11.182  -3.628  1.00  0.00     0.031 C 
ATOM     36  C   UNL     1      16.122  12.634  -9.521  1.00  0.00     0.029 A 
ATOM     37  C   UNL     1      15.900  12.033  -8.289  1.00  0.00     0.049 A 
ATOM     38  H   UNL     1      14.529  10.513  -7.794  1.00  0.00     0.167 HD
ATOM     39  C   UNL     1      16.318  11.679  -5.849  1.00  0.00     0.074 A 
ATOM     40  C   UNL     1      17.025  11.979  -4.617  1.00  0.00     0.031 C 
ATOM     41  C   UNL     1      16.561  12.294  -7.034  1.00  0.00     0.037 A 
BRANCH  28  42
ATOM     42  C   UNL     1      12.996  10.445 -11.768  1.00  0.00     0.057 A 
ATOM     43  C   UNL     1      11.723  10.916 -12.118  1.00  0.00     0.134 A 
ATOM     44  C   UNL     1      13.842  10.038 -12.807  1.00  0.00     0.134 A 
ATOM     45  F   UNL     1      10.846  11.277 -11.169  1.00  0.00    -0.206 F 
ATOM     46  C   UNL     1      11.301  10.955 -13.449  1.00  0.00     0.040 A 
ATOM     47  C   UNL     1      13.441  10.098 -14.142  1.00  0.00     0.040 A 
ATOM     48  F   UNL     1      15.065   9.556 -12.540  1.00  0.00    -0.206 F 
ATOM     49  C   UNL     1      12.164  10.551 -14.466  1.00  0.00     0.006 A 
ENDBRANCH  28  42
BRANCH  29  50
ATOM     50  C   UNL     1      15.214   9.202  -1.977  1.00  0.00     0.057 A 
ATOM     51  C   UNL     1      15.038  10.217  -1.031  1.00  0.00     0.134 A 
ATOM     52  C   UNL     1      15.779   8.000  -1.524  1.00  0.00     0.134 A 
ATOM     53  F   UNL     1      14.517  11.398  -1.396  1.00  0.00    -0.206 F 
ATOM     54  C   UNL     1      15.439  10.059   0.299  1.00  0.00     0.040 A 
ATOM     55  C   UNL     1      16.151   7.816  -0.191  1.00  0.00     0.040 A 
ATOM     56  F   UNL     1      15.977   6.980  -2.372  1.00  0.00    -0.206 F 
ATOM     57  C   UNL     1      15.996   8.854   0.722  1.00  0.00     0.006 A 
ENDBRANCH  29  50
BRANCH  41  58
ATOM     58  C   UNL     1      17.598  13.373  -7.022  1.00  0.00     0.057 A 
ATOM     59  C   UNL     1      18.961  13.089  -6.874  1.00  0.00     0.134 A 
ATOM     60  C   UNL     1      17.223  14.712  -7.191  1.00  0.00     0.134 A 
ATOM     61  F   UNL     1      19.378  11.826  -6.694  1.00  0.00    -0.206 F 
ATOM     62  C   UNL     1      19.914  14.105  -6.861  1.00  0.00     0.040 A 
ATOM     63  C   UNL     1      18.171  15.732  -7.217  1.00  0.00     0.040 A 
ATOM     64  F   UNL     1      15.933  15.044  -7.350  1.00  0.00    -0.206 F 
ATOM     65  C   UNL     1      19.520  15.430  -7.041  1.00  0.00     0.006 A 
ENDBRANCH  41  58
ENDBRANCH  15  16
ENDBRANCH   8  10
ENDBRANCH   7   8
ENDBRANCH   6   7
ENDBRANCH   5   6
ENDBRANCH   4   5
ENDBRANCH   3   4
ENDBRANCH   2   3
ENDBRANCH   1   2
BRANCH   1  66
ATOM     66  C   UNL     1       5.804   4.685  -2.060  1.00  0.00     0.188 C 
BRANCH  66  67
ATOM     67  C   UNL     1       6.929   5.727  -1.844  1.00  0.00     0.188 C 
BRANCH  67  68
ATOM     68  O   UNL     1       8.229   5.190  -1.770  1.00  0.00    -0.376 OA
BRANCH  68  69
ATOM     69  C   UNL     1       8.644   4.606  -0.544  1.00  0.00     0.202 C 
BRANCH  69  70
ATOM     70  C   UNL     1       7.681   4.149   0.586  1.00  0.00     0.261 C 
BRANCH  70  71
ATOM     71  O   UNL     1       6.315   4.620   0.563  1.00  0.00    -0.461 OA
BRANCH  71  72
ATOM     72  C   UNL     1       5.961   5.696   1.304  1.00  0.00     0.335 C 
ATOM     73  O   UNL     1       6.715   6.234   2.108  1.00  0.00    -0.249 OA
BRANCH  72  74
ATOM     74  C   UNL     1       4.500   6.229   1.002  1.00  0.00     0.228 C 
ATOM     75  C   UNL     1       4.562   7.738   0.802  1.00  0.00     0.047 C 
ATOM     76  O   UNL     1       3.628   5.760  -0.037  1.00  0.00    -0.361 OA
ATOM     77  C   UNL     1       4.275   7.950  -0.663  1.00  0.00     0.037 C 
ATOM     78  C   UNL     1       3.394   6.779  -1.044  1.00  0.00     0.139 C 
BRANCH  78  79
ATOM     79  C   UNL     1       1.890   7.078  -1.210  1.00  0.00     0.161 C 
BRANCH  79  80
ATOM     80  N   UNL     1       1.619   8.294  -1.969  1.00  0.00    -0.270 N 
ATOM     81  C   UNL     1       1.276   9.478  -1.381  1.00  0.00     0.263 C 
ATOM     82  C   UNL     1       1.777   8.437  -3.328  1.00  0.00     0.280 C 
ATOM     83  O   UNL     1       1.122   9.729  -0.196  1.00  0.00    -0.269 OA
ATOM     84  C   UNL     1       1.182  10.472  -2.435  1.00  0.00     0.071 A 
ATOM     85  C   UNL     1       1.467   9.849  -3.625  1.00  0.00     0.141 A 
ATOM     86  O   UNL     1       2.155   7.598  -4.125  1.00  0.00    -0.267 OA
ATOM     87  C   UNL     1       0.932  11.827  -2.398  1.00  0.00     0.018 A 
ATOM     88  N   UNL     1       1.525  10.454  -4.827  1.00  0.00    -0.250 NA
ATOM     89  C   UNL     1       0.972  12.503  -3.618  1.00  0.00     0.021 A 
ATOM     90  C   UNL     1       1.262  11.787  -4.788  1.00  0.00     0.112 A 
ENDBRANCH  79  80
ENDBRANCH  78  79
ENDBRANCH  72  74
ENDBRANCH  71  72
ENDBRANCH  70  71
ENDBRANCH  69  70
ENDBRANCH  68  69
ENDBRANCH  67  68
ENDBRANCH  66  67
ENDBRANCH   1  66
TORSDOF 22
