REMARK SMILES CCC[N@@H+](C)CC[C@@H]1CCC[C@]1([NH2+]C)C(=O)OCCOCCOCCOCCOC(=O)c1ccc(-c2c3nc(c(-c4c(F)cccc4F)c4ccc([nH]4)c(-c4c(F)cccc4F)c4nc(c(-c5c(F)cccc5F)c5ccc2[nH]5)C=C4)C=C3)cc1
REMARK SMILES IDX 21 1 20 2 19 3 18 4 17 5 15 6 16 7 12 8 8 9 9 10 10 11 11 12
REMARK SMILES IDX 7 13 6 14 4 15 5 16 3 18 2 19 1 20 13 21 14 22 22 25 23 26
REMARK SMILES IDX 24 27 25 28 26 29 27 30 28 31 29 32 30 33 31 34 32 35 33 36
REMARK SMILES IDX 85 37 34 38 84 39 35 40 36 41 37 42 78 43 38 44 83 45 77 46
REMARK SMILES IDX 79 47 39 48 82 49 76 50 75 51 40 53 66 54 49 55 65 56 50 57
REMARK SMILES IDX 53 58 64 59 80 60 51 61 52 62 63 64 81 65 54 66 41 67 42 68
REMARK SMILES IDX 47 69 43 70 44 71 46 72 48 73 45 74 67 75 68 76 73 77 69 78
REMARK SMILES IDX 70 79 72 80 74 81 71 82 55 83 56 84 61 85 57 86 58 87 60 88
REMARK SMILES IDX 62 89 59 90
REMARK H PARENT 4 17 13 23 13 24 79 52 53 63
REMARK Flexibility Score: inf
ROOT
ATOM      1  C   UNL     1       2.290   0.245  -2.774  1.00  0.00     0.188 C 
ENDROOT
BRANCH   1   2
ATOM      2  O   UNL     1       1.141   0.204  -3.583  1.00  0.00    -0.376 OA
BRANCH   2   3
ATOM      3  C   UNL     1      -0.051  -0.386  -3.118  1.00  0.00     0.202 C 
BRANCH   3   4
ATOM      4  C   UNL     1      -0.399  -0.574  -1.635  1.00  0.00     0.261 C 
BRANCH   4   5
ATOM      5  O   UNL     1       0.610  -0.314  -0.646  1.00  0.00    -0.459 OA
BRANCH   5   6
ATOM      6  C   UNL     1       1.367  -1.355  -0.240  1.00  0.00     0.368 C 
ATOM      7  O   UNL     1       1.333  -2.442  -0.817  1.00  0.00    -0.245 OA
BRANCH   6   8
ATOM      8  C   UNL     1       2.171  -1.105   1.097  1.00  0.00     0.197 C 
ATOM      9  C   UNL     1       3.003   0.210   1.460  1.00  0.00     0.068 C 
ATOM     10  C   UNL     1       4.358   0.045   0.706  1.00  0.00     0.011 C 
ATOM     11  C   UNL     1       4.454  -1.397   0.256  1.00  0.00     0.008 C 
ATOM     12  C   UNL     1       3.371  -2.116   1.039  1.00  0.00     0.081 C 
BRANCH   9  13
ATOM     13  C   UNL     1       2.716   1.752   1.572  1.00  0.00     0.072 C 
BRANCH  13  14
ATOM     14  C   UNL     1       1.389   2.534   1.672  1.00  0.00     0.262 C 
BRANCH  14  15
ATOM     15  N   UNL     1       0.575   2.589   2.900  1.00  0.00    -0.337 N 
ATOM     16  C   UNL     1       1.202   3.390   3.950  1.00  0.00     0.332 C 
ATOM     17  H   UNL     1      -0.279   3.065   2.611  1.00  0.00     0.347 HD
BRANCH  15  18
ATOM     18  C   UNL     1       0.134   1.295   3.402  1.00  0.00     0.261 C 
BRANCH  18  19
ATOM     19  C   UNL     1      -1.177   0.765   2.795  1.00  0.00     0.058 C 
ATOM     20  C   UNL     1      -1.387   1.012   1.319  1.00  0.00     0.010 C 
ENDBRANCH  18  19
ENDBRANCH  15  18
ENDBRANCH  14  15
ENDBRANCH  13  14
ENDBRANCH   9  13
BRANCH   8  21
ATOM     21  N   UNL     1       1.297  -1.476   2.245  1.00  0.00    -0.334 N 
ATOM     22  C   UNL     1       0.563  -2.729   2.109  1.00  0.00     0.331 C 
ATOM     23  H   UNL     1       0.615  -0.728   2.373  1.00  0.00     0.347 HD
ATOM     24  H   UNL     1       1.924  -1.609   3.038  1.00  0.00     0.347 HD
ENDBRANCH   8  21
ENDBRANCH   6   8
ENDBRANCH   5   6
ENDBRANCH   4   5
ENDBRANCH   3   4
ENDBRANCH   2   3
ENDBRANCH   1   2
BRANCH   1  25
ATOM     25  C   UNL     1       2.421   1.497  -1.875  1.00  0.00     0.188 C 
BRANCH  25  26
ATOM     26  O   UNL     1       1.817   2.759  -2.125  1.00  0.00    -0.377 OA
BRANCH  26  27
ATOM     27  C   UNL     1       1.172   2.976  -3.361  1.00  0.00     0.188 C 
BRANCH  27  28
ATOM     28  C   UNL     1       2.073   2.921  -4.606  1.00  0.00     0.188 C 
BRANCH  28  29
ATOM     29  O   UNL     1       3.206   2.094  -4.449  1.00  0.00    -0.376 OA
BRANCH  29  30
ATOM     30  C   UNL     1       4.505   2.630  -4.293  1.00  0.00     0.202 C 
BRANCH  30  31
ATOM     31  C   UNL     1       4.839   3.716  -3.256  1.00  0.00     0.261 C 
BRANCH  31  32
ATOM     32  O   UNL     1       3.833   4.685  -2.975  1.00  0.00    -0.460 OA
BRANCH  32  33
ATOM     33  C   UNL     1       3.661   5.650  -3.904  1.00  0.00     0.338 C 
ATOM     34  O   UNL     1       4.231   5.769  -4.964  1.00  0.00    -0.246 OA
BRANCH  33  35
ATOM     35  C   UNL     1       2.515   6.463  -3.462  1.00  0.00     0.060 A 
ATOM     36  C   UNL     1       1.329   6.418  -4.204  1.00  0.00     0.016 A 
ATOM     37  C   UNL     1       2.625   7.269  -2.328  1.00  0.00     0.016 A 
ATOM     38  C   UNL     1       0.239   7.185  -3.812  1.00  0.00     0.010 A 
ATOM     39  C   UNL     1       1.549   8.075  -1.963  1.00  0.00     0.010 A 
ATOM     40  C   UNL     1       0.365   8.052  -2.721  1.00  0.00    -0.014 A 
BRANCH  40  41
ATOM     41  C   UNL     1      -0.660   9.094  -2.524  1.00  0.00     0.031 A 
ATOM     42  C   UNL     1      -0.427  10.432  -3.163  1.00  0.00     0.074 A 
ATOM     43  C   UNL     1      -1.779   8.842  -1.826  1.00  0.00     0.049 A 
ATOM     44  N   UNL     1      -1.150  11.518  -3.100  1.00  0.00    -0.248 NA
ATOM     45  C   UNL     1       0.788  10.563  -3.986  1.00  0.00     0.031 C 
ATOM     46  C   UNL     1      -2.122   7.562  -1.209  1.00  0.00     0.029 A 
ATOM     47  N   UNL     1      -2.828   9.665  -1.510  1.00  0.00    -0.354 N 
ATOM     48  C   UNL     1      -0.473  12.462  -3.861  1.00  0.00     0.074 A 
ATOM     49  C   UNL     1       0.725  11.830  -4.365  1.00  0.00     0.031 C 
ATOM     50  C   UNL     1      -3.293   7.695  -0.561  1.00  0.00     0.029 A 
ATOM     51  C   UNL     1      -3.759   9.074  -0.692  1.00  0.00     0.049 A 
ATOM     52  H   UNL     1      -2.906  10.591  -1.837  1.00  0.00     0.167 HD
ATOM     53  C   UNL     1      -0.825  13.742  -4.114  1.00  0.00     0.037 A 
ATOM     54  C   UNL     1      -4.841   9.607  -0.093  1.00  0.00     0.037 A 
ATOM     55  C   UNL     1      -2.021  14.358  -3.606  1.00  0.00     0.049 A 
ATOM     56  C   UNL     1      -5.171  11.058  -0.338  1.00  0.00     0.074 A 
ATOM     57  C   UNL     1      -2.486  15.642  -3.826  1.00  0.00     0.029 A 
ATOM     58  N   UNL     1      -2.931  13.737  -2.765  1.00  0.00    -0.354 N 
ATOM     59  N   UNL     1      -4.549  11.936  -1.088  1.00  0.00    -0.248 NA
ATOM     60  C   UNL     1      -6.358  11.591   0.346  1.00  0.00     0.031 C 
ATOM     61  C   UNL     1      -3.644  15.819  -3.065  1.00  0.00     0.029 A 
ATOM     62  C   UNL     1      -3.939  14.623  -2.428  1.00  0.00     0.049 A 
ATOM     63  H   UNL     1      -2.870  12.805  -2.454  1.00  0.00     0.167 HD
ATOM     64  C   UNL     1      -5.286  13.111  -0.994  1.00  0.00     0.074 A 
ATOM     65  C   UNL     1      -6.409  12.829  -0.126  1.00  0.00     0.031 C 
ATOM     66  C   UNL     1      -5.056  14.316  -1.571  1.00  0.00     0.037 A 
BRANCH  53  67
ATOM     67  C   UNL     1       0.109  14.574  -4.939  1.00  0.00     0.057 A 
ATOM     68  C   UNL     1       0.268  14.376  -6.315  1.00  0.00     0.134 A 
ATOM     69  C   UNL     1       0.821  15.628  -4.350  1.00  0.00     0.134 A 
ATOM     70  F   UNL     1      -0.369  13.371  -6.936  1.00  0.00    -0.206 F 
ATOM     71  C   UNL     1       1.108  15.191  -7.077  1.00  0.00     0.040 A 
ATOM     72  C   UNL     1       1.642  16.466  -5.105  1.00  0.00     0.040 A 
ATOM     73  F   UNL     1       0.716  15.869  -3.034  1.00  0.00    -0.206 F 
ATOM     74  C   UNL     1       1.788  16.247  -6.473  1.00  0.00     0.006 A 
ENDBRANCH  53  67
BRANCH  54  75
ATOM     75  C   UNL     1      -5.669   8.787   0.828  1.00  0.00     0.057 A 
ATOM     76  C   UNL     1      -7.000   8.472   0.532  1.00  0.00     0.134 A 
ATOM     77  C   UNL     1      -5.161   8.341   2.056  1.00  0.00     0.134 A 
ATOM     78  F   UNL     1      -7.553   8.889  -0.617  1.00  0.00    -0.206 F 
ATOM     79  C   UNL     1      -7.805   7.774   1.435  1.00  0.00     0.040 A 
ATOM     80  C   UNL     1      -5.945   7.615   2.953  1.00  0.00     0.040 A 
ATOM     81  F   UNL     1      -3.893   8.609   2.403  1.00  0.00    -0.206 F 
ATOM     82  C   UNL     1      -7.276   7.341   2.648  1.00  0.00     0.006 A 
ENDBRANCH  54  75
BRANCH  66  83
ATOM     83  C   UNL     1      -6.061  15.405  -1.324  1.00  0.00     0.057 A 
ATOM     84  C   UNL     1      -6.194  16.027  -0.077  1.00  0.00     0.134 A 
ATOM     85  C   UNL     1      -6.875  15.868  -2.367  1.00  0.00     0.134 A 
ATOM     86  F   UNL     1      -5.452  15.625   0.967  1.00  0.00    -0.206 F 
ATOM     87  C   UNL     1      -7.119  17.051   0.132  1.00  0.00     0.040 A 
ATOM     88  C   UNL     1      -7.779  16.914  -2.180  1.00  0.00     0.040 A 
ATOM     89  F   UNL     1      -6.789  15.326  -3.592  1.00  0.00    -0.206 F 
ATOM     90  C   UNL     1      -7.909  17.503  -0.924  1.00  0.00     0.006 A 
ENDBRANCH  66  83
ENDBRANCH  40  41
ENDBRANCH  33  35
ENDBRANCH  32  33
ENDBRANCH  31  32
ENDBRANCH  30  31
ENDBRANCH  29  30
ENDBRANCH  28  29
ENDBRANCH  27  28
ENDBRANCH  26  27
ENDBRANCH  25  26
ENDBRANCH   1  25
TORSDOF 26
