REMARK SMILES O=C(OCCOCCOCCOCCOC(=O)[C@H]1[C@@H](C(=O)NN2CCOCC2)[C@H]2C=C[C@@H]1CC2)c1ccc(-c2c3nc(c(-c4c(F)cccc4F)c4ccc([nH]4)c(-c4c(F)cccc4F)c4nc(c(-c5c(F)cccc5F)c5ccc2[nH]5)C=C4)C=C3)cc1
REMARK SMILES IDX 9 1 8 2 7 3 6 4 5 5 4 6 3 7 2 8 1 9 35 10 36 11 88 12 37 13
REMARK SMILES IDX 87 14 38 15 39 16 40 17 81 18 41 19 86 20 80 21 82 22 42 23
REMARK SMILES IDX 85 24 79 25 78 26 43 28 69 29 52 30 68 31 53 32 56 33 67 34
REMARK SMILES IDX 83 35 54 36 55 37 66 39 84 40 57 41 44 42 45 43 50 44 46 45
REMARK SMILES IDX 47 46 49 47 51 48 48 49 70 50 71 51 76 52 72 53 73 54 75 55
REMARK SMILES IDX 77 56 74 57 58 58 59 59 64 60 60 61 61 62 63 63 65 64 62 65
REMARK SMILES IDX 10 66 11 67 12 68 13 69 14 70 15 71 16 72 17 73 18 74 19 75
REMARK SMILES IDX 32 76 29 77 31 78 33 79 30 80 34 81 20 82 21 83 22 84 23 86
REMARK SMILES IDX 24 87 28 88 25 89 27 90 26 91
REMARK H PARENT 82 27 56 38 22 85
REMARK Flexibility Score: inf
ROOT
ATOM      1  O   UNL     1       7.120   6.329  -5.211  1.00  0.00    -0.377 OA
ENDROOT
BRANCH   1   2
ATOM      2  C   UNL     1       8.280   6.960  -5.732  1.00  0.00     0.188 C 
BRANCH   2   3
ATOM      3  C   UNL     1       9.240   5.970  -6.383  1.00  0.00     0.188 C 
BRANCH   3   4
ATOM      4  O   UNL     1       8.579   5.489  -7.534  1.00  0.00    -0.376 OA
BRANCH   4   5
ATOM      5  C   UNL     1       8.831   4.168  -7.970  1.00  0.00     0.202 C 
BRANCH   5   6
ATOM      6  C   UNL     1      10.110   4.058  -8.778  1.00  0.00     0.261 C 
BRANCH   6   7
ATOM      7  O   UNL     1      10.936   5.240  -8.758  1.00  0.00    -0.460 OA
BRANCH   7   8
ATOM      8  C   UNL     1      10.751   6.474  -9.284  1.00  0.00     0.338 C 
ATOM      9  O   UNL     1      11.573   7.351  -9.019  1.00  0.00    -0.246 OA
BRANCH   8  10
ATOM     10  C   UNL     1       9.675   6.829 -10.252  1.00  0.00     0.060 A 
ATOM     11  C   UNL     1       8.337   6.456 -10.154  1.00  0.00     0.016 A 
ATOM     12  C   UNL     1      10.024   7.714 -11.284  1.00  0.00     0.016 A 
ATOM     13  C   UNL     1       7.400   6.816 -11.099  1.00  0.00     0.010 A 
ATOM     14  C   UNL     1       9.074   8.137 -12.218  1.00  0.00     0.010 A 
ATOM     15  C   UNL     1       7.767   7.640 -12.148  1.00  0.00    -0.014 A 
BRANCH  15  16
ATOM     16  C   UNL     1       6.819   7.741 -13.265  1.00  0.00     0.031 A 
ATOM     17  C   UNL     1       7.181   7.013 -14.522  1.00  0.00     0.074 A 
ATOM     18  C   UNL     1       5.604   8.284 -13.078  1.00  0.00     0.049 A 
ATOM     19  N   UNL     1       6.610   7.042 -15.691  1.00  0.00    -0.248 NA
ATOM     20  C   UNL     1       8.356   6.123 -14.447  1.00  0.00     0.031 C 
ATOM     21  C   UNL     1       5.102   8.828 -11.810  1.00  0.00     0.029 A 
ATOM     22  N   UNL     1       4.553   8.425 -13.938  1.00  0.00    -0.354 N 
ATOM     23  C   UNL     1       7.399   6.241 -16.506  1.00  0.00     0.074 A 
ATOM     24  C   UNL     1       8.480   5.726 -15.701  1.00  0.00     0.031 C 
ATOM     25  C   UNL     1       3.827   9.215 -11.973  1.00  0.00     0.029 A 
ATOM     26  C   UNL     1       3.466   9.047 -13.374  1.00  0.00     0.049 A 
ATOM     27  H   UNL     1       4.572   8.112 -14.871  1.00  0.00     0.167 HD
ATOM     28  C   UNL     1       7.228   5.983 -17.820  1.00  0.00     0.037 A 
ATOM     29  C   UNL     1       2.337   9.484 -13.958  1.00  0.00     0.037 A 
ATOM     30  C   UNL     1       6.111   6.497 -18.561  1.00  0.00     0.049 A 
ATOM     31  C   UNL     1       2.213   9.277 -15.443  1.00  0.00     0.074 A 
ATOM     32  C   UNL     1       5.839   6.401 -19.910  1.00  0.00     0.029 A 
ATOM     33  N   UNL     1       5.062   7.206 -17.983  1.00  0.00    -0.354 N 
ATOM     34  N   UNL     1       3.027   8.645 -16.259  1.00  0.00    -0.248 NA
ATOM     35  C   UNL     1       1.041   9.867 -16.096  1.00  0.00     0.031 C 
ATOM     36  C   UNL     1       4.643   7.087 -20.154  1.00  0.00     0.029 A 
ATOM     37  C   UNL     1       4.143   7.564 -18.949  1.00  0.00     0.049 A 
ATOM     38  H   UNL     1       4.986   7.420 -17.025  1.00  0.00     0.167 HD
ATOM     39  C   UNL     1       2.461   8.747 -17.520  1.00  0.00     0.074 A 
ATOM     40  C   UNL     1       1.222   9.485 -17.353  1.00  0.00     0.031 C 
ATOM     41  C   UNL     1       2.918   8.288 -18.712  1.00  0.00     0.037 A 
BRANCH  28  42
ATOM     42  C   UNL     1       8.316   5.216 -18.509  1.00  0.00     0.057 A 
ATOM     43  C   UNL     1       8.547   3.854 -18.275  1.00  0.00     0.134 A 
ATOM     44  C   UNL     1       9.206   5.881 -19.363  1.00  0.00     0.134 A 
ATOM     45  F   UNL     1       7.760   3.165 -17.435  1.00  0.00    -0.206 F 
ATOM     46  C   UNL     1       9.640   3.190 -18.839  1.00  0.00     0.040 A 
ATOM     47  C   UNL     1      10.287   5.223 -19.953  1.00  0.00     0.040 A 
ATOM     48  F   UNL     1       9.055   7.189 -19.618  1.00  0.00    -0.206 F 
ATOM     49  C   UNL     1      10.513   3.876 -19.682  1.00  0.00     0.006 A 
ENDBRANCH  28  42
BRANCH  29  50
ATOM     50  C   UNL     1       1.309  10.218 -13.174  1.00  0.00     0.057 A 
ATOM     51  C   UNL     1       0.013   9.716 -13.013  1.00  0.00     0.134 A 
ATOM     52  C   UNL     1       1.593  11.452 -12.570  1.00  0.00     0.134 A 
ATOM     53  F   UNL     1      -0.334   8.550 -13.579  1.00  0.00    -0.206 F 
ATOM     54  C   UNL     1      -0.963  10.415 -12.298  1.00  0.00     0.040 A 
ATOM     55  C   UNL     1       0.638  12.147 -11.825  1.00  0.00     0.040 A 
ATOM     56  F   UNL     1       2.814  11.997 -12.682  1.00  0.00    -0.206 F 
ATOM     57  C   UNL     1      -0.648  11.632 -11.695  1.00  0.00     0.006 A 
ENDBRANCH  29  50
BRANCH  41  58
ATOM     58  C   UNL     1       2.042   8.535 -19.899  1.00  0.00     0.057 A 
ATOM     59  C   UNL     1       1.923   9.804 -20.477  1.00  0.00     0.134 A 
ATOM     60  C   UNL     1       1.350   7.474 -20.495  1.00  0.00     0.134 A 
ATOM     61  F   UNL     1       2.552  10.859 -19.938  1.00  0.00    -0.206 F 
ATOM     62  C   UNL     1       1.126  10.013 -21.601  1.00  0.00     0.040 A 
ATOM     63  C   UNL     1       0.575   7.666 -21.636  1.00  0.00     0.040 A 
ATOM     64  F   UNL     1       1.436   6.234 -19.989  1.00  0.00    -0.206 F 
ATOM     65  C   UNL     1       0.456   8.940 -22.188  1.00  0.00     0.006 A 
ENDBRANCH  41  58
ENDBRANCH  15  16
ENDBRANCH   8  10
ENDBRANCH   7   8
ENDBRANCH   6   7
ENDBRANCH   5   6
ENDBRANCH   4   5
ENDBRANCH   3   4
ENDBRANCH   2   3
ENDBRANCH   1   2
BRANCH   1  66
ATOM     66  C   UNL     1       6.245   5.704  -6.148  1.00  0.00     0.188 C 
BRANCH  66  67
ATOM     67  C   UNL     1       5.291   6.560  -6.967  1.00  0.00     0.188 C 
BRANCH  67  68
ATOM     68  O   UNL     1       5.393   7.950  -6.775  1.00  0.00    -0.376 OA
BRANCH  68  69
ATOM     69  C   UNL     1       5.032   8.478  -5.502  1.00  0.00     0.202 C 
BRANCH  69  70
ATOM     70  C   UNL     1       4.218   7.689  -4.440  1.00  0.00     0.261 C 
BRANCH  70  71
ATOM     71  O   UNL     1       4.788   6.454  -3.929  1.00  0.00    -0.463 OA
BRANCH  71  72
ATOM     72  C   UNL     1       3.941   5.397  -3.818  1.00  0.00     0.310 C 
ATOM     73  O   UNL     1       2.721   5.489  -3.992  1.00  0.00    -0.252 OA
BRANCH  72  74
ATOM     74  C   UNL     1       4.548   4.044  -3.416  1.00  0.00     0.119 C 
ATOM     75  C   UNL     1       4.104   2.845  -4.335  1.00  0.00     0.101 C 
ATOM     76  C   UNL     1       6.049   3.858  -3.005  1.00  0.00     0.026 C 
ATOM     77  C   UNL     1       5.274   1.827  -4.459  1.00  0.00     0.025 C 
ATOM     78  C   UNL     1       6.949   3.512  -4.174  1.00  0.00    -0.027 C 
ATOM     79  C   UNL     1       6.116   2.549  -2.160  1.00  0.00     0.009 C 
ATOM     80  C   UNL     1       6.531   2.501  -4.949  1.00  0.00    -0.027 C 
ATOM     81  C   UNL     1       5.624   1.346  -3.021  1.00  0.00     0.009 C 
BRANCH  75  82
ATOM     82  C   UNL     1       3.488   3.170  -5.702  1.00  0.00     0.238 C 
ATOM     83  O   UNL     1       4.087   3.835  -6.550  1.00  0.00    -0.273 OA
ATOM     84  N   UNL     1       2.255   2.693  -6.079  1.00  0.00    -0.288 N 
ATOM     85  H   UNL     1       1.860   3.131  -6.867  1.00  0.00     0.185 HD
BRANCH  84  86
ATOM     86  N   UNL     1       1.492   1.696  -5.518  1.00  0.00    -0.217 NA
ATOM     87  C   UNL     1       0.571   1.960  -4.428  1.00  0.00     0.136 C 
ATOM     88  C   UNL     1       1.849   0.304  -5.718  1.00  0.00     0.136 C 
ATOM     89  C   UNL     1       0.997   1.242  -3.139  1.00  0.00     0.177 C 
ATOM     90  C   UNL     1       2.304  -0.315  -4.396  1.00  0.00     0.177 C 
ATOM     91  O   UNL     1       1.328  -0.140  -3.360  1.00  0.00    -0.379 OA
ENDBRANCH  84  86
ENDBRANCH  75  82
ENDBRANCH  72  74
ENDBRANCH  71  72
ENDBRANCH  70  71
ENDBRANCH  69  70
ENDBRANCH  68  69
ENDBRANCH  67  68
ENDBRANCH  66  67
ENDBRANCH   1  66
TORSDOF 22
