REMARK SMILES Cc1cc(C(=O)OCCOCCOCCOCCOC(=O)c2ccc(-c3c4nc(c(-c5c(F)cccc5F)c5ccc([nH]5)c(-c5c(F)cccc5F)c5nc(c(-c6c(F)cccc6F)c6ccc3[nH]6)C=C5)C=C4)cc2)ccc1NC(=O)N1C[C@@H](C)[C@H](C)C1
REMARK SMILES IDX 14 1 13 2 12 3 11 4 10 5 9 6 8 7 7 8 5 9 6 10 4 11 1 12 2 13
REMARK SMILES IDX 3 14 78 15 77 16 76 17 79 18 80 19 81 21 82 22 83 23 88 24
REMARK SMILES IDX 84 25 86 26 85 27 87 28 15 29 16 30 17 31 18 32 19 33 20 34
REMARK SMILES IDX 21 35 22 36 23 37 75 38 24 39 74 40 25 41 26 42 27 43 68 44
REMARK SMILES IDX 28 45 73 46 67 47 69 48 29 49 72 50 66 51 65 52 30 54 56 55
REMARK SMILES IDX 39 56 55 57 40 58 43 59 54 60 70 61 41 62 42 63 53 65 71 66
REMARK SMILES IDX 44 67 31 68 32 69 37 70 33 71 34 72 36 73 38 74 35 75 57 76
REMARK SMILES IDX 58 77 63 78 59 79 60 80 62 81 64 82 61 83 45 84 46 85 51 86
REMARK SMILES IDX 47 87 48 88 50 89 52 90 49 91
REMARK H PARENT 79 20 69 53 43 64
REMARK Flexibility Score: inf
ROOT
ATOM      1  C   UNL     1      -2.740  -1.899  -3.065  1.00  0.00     0.188 C 
ENDROOT
BRANCH   1   2
ATOM      2  O   UNL     1      -1.652  -1.023  -2.772  1.00  0.00    -0.377 OA
BRANCH   2   3
ATOM      3  C   UNL     1      -0.338  -1.451  -3.128  1.00  0.00     0.188 C 
BRANCH   3   4
ATOM      4  C   UNL     1       0.408  -2.319  -2.111  1.00  0.00     0.188 C 
BRANCH   4   5
ATOM      5  O   UNL     1       0.193  -3.725  -2.156  1.00  0.00    -0.376 OA
BRANCH   5   6
ATOM      6  C   UNL     1      -0.628  -4.265  -1.117  1.00  0.00     0.202 C 
BRANCH   6   7
ATOM      7  C   UNL     1      -0.114  -4.141   0.322  1.00  0.00     0.261 C 
BRANCH   7   8
ATOM      8  O   UNL     1      -0.393  -2.822   0.799  1.00  0.00    -0.460 OA
BRANCH   8   9
ATOM      9  C   UNL     1       0.588  -2.241   1.518  1.00  0.00     0.338 C 
ATOM     10  O   UNL     1       1.462  -2.795   2.155  1.00  0.00    -0.246 OA
BRANCH   9  11
ATOM     11  C   UNL     1       0.622  -0.817   1.110  1.00  0.00     0.060 A 
ATOM     12  C   UNL     1       3.440   1.436   0.041  1.00  0.00     0.046 C 
ATOM     13  C   UNL     1       2.035   1.033   0.405  1.00  0.00    -0.027 A 
ATOM     14  C   UNL     1       1.884  -0.244   0.965  1.00  0.00     0.021 A 
ATOM     15  C   UNL     1       0.883   1.770   0.062  1.00  0.00     0.045 A 
ATOM     16  C   UNL     1      -0.343   1.108   0.031  1.00  0.00     0.027 A 
ATOM     17  C   UNL     1      -0.494  -0.151   0.604  1.00  0.00     0.018 A 
BRANCH  15  18
ATOM     18  N   UNL     1       0.998   3.134  -0.241  1.00  0.00    -0.308 N 
ATOM     19  C   UNL     1       0.111   4.135  -0.459  1.00  0.00     0.321 C 
ATOM     20  H   UNL     1       1.934   3.431  -0.312  1.00  0.00     0.171 HD
ATOM     21  O   UNL     1       0.563   5.162  -0.976  1.00  0.00    -0.248 OA
ATOM     22  N   UNL     1      -1.209   4.024  -0.133  1.00  0.00    -0.324 N 
ATOM     23  C   UNL     1      -2.177   4.840  -0.849  1.00  0.00     0.125 C 
ATOM     24  C   UNL     1      -1.746   3.634   1.175  1.00  0.00     0.125 C 
ATOM     25  C   UNL     1      -3.245   5.196   0.181  1.00  0.00     0.010 C 
ATOM     26  C   UNL     1      -3.243   3.961   1.093  1.00  0.00     0.010 C 
ATOM     27  C   UNL     1      -4.585   5.502  -0.464  1.00  0.00     0.010 C 
ATOM     28  C   UNL     1      -3.884   4.190   2.455  1.00  0.00     0.010 C 
ENDBRANCH  15  18
ENDBRANCH   9  11
ENDBRANCH   8   9
ENDBRANCH   7   8
ENDBRANCH   6   7
ENDBRANCH   5   6
ENDBRANCH   4   5
ENDBRANCH   3   4
ENDBRANCH   2   3
ENDBRANCH   1   2
BRANCH   1  29
ATOM     29  C   UNL     1      -2.774  -2.463  -4.486  1.00  0.00     0.188 C 
BRANCH  29  30
ATOM     30  O   UNL     1      -1.938  -3.620  -4.540  1.00  0.00    -0.376 OA
BRANCH  30  31
ATOM     31  C   UNL     1      -1.278  -3.846  -5.784  1.00  0.00     0.202 C 
BRANCH  31  32
ATOM     32  C   UNL     1      -2.226  -4.188  -6.939  1.00  0.00     0.261 C 
BRANCH  32  33
ATOM     33  O   UNL     1      -2.893  -5.431  -6.656  1.00  0.00    -0.460 OA
BRANCH  33  34
ATOM     34  C   UNL     1      -4.187  -5.306  -6.263  1.00  0.00     0.338 C 
ATOM     35  O   UNL     1      -5.043  -4.651  -6.835  1.00  0.00    -0.246 OA
BRANCH  34  36
ATOM     36  C   UNL     1      -4.346  -5.856  -4.888  1.00  0.00     0.060 A 
ATOM     37  C   UNL     1      -5.535  -5.615  -4.183  1.00  0.00     0.016 A 
ATOM     38  C   UNL     1      -3.223  -6.321  -4.210  1.00  0.00     0.016 A 
ATOM     39  C   UNL     1      -5.541  -5.668  -2.782  1.00  0.00     0.010 A 
ATOM     40  C   UNL     1      -3.213  -6.280  -2.829  1.00  0.00     0.010 A 
ATOM     41  C   UNL     1      -4.343  -5.889  -2.098  1.00  0.00    -0.014 A 
BRANCH  41  42
ATOM     42  C   UNL     1      -4.092  -5.497  -0.696  1.00  0.00     0.031 A 
ATOM     43  C   UNL     1      -3.378  -6.408   0.256  1.00  0.00     0.074 A 
ATOM     44  C   UNL     1      -4.157  -4.169  -0.403  1.00  0.00     0.049 A 
ATOM     45  N   UNL     1      -3.143  -6.119   1.494  1.00  0.00    -0.248 NA
ATOM     46  C   UNL     1      -2.856  -7.733  -0.092  1.00  0.00     0.031 C 
ATOM     47  C   UNL     1      -3.426  -3.465   0.651  1.00  0.00     0.029 A 
ATOM     48  N   UNL     1      -4.913  -3.145  -0.981  1.00  0.00    -0.354 N 
ATOM     49  C   UNL     1      -2.137  -6.950   1.938  1.00  0.00     0.074 A 
ATOM     50  C   UNL     1      -2.111  -8.026   0.983  1.00  0.00     0.031 C 
ATOM     51  C   UNL     1      -3.860  -2.203   0.756  1.00  0.00     0.029 A 
ATOM     52  C   UNL     1      -5.069  -2.130  -0.026  1.00  0.00     0.049 A 
ATOM     53  H   UNL     1      -5.272  -3.137  -1.898  1.00  0.00     0.167 HD
ATOM     54  C   UNL     1      -1.324  -6.534   2.956  1.00  0.00     0.037 A 
ATOM     55  C   UNL     1      -6.270  -1.751   0.499  1.00  0.00     0.037 A 
ATOM     56  C   UNL     1      -1.817  -5.303   3.598  1.00  0.00     0.049 A 
ATOM     57  C   UNL     1      -6.321  -2.046   1.988  1.00  0.00     0.074 A 
ATOM     58  C   UNL     1      -1.246  -4.083   3.917  1.00  0.00     0.029 A 
ATOM     59  N   UNL     1      -3.175  -5.174   3.895  1.00  0.00    -0.354 N 
ATOM     60  N   UNL     1      -5.524  -2.921   2.552  1.00  0.00    -0.248 NA
ATOM     61  C   UNL     1      -7.154  -1.363   2.972  1.00  0.00     0.031 C 
ATOM     62  C   UNL     1      -2.295  -3.184   4.266  1.00  0.00     0.029 A 
ATOM     63  C   UNL     1      -3.490  -3.886   4.266  1.00  0.00     0.049 A 
ATOM     64  H   UNL     1      -3.825  -5.911   3.845  1.00  0.00     0.167 HD
ATOM     65  C   UNL     1      -5.641  -2.859   3.907  1.00  0.00     0.074 A 
ATOM     66  C   UNL     1      -6.722  -1.914   4.125  1.00  0.00     0.031 C 
ATOM     67  C   UNL     1      -4.826  -3.559   4.748  1.00  0.00     0.037 A 
BRANCH  54  68
ATOM     68  C   UNL     1       0.056  -7.109   3.260  1.00  0.00     0.057 A 
ATOM     69  C   UNL     1       0.704  -6.817   4.478  1.00  0.00     0.134 A 
ATOM     70  C   UNL     1       0.849  -7.844   2.353  1.00  0.00     0.134 A 
ATOM     71  F   UNL     1       0.086  -6.119   5.442  1.00  0.00    -0.206 F 
ATOM     72  C   UNL     1       2.020  -7.219   4.768  1.00  0.00     0.040 A 
ATOM     73  C   UNL     1       2.141  -8.308   2.656  1.00  0.00     0.040 A 
ATOM     74  F   UNL     1       0.445  -8.101   1.103  1.00  0.00    -0.206 F 
ATOM     75  C   UNL     1       2.739  -7.984   3.862  1.00  0.00     0.006 A 
ENDBRANCH  54  68
BRANCH  55  76
ATOM     76  C   UNL     1      -7.350  -1.695  -0.520  1.00  0.00     0.057 A 
ATOM     77  C   UNL     1      -7.234  -0.639  -1.446  1.00  0.00     0.134 A 
ATOM     78  C   UNL     1      -7.985  -2.861  -0.967  1.00  0.00     0.134 A 
ATOM     79  F   UNL     1      -6.673   0.521  -1.069  1.00  0.00    -0.206 F 
ATOM     80  C   UNL     1      -7.516  -0.815  -2.803  1.00  0.00     0.040 A 
ATOM     81  C   UNL     1      -8.282  -3.043  -2.327  1.00  0.00     0.040 A 
ATOM     82  F   UNL     1      -8.103  -3.923  -0.157  1.00  0.00    -0.206 F 
ATOM     83  C   UNL     1      -7.990  -2.042  -3.255  1.00  0.00     0.006 A 
ENDBRANCH  55  76
BRANCH  67  84
ATOM     84  C   UNL     1      -5.200  -3.999   6.140  1.00  0.00     0.057 A 
ATOM     85  C   UNL     1      -6.527  -4.213   6.536  1.00  0.00     0.134 A 
ATOM     86  C   UNL     1      -4.217  -4.481   7.036  1.00  0.00     0.134 A 
ATOM     87  F   UNL     1      -7.558  -3.879   5.748  1.00  0.00    -0.206 F 
ATOM     88  C   UNL     1      -6.855  -4.851   7.738  1.00  0.00     0.040 A 
ATOM     89  C   UNL     1      -4.534  -5.163   8.212  1.00  0.00     0.040 A 
ATOM     90  F   UNL     1      -2.906  -4.355   6.789  1.00  0.00    -0.206 F 
ATOM     91  C   UNL     1      -5.859  -5.348   8.569  1.00  0.00     0.006 A 
ENDBRANCH  67  84
ENDBRANCH  41  42
ENDBRANCH  34  36
ENDBRANCH  33  34
ENDBRANCH  32  33
ENDBRANCH  31  32
ENDBRANCH  30  31
ENDBRANCH  29  30
ENDBRANCH   1  29
TORSDOF 21
