REMARK SMILES Cc1c(C(=O)OCCOCCOCCOCCOC(=O)c2ccc(-c3c4nc(c(-c5c(F)cccc5F)c5ccc([nH]5)c(-c5c(F)cccc5F)c5nc(c(-c6c(F)cccc6F)c6ccc3[nH]6)C=C5)C=C4)cc2)sc2ncnc(NCc3cn4c(n3)SCC4)c12
REMARK SMILES IDX 11 1 10 2 9 3 8 4 7 5 6 6 4 7 5 8 3 9 1 10 2 11 91 12 75 13
REMARK SMILES IDX 76 14 80 15 77 16 79 17 78 18 81 19 82 21 83 22 84 23 87 24
REMARK SMILES IDX 85 25 86 26 90 27 88 28 89 29 12 30 13 31 14 32 15 33 16 34
REMARK SMILES IDX 17 35 18 36 19 37 20 38 21 39 22 40 74 41 23 42 73 43 24 44
REMARK SMILES IDX 25 45 26 46 67 47 27 48 72 49 66 50 68 51 28 52 71 53 65 54
REMARK SMILES IDX 64 55 29 57 55 58 38 59 54 60 39 61 42 62 53 63 69 64 40 65
REMARK SMILES IDX 41 66 52 68 70 69 43 70 30 71 31 72 36 73 32 74 33 75 35 76
REMARK SMILES IDX 37 77 34 78 56 79 57 80 62 81 58 82 59 83 61 84 63 85 60 86
REMARK SMILES IDX 44 87 45 88 50 89 46 90 47 91 49 92 51 93 48 94
REMARK H PARENT 81 20 68 56 42 67
REMARK Flexibility Score: inf
ROOT
ATOM      1  C   UNL     1      -0.492   3.559   0.726  1.00  0.00     0.188 C 
ENDROOT
BRANCH   1   2
ATOM      2  C   UNL     1       0.736   3.099   1.541  1.00  0.00     0.188 C 
BRANCH   2   3
ATOM      3  O   UNL     1       1.401   4.146   2.225  1.00  0.00    -0.376 OA
BRANCH   3   4
ATOM      4  C   UNL     1       2.703   4.505   1.821  1.00  0.00     0.202 C 
BRANCH   4   5
ATOM      5  C   UNL     1       2.874   5.021   0.386  1.00  0.00     0.261 C 
BRANCH   5   6
ATOM      6  O   UNL     1       2.226   4.233  -0.622  1.00  0.00    -0.459 OA
BRANCH   6   7
ATOM      7  C   UNL     1       2.870   3.107  -1.035  1.00  0.00     0.348 C 
ATOM      8  O   UNL     1       3.987   2.778  -0.667  1.00  0.00    -0.245 OA
BRANCH   7   9
ATOM      9  C   UNL     1       1.949   2.287  -1.808  1.00  0.00     0.118 A 
ATOM     10  C   UNL     1       2.102   0.238  -0.373  1.00  0.00     0.047 C 
ATOM     11  C   UNL     1       1.553   0.972  -1.557  1.00  0.00    -0.012 A 
ATOM     12  C   UNL     1       0.558   0.493  -2.541  1.00  0.00     0.058 A 
ATOM     13  S   UNL     1       1.204   2.944  -3.179  1.00  0.00    -0.108 S 
ATOM     14  C   UNL     1       0.352   1.507  -3.481  1.00  0.00     0.129 A 
ATOM     15  C   UNL     1      -0.216  -0.689  -2.783  1.00  0.00     0.138 A 
ATOM     16  N   UNL     1      -0.427   1.480  -4.573  1.00  0.00    -0.225 NA
ATOM     17  N   UNL     1      -0.997  -0.723  -3.899  1.00  0.00    -0.219 NA
ATOM     18  C   UNL     1      -1.055   0.326  -4.722  1.00  0.00     0.225 A 
BRANCH  15  19
ATOM     19  N   UNL     1      -0.343  -1.874  -2.111  1.00  0.00    -0.364 N 
ATOM     20  H   UNL     1      -0.934  -2.519  -2.563  1.00  0.00     0.162 HD
BRANCH  19  21
ATOM     21  C   UNL     1       0.210  -2.370  -0.882  1.00  0.00     0.172 C 
BRANCH  21  22
ATOM     22  C   UNL     1      -0.722  -2.556   0.271  1.00  0.00     0.079 A 
ATOM     23  C   UNL     1      -1.688  -3.534   0.475  1.00  0.00     0.113 A 
ATOM     24  N   UNL     1      -0.721  -1.630   1.311  1.00  0.00    -0.226 NA
ATOM     25  N   UNL     1      -2.296  -3.152   1.623  1.00  0.00    -0.325 N 
ATOM     26  C   UNL     1      -1.694  -2.023   2.079  1.00  0.00     0.168 A 
ATOM     27  C   UNL     1      -3.557  -3.503   2.241  1.00  0.00     0.135 C 
ATOM     28  S   UNL     1      -2.613  -1.222   3.295  1.00  0.00    -0.086 SA
ATOM     29  C   UNL     1      -4.102  -2.182   2.791  1.00  0.00     0.100 C 
ENDBRANCH  21  22
ENDBRANCH  19  21
ENDBRANCH  15  19
ENDBRANCH   7   9
ENDBRANCH   6   7
ENDBRANCH   5   6
ENDBRANCH   4   5
ENDBRANCH   3   4
ENDBRANCH   2   3
ENDBRANCH   1   2
BRANCH   1  30
ATOM     30  O   UNL     1      -0.798   4.941   0.587  1.00  0.00    -0.377 OA
BRANCH  30  31
ATOM     31  C   UNL     1      -0.630   5.834   1.683  1.00  0.00     0.188 C 
BRANCH  31  32
ATOM     32  C   UNL     1      -0.840   5.385   3.155  1.00  0.00     0.188 C 
BRANCH  32  33
ATOM     33  O   UNL     1      -1.028   3.995   3.352  1.00  0.00    -0.376 OA
BRANCH  33  34
ATOM     34  C   UNL     1      -2.277   3.424   3.679  1.00  0.00     0.202 C 
BRANCH  34  35
ATOM     35  C   UNL     1      -3.478   3.675   2.775  1.00  0.00     0.261 C 
BRANCH  35  36
ATOM     36  O   UNL     1      -3.511   4.966   2.207  1.00  0.00    -0.460 OA
BRANCH  36  37
ATOM     37  C   UNL     1      -3.796   5.944   3.084  1.00  0.00     0.338 C 
ATOM     38  O   UNL     1      -3.872   5.862   4.295  1.00  0.00    -0.246 OA
BRANCH  37  39
ATOM     39  C   UNL     1      -4.132   7.141   2.314  1.00  0.00     0.060 A 
ATOM     40  C   UNL     1      -4.314   8.303   3.059  1.00  0.00     0.016 A 
ATOM     41  C   UNL     1      -4.675   6.957   1.033  1.00  0.00     0.016 A 
ATOM     42  C   UNL     1      -5.310   9.150   2.654  1.00  0.00     0.010 A 
ATOM     43  C   UNL     1      -5.688   7.788   0.645  1.00  0.00     0.010 A 
ATOM     44  C   UNL     1      -6.056   8.801   1.521  1.00  0.00    -0.014 A 
BRANCH  44  45
ATOM     45  C   UNL     1      -7.226   9.588   1.235  1.00  0.00     0.031 A 
ATOM     46  C   UNL     1      -6.877  10.910   0.694  1.00  0.00     0.074 A 
ATOM     47  C   UNL     1      -8.471   9.117   1.411  1.00  0.00     0.049 A 
ATOM     48  N   UNL     1      -6.991  12.047   1.289  1.00  0.00    -0.248 NA
ATOM     49  C   UNL     1      -6.113  10.950  -0.562  1.00  0.00     0.031 C 
ATOM     50  C   UNL     1      -8.909   7.750   1.702  1.00  0.00     0.029 A 
ATOM     51  N   UNL     1      -9.640   9.792   1.281  1.00  0.00    -0.354 N 
ATOM     52  C   UNL     1      -6.505  12.981   0.384  1.00  0.00     0.074 A 
ATOM     53  C   UNL     1      -5.793  12.241  -0.622  1.00  0.00     0.031 C 
ATOM     54  C   UNL     1     -10.246   7.662   1.504  1.00  0.00     0.029 A 
ATOM     55  C   UNL     1     -10.765   8.986   1.204  1.00  0.00     0.049 A 
ATOM     56  H   UNL     1      -9.685  10.775   1.244  1.00  0.00     0.167 HD
ATOM     57  C   UNL     1      -6.979  14.253   0.393  1.00  0.00     0.037 A 
ATOM     58  C   UNL     1     -12.004   9.402   0.841  1.00  0.00     0.037 A 
ATOM     59  C   UNL     1      -7.576  14.569   1.670  1.00  0.00     0.049 A 
ATOM     60  C   UNL     1     -12.042  10.880   1.015  1.00  0.00     0.074 A 
ATOM     61  C   UNL     1      -7.113  14.583   2.973  1.00  0.00     0.029 A 
ATOM     62  N   UNL     1      -8.948  14.556   1.761  1.00  0.00    -0.354 N 
ATOM     63  N   UNL     1     -12.026  11.470   2.179  1.00  0.00    -0.248 NA
ATOM     64  C   UNL     1     -11.614  11.707  -0.107  1.00  0.00     0.031 C 
ATOM     65  C   UNL     1      -8.200  14.102   3.759  1.00  0.00     0.029 A 
ATOM     66  C   UNL     1      -9.281  13.881   2.906  1.00  0.00     0.049 A 
ATOM     67  H   UNL     1      -9.577  14.959   1.119  1.00  0.00     0.167 HD
ATOM     68  C   UNL     1     -11.196  12.569   2.008  1.00  0.00     0.074 A 
ATOM     69  C   UNL     1     -11.040  12.711   0.562  1.00  0.00     0.031 C 
ATOM     70  C   UNL     1     -10.474  13.078   3.050  1.00  0.00     0.037 A 
BRANCH  57  71
ATOM     71  C   UNL     1      -7.274  15.030  -0.867  1.00  0.00     0.057 A 
ATOM     72  C   UNL     1      -7.744  16.348  -0.748  1.00  0.00     0.134 A 
ATOM     73  C   UNL     1      -7.402  14.467  -2.156  1.00  0.00     0.134 A 
ATOM     74  F   UNL     1      -7.680  17.000   0.423  1.00  0.00    -0.206 F 
ATOM     75  C   UNL     1      -8.383  17.015  -1.799  1.00  0.00     0.040 A 
ATOM     76  C   UNL     1      -7.991  15.143  -3.225  1.00  0.00     0.040 A 
ATOM     77  F   UNL     1      -7.061  13.207  -2.443  1.00  0.00    -0.206 F 
ATOM     78  C   UNL     1      -8.519  16.407  -3.040  1.00  0.00     0.006 A 
ENDBRANCH  57  71
BRANCH  58  79
ATOM     79  C   UNL     1     -13.041   8.668   0.081  1.00  0.00     0.057 A 
ATOM     80  C   UNL     1     -14.362   9.134   0.022  1.00  0.00     0.134 A 
ATOM     81  C   UNL     1     -12.708   7.647  -0.827  1.00  0.00     0.134 A 
ATOM     82  F   UNL     1     -14.767  10.135   0.817  1.00  0.00    -0.206 F 
ATOM     83  C   UNL     1     -15.290   8.633  -0.901  1.00  0.00     0.040 A 
ATOM     84  C   UNL     1     -13.626   7.133  -1.748  1.00  0.00     0.040 A 
ATOM     85  F   UNL     1     -11.457   7.174  -0.913  1.00  0.00    -0.206 F 
ATOM     86  C   UNL     1     -14.920   7.636  -1.798  1.00  0.00     0.006 A 
ENDBRANCH  58  79
BRANCH  70  87
ATOM     87  C   UNL     1     -10.773  12.568   4.433  1.00  0.00     0.057 A 
ATOM     88  C   UNL     1     -10.559  11.242   4.841  1.00  0.00     0.134 A 
ATOM     89  C   UNL     1     -11.110  13.489   5.431  1.00  0.00     0.134 A 
ATOM     90  F   UNL     1     -10.141  10.309   3.976  1.00  0.00    -0.206 F 
ATOM     91  C   UNL     1     -10.703  10.848   6.175  1.00  0.00     0.040 A 
ATOM     92  C   UNL     1     -11.223  13.115   6.772  1.00  0.00     0.040 A 
ATOM     93  F   UNL     1     -11.276  14.786   5.125  1.00  0.00    -0.206 F 
ATOM     94  C   UNL     1     -11.025  11.789   7.147  1.00  0.00     0.006 A 
ENDBRANCH  70  87
ENDBRANCH  44  45
ENDBRANCH  37  39
ENDBRANCH  36  37
ENDBRANCH  35  36
ENDBRANCH  34  35
ENDBRANCH  33  34
ENDBRANCH  32  33
ENDBRANCH  31  32
ENDBRANCH  30  31
ENDBRANCH   1  30
TORSDOF 23
