REMARK SMILES O=C(OCCOCCOCCOCCOC(=O)[C@@H]1[C@@H](C(=O)N2CC[NH+](C/C=C/c3ccccc3)CC2)[C@@H]2C=C[C@H]1C2)c1ccc(-c2c3nc(c(-c4c(F)cccc4F)c4ccc([nH]4)c(-c4c(F)cccc4F)c4nc(c(-c5c(F)cccc5F)c5ccc2[nH]5)C=C4)C=C3)cc1
REMARK SMILES IDX 10 1 9 2 8 3 7 4 6 5 5 6 4 7 3 8 2 9 1 10 42 11 43 12 95 13
REMARK SMILES IDX 44 14 94 15 45 16 46 17 47 18 88 19 48 20 93 21 87 22 89 23
REMARK SMILES IDX 49 24 92 25 86 26 85 27 50 29 76 30 59 31 75 32 60 33 63 34
REMARK SMILES IDX 74 35 90 36 61 37 62 38 73 40 91 41 64 42 51 43 52 44 57 45
REMARK SMILES IDX 53 46 54 47 56 48 58 49 55 50 77 51 78 52 83 53 79 54 80 55
REMARK SMILES IDX 82 56 84 57 81 58 65 59 66 60 71 61 67 62 68 63 70 64 72 65
REMARK SMILES IDX 69 66 11 67 12 68 13 69 14 70 15 71 16 72 17 73 18 74 19 75
REMARK SMILES IDX 40 76 37 77 39 78 41 79 38 80 20 81 21 82 22 83 23 84 36 85
REMARK SMILES IDX 24 86 35 87 25 88 26 90 27 91 28 92 29 93 30 94 34 95 31 96
REMARK SMILES IDX 33 97 32 98
REMARK H PARENT 89 28 63 39 25 89
REMARK Flexibility Score: inf
ROOT
ATOM      1  C   UNL     1       4.427  -3.545  -0.082  1.00  0.00     0.188 C 
ENDROOT
BRANCH   1   2
ATOM      2  O   UNL     1       3.050  -3.835   0.148  1.00  0.00    -0.377 OA
BRANCH   2   3
ATOM      3  C   UNL     1       2.103  -2.789  -0.092  1.00  0.00     0.188 C 
BRANCH   3   4
ATOM      4  C   UNL     1       2.361  -1.523   0.721  1.00  0.00     0.188 C 
BRANCH   4   5
ATOM      5  O   UNL     1       3.574  -0.910   0.284  1.00  0.00    -0.376 OA
BRANCH   5   6
ATOM      6  C   UNL     1       4.436  -0.459   1.329  1.00  0.00     0.202 C 
BRANCH   6   7
ATOM      7  C   UNL     1       4.208   1.003   1.689  1.00  0.00     0.261 C 
BRANCH   7   8
ATOM      8  O   UNL     1       2.821   1.356   1.605  1.00  0.00    -0.460 OA
BRANCH   8   9
ATOM      9  C   UNL     1       2.152   1.792   0.509  1.00  0.00     0.338 C 
ATOM     10  O   UNL     1       0.944   2.006   0.615  1.00  0.00    -0.246 OA
BRANCH   9  11
ATOM     11  C   UNL     1       2.792   2.097  -0.812  1.00  0.00     0.060 A 
ATOM     12  C   UNL     1       3.914   1.464  -1.358  1.00  0.00     0.016 A 
ATOM     13  C   UNL     1       2.151   3.073  -1.594  1.00  0.00     0.016 A 
ATOM     14  C   UNL     1       4.420   1.811  -2.604  1.00  0.00     0.010 A 
ATOM     15  C   UNL     1       2.650   3.435  -2.847  1.00  0.00     0.010 A 
ATOM     16  C   UNL     1       3.809   2.821  -3.334  1.00  0.00    -0.014 A 
BRANCH  16  17
ATOM     17  C   UNL     1       4.531   3.388  -4.482  1.00  0.00     0.031 A 
ATOM     18  C   UNL     1       5.314   4.639  -4.240  1.00  0.00     0.074 A 
ATOM     19  C   UNL     1       4.552   2.754  -5.664  1.00  0.00     0.049 A 
ATOM     20  N   UNL     1       5.895   5.435  -5.092  1.00  0.00    -0.248 NA
ATOM     21  C   UNL     1       5.463   5.045  -2.830  1.00  0.00     0.031 C 
ATOM     22  C   UNL     1       3.940   1.454  -5.935  1.00  0.00     0.029 A 
ATOM     23  N   UNL     1       5.111   3.124  -6.856  1.00  0.00    -0.354 N 
ATOM     24  C   UNL     1       6.431   6.463  -4.328  1.00  0.00     0.074 A 
ATOM     25  C   UNL     1       6.126   6.182  -2.945  1.00  0.00     0.031 C 
ATOM     26  C   UNL     1       4.140   1.143  -7.227  1.00  0.00     0.029 A 
ATOM     27  C   UNL     1       4.831   2.252  -7.878  1.00  0.00     0.049 A 
ATOM     28  H   UNL     1       5.659   3.934  -6.969  1.00  0.00     0.167 HD
ATOM     29  C   UNL     1       7.094   7.558  -4.761  1.00  0.00     0.037 A 
ATOM     30  C   UNL     1       5.059   2.382  -9.198  1.00  0.00     0.037 A 
ATOM     31  C   UNL     1       7.369   7.800  -6.149  1.00  0.00     0.049 A 
ATOM     32  C   UNL     1       5.729   3.642  -9.677  1.00  0.00     0.074 A 
ATOM     33  C   UNL     1       7.970   8.892  -6.741  1.00  0.00     0.029 A 
ATOM     34  N   UNL     1       7.046   6.910  -7.167  1.00  0.00    -0.354 N 
ATOM     35  N   UNL     1       6.162   4.663  -8.972  1.00  0.00    -0.248 NA
ATOM     36  C   UNL     1       5.925   3.785 -11.124  1.00  0.00     0.031 C 
ATOM     37  C   UNL     1       7.977   8.678  -8.124  1.00  0.00     0.029 A 
ATOM     38  C   UNL     1       7.421   7.433  -8.389  1.00  0.00     0.049 A 
ATOM     39  H   UNL     1       6.613   6.035  -7.037  1.00  0.00     0.167 HD
ATOM     40  C   UNL     1       6.689   5.566  -9.883  1.00  0.00     0.074 A 
ATOM     41  C   UNL     1       6.531   4.964 -11.195  1.00  0.00     0.031 C 
ATOM     42  C   UNL     1       7.249   6.782  -9.665  1.00  0.00     0.037 A 
BRANCH  29  43
ATOM     43  C   UNL     1       7.447   8.582  -3.724  1.00  0.00     0.057 A 
ATOM     44  C   UNL     1       8.442   8.363  -2.761  1.00  0.00     0.134 A 
ATOM     45  C   UNL     1       6.707   9.767  -3.629  1.00  0.00     0.134 A 
ATOM     46  F   UNL     1       9.161   7.230  -2.771  1.00  0.00    -0.206 F 
ATOM     47  C   UNL     1       8.659   9.267  -1.718  1.00  0.00     0.040 A 
ATOM     48  C   UNL     1       6.931  10.689  -2.605  1.00  0.00     0.040 A 
ATOM     49  F   UNL     1       5.732  10.033  -4.510  1.00  0.00    -0.206 F 
ATOM     50  C   UNL     1       7.900  10.434  -1.638  1.00  0.00     0.006 A 
ENDBRANCH  29  43
BRANCH  30  51
ATOM     51  C   UNL     1       4.585   1.331 -10.133  1.00  0.00     0.057 A 
ATOM     52  C   UNL     1       5.478   0.499 -10.815  1.00  0.00     0.134 A 
ATOM     53  C   UNL     1       3.216   1.099 -10.329  1.00  0.00     0.134 A 
ATOM     54  F   UNL     1       6.800   0.679 -10.687  1.00  0.00    -0.206 F 
ATOM     55  C   UNL     1       5.029  -0.528 -11.651  1.00  0.00     0.040 A 
ATOM     56  C   UNL     1       2.753   0.062 -11.141  1.00  0.00     0.040 A 
ATOM     57  F   UNL     1       2.305   1.860  -9.704  1.00  0.00    -0.206 F 
ATOM     58  C   UNL     1       3.662  -0.755 -11.806  1.00  0.00     0.006 A 
ENDBRANCH  30  51
BRANCH  42  59
ATOM     59  C   UNL     1       7.756   7.521 -10.863  1.00  0.00     0.057 A 
ATOM     60  C   UNL     1       6.891   8.214 -11.716  1.00  0.00     0.134 A 
ATOM     61  C   UNL     1       9.132   7.623 -11.098  1.00  0.00     0.134 A 
ATOM     62  F   UNL     1       5.563   8.145 -11.541  1.00  0.00    -0.206 F 
ATOM     63  C   UNL     1       7.380   8.985 -12.770  1.00  0.00     0.040 A 
ATOM     64  C   UNL     1       9.634   8.406 -12.136  1.00  0.00     0.040 A 
ATOM     65  F   UNL     1      10.008   6.988 -10.304  1.00  0.00    -0.206 F 
ATOM     66  C   UNL     1       8.756   9.091 -12.974  1.00  0.00     0.006 A 
ENDBRANCH  42  59
ENDBRANCH  16  17
ENDBRANCH   9  11
ENDBRANCH   8   9
ENDBRANCH   7   8
ENDBRANCH   6   7
ENDBRANCH   5   6
ENDBRANCH   4   5
ENDBRANCH   3   4
ENDBRANCH   2   3
ENDBRANCH   1   2
BRANCH   1  67
ATOM     67  C   UNL     1       4.879  -3.321  -1.536  1.00  0.00     0.188 C 
BRANCH  67  68
ATOM     68  O   UNL     1       3.895  -2.659  -2.320  1.00  0.00    -0.376 OA
BRANCH  68  69
ATOM     69  C   UNL     1       3.530  -3.307  -3.534  1.00  0.00     0.202 C 
BRANCH  69  70
ATOM     70  C   UNL     1       2.829  -4.683  -3.458  1.00  0.00     0.261 C 
BRANCH  70  71
ATOM     71  O   UNL     1       3.019  -5.388  -2.224  1.00  0.00    -0.463 OA
BRANCH  71  72
ATOM     72  C   UNL     1       3.844  -6.466  -2.225  1.00  0.00     0.310 C 
ATOM     73  O   UNL     1       4.376  -6.936  -3.223  1.00  0.00    -0.252 OA
BRANCH  72  74
ATOM     74  C   UNL     1       4.200  -6.863  -0.808  1.00  0.00     0.119 C 
ATOM     75  C   UNL     1       4.876  -8.250  -0.728  1.00  0.00     0.100 C 
ATOM     76  C   UNL     1       3.039  -6.988   0.206  1.00  0.00     0.027 C 
ATOM     77  C   UNL     1       4.050  -8.969   0.373  1.00  0.00     0.025 C 
ATOM     78  C   UNL     1       2.059  -8.026  -0.281  1.00  0.00    -0.027 C 
ATOM     79  C   UNL     1       3.706  -7.810   1.316  1.00  0.00     0.017 C 
ATOM     80  C   UNL     1       2.667  -9.217  -0.187  1.00  0.00    -0.027 C 
BRANCH  75  81
ATOM     81  C   UNL     1       6.313  -8.150  -0.238  1.00  0.00     0.227 C 
ATOM     82  O   UNL     1       6.716  -7.254   0.505  1.00  0.00    -0.275 OA
ATOM     83  N   UNL     1       7.060  -9.269  -0.498  1.00  0.00    -0.331 N 
ATOM     84  C   UNL     1       7.905  -9.817   0.550  1.00  0.00     0.181 C 
ATOM     85  C   UNL     1       7.293  -9.756  -1.853  1.00  0.00     0.181 C 
ATOM     86  C   UNL     1       7.926 -11.354   0.472  1.00  0.00     0.284 C 
ATOM     87  C   UNL     1       7.338 -11.290  -1.895  1.00  0.00     0.284 C 
ATOM     88  N   UNL     1       8.179 -11.927  -0.866  1.00  0.00    -0.329 N 
ATOM     89  H   UNL     1       7.879 -12.901  -0.832  1.00  0.00     0.348 HD
BRANCH  88  90
ATOM     90  C   UNL     1       9.599 -12.051  -1.206  1.00  0.00     0.291 C 
BRANCH  90  91
ATOM     91  C   UNL     1      10.355 -10.770  -1.397  1.00  0.00     0.034 C 
ATOM     92  C   UNL     1      11.211 -10.258  -0.499  1.00  0.00     0.009 C 
BRANCH  92  93
ATOM     93  C   UNL     1      11.796  -8.918  -0.624  1.00  0.00    -0.026 A 
ATOM     94  C   UNL     1      13.169  -8.743  -0.430  1.00  0.00     0.008 A 
ATOM     95  C   UNL     1      10.989  -7.788  -0.823  1.00  0.00     0.008 A 
ATOM     96  C   UNL     1      13.725  -7.462  -0.444  1.00  0.00     0.001 A 
ATOM     97  C   UNL     1      11.543  -6.507  -0.824  1.00  0.00     0.001 A 
ATOM     98  C   UNL     1      12.912  -6.345  -0.634  1.00  0.00     0.000 A 
ENDBRANCH  92  93
ENDBRANCH  90  91
ENDBRANCH  88  90
ENDBRANCH  75  81
ENDBRANCH  72  74
ENDBRANCH  71  72
ENDBRANCH  70  71
ENDBRANCH  69  70
ENDBRANCH  68  69
ENDBRANCH  67  68
ENDBRANCH   1  67
TORSDOF 24
