REMARK SMILES CC[C@@H]1CCC[C@@](Cc2ccccn2)(C(=O)OCCOCCOCCOCCOC(=O)c2ccc(-c3c4nc(c(-c5c(F)cccc5F)c5ccc([nH]5)c(-c5c(F)cccc5F)c5nc(c(-c6c(F)cccc6F)c6ccc3[nH]6)C=C5)C=C4)cc2)C1
REMARK SMILES IDX 23 1 22 2 21 3 20 4 19 5 18 6 17 7 15 8 16 9 7 10 3 11 4 12
REMARK SMILES IDX 86 13 5 14 6 15 2 16 1 17 8 18 9 19 10 20 14 21 11 22 13 23
REMARK SMILES IDX 12 24 24 25 25 26 26 27 27 28 28 29 29 30 30 31 31 32 32 33
REMARK SMILES IDX 33 34 85 35 34 36 84 37 35 38 36 39 37 40 78 41 38 42 83 43
REMARK SMILES IDX 77 44 79 45 39 46 82 47 76 48 75 49 40 51 66 52 49 53 65 54
REMARK SMILES IDX 50 55 53 56 64 57 80 58 51 59 52 60 63 62 81 63 54 64 41 65
REMARK SMILES IDX 42 66 47 67 43 68 44 69 46 70 48 71 45 72 67 73 68 74 73 75
REMARK SMILES IDX 69 76 70 77 72 78 74 79 71 80 55 81 56 82 61 83 57 84 58 85
REMARK SMILES IDX 60 86 62 87 59 88
REMARK H PARENT 79 50 53 61
REMARK Flexibility Score: inf
ROOT
ATOM      1  O   UNL     1       4.020  -1.954   5.200  1.00  0.00    -0.377 OA
ENDROOT
BRANCH   1   2
ATOM      2  C   UNL     1       3.737  -1.801   3.835  1.00  0.00     0.188 C 
BRANCH   2   3
ATOM      3  C   UNL     1       4.660  -0.877   3.051  1.00  0.00     0.188 C 
BRANCH   3   4
ATOM      4  O   UNL     1       5.763  -0.287   3.715  1.00  0.00    -0.376 OA
BRANCH   4   5
ATOM      5  C   UNL     1       5.585   0.243   5.023  1.00  0.00     0.202 C 
BRANCH   5   6
ATOM      6  C   UNL     1       4.389   1.166   5.309  1.00  0.00     0.261 C 
BRANCH   6   7
ATOM      7  O   UNL     1       3.074   0.550   5.282  1.00  0.00    -0.463 OA
BRANCH   7   8
ATOM      8  C   UNL     1       2.201   0.998   4.340  1.00  0.00     0.312 C 
ATOM      9  O   UNL     1       2.517   1.826   3.489  1.00  0.00    -0.252 OA
BRANCH   8  10
ATOM     10  C   UNL     1       0.741   0.489   4.483  1.00  0.00     0.074 C 
ATOM     11  C   UNL     1       0.595  -0.900   2.295  1.00  0.00    -0.010 C 
ATOM     12  C   UNL     1       0.046  -2.124   3.031  1.00  0.00     0.003 C 
ATOM     13  C   UNL     1       0.149   0.378   3.036  1.00  0.00     0.022 C 
ATOM     14  C   UNL     1       0.411  -2.172   4.507  1.00  0.00     0.001 C 
ATOM     15  C   UNL     1       0.452  -0.833   5.253  1.00  0.00     0.019 C 
BRANCH  11  16
ATOM     16  C   UNL     1       0.176  -0.959   0.814  1.00  0.00     0.000 C 
ATOM     17  C   UNL     1       0.901   0.062  -0.053  1.00  0.00     0.004 C 
ENDBRANCH  11  16
BRANCH  10  18
ATOM     18  C   UNL     1       0.038   1.672   5.250  1.00  0.00     0.075 C 
BRANCH  18  19
ATOM     19  C   UNL     1       0.367   1.733   6.734  1.00  0.00     0.041 A 
ATOM     20  C   UNL     1       1.570   2.268   7.189  1.00  0.00     0.024 A 
ATOM     21  N   UNL     1      -0.511   1.135   7.576  1.00  0.00    -0.261 NA
ATOM     22  C   UNL     1       1.933   2.091   8.522  1.00  0.00     0.003 A 
ATOM     23  C   UNL     1      -0.155   1.019   8.876  1.00  0.00     0.111 A 
ATOM     24  C   UNL     1       1.056   1.451   9.385  1.00  0.00     0.020 A 
ENDBRANCH  18  19
ENDBRANCH  10  18
ENDBRANCH   8  10
ENDBRANCH   7   8
ENDBRANCH   6   7
ENDBRANCH   5   6
ENDBRANCH   4   5
ENDBRANCH   3   4
ENDBRANCH   2   3
ENDBRANCH   1   2
BRANCH   1  25
ATOM     25  C   UNL     1       4.589  -3.169   5.627  1.00  0.00     0.188 C 
BRANCH  25  26
ATOM     26  C   UNL     1       5.555  -3.862   4.664  1.00  0.00     0.188 C 
BRANCH  26  27
ATOM     27  O   UNL     1       5.060  -4.585   3.543  1.00  0.00    -0.376 OA
BRANCH  27  28
ATOM     28  C   UNL     1       3.810  -5.257   3.533  1.00  0.00     0.202 C 
BRANCH  28  29
ATOM     29  C   UNL     1       3.412  -6.309   4.575  1.00  0.00     0.261 C 
BRANCH  29  30
ATOM     30  O   UNL     1       3.699  -5.993   5.936  1.00  0.00    -0.460 OA
BRANCH  30  31
ATOM     31  C   UNL     1       4.887  -6.457   6.387  1.00  0.00     0.338 C 
ATOM     32  O   UNL     1       5.715  -7.096   5.771  1.00  0.00    -0.246 OA
BRANCH  31  33
ATOM     33  C   UNL     1       5.105  -5.930   7.746  1.00  0.00     0.060 A 
ATOM     34  C   UNL     1       6.280  -5.215   8.008  1.00  0.00     0.016 A 
ATOM     35  C   UNL     1       4.188  -6.198   8.764  1.00  0.00     0.016 A 
ATOM     36  C   UNL     1       6.567  -4.803   9.305  1.00  0.00     0.010 A 
ATOM     37  C   UNL     1       4.488  -5.808  10.068  1.00  0.00     0.010 A 
ATOM     38  C   UNL     1       5.698  -5.149  10.346  1.00  0.00    -0.014 A 
BRANCH  38  39
ATOM     39  C   UNL     1       6.155  -5.017  11.745  1.00  0.00     0.031 A 
ATOM     40  C   UNL     1       6.700  -6.238  12.431  1.00  0.00     0.074 A 
ATOM     41  C   UNL     1       6.100  -3.836  12.383  1.00  0.00     0.049 A 
ATOM     42  N   UNL     1       7.088  -6.391  13.670  1.00  0.00    -0.248 NA
ATOM     43  C   UNL     1       6.816  -7.453  11.608  1.00  0.00     0.031 C 
ATOM     44  C   UNL     1       5.636  -2.580  11.797  1.00  0.00     0.029 A 
ATOM     45  N   UNL     1       6.427  -3.511  13.673  1.00  0.00    -0.354 N 
ATOM     46  C   UNL     1       7.478  -7.720  13.778  1.00  0.00     0.074 A 
ATOM     47  C   UNL     1       7.254  -8.337  12.490  1.00  0.00     0.031 C 
ATOM     48  C   UNL     1       5.689  -1.620  12.737  1.00  0.00     0.029 A 
ATOM     49  C   UNL     1       6.155  -2.205  13.993  1.00  0.00     0.049 A 
ATOM     50  H   UNL     1       6.818  -4.152  14.309  1.00  0.00     0.167 HD
ATOM     51  C   UNL     1       7.983  -8.364  14.856  1.00  0.00     0.037 A 
ATOM     52  C   UNL     1       6.245  -1.568  15.176  1.00  0.00     0.037 A 
ATOM     53  C   UNL     1       8.200  -7.739  16.133  1.00  0.00     0.049 A 
ATOM     54  C   UNL     1       6.740  -2.325  16.381  1.00  0.00     0.074 A 
ATOM     55  C   UNL     1       8.726  -8.294  17.285  1.00  0.00     0.029 A 
ATOM     56  N   UNL     1       7.891  -6.419  16.427  1.00  0.00    -0.354 N 
ATOM     57  N   UNL     1       7.130  -3.575  16.472  1.00  0.00    -0.248 NA
ATOM     58  C   UNL     1       6.812  -1.582  17.646  1.00  0.00     0.031 C 
ATOM     59  C   UNL     1       8.678  -7.327  18.294  1.00  0.00     0.029 A 
ATOM     60  C   UNL     1       8.186  -6.150  17.753  1.00  0.00     0.049 A 
ATOM     61  H   UNL     1       7.517  -5.770  15.788  1.00  0.00     0.167 HD
ATOM     62  C   UNL     1       7.522  -3.758  17.793  1.00  0.00     0.074 A 
ATOM     63  C   UNL     1       7.335  -2.487  18.462  1.00  0.00     0.031 C 
ATOM     64  C   UNL     1       7.998  -4.875  18.398  1.00  0.00     0.037 A 
BRANCH  51  65
ATOM     65  C   UNL     1       8.297  -9.825  14.707  1.00  0.00     0.057 A 
ATOM     66  C   UNL     1       9.362 -10.283  13.920  1.00  0.00     0.134 A 
ATOM     67  C   UNL     1       7.536 -10.786  15.385  1.00  0.00     0.134 A 
ATOM     68  F   UNL     1      10.119  -9.417  13.230  1.00  0.00    -0.206 F 
ATOM     69  C   UNL     1       9.643 -11.645  13.793  1.00  0.00     0.040 A 
ATOM     70  C   UNL     1       7.827 -12.148  15.291  1.00  0.00     0.040 A 
ATOM     71  F   UNL     1       6.503 -10.418  16.157  1.00  0.00    -0.206 F 
ATOM     72  C   UNL     1       8.879 -12.581  14.487  1.00  0.00     0.006 A 
ENDBRANCH  51  65
BRANCH  52  73
ATOM     73  C   UNL     1       5.841  -0.143  15.286  1.00  0.00     0.057 A 
ATOM     74  C   UNL     1       6.780   0.860  15.546  1.00  0.00     0.134 A 
ATOM     75  C   UNL     1       4.503   0.247  15.149  1.00  0.00     0.134 A 
ATOM     76  F   UNL     1       8.075   0.548  15.707  1.00  0.00    -0.206 F 
ATOM     77  C   UNL     1       6.403   2.197  15.687  1.00  0.00     0.040 A 
ATOM     78  C   UNL     1       4.115   1.584  15.261  1.00  0.00     0.040 A 
ATOM     79  F   UNL     1       3.552  -0.664  14.894  1.00  0.00    -0.206 F 
ATOM     80  C   UNL     1       5.066   2.562  15.539  1.00  0.00     0.006 A 
ENDBRANCH  52  73
BRANCH  64  81
ATOM     81  C   UNL     1       8.392  -4.762  19.844  1.00  0.00     0.057 A 
ATOM     82  C   UNL     1       7.444  -4.616  20.865  1.00  0.00     0.134 A 
ATOM     83  C   UNL     1       9.738  -4.850  20.222  1.00  0.00     0.134 A 
ATOM     84  F   UNL     1       6.138  -4.516  20.572  1.00  0.00    -0.206 F 
ATOM     85  C   UNL     1       7.823  -4.534  22.206  1.00  0.00     0.040 A 
ATOM     86  C   UNL     1      10.127  -4.802  21.561  1.00  0.00     0.040 A 
ATOM     87  F   UNL     1      10.697  -5.003  19.296  1.00  0.00    -0.206 F 
ATOM     88  C   UNL     1       9.168  -4.636  22.557  1.00  0.00     0.006 A 
ENDBRANCH  64  81
ENDBRANCH  38  39
ENDBRANCH  31  33
ENDBRANCH  30  31
ENDBRANCH  29  30
ENDBRANCH  28  29
ENDBRANCH  27  28
ENDBRANCH  26  27
ENDBRANCH  25  26
ENDBRANCH   1  25
TORSDOF 23
