REMARK SMILES O=C(OCCOCCOCCOCCOC(=O)[C@@H]1[C@H](C(=O)Nc2ccccc2Cc2ccccc2)[C@H]2C=C[C@@H]1O2)c1ccc(-c2c3nc(c(-c4c(F)cccc4F)c4ccc([nH]4)c(-c4c(F)cccc4F)c4nc(c(-c5c(F)cccc5F)c5ccc2[nH]5)C=C4)C=C3)cc1
REMARK SMILES IDX 10 1 9 2 8 3 7 4 6 5 5 6 4 7 3 8 2 9 1 10 41 11 42 12 94 13
REMARK SMILES IDX 43 14 93 15 44 16 45 17 46 18 87 19 47 20 92 21 86 22 88 23
REMARK SMILES IDX 48 24 91 25 85 26 84 27 49 29 75 30 58 31 74 32 59 33 62 34
REMARK SMILES IDX 73 35 89 36 60 37 61 38 72 40 90 41 63 42 50 43 51 44 56 45
REMARK SMILES IDX 52 46 53 47 55 48 57 49 54 50 76 51 77 52 82 53 78 54 79 55
REMARK SMILES IDX 81 56 83 57 80 58 64 59 65 60 70 61 66 62 67 63 69 64 71 65
REMARK SMILES IDX 68 66 11 67 12 68 13 69 14 70 15 71 16 72 17 73 18 74 19 75
REMARK SMILES IDX 39 76 36 77 38 78 40 79 37 80 20 81 21 82 22 83 23 85 24 86
REMARK SMILES IDX 28 87 25 88 27 89 26 90 29 91 30 92 31 93 35 94 32 95 34 96
REMARK SMILES IDX 33 97
REMARK H PARENT 88 28 62 39 22 84
REMARK Flexibility Score: inf
ROOT
ATOM      1  C   UNL     1       3.705   2.590  -1.516  1.00  0.00     0.188 C 
ENDROOT
BRANCH   1   2
ATOM      2  O   UNL     1       2.652   2.038  -2.304  1.00  0.00    -0.377 OA
BRANCH   2   3
ATOM      3  C   UNL     1       1.457   1.593  -1.689  1.00  0.00     0.188 C 
BRANCH   3   4
ATOM      4  C   UNL     1       1.568   0.379  -0.779  1.00  0.00     0.188 C 
BRANCH   4   5
ATOM      5  O   UNL     1       2.916   0.118  -0.434  1.00  0.00    -0.376 OA
BRANCH   5   6
ATOM      6  C   UNL     1       3.418  -1.149  -0.812  1.00  0.00     0.202 C 
BRANCH   6   7
ATOM      7  C   UNL     1       3.426  -2.125   0.361  1.00  0.00     0.261 C 
BRANCH   7   8
ATOM      8  O   UNL     1       2.191  -2.095   1.090  1.00  0.00    -0.460 OA
BRANCH   8   9
ATOM      9  C   UNL     1       1.764  -1.148   1.961  1.00  0.00     0.338 C 
ATOM     10  O   UNL     1       0.573  -1.153   2.274  1.00  0.00    -0.246 OA
BRANCH   9  11
ATOM     11  C   UNL     1       2.642  -0.117   2.617  1.00  0.00     0.060 A 
ATOM     12  C   UNL     1       3.868   0.365   2.143  1.00  0.00     0.016 A 
ATOM     13  C   UNL     1       2.140   0.445   3.806  1.00  0.00     0.016 A 
ATOM     14  C   UNL     1       4.585   1.341   2.817  1.00  0.00     0.010 A 
ATOM     15  C   UNL     1       2.868   1.401   4.518  1.00  0.00     0.010 A 
ATOM     16  C   UNL     1       4.114   1.812   4.035  1.00  0.00    -0.014 A 
BRANCH  16  17
ATOM     17  C   UNL     1       5.099   2.449   4.918  1.00  0.00     0.031 A 
ATOM     18  C   UNL     1       5.771   1.555   5.917  1.00  0.00     0.074 A 
ATOM     19  C   UNL     1       5.487   3.716   4.709  1.00  0.00     0.049 A 
ATOM     20  N   UNL     1       6.611   1.849   6.869  1.00  0.00    -0.248 NA
ATOM     21  C   UNL     1       5.457   0.116   5.817  1.00  0.00     0.031 C 
ATOM     22  C   UNL     1       5.004   4.582   3.631  1.00  0.00     0.029 A 
ATOM     23  N   UNL     1       6.397   4.484   5.377  1.00  0.00    -0.354 N 
ATOM     24  C   UNL     1       6.879   0.645   7.510  1.00  0.00     0.074 A 
ATOM     25  C   UNL     1       6.128  -0.386   6.838  1.00  0.00     0.031 C 
ATOM     26  C   UNL     1       5.631   5.768   3.713  1.00  0.00     0.029 A 
ATOM     27  C   UNL     1       6.498   5.761   4.886  1.00  0.00     0.049 A 
ATOM     28  H   UNL     1       6.929   4.153   6.137  1.00  0.00     0.167 HD
ATOM     29  C   UNL     1       7.674   0.437   8.582  1.00  0.00     0.037 A 
ATOM     30  C   UNL     1       7.188   6.806   5.378  1.00  0.00     0.037 A 
ATOM     31  C   UNL     1       8.408   1.499   9.210  1.00  0.00     0.049 A 
ATOM     32  C   UNL     1       7.984   6.577   6.637  1.00  0.00     0.074 A 
ATOM     33  C   UNL     1       9.200   1.462  10.339  1.00  0.00     0.029 A 
ATOM     34  N   UNL     1       8.427   2.809   8.740  1.00  0.00    -0.354 N 
ATOM     35  N   UNL     1       8.165   5.463   7.311  1.00  0.00    -0.248 NA
ATOM     36  C   UNL     1       8.653   7.746   7.215  1.00  0.00     0.031 C 
ATOM     37  C   UNL     1       9.657   2.763  10.581  1.00  0.00     0.029 A 
ATOM     38  C   UNL     1       9.203   3.596   9.566  1.00  0.00     0.049 A 
ATOM     39  H   UNL     1       7.956   3.127   7.936  1.00  0.00     0.167 HD
ATOM     40  C   UNL     1       8.993   5.788   8.376  1.00  0.00     0.074 A 
ATOM     41  C   UNL     1       9.286   7.204   8.247  1.00  0.00     0.031 C 
ATOM     42  C   UNL     1       9.471   5.001   9.374  1.00  0.00     0.037 A 
BRANCH  29  43
ATOM     43  C   UNL     1       7.678  -0.944   9.170  1.00  0.00     0.057 A 
ATOM     44  C   UNL     1       8.244  -2.047   8.515  1.00  0.00     0.134 A 
ATOM     45  C   UNL     1       7.028  -1.187  10.388  1.00  0.00     0.134 A 
ATOM     46  F   UNL     1       8.847  -1.896   7.325  1.00  0.00    -0.206 F 
ATOM     47  C   UNL     1       8.131  -3.342   9.030  1.00  0.00     0.040 A 
ATOM     48  C   UNL     1       6.934  -2.471  10.927  1.00  0.00     0.040 A 
ATOM     49  F   UNL     1       6.451  -0.182  11.063  1.00  0.00    -0.206 F 
ATOM     50  C   UNL     1       7.476  -3.555  10.241  1.00  0.00     0.006 A 
ENDBRANCH  29  43
BRANCH  30  51
ATOM     51  C   UNL     1       7.115   8.141   4.728  1.00  0.00     0.057 A 
ATOM     52  C   UNL     1       8.245   8.743   4.164  1.00  0.00     0.134 A 
ATOM     53  C   UNL     1       5.913   8.860   4.669  1.00  0.00     0.134 A 
ATOM     54  F   UNL     1       9.432   8.119   4.202  1.00  0.00    -0.206 F 
ATOM     55  C   UNL     1       8.189  10.013   3.584  1.00  0.00     0.040 A 
ATOM     56  C   UNL     1       5.835  10.117   4.066  1.00  0.00     0.040 A 
ATOM     57  F   UNL     1       4.788   8.347   5.189  1.00  0.00    -0.206 F 
ATOM     58  C   UNL     1       6.979  10.702   3.529  1.00  0.00     0.006 A 
ENDBRANCH  30  51
BRANCH  42  59
ATOM     59  C   UNL     1      10.403   5.650  10.351  1.00  0.00     0.057 A 
ATOM     60  C   UNL     1       9.957   6.569  11.307  1.00  0.00     0.134 A 
ATOM     61  C   UNL     1      11.762   5.310  10.354  1.00  0.00     0.134 A 
ATOM     62  F   UNL     1       8.668   6.942  11.344  1.00  0.00    -0.206 F 
ATOM     63  C   UNL     1      10.838   7.152  12.217  1.00  0.00     0.040 A 
ATOM     64  C   UNL     1      12.645   5.859  11.281  1.00  0.00     0.040 A 
ATOM     65  F   UNL     1      12.246   4.424   9.470  1.00  0.00    -0.206 F 
ATOM     66  C   UNL     1      12.185   6.790  12.210  1.00  0.00     0.006 A 
ENDBRANCH  42  59
ENDBRANCH  16  17
ENDBRANCH   9  11
ENDBRANCH   8   9
ENDBRANCH   7   8
ENDBRANCH   6   7
ENDBRANCH   5   6
ENDBRANCH   4   5
ENDBRANCH   3   4
ENDBRANCH   2   3
ENDBRANCH   1   2
BRANCH   1  67
ATOM     67  C   UNL     1       3.729   4.101  -1.291  1.00  0.00     0.188 C 
BRANCH  67  68
ATOM     68  O   UNL     1       3.340   4.885  -2.414  1.00  0.00    -0.376 OA
BRANCH  68  69
ATOM     69  C   UNL     1       1.971   4.767  -2.751  1.00  0.00     0.202 C 
BRANCH  69  70
ATOM     70  C   UNL     1       1.674   4.523  -4.250  1.00  0.00     0.261 C 
BRANCH  70  71
ATOM     71  O   UNL     1       2.015   3.309  -4.989  1.00  0.00    -0.463 OA
BRANCH  71  72
ATOM     72  C   UNL     1       3.320   2.961  -5.121  1.00  0.00     0.312 C 
ATOM     73  O   UNL     1       4.172   3.337  -4.341  1.00  0.00    -0.252 OA
BRANCH  72  74
ATOM     74  C   UNL     1       3.623   2.051  -6.305  1.00  0.00     0.147 C 
ATOM     75  C   UNL     1       3.809   0.605  -5.866  1.00  0.00     0.129 C 
ATOM     76  C   UNL     1       4.945   2.219  -7.113  1.00  0.00     0.157 C 
ATOM     77  C   UNL     1       5.049   0.111  -6.593  1.00  0.00     0.155 C 
ATOM     78  C   UNL     1       4.880   1.447  -8.409  1.00  0.00     0.004 C 
ATOM     79  O   UNL     1       5.862   1.296  -6.451  1.00  0.00    -0.365 OA
ATOM     80  C   UNL     1       4.895   0.147  -8.079  1.00  0.00     0.004 C 
BRANCH  75  81
ATOM     81  C   UNL     1       4.037   0.332  -4.415  1.00  0.00     0.231 C 
ATOM     82  O   UNL     1       3.167  -0.386  -3.878  1.00  0.00    -0.274 OA
ATOM     83  N   UNL     1       5.107   0.559  -3.634  1.00  0.00    -0.325 N 
ATOM     84  H   UNL     1       4.963  -0.068  -2.889  1.00  0.00     0.169 HD
BRANCH  83  85
ATOM     85  C   UNL     1       6.340   1.194  -3.270  1.00  0.00     0.044 A 
ATOM     86  C   UNL     1       6.930   0.341  -2.278  1.00  0.00     0.026 A 
ATOM     87  C   UNL     1       6.987   2.458  -3.485  1.00  0.00    -0.020 A 
ATOM     88  C   UNL     1       7.974   0.701  -1.436  1.00  0.00     0.002 A 
ATOM     89  C   UNL     1       8.079   2.764  -2.615  1.00  0.00     0.006 A 
ATOM     90  C   UNL     1       8.530   1.944  -1.583  1.00  0.00     0.000 A 
BRANCH  87  91
ATOM     91  C   UNL     1       6.823   3.552  -4.558  1.00  0.00     0.073 C 
BRANCH  91  92
ATOM     92  C   UNL     1       6.434   5.027  -4.264  1.00  0.00    -0.044 A 
ATOM     93  C   UNL     1       5.412   5.639  -5.032  1.00  0.00     0.004 A 
ATOM     94  C   UNL     1       7.082   5.870  -3.354  1.00  0.00     0.004 A 
ATOM     95  C   UNL     1       4.944   6.936  -4.785  1.00  0.00     0.000 A 
ATOM     96  C   UNL     1       6.652   7.193  -3.134  1.00  0.00     0.000 A 
ATOM     97  C   UNL     1       5.560   7.713  -3.820  1.00  0.00     0.000 A 
ENDBRANCH  91  92
ENDBRANCH  87  91
ENDBRANCH  83  85
ENDBRANCH  75  81
ENDBRANCH  72  74
ENDBRANCH  71  72
ENDBRANCH  70  71
ENDBRANCH  69  70
ENDBRANCH  68  69
ENDBRANCH  67  68
ENDBRANCH   1  67
TORSDOF 24
