REMARK SMILES C[N@@H+]1[C@@H]2CC[C@H]1CN(C(=O)NC(C)(C)CC(=O)OCCOCCOCCOCCOC(=O)c1ccc(-c3c4nc(c(-c5c(F)cccc5F)c5ccc([nH]5)c(-c5c(F)cccc5F)c5nc(c(-c6c(F)cccc6F)c6ccc3[nH]6)C=C5)C=C4)cc1)CC2
REMARK SMILES IDX 22 1 21 2 20 3 19 4 18 5 16 6 17 7 15 8 12 9 13 10 14 11
REMARK SMILES IDX 11 12 9 13 10 14 8 16 7 17 6 18 1 19 2 20 3 21 4 23 5 25
REMARK SMILES IDX 87 26 88 27 23 29 24 30 25 31 26 32 27 33 28 34 29 35 30 36
REMARK SMILES IDX 31 37 32 38 33 39 34 40 86 41 35 42 85 43 36 44 37 45 38 46
REMARK SMILES IDX 79 47 39 48 84 49 78 50 80 51 40 52 83 53 77 54 76 55 41 57
REMARK SMILES IDX 67 58 50 59 66 60 51 61 54 62 65 63 81 64 52 65 53 66 64 68
REMARK SMILES IDX 82 69 55 70 42 71 43 72 48 73 44 74 45 75 47 76 49 77 46 78
REMARK SMILES IDX 68 79 69 80 74 81 70 82 71 83 73 84 75 85 72 86 56 87 57 88
REMARK SMILES IDX 62 89 58 90 59 91 61 92 63 93 60 94
REMARK H PARENT 11 15 2 22 80 56 54 67
REMARK Flexibility Score: 90.00
ROOT
ATOM      1  C   UNL     1      -1.716  -2.394  -5.095  1.00  0.00     0.188 C 
ENDROOT
BRANCH   1   2
ATOM      2  O   UNL     1      -3.006  -2.954  -5.221  1.00  0.00    -0.376 OA
BRANCH   2   3
ATOM      3  C   UNL     1      -4.099  -2.093  -4.992  1.00  0.00     0.202 C 
BRANCH   3   4
ATOM      4  C   UNL     1      -4.223  -0.770  -5.773  1.00  0.00     0.261 C 
BRANCH   4   5
ATOM      5  O   UNL     1      -3.011  -0.083  -6.152  1.00  0.00    -0.463 OA
BRANCH   5   6
ATOM      6  C   UNL     1      -2.631   0.973  -5.399  1.00  0.00     0.308 C 
ATOM      7  O   UNL     1      -3.213   1.310  -4.371  1.00  0.00    -0.252 OA
BRANCH   6   8
ATOM      8  C   UNL     1      -1.557   1.849  -6.033  1.00  0.00     0.150 C 
BRANCH   8   9
ATOM      9  C   UNL     1      -0.120   1.411  -6.474  1.00  0.00     0.047 C 
ATOM     10  C   UNL     1       0.806   2.653  -6.438  1.00  0.00     0.035 C 
ATOM     11  C   UNL     1      -0.220   1.024  -7.984  1.00  0.00     0.035 C 
BRANCH   9  12
ATOM     12  N   UNL     1       0.651   0.323  -5.787  1.00  0.00    -0.333 N 
ATOM     13  C   UNL     1       0.936  -0.306  -4.635  1.00  0.00     0.318 C 
ATOM     14  O   UNL     1       1.741  -1.237  -4.760  1.00  0.00    -0.249 OA
ATOM     15  H   UNL     1       1.179  -0.126  -6.486  1.00  0.00     0.165 HD
BRANCH  13  16
ATOM     16  N   UNL     1       0.326  -0.051  -3.446  1.00  0.00    -0.319 N 
BRANCH  16  17
ATOM     17  C   UNL     1       0.352  -1.141  -2.439  1.00  0.00     0.186 C 
BRANCH  17  18
ATOM     18  C   UNL     1      -0.032  -0.877  -0.961  1.00  0.00     0.204 C 
ATOM     19  C   UNL     1       1.158   0.014   0.985  1.00  0.00     0.333 C 
ATOM     20  N   UNL     1       0.786   0.214  -0.412  1.00  0.00    -0.331 N 
ATOM     21  C   UNL     1      -0.016   1.431  -0.598  1.00  0.00     0.186 CG0
ATOM     22  H   UNL     1       1.683   0.268  -0.895  1.00  0.00     0.348 HD
ATOM     23  C   UNL     1      -1.466   0.994  -0.378  1.00  0.00     0.071 C 
ATOM     24  G   UNL     1       0.239   1.992  -1.995  1.00  0.00     0.000 G0
ATOM     25  C   UNL     1      -1.494  -0.488  -0.734  1.00  0.00     0.073 C 
ENDBRANCH  17  18
ENDBRANCH  16  17
BRANCH  16  26
ATOM     26  C   UNL     1      -0.347   1.182  -3.135  1.00  0.00     0.128 C 
BRANCH  26  27
ATOM     27  C   UNL     1       0.239   1.992  -1.995  1.00  0.00     0.086 CG0
ATOM     28  G   UNL     1      -0.016   1.431  -0.598  1.00  0.00     0.000 G0
ENDBRANCH  26  27
ENDBRANCH  16  26
ENDBRANCH  13  16
ENDBRANCH   9  12
ENDBRANCH   8   9
ENDBRANCH   6   8
ENDBRANCH   5   6
ENDBRANCH   4   5
ENDBRANCH   3   4
ENDBRANCH   2   3
ENDBRANCH   1   2
BRANCH   1  29
ATOM     29  C   UNL     1      -1.025  -2.116  -6.440  1.00  0.00     0.188 C 
BRANCH  29  30
ATOM     30  O   UNL     1      -1.534  -2.599  -7.672  1.00  0.00    -0.377 OA
BRANCH  30  31
ATOM     31  C   UNL     1      -2.253  -3.813  -7.642  1.00  0.00     0.188 C 
BRANCH  31  32
ATOM     32  C   UNL     1      -1.586  -5.024  -6.965  1.00  0.00     0.188 C 
BRANCH  32  33
ATOM     33  O   UNL     1      -0.471  -4.696  -6.151  1.00  0.00    -0.376 OA
BRANCH  33  34
ATOM     34  C   UNL     1       0.827  -5.033  -6.618  1.00  0.00     0.202 C 
BRANCH  34  35
ATOM     35  C   UNL     1       1.363  -4.399  -7.915  1.00  0.00     0.261 C 
BRANCH  35  36
ATOM     36  O   UNL     1       0.456  -4.306  -9.020  1.00  0.00    -0.460 OA
BRANCH  36  37
ATOM     37  C   UNL     1       0.137  -5.445  -9.675  1.00  0.00     0.338 C 
ATOM     38  O   UNL     1       0.524  -6.566  -9.439  1.00  0.00    -0.246 OA
BRANCH  37  39
ATOM     39  C   UNL     1      -0.957  -5.097 -10.613  1.00  0.00     0.060 A 
ATOM     40  C   UNL     1      -2.202  -5.720 -10.450  1.00  0.00     0.016 A 
ATOM     41  C   UNL     1      -0.783  -4.102 -11.580  1.00  0.00     0.016 A 
ATOM     42  C   UNL     1      -3.287  -5.323 -11.230  1.00  0.00     0.010 A 
ATOM     43  C   UNL     1      -1.854  -3.751 -12.406  1.00  0.00     0.010 A 
ATOM     44  C   UNL     1      -3.105  -4.371 -12.241  1.00  0.00    -0.014 A 
BRANCH  44  45
ATOM     45  C   UNL     1      -4.138  -4.250 -13.294  1.00  0.00     0.031 A 
ATOM     46  C   UNL     1      -4.026  -5.187 -14.465  1.00  0.00     0.074 A 
ATOM     47  C   UNL     1      -5.164  -3.387 -13.200  1.00  0.00     0.049 A 
ATOM     48  N   UNL     1      -4.779  -5.290 -15.527  1.00  0.00    -0.248 NA
ATOM     49  C   UNL     1      -2.907  -6.147 -14.424  1.00  0.00     0.031 C 
ATOM     50  C   UNL     1      -5.412  -2.476 -12.085  1.00  0.00     0.029 A 
ATOM     51  N   UNL     1      -6.196  -3.141 -14.072  1.00  0.00    -0.354 N 
ATOM     52  C   UNL     1      -4.238  -6.333 -16.267  1.00  0.00     0.074 A 
ATOM     53  C   UNL     1      -3.071  -6.806 -15.558  1.00  0.00     0.031 C 
ATOM     54  C   UNL     1      -6.522  -1.760 -12.347  1.00  0.00     0.029 A 
ATOM     55  C   UNL     1      -7.043  -2.142 -13.658  1.00  0.00     0.049 A 
ATOM     56  H   UNL     1      -6.317  -3.635 -14.915  1.00  0.00     0.167 HD
ATOM     57  C   UNL     1      -4.681  -6.862 -17.429  1.00  0.00     0.037 A 
ATOM     58  C   UNL     1      -8.102  -1.594 -14.286  1.00  0.00     0.037 A 
ATOM     59  C   UNL     1      -5.822  -6.368 -18.149  1.00  0.00     0.049 A 
ATOM     60  C   UNL     1      -8.499  -2.117 -15.647  1.00  0.00     0.074 A 
ATOM     61  C   UNL     1      -6.335  -6.804 -19.356  1.00  0.00     0.029 A 
ATOM     62  N   UNL     1      -6.620  -5.316 -17.726  1.00  0.00    -0.354 N 
ATOM     63  N   UNL     1      -7.989  -3.109 -16.337  1.00  0.00    -0.248 NA
ATOM     64  C   UNL     1      -9.623  -1.443 -16.315  1.00  0.00     0.031 C 
ATOM     65  C   UNL     1      -7.418  -5.984 -19.688  1.00  0.00     0.029 A 
ATOM     66  C   UNL     1      -7.613  -5.076 -18.659  1.00  0.00     0.049 A 
ATOM     67  H   UNL     1      -6.497  -4.814 -16.888  1.00  0.00     0.167 HD
ATOM     68  C   UNL     1      -8.753  -3.204 -17.495  1.00  0.00     0.074 A 
ATOM     69  C   UNL     1      -9.768  -2.176 -17.409  1.00  0.00     0.031 C 
ATOM     70  C   UNL     1      -8.629  -4.062 -18.538  1.00  0.00     0.037 A 
BRANCH  57  71
ATOM     71  C   UNL     1      -3.909  -8.014 -17.997  1.00  0.00     0.057 A 
ATOM     72  C   UNL     1      -3.936  -9.283 -17.403  1.00  0.00     0.134 A 
ATOM     73  C   UNL     1      -3.142  -7.860 -19.158  1.00  0.00     0.134 A 
ATOM     74  F   UNL     1      -4.632  -9.491 -16.274  1.00  0.00    -0.206 F 
ATOM     75  C   UNL     1      -3.214 -10.353 -17.933  1.00  0.00     0.040 A 
ATOM     76  C   UNL     1      -2.437  -8.929 -19.713  1.00  0.00     0.040 A 
ATOM     77  F   UNL     1      -3.068  -6.670 -19.773  1.00  0.00    -0.206 F 
ATOM     78  C   UNL     1      -2.468 -10.178 -19.097  1.00  0.00     0.006 A 
ENDBRANCH  57  71
BRANCH  58  79
ATOM     79  C   UNL     1      -8.861  -0.472 -13.669  1.00  0.00     0.057 A 
ATOM     80  C   UNL     1     -10.206  -0.615 -13.307  1.00  0.00     0.134 A 
ATOM     81  C   UNL     1      -8.283   0.792 -13.496  1.00  0.00     0.134 A 
ATOM     82  F   UNL     1     -10.829  -1.791 -13.472  1.00  0.00    -0.206 F 
ATOM     83  C   UNL     1     -10.957   0.463 -12.830  1.00  0.00     0.040 A 
ATOM     84  C   UNL     1      -9.013   1.871 -12.992  1.00  0.00     0.040 A 
ATOM     85  F   UNL     1      -7.000   1.002 -13.826  1.00  0.00    -0.206 F 
ATOM     86  C   UNL     1     -10.359   1.710 -12.670  1.00  0.00     0.006 A 
ENDBRANCH  58  79
BRANCH  70  87
ATOM     87  C   UNL     1      -9.649  -3.969 -19.637  1.00  0.00     0.057 A 
ATOM     88  C   UNL     1      -9.678  -2.898 -20.538  1.00  0.00     0.134 A 
ATOM     89  C   UNL     1     -10.583  -4.997 -19.824  1.00  0.00     0.134 A 
ATOM     90  F   UNL     1      -8.817  -1.877 -20.409  1.00  0.00    -0.206 F 
ATOM     91  C   UNL     1     -10.617  -2.838 -21.568  1.00  0.00     0.040 A 
ATOM     92  C   UNL     1     -11.506  -4.964 -20.869  1.00  0.00     0.040 A 
ATOM     93  F   UNL     1     -10.601  -6.060 -19.005  1.00  0.00    -0.206 F 
ATOM     94  C   UNL     1     -11.530  -3.877 -21.741  1.00  0.00     0.006 A 
ENDBRANCH  70  87
ENDBRANCH  44  45
ENDBRANCH  37  39
ENDBRANCH  36  37
ENDBRANCH  35  36
ENDBRANCH  34  35
ENDBRANCH  33  34
ENDBRANCH  32  33
ENDBRANCH  31  32
ENDBRANCH  30  31
ENDBRANCH  29  30
ENDBRANCH   1  29
TORSDOF 23
