REMARK SMILES CC(C)CSc1cc2c(cc1Cl)C=C(C(=O)OCCOCCOCCOCCOC(=O)c1ccc(-c3c4nc(c(-c5c(F)cccc5F)c5ccc([nH]5)c(-c5c(F)cccc5F)c5nc(c(-c6c(F)cccc6F)c6ccc3[nH]6)C=C5)C=C4)cc1)[C@@H](C(F)(F)F)O2
REMARK SMILES IDX 22 1 21 2 20 3 19 4 18 5 17 6 15 7 16 8 14 9 6 10 7 11 11 12
REMARK SMILES IDX 8 13 10 14 12 15 9 16 91 17 13 18 86 19 5 20 4 21 2 22 1 23
REMARK SMILES IDX 3 24 87 25 88 26 89 27 90 28 23 29 24 30 25 31 26 32 27 33
REMARK SMILES IDX 28 34 29 35 30 36 31 37 32 38 33 39 85 40 34 41 84 42 35 43
REMARK SMILES IDX 36 44 37 45 78 46 38 47 83 48 77 49 79 50 39 51 82 52 76 53
REMARK SMILES IDX 75 54 40 56 66 57 49 58 65 59 50 60 53 61 64 62 80 63 51 64
REMARK SMILES IDX 52 65 63 67 81 68 54 69 41 70 42 71 47 72 43 73 44 74 46 75
REMARK SMILES IDX 48 76 45 77 67 78 68 79 73 80 69 81 70 82 72 83 74 84 71 85
REMARK SMILES IDX 55 86 56 87 61 88 57 89 58 90 60 91 62 92 59 93
REMARK H PARENT 79 55 53 66
REMARK Flexibility Score: inf
ROOT
ATOM      1  C   UNL     1      -0.774   0.727   8.372  1.00  0.00     0.188 C 
ENDROOT
BRANCH   1   2
ATOM      2  C   UNL     1      -0.160  -0.678   8.520  1.00  0.00     0.188 C 
BRANCH   2   3
ATOM      3  O   UNL     1       0.526  -0.860   9.746  1.00  0.00    -0.376 OA
BRANCH   3   4
ATOM      4  C   UNL     1       1.898  -0.519   9.873  1.00  0.00     0.202 C 
BRANCH   4   5
ATOM      5  C   UNL     1       2.572   0.674   9.164  1.00  0.00     0.261 C 
BRANCH   5   6
ATOM      6  O   UNL     1       2.062   1.058   7.886  1.00  0.00    -0.460 OA
BRANCH   6   7
ATOM      7  C   UNL     1       2.427   0.334   6.814  1.00  0.00     0.338 C 
ATOM      8  O   UNL     1       3.183  -0.620   6.795  1.00  0.00    -0.246 OA
BRANCH   7   9
ATOM      9  C   UNL     1       1.597   0.789   5.677  1.00  0.00     0.087 C 
ATOM     10  C   UNL     1      -1.195   1.003   1.516  1.00  0.00     0.030 A 
ATOM     11  C   UNL     1      -0.562   1.962   2.326  1.00  0.00     0.063 A 
ATOM     12  C   UNL     1      -1.317  -0.306   2.006  1.00  0.00     0.055 A 
ATOM     13  C   UNL     1       0.078   1.591   3.509  1.00  0.00     0.129 A 
ATOM     14  C   UNL     1      -0.651  -0.681   3.178  1.00  0.00     0.033 A 
ATOM     15  Cl  UNL     1      -2.268  -1.524   1.234  1.00  0.00    -0.083 Cl
ATOM     16  C   UNL     1       0.097   0.255   3.896  1.00  0.00     0.019 A 
ATOM     17  O   UNL     1       0.712   2.588   4.190  1.00  0.00    -0.475 OA
ATOM     18  C   UNL     1       0.951  -0.163   4.992  1.00  0.00     0.027 C 
ATOM     19  C   UNL     1       1.426   2.266   5.418  1.00  0.00     0.316 C 
BRANCH  10  20
ATOM     20  S   UNL     1      -1.714   1.579  -0.097  1.00  0.00    -0.124 SA
BRANCH  20  21
ATOM     21  C   UNL     1      -0.902   0.400  -1.255  1.00  0.00     0.078 C 
BRANCH  21  22
ATOM     22  C   UNL     1       0.634   0.439  -1.400  1.00  0.00    -0.007 C 
ATOM     23  C   UNL     1       1.409   0.008  -0.155  1.00  0.00     0.008 C 
ATOM     24  C   UNL     1       1.035  -0.492  -2.556  1.00  0.00     0.008 C 
ENDBRANCH  21  22
ENDBRANCH  20  21
ENDBRANCH  10  20
BRANCH  19  25
ATOM     25  C   UNL     1       2.762   3.023   5.383  1.00  0.00     0.430 C 
ATOM     26  F   UNL     1       2.575   4.335   5.098  1.00  0.00    -0.167 F 
ATOM     27  F   UNL     1       3.411   2.975   6.569  1.00  0.00    -0.167 F 
ATOM     28  F   UNL     1       3.596   2.520   4.445  1.00  0.00    -0.167 F 
ENDBRANCH  19  25
ENDBRANCH   7   9
ENDBRANCH   6   7
ENDBRANCH   5   6
ENDBRANCH   4   5
ENDBRANCH   3   4
ENDBRANCH   2   3
ENDBRANCH   1   2
BRANCH   1  29
ATOM     29  O   UNL     1      -0.227   1.653   9.303  1.00  0.00    -0.377 OA
BRANCH  29  30
ATOM     30  C   UNL     1      -0.901   1.768  10.557  1.00  0.00     0.188 C 
BRANCH  30  31
ATOM     31  C   UNL     1      -1.516   0.518  11.227  1.00  0.00     0.188 C 
BRANCH  31  32
ATOM     32  O   UNL     1      -2.354  -0.239  10.356  1.00  0.00    -0.376 OA
BRANCH  32  33
ATOM     33  C   UNL     1      -3.755  -0.192  10.578  1.00  0.00     0.202 C 
BRANCH  33  34
ATOM     34  C   UNL     1      -4.434   1.098  10.107  1.00  0.00     0.261 C 
BRANCH  34  35
ATOM     35  O   UNL     1      -3.966   2.302  10.731  1.00  0.00    -0.460 OA
BRANCH  35  36
ATOM     36  C   UNL     1      -4.083   2.404  12.072  1.00  0.00     0.338 C 
ATOM     37  O   UNL     1      -4.586   1.598  12.834  1.00  0.00    -0.246 OA
BRANCH  36  38
ATOM     38  C   UNL     1      -3.319   3.598  12.490  1.00  0.00     0.060 A 
ATOM     39  C   UNL     1      -3.501   4.813  11.826  1.00  0.00     0.016 A 
ATOM     40  C   UNL     1      -2.390   3.491  13.533  1.00  0.00     0.016 A 
ATOM     41  C   UNL     1      -2.776   5.933  12.229  1.00  0.00     0.010 A 
ATOM     42  C   UNL     1      -1.667   4.616  13.939  1.00  0.00     0.010 A 
ATOM     43  C   UNL     1      -1.874   5.850  13.305  1.00  0.00    -0.014 A 
BRANCH  43  44
ATOM     44  C   UNL     1      -1.296   7.101  13.852  1.00  0.00     0.031 A 
ATOM     45  C   UNL     1       0.119   7.509  13.585  1.00  0.00     0.074 A 
ATOM     46  C   UNL     1      -2.102   7.893  14.584  1.00  0.00     0.049 A 
ATOM     47  N   UNL     1       0.712   8.643  13.867  1.00  0.00    -0.248 NA
ATOM     48  C   UNL     1       0.984   6.521  12.927  1.00  0.00     0.031 C 
ATOM     49  C   UNL     1      -3.487   7.577  14.943  1.00  0.00     0.029 A 
ATOM     50  N   UNL     1      -1.886   9.127  15.137  1.00  0.00    -0.354 N 
ATOM     51  C   UNL     1       2.012   8.519  13.397  1.00  0.00     0.074 A 
ATOM     52  C   UNL     1       2.136   7.177  12.863  1.00  0.00     0.031 C 
ATOM     53  C   UNL     1      -4.009   8.610  15.621  1.00  0.00     0.029 A 
ATOM     54  C   UNL     1      -2.993   9.646  15.763  1.00  0.00     0.049 A 
ATOM     55  H   UNL     1      -1.021   9.597  15.091  1.00  0.00     0.167 HD
ATOM     56  C   UNL     1       3.001   9.448  13.394  1.00  0.00     0.037 A 
ATOM     57  C   UNL     1      -3.172  10.833  16.371  1.00  0.00     0.037 A 
ATOM     58  C   UNL     1       2.880  10.770  13.959  1.00  0.00     0.049 A 
ATOM     59  C   UNL     1      -2.044  11.823  16.392  1.00  0.00     0.074 A 
ATOM     60  C   UNL     1       3.815  11.792  13.980  1.00  0.00     0.029 A 
ATOM     61  N   UNL     1       1.758  11.249  14.623  1.00  0.00    -0.354 N 
ATOM     62  N   UNL     1      -0.850  11.732  15.858  1.00  0.00    -0.248 NA
ATOM     63  C   UNL     1      -2.296  13.090  17.093  1.00  0.00     0.031 C 
ATOM     64  C   UNL     1       3.280  12.866  14.701  1.00  0.00     0.029 A 
ATOM     65  C   UNL     1       1.989  12.538  15.082  1.00  0.00     0.049 A 
ATOM     66  H   UNL     1       0.921  10.746  14.750  1.00  0.00     0.167 HD
ATOM     67  C   UNL     1      -0.220  12.939  16.132  1.00  0.00     0.074 A 
ATOM     68  C   UNL     1      -1.173  13.752  16.859  1.00  0.00     0.031 C 
ATOM     69  C   UNL     1       1.036  13.338  15.810  1.00  0.00     0.037 A 
BRANCH  56  70
ATOM     70  C   UNL     1       4.307   9.062  12.759  1.00  0.00     0.057 A 
ATOM     71  C   UNL     1       5.465   8.900  13.529  1.00  0.00     0.134 A 
ATOM     72  C   UNL     1       4.425   8.887  11.373  1.00  0.00     0.134 A 
ATOM     73  F   UNL     1       5.428   9.065  14.859  1.00  0.00    -0.206 F 
ATOM     74  C   UNL     1       6.692   8.575  12.945  1.00  0.00     0.040 A 
ATOM     75  C   UNL     1       5.640   8.535  10.780  1.00  0.00     0.040 A 
ATOM     76  F   UNL     1       3.354   9.023  10.576  1.00  0.00    -0.206 F 
ATOM     77  C   UNL     1       6.779   8.383  11.567  1.00  0.00     0.006 A 
ENDBRANCH  56  70
BRANCH  57  78
ATOM     78  C   UNL     1      -4.482  11.166  16.983  1.00  0.00     0.057 A 
ATOM     79  C   UNL     1      -4.936  10.511  18.134  1.00  0.00     0.134 A 
ATOM     80  C   UNL     1      -5.297  12.169  16.447  1.00  0.00     0.134 A 
ATOM     81  F   UNL     1      -4.206   9.533  18.689  1.00  0.00    -0.206 F 
ATOM     82  C   UNL     1      -6.151  10.846  18.733  1.00  0.00     0.040 A 
ATOM     83  C   UNL     1      -6.500  12.534  17.051  1.00  0.00     0.040 A 
ATOM     84  F   UNL     1      -4.909  12.841  15.352  1.00  0.00    -0.206 F 
ATOM     85  C   UNL     1      -6.930  11.870  18.198  1.00  0.00     0.006 A 
ENDBRANCH  57  78
BRANCH  69  86
ATOM     86  C   UNL     1       1.430  14.729  16.219  1.00  0.00     0.057 A 
ATOM     87  C   UNL     1       1.607  15.732  15.257  1.00  0.00     0.134 A 
ATOM     88  C   UNL     1       1.629  15.081  17.561  1.00  0.00     0.134 A 
ATOM     89  F   UNL     1       1.438  15.464  13.953  1.00  0.00    -0.206 F 
ATOM     90  C   UNL     1       1.960  17.034  15.615  1.00  0.00     0.040 A 
ATOM     91  C   UNL     1       1.952  16.387  17.934  1.00  0.00     0.040 A 
ATOM     92  F   UNL     1       1.460  14.173  18.534  1.00  0.00    -0.206 F 
ATOM     93  C   UNL     1       2.122  17.367  16.958  1.00  0.00     0.006 A 
ENDBRANCH  69  86
ENDBRANCH  43  44
ENDBRANCH  36  38
ENDBRANCH  35  36
ENDBRANCH  34  35
ENDBRANCH  33  34
ENDBRANCH  32  33
ENDBRANCH  31  32
ENDBRANCH  30  31
ENDBRANCH  29  30
ENDBRANCH   1  29
TORSDOF 24
