REMARK SMILES COc1cc(Cn2cc(C(=O)OCCOCCOCCOCCOC(=O)c3ccc(-c4c5nc(c(-c6c(F)cccc6F)c6ccc([nH]6)c(-c6c(F)cccc6F)c6nc(c(-c7c(F)cccc7F)c7ccc4[nH]7)C=C6)C=C5)cc3)c(=O)[nH]c2=O)ccn1
REMARK SMILES IDX 17 1 16 2 15 3 14 4 13 5 12 6 10 7 11 8 9 9 7 10 8 11 84 12
REMARK SMILES IDX 83 13 85 14 81 15 82 17 6 18 5 19 3 20 4 21 88 22 87 23
REMARK SMILES IDX 86 24 2 25 1 26 18 27 19 28 20 29 21 30 22 31 23 32 24 33
REMARK SMILES IDX 25 34 26 35 27 36 28 37 80 38 29 39 79 40 30 41 31 42 32 43
REMARK SMILES IDX 73 44 33 45 78 46 72 47 74 48 34 49 77 50 71 51 70 52 35 54
REMARK SMILES IDX 61 55 44 56 60 57 45 58 48 59 59 60 75 61 46 62 47 63 58 65
REMARK SMILES IDX 76 66 49 67 36 68 37 69 42 70 38 71 39 72 41 73 43 74 40 75
REMARK SMILES IDX 62 76 63 77 68 78 64 79 65 80 67 81 69 82 66 83 50 84 51 85
REMARK SMILES IDX 56 86 52 87 53 88 55 89 57 90 54 91
REMARK H PARENT 83 16 74 53 48 64
REMARK Flexibility Score: inf
ROOT
ATOM      1  C   UNL     1       4.828   9.823  -0.587  1.00  0.00     0.188 C 
ENDROOT
BRANCH   1   2
ATOM      2  C   UNL     1       4.441  10.317  -1.995  1.00  0.00     0.188 C 
BRANCH   2   3
ATOM      3  O   UNL     1       3.269  11.131  -1.993  1.00  0.00    -0.376 OA
BRANCH   3   4
ATOM      4  C   UNL     1       2.061  10.539  -2.452  1.00  0.00     0.202 C 
BRANCH   4   5
ATOM      5  C   UNL     1       1.452   9.451  -1.559  1.00  0.00     0.261 C 
BRANCH   5   6
ATOM      6  O   UNL     1       2.310   8.333  -1.296  1.00  0.00    -0.459 OA
BRANCH   6   7
ATOM      7  C   UNL     1       2.745   7.589  -2.341  1.00  0.00     0.345 C 
ATOM      8  O   UNL     1       2.384   7.709  -3.498  1.00  0.00    -0.246 OA
BRANCH   7   9
ATOM      9  C   UNL     1       3.768   6.643  -1.853  1.00  0.00     0.141 A 
ATOM     10  N   UNL     1       4.405   5.077  -0.158  1.00  0.00    -0.295 N 
ATOM     11  C   UNL     1       3.605   6.092  -0.647  1.00  0.00     0.112 A 
ATOM     12  C   UNL     1       5.524   4.645  -0.854  1.00  0.00     0.328 A 
ATOM     13  N   UNL     1       5.759   5.299  -2.040  1.00  0.00    -0.273 N 
ATOM     14  O   UNL     1       6.268   3.743  -0.480  1.00  0.00    -0.248 OA
ATOM     15  C   UNL     1       4.975   6.272  -2.609  1.00  0.00     0.268 A 
ATOM     16  H   UNL     1       6.573   5.043  -2.532  1.00  0.00     0.175 HD
ATOM     17  O   UNL     1       5.315   6.843  -3.639  1.00  0.00    -0.268 OA
BRANCH  10  18
ATOM     18  C   UNL     1       3.959   4.354   1.044  1.00  0.00     0.162 C 
BRANCH  18  19
ATOM     19  C   UNL     1       2.570   3.786   0.820  1.00  0.00    -0.021 A 
ATOM     20  C   UNL     1       1.121   2.220  -0.254  1.00  0.00     0.213 A 
ATOM     21  C   UNL     1       2.406   2.598   0.105  1.00  0.00     0.074 A 
ATOM     22  N   UNL     1       0.016   2.950  -0.004  1.00  0.00    -0.222 NA
ATOM     23  C   UNL     1       0.193   4.091   0.686  1.00  0.00     0.115 A 
ATOM     24  C   UNL     1       1.425   4.527   1.146  1.00  0.00     0.026 A 
BRANCH  20  25
ATOM     25  O   UNL     1       0.919   1.059  -0.952  1.00  0.00    -0.481 OA
ATOM     26  C   UNL     1       1.031  -0.044  -0.057  1.00  0.00     0.280 C 
ENDBRANCH  20  25
ENDBRANCH  18  19
ENDBRANCH  10  18
ENDBRANCH   7   9
ENDBRANCH   6   7
ENDBRANCH   5   6
ENDBRANCH   4   5
ENDBRANCH   3   4
ENDBRANCH   2   3
ENDBRANCH   1   2
BRANCH   1  27
ATOM     27  O   UNL     1       3.819  10.063   0.383  1.00  0.00    -0.377 OA
BRANCH  27  28
ATOM     28  C   UNL     1       3.751  11.374   0.949  1.00  0.00     0.188 C 
BRANCH  28  29
ATOM     29  C   UNL     1       4.330  12.608   0.219  1.00  0.00     0.188 C 
BRANCH  29  30
ATOM     30  O   UNL     1       5.638  12.403  -0.308  1.00  0.00    -0.376 OA
BRANCH  30  31
ATOM     31  C   UNL     1       6.709  13.080   0.332  1.00  0.00     0.202 C 
BRANCH  31  32
ATOM     32  C   UNL     1       7.151  12.434   1.649  1.00  0.00     0.261 C 
BRANCH  32  33
ATOM     33  O   UNL     1       6.151  12.408   2.680  1.00  0.00    -0.460 OA
BRANCH  33  34
ATOM     34  C   UNL     1       5.640  13.588   3.094  1.00  0.00     0.338 C 
ATOM     35  O   UNL     1       5.970  14.704   2.736  1.00  0.00    -0.246 OA
BRANCH  34  36
ATOM     36  C   UNL     1       4.456  13.283   3.924  1.00  0.00     0.060 A 
ATOM     37  C   UNL     1       4.549  12.357   4.965  1.00  0.00     0.016 A 
ATOM     38  C   UNL     1       3.234  13.902   3.630  1.00  0.00     0.016 A 
ATOM     39  C   UNL     1       3.423  12.073   5.737  1.00  0.00     0.010 A 
ATOM     40  C   UNL     1       2.104  13.612   4.401  1.00  0.00     0.010 A 
ATOM     41  C   UNL     1       2.200  12.715   5.475  1.00  0.00    -0.014 A 
BRANCH  41  42
ATOM     42  C   UNL     1       1.092  12.585   6.452  1.00  0.00     0.031 A 
ATOM     43  C   UNL     1      -0.079  11.681   6.220  1.00  0.00     0.074 A 
ATOM     44  C   UNL     1       1.171  13.318   7.579  1.00  0.00     0.049 A 
ATOM     45  N   UNL     1      -1.063  11.392   7.035  1.00  0.00    -0.248 NA
ATOM     46  C   UNL     1      -0.168  11.024   4.909  1.00  0.00     0.031 C 
ATOM     47  C   UNL     1       2.243  14.266   7.890  1.00  0.00     0.029 A 
ATOM     48  N   UNL     1       0.343  13.381   8.668  1.00  0.00    -0.354 N 
ATOM     49  C   UNL     1      -1.882  10.508   6.346  1.00  0.00     0.074 A 
ATOM     50  C   UNL     1      -1.298  10.337   5.030  1.00  0.00     0.031 C 
ATOM     51  C   UNL     1       2.014  14.807   9.095  1.00  0.00     0.029 A 
ATOM     52  C   UNL     1       0.773  14.258   9.632  1.00  0.00     0.049 A 
ATOM     53  H   UNL     1      -0.482  12.849   8.752  1.00  0.00     0.167 HD
ATOM     54  C   UNL     1      -3.008   9.891   6.782  1.00  0.00     0.037 A 
ATOM     55  C   UNL     1       0.230  14.585  10.818  1.00  0.00     0.037 A 
ATOM     56  C   UNL     1      -3.591  10.080   8.089  1.00  0.00     0.049 A 
ATOM     57  C   UNL     1      -1.032  13.901  11.259  1.00  0.00     0.074 A 
ATOM     58  C   UNL     1      -4.689   9.444   8.644  1.00  0.00     0.029 A 
ATOM     59  N   UNL     1      -3.140  10.989   9.035  1.00  0.00    -0.354 N 
ATOM     60  N   UNL     1      -1.729  12.975  10.647  1.00  0.00    -0.248 NA
ATOM     61  C   UNL     1      -1.577  14.302  12.563  1.00  0.00     0.031 C 
ATOM     62  C   UNL     1      -4.936  10.007   9.902  1.00  0.00     0.029 A 
ATOM     63  C   UNL     1      -3.961  10.957  10.153  1.00  0.00     0.049 A 
ATOM     64  H   UNL     1      -2.354  11.571   8.929  1.00  0.00     0.167 HD
ATOM     65  C   UNL     1      -2.777  12.664  11.502  1.00  0.00     0.074 A 
ATOM     66  C   UNL     1      -2.611  13.483  12.685  1.00  0.00     0.031 C 
ATOM     67  C   UNL     1      -3.789  11.780  11.323  1.00  0.00     0.037 A 
BRANCH  54  68
ATOM     68  C   UNL     1      -3.699   8.945   5.842  1.00  0.00     0.057 A 
ATOM     69  C   UNL     1      -4.954   9.260   5.304  1.00  0.00     0.134 A 
ATOM     70  C   UNL     1      -3.164   7.687   5.538  1.00  0.00     0.134 A 
ATOM     71  F   UNL     1      -5.529  10.444   5.563  1.00  0.00    -0.206 F 
ATOM     72  C   UNL     1      -5.655   8.354   4.506  1.00  0.00     0.040 A 
ATOM     73  C   UNL     1      -3.847   6.780   4.725  1.00  0.00     0.040 A 
ATOM     74  F   UNL     1      -1.965   7.324   6.017  1.00  0.00    -0.206 F 
ATOM     75  C   UNL     1      -5.100   7.110   4.213  1.00  0.00     0.006 A 
ENDBRANCH  54  68
BRANCH  55  76
ATOM     76  C   UNL     1       0.878  15.602  11.681  1.00  0.00     0.057 A 
ATOM     77  C   UNL     1       0.889  16.955  11.323  1.00  0.00     0.134 A 
ATOM     78  C   UNL     1       1.464  15.251  12.902  1.00  0.00     0.134 A 
ATOM     79  F   UNL     1       0.353  17.353  10.160  1.00  0.00    -0.206 F 
ATOM     80  C   UNL     1       1.454  17.924  12.152  1.00  0.00     0.040 A 
ATOM     81  C   UNL     1       2.007  16.213  13.754  1.00  0.00     0.040 A 
ATOM     82  F   UNL     1       1.469  13.971  13.305  1.00  0.00    -0.206 F 
ATOM     83  C   UNL     1       2.003  17.555  13.379  1.00  0.00     0.006 A 
ENDBRANCH  55  76
BRANCH  67  84
ATOM     84  C   UNL     1      -4.776  11.644  12.447  1.00  0.00     0.057 A 
ATOM     85  C   UNL     1      -4.806  10.486  13.235  1.00  0.00     0.134 A 
ATOM     86  C   UNL     1      -5.692  12.659  12.755  1.00  0.00     0.134 A 
ATOM     87  F   UNL     1      -3.961   9.473  12.992  1.00  0.00    -0.206 F 
ATOM     88  C   UNL     1      -5.709  10.345  14.291  1.00  0.00     0.040 A 
ATOM     89  C   UNL     1      -6.579  12.541  13.826  1.00  0.00     0.040 A 
ATOM     90  F   UNL     1      -5.703  13.801  12.050  1.00  0.00    -0.206 F 
ATOM     91  C   UNL     1      -6.592  11.380  14.595  1.00  0.00     0.006 A 
ENDBRANCH  67  84
ENDBRANCH  41  42
ENDBRANCH  34  36
ENDBRANCH  33  34
ENDBRANCH  32  33
ENDBRANCH  31  32
ENDBRANCH  30  31
ENDBRANCH  29  30
ENDBRANCH  28  29
ENDBRANCH  27  28
ENDBRANCH   1  27
TORSDOF 23
