REMARK SMILES CSc1ncccc1C(=O)N1CSC[C@H]1C(=O)OCCOCCOCCOCCOC(=O)c1ccc(-c2c3nc(c(-c4c(F)cccc4F)c4ccc([nH]4)c(-c4c(F)cccc4F)c4nc(c(-c5c(F)cccc5F)c5ccc2[nH]5)C=C4)C=C3)cc1
REMARK SMILES IDX 23 1 22 2 21 3 20 4 19 5 18 6 16 7 17 8 15 9 11 10 12 11
REMARK SMILES IDX 13 12 14 13 9 14 10 15 8 16 3 17 4 18 5 19 7 20 6 21 2 22
REMARK SMILES IDX 1 23 24 24 25 25 26 26 27 27 28 28 29 29 30 30 31 31 32 32
REMARK SMILES IDX 33 33 34 34 86 35 35 36 85 37 36 38 37 39 38 40 79 41 39 42
REMARK SMILES IDX 84 43 78 44 80 45 40 46 83 47 77 48 76 49 41 51 67 52 50 53
REMARK SMILES IDX 66 54 51 55 54 56 65 57 81 58 52 59 53 60 64 62 82 63 55 64
REMARK SMILES IDX 42 65 43 66 48 67 44 68 45 69 47 70 49 71 46 72 68 73 69 74
REMARK SMILES IDX 74 75 70 76 71 77 73 78 75 79 72 80 56 81 57 82 62 83 58 84
REMARK SMILES IDX 59 85 61 86 63 87 60 88
REMARK H PARENT 80 50 54 61
REMARK Flexibility Score: inf
ROOT
ATOM      1  C   UNL     1       2.183  -1.737   1.928  1.00  0.00     0.188 C 
ENDROOT
BRANCH   1   2
ATOM      2  C   UNL     1       3.579  -2.046   1.336  1.00  0.00     0.188 C 
BRANCH   2   3
ATOM      3  O   UNL     1       4.229  -3.285   1.606  1.00  0.00    -0.376 OA
BRANCH   3   4
ATOM      4  C   UNL     1       4.037  -3.926   2.855  1.00  0.00     0.202 C 
BRANCH   4   5
ATOM      5  C   UNL     1       4.232  -3.132   4.161  1.00  0.00     0.261 C 
BRANCH   5   6
ATOM      6  O   UNL     1       3.852  -1.738   4.127  1.00  0.00    -0.462 OA
BRANCH   6   7
ATOM      7  C   UNL     1       4.871  -0.849   4.042  1.00  0.00     0.329 C 
ATOM      8  O   UNL     1       6.057  -1.166   4.111  1.00  0.00    -0.250 OA
BRANCH   7   9
ATOM      9  C   UNL     1       4.442   0.635   4.034  1.00  0.00     0.206 C 
ATOM     10  N   UNL     1       3.132   1.183   3.593  1.00  0.00    -0.315 N 
ATOM     11  C   UNL     1       2.134   1.193   4.639  1.00  0.00     0.191 C 
ATOM     12  S   UNL     1       3.035   1.588   6.151  1.00  0.00    -0.138 SA
ATOM     13  C   UNL     1       4.660   1.116   5.477  1.00  0.00     0.108 C 
BRANCH  10  14
ATOM     14  C   UNL     1       3.017   1.782   2.326  1.00  0.00     0.258 C 
ATOM     15  O   UNL     1       3.770   1.445   1.417  1.00  0.00    -0.269 OA
BRANCH  14  16
ATOM     16  C   UNL     1       2.149   2.989   2.120  1.00  0.00     0.072 A 
ATOM     17  C   UNL     1       1.401   3.336   0.981  1.00  0.00     0.108 A 
ATOM     18  N   UNL     1       0.785   4.562   0.902  1.00  0.00    -0.249 NA
ATOM     19  C   UNL     1       0.919   5.465   1.887  1.00  0.00     0.112 A 
ATOM     20  C   UNL     1       2.277   3.981   3.122  1.00  0.00     0.018 A 
ATOM     21  C   UNL     1       1.651   5.219   3.018  1.00  0.00     0.021 A 
BRANCH  17  22
ATOM     22  S   UNL     1       0.945   2.496  -0.519  1.00  0.00    -0.109 SA
ATOM     23  C   UNL     1       1.917   1.002  -0.634  1.00  0.00     0.092 C 
ENDBRANCH  17  22
ENDBRANCH  14  16
ENDBRANCH  10  14
ENDBRANCH   7   9
ENDBRANCH   6   7
ENDBRANCH   5   6
ENDBRANCH   4   5
ENDBRANCH   3   4
ENDBRANCH   2   3
ENDBRANCH   1   2
BRANCH   1  24
ATOM     24  O   UNL     1       1.628  -2.747   2.753  1.00  0.00    -0.377 OA
BRANCH  24  25
ATOM     25  C   UNL     1       0.614  -3.532   2.139  1.00  0.00     0.188 C 
BRANCH  25  26
ATOM     26  C   UNL     1       0.941  -4.115   0.748  1.00  0.00     0.188 C 
BRANCH  26  27
ATOM     27  O   UNL     1       1.415  -3.140  -0.174  1.00  0.00    -0.376 OA
BRANCH  27  28
ATOM     28  C   UNL     1       0.564  -2.705  -1.222  1.00  0.00     0.202 C 
BRANCH  28  29
ATOM     29  C   UNL     1      -0.602  -1.780  -0.838  1.00  0.00     0.261 C 
BRANCH  29  30
ATOM     30  O   UNL     1      -1.421  -2.244   0.237  1.00  0.00    -0.460 OA
BRANCH  30  31
ATOM     31  C   UNL     1      -2.192  -3.314  -0.032  1.00  0.00     0.338 C 
ATOM     32  O   UNL     1      -2.297  -3.901  -1.096  1.00  0.00    -0.246 OA
BRANCH  31  33
ATOM     33  C   UNL     1      -2.730  -3.803   1.247  1.00  0.00     0.060 A 
ATOM     34  C   UNL     1      -2.465  -5.131   1.597  1.00  0.00     0.016 A 
ATOM     35  C   UNL     1      -3.474  -2.970   2.090  1.00  0.00     0.016 A 
ATOM     36  C   UNL     1      -3.006  -5.657   2.761  1.00  0.00     0.010 A 
ATOM     37  C   UNL     1      -4.039  -3.505   3.247  1.00  0.00     0.010 A 
ATOM     38  C   UNL     1      -3.851  -4.864   3.548  1.00  0.00    -0.014 A 
BRANCH  38  39
ATOM     39  C   UNL     1      -4.752  -5.555   4.492  1.00  0.00     0.031 A 
ATOM     40  C   UNL     1      -6.124  -5.920   3.996  1.00  0.00     0.074 A 
ATOM     41  C   UNL     1      -4.324  -5.935   5.706  1.00  0.00     0.049 A 
ATOM     42  N   UNL     1      -7.084  -6.568   4.601  1.00  0.00    -0.248 NA
ATOM     43  C   UNL     1      -6.456  -5.502   2.622  1.00  0.00     0.031 C 
ATOM     44  C   UNL     1      -2.992  -5.680   6.250  1.00  0.00     0.029 A 
ATOM     45  N   UNL     1      -4.969  -6.629   6.694  1.00  0.00    -0.354 N 
ATOM     46  C   UNL     1      -8.127  -6.632   3.684  1.00  0.00     0.074 A 
ATOM     47  C   UNL     1      -7.702  -5.927   2.498  1.00  0.00     0.031 C 
ATOM     48  C   UNL     1      -2.918  -6.213   7.483  1.00  0.00     0.029 A 
ATOM     49  C   UNL     1      -4.205  -6.818   7.819  1.00  0.00     0.049 A 
ATOM     50  H   UNL     1      -5.892  -6.962   6.606  1.00  0.00     0.167 HD
ATOM     51  C   UNL     1      -9.329  -7.238   3.819  1.00  0.00     0.037 A 
ATOM     52  C   UNL     1      -4.527  -7.403   8.987  1.00  0.00     0.037 A 
ATOM     53  C   UNL     1      -9.737  -7.931   5.010  1.00  0.00     0.049 A 
ATOM     54  C   UNL     1      -5.899  -8.006   9.140  1.00  0.00     0.074 A 
ATOM     55  C   UNL     1     -10.933  -8.574   5.268  1.00  0.00     0.029 A 
ATOM     56  N   UNL     1      -8.954  -8.062   6.148  1.00  0.00    -0.354 N 
ATOM     57  N   UNL     1      -6.879  -8.069   8.269  1.00  0.00    -0.248 NA
ATOM     58  C   UNL     1      -6.207  -8.628  10.434  1.00  0.00     0.031 C 
ATOM     59  C   UNL     1     -10.893  -9.048   6.584  1.00  0.00     0.029 A 
ATOM     60  C   UNL     1      -9.648  -8.758   7.121  1.00  0.00     0.049 A 
ATOM     61  H   UNL     1      -8.039  -7.711   6.248  1.00  0.00     0.167 HD
ATOM     62  C   UNL     1      -7.904  -8.768   8.895  1.00  0.00     0.074 A 
ATOM     63  C   UNL     1      -7.419  -9.116  10.216  1.00  0.00     0.031 C 
ATOM     64  C   UNL     1      -9.133  -9.098   8.424  1.00  0.00     0.037 A 
BRANCH  51  65
ATOM     65  C   UNL     1     -10.287  -7.136   2.668  1.00  0.00     0.057 A 
ATOM     66  C   UNL     1     -10.068  -7.799   1.452  1.00  0.00     0.134 A 
ATOM     67  C   UNL     1     -11.449  -6.361   2.778  1.00  0.00     0.134 A 
ATOM     68  F   UNL     1      -8.963  -8.538   1.270  1.00  0.00    -0.206 F 
ATOM     69  C   UNL     1     -10.957  -7.676   0.382  1.00  0.00     0.040 A 
ATOM     70  C   UNL     1     -12.359  -6.254   1.725  1.00  0.00     0.040 A 
ATOM     71  F   UNL     1     -11.719  -5.695   3.910  1.00  0.00    -0.206 F 
ATOM     72  C   UNL     1     -12.110  -6.907   0.520  1.00  0.00     0.006 A 
ENDBRANCH  51  65
BRANCH  52  73
ATOM     73  C   UNL     1      -3.542  -7.442  10.098  1.00  0.00     0.057 A 
ATOM     74  C   UNL     1      -2.987  -8.648  10.543  1.00  0.00     0.134 A 
ATOM     75  C   UNL     1      -3.142  -6.271  10.754  1.00  0.00     0.134 A 
ATOM     76  F   UNL     1      -3.342  -9.807   9.968  1.00  0.00    -0.206 F 
ATOM     77  C   UNL     1      -2.088  -8.691  11.611  1.00  0.00     0.040 A 
ATOM     78  C   UNL     1      -2.224  -6.296  11.805  1.00  0.00     0.040 A 
ATOM     79  F   UNL     1      -3.632  -5.081  10.375  1.00  0.00    -0.206 F 
ATOM     80  C   UNL     1      -1.700  -7.510  12.242  1.00  0.00     0.006 A 
ENDBRANCH  52  73
BRANCH  64  81
ATOM     81  C   UNL     1     -10.011  -9.920   9.321  1.00  0.00     0.057 A 
ATOM     82  C   UNL     1     -10.594  -9.394  10.481  1.00  0.00     0.134 A 
ATOM     83  C   UNL     1     -10.304 -11.252   8.996  1.00  0.00     0.134 A 
ATOM     84  F   UNL     1     -10.346  -8.129  10.853  1.00  0.00    -0.206 F 
ATOM     85  C   UNL     1     -11.410 -10.173  11.303  1.00  0.00     0.040 A 
ATOM     86  C   UNL     1     -11.145 -12.029   9.792  1.00  0.00     0.040 A 
ATOM     87  F   UNL     1      -9.790 -11.812   7.891  1.00  0.00    -0.206 F 
ATOM     88  C   UNL     1     -11.692 -11.493  10.955  1.00  0.00     0.006 A 
ENDBRANCH  64  81
ENDBRANCH  38  39
ENDBRANCH  31  33
ENDBRANCH  30  31
ENDBRANCH  29  30
ENDBRANCH  28  29
ENDBRANCH  27  28
ENDBRANCH  26  27
ENDBRANCH  25  26
ENDBRANCH  24  25
ENDBRANCH   1  24
TORSDOF 23
