REMARK SMILES O=C(NCc1ccc(C(=O)OCCOCCOCCOCCOC(=O)c2ccc(-c3c4nc(c(-c5c(F)cccc5F)c5ccc([nH]5)c(-c5c(F)cccc5F)c5nc(c(-c6c(F)cccc6F)c6ccc3[nH]6)C=C5)C=C4)cc2)cc1)Nc1ccccc1Br
REMARK SMILES IDX 16 1 15 2 14 3 13 4 12 5 11 6 9 7 10 8 8 9 5 10 6 11 81 12
REMARK SMILES IDX 7 13 80 14 4 15 3 16 1 17 2 18 82 19 83 22 84 23 88 24 85 25
REMARK SMILES IDX 87 26 89 27 86 28 17 29 18 30 19 31 20 32 21 33 22 34 23 35
REMARK SMILES IDX 24 36 25 37 26 38 27 39 79 40 28 41 78 42 29 43 30 44 31 45
REMARK SMILES IDX 72 46 32 47 77 48 71 49 73 50 33 51 76 52 70 53 69 54 34 56
REMARK SMILES IDX 60 57 43 58 59 59 44 60 47 61 58 62 74 63 45 64 46 65 57 67
REMARK SMILES IDX 75 68 48 69 35 70 36 71 41 72 37 73 38 74 40 75 42 76 39 77
REMARK SMILES IDX 61 78 62 79 67 80 63 81 64 82 66 83 68 84 65 85 49 86 50 87
REMARK SMILES IDX 55 88 51 89 52 90 54 91 56 92 53 93
REMARK H PARENT 3 20 82 21 73 55 47 66
REMARK Flexibility Score: inf
ROOT
ATOM      1  C   UNL     1       8.357  -0.144  -5.449  1.00  0.00     0.188 C 
ENDROOT
BRANCH   1   2
ATOM      2  C   UNL     1       7.676  -1.132  -6.421  1.00  0.00     0.188 C 
BRANCH   2   3
ATOM      3  O   UNL     1       7.952  -0.877  -7.788  1.00  0.00    -0.376 OA
BRANCH   3   4
ATOM      4  C   UNL     1       6.915  -0.383  -8.614  1.00  0.00     0.202 C 
BRANCH   4   5
ATOM      5  C   UNL     1       6.298   0.982  -8.271  1.00  0.00     0.261 C 
BRANCH   5   6
ATOM      6  O   UNL     1       5.977   1.196  -6.892  1.00  0.00    -0.460 OA
BRANCH   6   7
ATOM      7  C   UNL     1       4.907   0.524  -6.414  1.00  0.00     0.338 C 
ATOM      8  O   UNL     1       4.178  -0.220  -7.047  1.00  0.00    -0.246 OA
BRANCH   7   9
ATOM      9  C   UNL     1       4.877   0.668  -4.939  1.00  0.00     0.060 A 
ATOM     10  C   UNL     1       4.756   0.852  -2.144  1.00  0.00    -0.029 A 
ATOM     11  C   UNL     1       4.525  -0.374  -2.784  1.00  0.00     0.006 A 
ATOM     12  C   UNL     1       5.103   1.974  -2.914  1.00  0.00     0.006 A 
ATOM     13  C   UNL     1       4.576  -0.464  -4.174  1.00  0.00     0.016 A 
ATOM     14  C   UNL     1       5.175   1.881  -4.307  1.00  0.00     0.016 A 
BRANCH  10  15
ATOM     15  C   UNL     1       4.519   0.971  -0.660  1.00  0.00     0.153 C 
BRANCH  15  16
ATOM     16  N   UNL     1       3.094   1.039  -0.408  1.00  0.00    -0.334 N 
ATOM     17  O   UNL     1       1.052   0.392   0.175  1.00  0.00    -0.248 OA
ATOM     18  C   UNL     1       2.257   0.167   0.215  1.00  0.00     0.319 C 
ATOM     19  N   UNL     1       2.853  -0.858   0.893  1.00  0.00    -0.307 N 
ATOM     20  H   UNL     1       2.657   1.855  -0.744  1.00  0.00     0.165 HD
ATOM     21  H   UNL     1       3.830  -0.815   1.002  1.00  0.00     0.171 HD
BRANCH  19  22
ATOM     22  C   UNL     1       2.189  -1.976   1.453  1.00  0.00     0.057 A 
ATOM     23  C   UNL     1       2.693  -2.419   2.688  1.00  0.00     0.027 A 
ATOM     24  C   UNL     1       1.118  -2.680   0.875  1.00  0.00     0.041 A 
ATOM     25  C   UNL     1       2.100  -3.484   3.371  1.00  0.00     0.002 A 
ATOM     26  C   UNL     1       0.522  -3.744   1.571  1.00  0.00     0.018 A 
ATOM     27  Br  UNL     1       0.536  -2.450  -0.923  1.00  0.00    -0.049 Br
ATOM     28  C   UNL     1       1.004  -4.137   2.819  1.00  0.00     0.001 A 
ENDBRANCH  19  22
ENDBRANCH  15  16
ENDBRANCH  10  15
ENDBRANCH   7   9
ENDBRANCH   6   7
ENDBRANCH   5   6
ENDBRANCH   4   5
ENDBRANCH   3   4
ENDBRANCH   2   3
ENDBRANCH   1   2
BRANCH   1  29
ATOM     29  O   UNL     1       8.972   1.028  -5.966  1.00  0.00    -0.377 OA
BRANCH  29  30
ATOM     30  C   UNL     1       9.833   0.943  -7.098  1.00  0.00     0.188 C 
BRANCH  30  31
ATOM     31  C   UNL     1      10.608  -0.353  -7.442  1.00  0.00     0.188 C 
BRANCH  31  32
ATOM     32  O   UNL     1      10.495  -1.378  -6.472  1.00  0.00    -0.376 OA
BRANCH  32  33
ATOM     33  C   UNL     1      11.630  -1.678  -5.683  1.00  0.00     0.202 C 
BRANCH  33  34
ATOM     34  C   UNL     1      12.164  -0.570  -4.768  1.00  0.00     0.261 C 
BRANCH  34  35
ATOM     35  O   UNL     1      12.381   0.711  -5.376  1.00  0.00    -0.460 OA
BRANCH  35  36
ATOM     36  C   UNL     1      13.374   0.812  -6.284  1.00  0.00     0.338 C 
ATOM     37  O   UNL     1      14.117  -0.073  -6.674  1.00  0.00    -0.246 OA
BRANCH  36  38
ATOM     38  C   UNL     1      13.300   2.170  -6.856  1.00  0.00     0.060 A 
ATOM     39  C   UNL     1      13.044   2.339  -8.225  1.00  0.00     0.016 A 
ATOM     40  C   UNL     1      13.464   3.277  -6.021  1.00  0.00     0.016 A 
ATOM     41  C   UNL     1      12.985   3.624  -8.769  1.00  0.00     0.010 A 
ATOM     42  C   UNL     1      13.428   4.558  -6.569  1.00  0.00     0.010 A 
ATOM     43  C   UNL     1      13.223   4.735  -7.950  1.00  0.00    -0.014 A 
BRANCH  43  44
ATOM     44  C   UNL     1      13.499   6.065  -8.540  1.00  0.00     0.031 A 
ATOM     45  C   UNL     1      14.938   6.472  -8.695  1.00  0.00     0.074 A 
ATOM     46  C   UNL     1      12.511   6.907  -8.886  1.00  0.00     0.049 A 
ATOM     47  N   UNL     1      15.447   7.632  -9.018  1.00  0.00    -0.248 NA
ATOM     48  C   UNL     1      15.940   5.425  -8.433  1.00  0.00     0.031 C 
ATOM     49  C   UNL     1      11.083   6.610  -8.829  1.00  0.00     0.029 A 
ATOM     50  N   UNL     1      12.571   8.205  -9.331  1.00  0.00    -0.354 N 
ATOM     51  C   UNL     1      16.824   7.459  -8.977  1.00  0.00     0.074 A 
ATOM     52  C   UNL     1      17.073   6.093  -8.573  1.00  0.00     0.031 C 
ATOM     53  C   UNL     1      10.397   7.706  -9.200  1.00  0.00     0.029 A 
ATOM     54  C   UNL     1      11.338   8.791  -9.475  1.00  0.00     0.049 A 
ATOM     55  H   UNL     1      13.416   8.670  -9.528  1.00  0.00     0.167 HD
ATOM     56  C   UNL     1      17.796   8.360  -9.252  1.00  0.00     0.037 A 
ATOM     57  C   UNL     1      11.013  10.069  -9.758  1.00  0.00     0.037 A 
ATOM     58  C   UNL     1      17.540   9.719  -9.647  1.00  0.00     0.049 A 
ATOM     59  C   UNL     1      12.112  11.078  -9.981  1.00  0.00     0.074 A 
ATOM     60  C   UNL     1      18.451  10.711  -9.960  1.00  0.00     0.029 A 
ATOM     61  N   UNL     1      16.277  10.278  -9.774  1.00  0.00    -0.354 N 
ATOM     62  N   UNL     1      13.413  10.909  -9.952  1.00  0.00    -0.248 NA
ATOM     63  C   UNL     1      11.697  12.458 -10.275  1.00  0.00     0.031 C 
ATOM     64  C   UNL     1      17.741  11.887 -10.219  1.00  0.00     0.029 A 
ATOM     65  C   UNL     1      16.386  11.609 -10.138  1.00  0.00     0.049 A 
ATOM     66  H   UNL     1      15.429   9.799  -9.627  1.00  0.00     0.167 HD
ATOM     67  C   UNL     1      13.968  12.145 -10.267  1.00  0.00     0.074 A 
ATOM     68  C   UNL     1      12.863  13.055 -10.483  1.00  0.00     0.031 C 
ATOM     69  C   UNL     1      15.274  12.494 -10.374  1.00  0.00     0.037 A 
BRANCH  56  70
ATOM     70  C   UNL     1      19.219   7.912  -9.097  1.00  0.00     0.057 A 
ATOM     71  C   UNL     1      19.806   6.981  -9.965  1.00  0.00     0.134 A 
ATOM     72  C   UNL     1      20.021   8.434  -8.074  1.00  0.00     0.134 A 
ATOM     73  F   UNL     1      19.089   6.428 -10.955  1.00  0.00    -0.206 F 
ATOM     74  C   UNL     1      21.130   6.567  -9.806  1.00  0.00     0.040 A 
ATOM     75  C   UNL     1      21.355   8.052  -7.924  1.00  0.00     0.040 A 
ATOM     76  F   UNL     1      19.524   9.330  -7.208  1.00  0.00    -0.206 F 
ATOM     77  C   UNL     1      21.910   7.110  -8.787  1.00  0.00     0.006 A 
ENDBRANCH  56  70
BRANCH  57  78
ATOM     78  C   UNL     1       9.587  10.481  -9.828  1.00  0.00     0.057 A 
ATOM     79  C   UNL     1       9.008  10.882 -11.037  1.00  0.00     0.134 A 
ATOM     80  C   UNL     1       8.778  10.515  -8.685  1.00  0.00     0.134 A 
ATOM     81  F   UNL     1       9.737  10.897 -12.163  1.00  0.00    -0.206 F 
ATOM     82  C   UNL     1       7.685  11.323 -11.106  1.00  0.00     0.040 A 
ATOM     83  C   UNL     1       7.444  10.925  -8.744  1.00  0.00     0.040 A 
ATOM     84  F   UNL     1       9.270  10.144  -7.494  1.00  0.00    -0.206 F 
ATOM     85  C   UNL     1       6.897  11.340  -9.957  1.00  0.00     0.006 A 
ENDBRANCH  57  78
BRANCH  69  86
ATOM     86  C   UNL     1      15.589  13.896 -10.813  1.00  0.00     0.057 A 
ATOM     87  C   UNL     1      15.392  15.004  -9.981  1.00  0.00     0.134 A 
ATOM     88  C   UNL     1      16.163  14.128 -12.071  1.00  0.00     0.134 A 
ATOM     89  F   UNL     1      14.838  14.854  -8.768  1.00  0.00    -0.206 F 
ATOM     90  C   UNL     1      15.735  16.294 -10.391  1.00  0.00     0.040 A 
ATOM     91  C   UNL     1      16.539  15.408 -12.480  1.00  0.00     0.040 A 
ATOM     92  F   UNL     1      16.391  13.109 -12.914  1.00  0.00    -0.206 F 
ATOM     93  C   UNL     1      16.320  16.497 -11.640  1.00  0.00     0.006 A 
ENDBRANCH  69  86
ENDBRANCH  43  44
ENDBRANCH  36  38
ENDBRANCH  35  36
ENDBRANCH  34  35
ENDBRANCH  33  34
ENDBRANCH  32  33
ENDBRANCH  31  32
ENDBRANCH  30  31
ENDBRANCH  29  30
ENDBRANCH   1  29
TORSDOF 23
