REMARK SMILES C[NH2+][C@]1(C(=O)OCCOCCOCCOCCOC(=O)c2ccc(-c3c4nc(c(-c5c(F)cccc5F)c5ccc([nH]5)c(-c5c(F)cccc5F)c5nc(c(-c6c(F)cccc6F)c6ccc3[nH]6)C=C5)C=C4)cc2)CCC[C@@H]1CCn1cc(C)cn1
REMARK SMILES IDX 11 1 10 2 9 3 8 4 7 5 6 6 4 7 5 8 3 9 75 10 78 11 76 12
REMARK SMILES IDX 77 13 2 14 1 15 79 18 80 19 81 20 82 21 86 22 83 23 85 24
REMARK SMILES IDX 84 25 12 26 13 27 14 28 15 29 16 30 17 31 18 32 19 33 20 34
REMARK SMILES IDX 21 35 22 36 74 37 23 38 73 39 24 40 25 41 26 42 67 43 27 44
REMARK SMILES IDX 72 45 66 46 68 47 28 48 71 49 65 50 64 51 29 53 55 54 38 55
REMARK SMILES IDX 54 56 39 57 42 58 53 59 69 60 40 61 41 62 52 64 70 65 43 66
REMARK SMILES IDX 30 67 31 68 36 69 32 70 33 71 35 72 37 73 34 74 56 75 57 76
REMARK SMILES IDX 62 77 58 78 59 79 61 80 63 81 60 82 44 83 45 84 50 85 46 86
REMARK SMILES IDX 47 87 49 88 51 89 48 90
REMARK H PARENT 2 16 2 17 68 52 42 63
REMARK Flexibility Score: inf
ROOT
ATOM      1  C   UNL     1       1.167   2.113  -2.150  1.00  0.00     0.188 C 
ENDROOT
BRANCH   1   2
ATOM      2  C   UNL     1       1.656   1.686  -0.764  1.00  0.00     0.188 C 
BRANCH   2   3
ATOM      3  O   UNL     1       2.936   1.090  -0.638  1.00  0.00    -0.376 OA
BRANCH   3   4
ATOM      4  C   UNL     1       3.333  -0.024  -1.425  1.00  0.00     0.202 C 
BRANCH   4   5
ATOM      5  C   UNL     1       2.376  -1.006  -2.138  1.00  0.00     0.261 C 
BRANCH   5   6
ATOM      6  O   UNL     1       0.976  -0.714  -2.099  1.00  0.00    -0.459 OA
BRANCH   6   7
ATOM      7  C   UNL     1       0.290  -1.235  -1.056  1.00  0.00     0.368 C 
ATOM      8  O   UNL     1       0.811  -1.962  -0.215  1.00  0.00    -0.245 OA
BRANCH   7   9
ATOM      9  C   UNL     1      -1.236  -0.875  -1.105  1.00  0.00     0.197 C 
ATOM     10  C   UNL     1      -1.683   0.294  -2.011  1.00  0.00     0.081 C 
ATOM     11  C   UNL     1      -1.908  -2.021  -1.897  1.00  0.00     0.064 C 
ATOM     12  C   UNL     1      -3.136   0.018  -2.393  1.00  0.00     0.008 C 
ATOM     13  C   UNL     1      -3.282  -1.497  -2.337  1.00  0.00     0.011 C 
BRANCH   9  14
ATOM     14  N   UNL     1      -1.859  -0.600   0.221  1.00  0.00    -0.334 N 
ATOM     15  C   UNL     1      -0.985  -0.555   1.382  1.00  0.00     0.331 C 
ATOM     16  H   UNL     1      -2.326   0.304   0.156  1.00  0.00     0.347 HD
ATOM     17  H   UNL     1      -2.469  -1.400   0.389  1.00  0.00     0.347 HD
ENDBRANCH   9  14
BRANCH  11  18
ATOM     18  C   UNL     1      -1.954  -3.368  -1.168  1.00  0.00     0.034 C 
BRANCH  18  19
ATOM     19  C   UNL     1      -1.942  -4.554  -2.132  1.00  0.00     0.144 C 
BRANCH  19  20
ATOM     20  N   UNL     1      -0.758  -4.599  -2.976  1.00  0.00    -0.272 N 
ATOM     21  C   UNL     1       0.511  -4.938  -2.602  1.00  0.00     0.112 A 
ATOM     22  N   UNL     1      -0.850  -4.240  -4.271  1.00  0.00    -0.181 NA
ATOM     23  C   UNL     1       1.296  -4.817  -3.730  1.00  0.00    -0.013 A 
ATOM     24  C   UNL     1       0.400  -4.360  -4.722  1.00  0.00     0.138 A 
ATOM     25  C   UNL     1       2.740  -5.101  -3.885  1.00  0.00     0.048 C 
ENDBRANCH  19  20
ENDBRANCH  18  19
ENDBRANCH  11  18
ENDBRANCH   7   9
ENDBRANCH   6   7
ENDBRANCH   5   6
ENDBRANCH   4   5
ENDBRANCH   3   4
ENDBRANCH   2   3
ENDBRANCH   1   2
BRANCH   1  26
ATOM     26  O   UNL     1       1.930   1.578  -3.208  1.00  0.00    -0.377 OA
BRANCH  26  27
ATOM     27  C   UNL     1       2.896   2.448  -3.765  1.00  0.00     0.188 C 
BRANCH  27  28
ATOM     28  C   UNL     1       3.668   3.390  -2.816  1.00  0.00     0.188 C 
BRANCH  28  29
ATOM     29  O   UNL     1       2.862   4.107  -1.887  1.00  0.00    -0.376 OA
BRANCH  29  30
ATOM     30  C   UNL     1       2.454   5.434  -2.186  1.00  0.00     0.202 C 
BRANCH  30  31
ATOM     31  C   UNL     1       1.456   5.655  -3.338  1.00  0.00     0.261 C 
BRANCH  31  32
ATOM     32  O   UNL     1       1.834   5.138  -4.621  1.00  0.00    -0.460 OA
BRANCH  32  33
ATOM     33  C   UNL     1       2.981   5.592  -5.166  1.00  0.00     0.338 C 
ATOM     34  O   UNL     1       3.714   6.459  -4.721  1.00  0.00    -0.246 OA
BRANCH  33  35
ATOM     35  C   UNL     1       3.328   4.705  -6.298  1.00  0.00     0.060 A 
ATOM     36  C   UNL     1       4.554   4.026  -6.266  1.00  0.00     0.016 A 
ATOM     37  C   UNL     1       2.439   4.508  -7.358  1.00  0.00     0.016 A 
ATOM     38  C   UNL     1       4.913   3.178  -7.312  1.00  0.00     0.010 A 
ATOM     39  C   UNL     1       2.815   3.685  -8.424  1.00  0.00     0.010 A 
ATOM     40  C   UNL     1       4.069   3.048  -8.421  1.00  0.00    -0.014 A 
BRANCH  40  41
ATOM     41  C   UNL     1       4.605   2.457  -9.670  1.00  0.00     0.031 A 
ATOM     42  C   UNL     1       5.161   3.396 -10.707  1.00  0.00     0.074 A 
ATOM     43  C   UNL     1       4.638   1.129  -9.871  1.00  0.00     0.049 A 
ATOM     44  N   UNL     1       5.645   3.136 -11.893  1.00  0.00    -0.248 NA
ATOM     45  C   UNL     1       5.168   4.825 -10.352  1.00  0.00     0.031 C 
ATOM     46  C   UNL     1       4.182   0.116  -8.923  1.00  0.00     0.029 A 
ATOM     47  N   UNL     1       5.074   0.407 -10.955  1.00  0.00    -0.354 N 
ATOM     48  C   UNL     1       6.006   4.367 -12.427  1.00  0.00     0.074 A 
ATOM     49  C   UNL     1       5.657   5.375 -11.451  1.00  0.00     0.031 C 
ATOM     50  C   UNL     1       4.347  -1.100  -9.475  1.00  0.00     0.029 A 
ATOM     51  C   UNL     1       4.887  -0.947 -10.825  1.00  0.00     0.049 A 
ATOM     52  H   UNL     1       5.481   0.822 -11.750  1.00  0.00     0.167 HD
ATOM     53  C   UNL     1       6.584   4.634 -13.621  1.00  0.00     0.037 A 
ATOM     54  C   UNL     1       5.105  -1.941 -11.709  1.00  0.00     0.037 A 
ATOM     55  C   UNL     1       6.923   3.630 -14.593  1.00  0.00     0.049 A 
ATOM     56  C   UNL     1       5.666  -1.611 -13.070  1.00  0.00     0.074 A 
ATOM     57  C   UNL     1       7.519   3.795 -15.830  1.00  0.00     0.029 A 
ATOM     58  N   UNL     1       6.683   2.272 -14.441  1.00  0.00    -0.354 N 
ATOM     59  N   UNL     1       6.025  -0.448 -13.560  1.00  0.00    -0.248 NA
ATOM     60  C   UNL     1       5.855  -2.734 -14.000  1.00  0.00     0.031 C 
ATOM     61  C   UNL     1       7.586   2.544 -16.451  1.00  0.00     0.029 A 
ATOM     62  C   UNL     1       7.092   1.591 -15.574  1.00  0.00     0.049 A 
ATOM     63  H   UNL     1       6.281   1.855 -13.645  1.00  0.00     0.167 HD
ATOM     64  C   UNL     1       6.511  -0.704 -14.838  1.00  0.00     0.074 A 
ATOM     65  C   UNL     1       6.413  -2.134 -15.042  1.00  0.00     0.031 C 
ATOM     66  C   UNL     1       6.998   0.165 -15.758  1.00  0.00     0.037 A 
BRANCH  53  67
ATOM     67  C   UNL     1       6.850   6.073 -13.953  1.00  0.00     0.057 A 
ATOM     68  C   UNL     1       7.837   6.819 -13.294  1.00  0.00     0.134 A 
ATOM     69  C   UNL     1       6.120   6.716 -14.960  1.00  0.00     0.134 A 
ATOM     70  F   UNL     1       8.559   6.269 -12.306  1.00  0.00    -0.206 F 
ATOM     71  C   UNL     1       8.071   8.159 -13.609  1.00  0.00     0.040 A 
ATOM     72  C   UNL     1       6.365   8.046 -15.304  1.00  0.00     0.040 A 
ATOM     73  F   UNL     1       5.161   6.061 -15.631  1.00  0.00    -0.206 F 
ATOM     74  C   UNL     1       7.339   8.774 -14.623  1.00  0.00     0.006 A 
ENDBRANCH  53  67
BRANCH  54  75
ATOM     75  C   UNL     1       4.772  -3.345 -11.352  1.00  0.00     0.057 A 
ATOM     76  C   UNL     1       5.770  -4.316 -11.209  1.00  0.00     0.134 A 
ATOM     77  C   UNL     1       3.445  -3.757 -11.181  1.00  0.00     0.134 A 
ATOM     78  F   UNL     1       7.059  -3.991 -11.387  1.00  0.00    -0.206 F 
ATOM     79  C   UNL     1       5.460  -5.649 -10.930  1.00  0.00     0.040 A 
ATOM     80  C   UNL     1       3.122  -5.080 -10.873  1.00  0.00     0.040 A 
ATOM     81  F   UNL     1       2.440  -2.878 -11.307  1.00  0.00    -0.206 F 
ATOM     82  C   UNL     1       4.132  -6.032 -10.755  1.00  0.00     0.006 A 
ENDBRANCH  54  75
BRANCH  66  83
ATOM     83  C   UNL     1       7.507  -0.406 -17.052  1.00  0.00     0.057 A 
ATOM     84  C   UNL     1       6.649  -0.942 -18.020  1.00  0.00     0.134 A 
ATOM     85  C   UNL     1       8.876  -0.374 -17.351  1.00  0.00     0.134 A 
ATOM     86  F   UNL     1       5.328  -1.012 -17.794  1.00  0.00    -0.206 F 
ATOM     87  C   UNL     1       7.135  -1.449 -19.227  1.00  0.00     0.040 A 
ATOM     88  C   UNL     1       9.371  -0.848 -18.567  1.00  0.00     0.040 A 
ATOM     89  F   UNL     1       9.754   0.138 -16.475  1.00  0.00    -0.206 F 
ATOM     90  C   UNL     1       8.499  -1.395 -19.506  1.00  0.00     0.006 A 
ENDBRANCH  66  83
ENDBRANCH  40  41
ENDBRANCH  33  35
ENDBRANCH  32  33
ENDBRANCH  31  32
ENDBRANCH  30  31
ENDBRANCH  29  30
ENDBRANCH  28  29
ENDBRANCH  27  28
ENDBRANCH  26  27
ENDBRANCH   1  26
TORSDOF 24
