REMARK SMILES Cc1cc(C(=O)N[C@@H]2C(=O)N3C(C(=O)OCCOCCOCCOCCOC(=O)c4ccc(-c5c6nc(c(-c7c(F)cccc7F)c7ccc([nH]7)c(-c7c(F)cccc7F)c7nc(c(-c8c(F)cccc8F)c8ccc5[nH]8)C=C7)C=C6)cc4)=C(CSc4nnc(C)s4)CS[C@H]23)n(C)n1
REMARK SMILES IDX 20 1 19 2 18 3 17 4 16 5 15 6 13 7 14 8 12 9 8 10 9 11 95 12
REMARK SMILES IDX 10 13 11 14 94 15 93 16 84 17 7 18 5 19 6 20 4 22 1 23 2 24
REMARK SMILES IDX 3 25 98 26 96 27 97 28 85 29 86 30 87 31 88 32 92 33 89 34
REMARK SMILES IDX 90 35 91 36 21 37 22 38 23 39 24 40 25 41 26 42 27 43 28 44
REMARK SMILES IDX 29 45 30 46 31 47 83 48 32 49 82 50 33 51 34 52 35 53 76 54
REMARK SMILES IDX 36 55 81 56 75 57 77 58 37 59 80 60 74 61 73 62 38 64 64 65
REMARK SMILES IDX 47 66 63 67 48 68 51 69 62 70 78 71 49 72 50 73 61 75 79 76
REMARK SMILES IDX 52 77 39 78 40 79 45 80 41 81 42 82 44 83 46 84 43 85 65 86
REMARK SMILES IDX 66 87 71 88 67 89 68 90 70 91 72 92 69 93 53 94 54 95 59 96
REMARK SMILES IDX 55 97 56 98 58 99 60 100 57 101
REMARK H PARENT 7 21 77 63 51 74
REMARK Flexibility Score: inf
ROOT
ATOM      1  C   UNL     1      -4.028  -0.745  -0.608  1.00  0.00     0.188 C 
ENDROOT
BRANCH   1   2
ATOM      2  C   UNL     1      -2.981   0.391  -0.782  1.00  0.00     0.188 C 
BRANCH   2   3
ATOM      3  O   UNL     1      -3.441   1.516  -1.509  1.00  0.00    -0.376 OA
BRANCH   3   4
ATOM      4  C   UNL     1      -2.952   1.779  -2.804  1.00  0.00     0.202 C 
BRANCH   4   5
ATOM      5  C   UNL     1      -3.123   0.727  -3.909  1.00  0.00     0.261 C 
BRANCH   5   6
ATOM      6  O   UNL     1      -3.276  -0.628  -3.477  1.00  0.00    -0.459 OA
BRANCH   6   7
ATOM      7  C   UNL     1      -2.145  -1.348  -3.330  1.00  0.00     0.355 C 
ATOM      8  O   UNL     1      -1.010  -0.937  -3.535  1.00  0.00    -0.244 OA
BRANCH   7   9
ATOM      9  C   UNL     1      -2.416  -2.741  -2.832  1.00  0.00     0.132 C 
ATOM     10  C   UNL     1      -0.267  -4.142  -0.573  1.00  0.00     0.206 C 
ATOM     11  C   UNL     1      -1.029  -2.794  -0.701  1.00  0.00     0.253 C 
ATOM     12  C   UNL     1      -1.191  -4.583  -1.750  1.00  0.00     0.181 C 
ATOM     13  O   UNL     1      -1.159  -1.811  -0.024  1.00  0.00    -0.272 OA
ATOM     14  N   UNL     1      -1.526  -3.197  -1.903  1.00  0.00    -0.289 N 
ATOM     15  S   UNL     1      -2.721  -5.460  -1.350  1.00  0.00    -0.129 SA
ATOM     16  C   UNL     1      -3.448  -5.055  -2.955  1.00  0.00     0.106 C 
ATOM     17  C   UNL     1      -3.380  -3.571  -3.319  1.00  0.00    -0.019 C 
BRANCH  10  18
ATOM     18  N   UNL     1      -0.300  -4.938   0.677  1.00  0.00    -0.336 N 
ATOM     19  C   UNL     1      -0.004  -6.286   0.815  1.00  0.00     0.270 C 
ATOM     20  O   UNL     1      -0.090  -6.783   1.935  1.00  0.00    -0.268 OA
ATOM     21  H   UNL     1      -0.560  -4.459   1.497  1.00  0.00     0.164 HD
BRANCH  19  22
ATOM     22  C   UNL     1       0.309  -7.046  -0.380  1.00  0.00     0.126 A 
ATOM     23  C   UNL     1       0.397  -7.421  -3.995  1.00  0.00     0.069 C 
ATOM     24  C   UNL     1       0.447  -7.593  -2.523  1.00  0.00     0.060 A 
ATOM     25  C   UNL     1       0.945  -6.688  -1.561  1.00  0.00     0.059 A 
ATOM     26  N   UNL     1      -0.110  -8.651  -1.933  1.00  0.00    -0.178 NA
ATOM     27  N   UNL     1      -0.042  -8.358  -0.613  1.00  0.00    -0.263 N 
ATOM     28  C   UNL     1      -0.341  -9.410   0.328  1.00  0.00     0.174 C 
ENDBRANCH  19  22
ENDBRANCH  10  18
BRANCH  17  29
ATOM     29  C   UNL     1      -4.415  -3.211  -4.359  1.00  0.00     0.111 C 
BRANCH  29  30
ATOM     30  S   UNL     1      -5.947  -2.420  -3.816  1.00  0.00    -0.089 SA
BRANCH  30  31
ATOM     31  C   UNL     1      -6.489  -3.149  -2.326  1.00  0.00     0.174 A 
ATOM     32  N   UNL     1      -5.838  -4.065  -1.651  1.00  0.00    -0.132 NA
ATOM     33  S   UNL     1      -7.961  -2.673  -1.571  1.00  0.00    -0.091 S 
ATOM     34  N   UNL     1      -6.414  -4.343  -0.426  1.00  0.00    -0.143 NA
ATOM     35  C   UNL     1      -7.493  -3.620  -0.217  1.00  0.00     0.115 A 
ATOM     36  C   UNL     1      -8.263  -3.590   1.053  1.00  0.00     0.081 C 
ENDBRANCH  30  31
ENDBRANCH  29  30
ENDBRANCH  17  29
ENDBRANCH   7   9
ENDBRANCH   6   7
ENDBRANCH   5   6
ENDBRANCH   4   5
ENDBRANCH   3   4
ENDBRANCH   2   3
ENDBRANCH   1   2
BRANCH   1  37
ATOM     37  O   UNL     1      -5.433  -0.540  -0.709  1.00  0.00    -0.377 OA
BRANCH  37  38
ATOM     38  C   UNL     1      -5.905   0.709  -1.173  1.00  0.00     0.188 C 
BRANCH  38  39
ATOM     39  C   UNL     1      -5.777   1.832  -0.128  1.00  0.00     0.188 C 
BRANCH  39  40
ATOM     40  O   UNL     1      -4.958   1.518   0.981  1.00  0.00    -0.376 OA
BRANCH  40  41
ATOM     41  C   UNL     1      -5.439   0.704   2.039  1.00  0.00     0.202 C 
BRANCH  41  42
ATOM     42  C   UNL     1      -6.635  -0.270   1.965  1.00  0.00     0.261 C 
BRANCH  42  43
ATOM     43  O   UNL     1      -7.650  -0.069   0.976  1.00  0.00    -0.460 OA
BRANCH  43  44
ATOM     44  C   UNL     1      -8.551   0.913   1.171  1.00  0.00     0.338 C 
ATOM     45  O   UNL     1      -8.623   1.677   2.114  1.00  0.00    -0.246 OA
BRANCH  44  46
ATOM     46  C   UNL     1      -9.351   1.011  -0.071  1.00  0.00     0.060 A 
ATOM     47  C   UNL     1      -9.228   2.148  -0.882  1.00  0.00     0.016 A 
ATOM     48  C   UNL     1     -10.201  -0.031  -0.445  1.00  0.00     0.016 A 
ATOM     49  C   UNL     1      -9.969   2.254  -2.058  1.00  0.00     0.010 A 
ATOM     50  C   UNL     1     -10.959   0.084  -1.614  1.00  0.00     0.010 A 
ATOM     51  C   UNL     1     -10.873   1.244  -2.405  1.00  0.00    -0.014 A 
BRANCH  51  52
ATOM     52  C   UNL     1     -11.887   1.502  -3.455  1.00  0.00     0.031 A 
ATOM     53  C   UNL     1     -13.272   1.895  -3.017  1.00  0.00     0.074 A 
ATOM     54  C   UNL     1     -11.588   1.423  -4.763  1.00  0.00     0.049 A 
ATOM     55  N   UNL     1     -14.341   2.119  -3.735  1.00  0.00    -0.248 NA
ATOM     56  C   UNL     1     -13.476   2.051  -1.567  1.00  0.00     0.031 C 
ATOM     57  C   UNL     1     -10.274   1.104  -5.314  1.00  0.00     0.029 A 
ATOM     58  N   UNL     1     -12.384   1.603  -5.866  1.00  0.00    -0.354 N 
ATOM     59  C   UNL     1     -15.345   2.429  -2.825  1.00  0.00     0.074 A 
ATOM     60  C   UNL     1     -14.768   2.326  -1.503  1.00  0.00     0.031 C 
ATOM     61  C   UNL     1     -10.356   1.100  -6.657  1.00  0.00     0.029 A 
ATOM     62  C   UNL     1     -11.735   1.379  -7.055  1.00  0.00     0.049 A 
ATOM     63  H   UNL     1     -13.331   1.868  -5.811  1.00  0.00     0.167 HD
ATOM     64  C   UNL     1     -16.630   2.778  -3.069  1.00  0.00     0.037 A 
ATOM     65  C   UNL     1     -12.210   1.375  -8.316  1.00  0.00     0.037 A 
ATOM     66  C   UNL     1     -17.200   2.876  -4.386  1.00  0.00     0.049 A 
ATOM     67  C   UNL     1     -13.667   1.678  -8.559  1.00  0.00     0.074 A 
ATOM     68  C   UNL     1     -18.488   3.236  -4.741  1.00  0.00     0.029 A 
ATOM     69  N   UNL     1     -16.521   2.602  -5.564  1.00  0.00    -0.354 N 
ATOM     70  N   UNL     1     -14.605   1.991  -7.697  1.00  0.00    -0.248 NA
ATOM     71  C   UNL     1     -14.132   1.629  -9.954  1.00  0.00     0.031 C 
ATOM     72  C   UNL     1     -18.607   3.114  -6.129  1.00  0.00     0.029 A 
ATOM     73  C   UNL     1     -17.373   2.751  -6.645  1.00  0.00     0.049 A 
ATOM     74  H   UNL     1     -15.574   2.340  -5.622  1.00  0.00     0.167 HD
ATOM     75  C   UNL     1     -15.757   2.209  -8.446  1.00  0.00     0.074 A 
ATOM     76  C   UNL     1     -15.397   2.005  -9.833  1.00  0.00     0.031 C 
ATOM     77  C   UNL     1     -17.000   2.552  -8.024  1.00  0.00     0.037 A 
BRANCH  64  78
ATOM     78  C   UNL     1     -17.511   3.040  -1.881  1.00  0.00     0.057 A 
ATOM     79  C   UNL     1     -17.330   4.152  -1.048  1.00  0.00     0.134 A 
ATOM     80  C   UNL     1     -18.567   2.171  -1.576  1.00  0.00     0.134 A 
ATOM     81  F   UNL     1     -16.328   5.016  -1.274  1.00  0.00    -0.206 F 
ATOM     82  C   UNL     1     -18.146   4.374   0.062  1.00  0.00     0.040 A 
ATOM     83  C   UNL     1     -19.410   2.400  -0.488  1.00  0.00     0.040 A 
ATOM     84  F   UNL     1     -18.799   1.088  -2.333  1.00  0.00    -0.206 F 
ATOM     85  C   UNL     1     -19.195   3.499   0.340  1.00  0.00     0.006 A 
ENDBRANCH  64  78
BRANCH  65  86
ATOM     86  C   UNL     1     -11.306   1.058  -9.453  1.00  0.00     0.057 A 
ATOM     87  C   UNL     1     -10.982   2.021 -10.415  1.00  0.00     0.134 A 
ATOM     88  C   UNL     1     -10.768  -0.225  -9.621  1.00  0.00     0.134 A 
ATOM     89  F   UNL     1     -11.486   3.261 -10.325  1.00  0.00    -0.206 F 
ATOM     90  C   UNL     1     -10.173   1.718 -11.512  1.00  0.00     0.040 A 
ATOM     91  C   UNL     1      -9.934  -0.534 -10.697  1.00  0.00     0.040 A 
ATOM     92  F   UNL     1     -11.040  -1.195  -8.737  1.00  0.00    -0.206 F 
ATOM     93  C   UNL     1      -9.642   0.438 -11.652  1.00  0.00     0.006 A 
ENDBRANCH  65  86
BRANCH  77  94
ATOM     94  C   UNL     1     -18.055   2.776  -9.072  1.00  0.00     0.057 A 
ATOM     95  C   UNL     1     -18.594   1.725  -9.825  1.00  0.00     0.134 A 
ATOM     96  C   UNL     1     -18.572   4.059  -9.295  1.00  0.00     0.134 A 
ATOM     97  F   UNL     1     -18.139   0.473  -9.669  1.00  0.00    -0.206 F 
ATOM     98  C   UNL     1     -19.589   1.947 -10.779  1.00  0.00     0.040 A 
ATOM     99  C   UNL     1     -19.590   4.288 -10.222  1.00  0.00     0.040 A 
ATOM    100  F   UNL     1     -18.111   5.111  -8.600  1.00  0.00    -0.206 F 
ATOM    101  C   UNL     1     -20.096   3.230 -10.973  1.00  0.00     0.006 A 
ENDBRANCH  77  94
ENDBRANCH  51  52
ENDBRANCH  44  46
ENDBRANCH  43  44
ENDBRANCH  42  43
ENDBRANCH  41  42
ENDBRANCH  40  41
ENDBRANCH  39  40
ENDBRANCH  38  39
ENDBRANCH  37  38
ENDBRANCH   1  37
TORSDOF 25
