REMARK SMILES NS(=O)(=O)c1ccc(-n2nc(C(=O)OCCOCCOCCOCCOC(=O)c3ccc(-c4c5nc(c(-c6c(F)cccc6F)c6ccc([nH]6)c(-c6c(F)cccc6F)c6nc(c(-c7c(F)cccc7F)c7ccc4[nH]7)C=C6)C=C5)cc3)cc2-c2ccc(Cl)s2)cc1
REMARK SMILES IDX 19 1 18 2 17 3 16 4 15 5 14 6 12 7 13 8 11 9 9 10 10 11
REMARK SMILES IDX 84 12 83 13 8 14 5 15 6 16 92 17 7 18 91 19 2 20 3 21 4 22
REMARK SMILES IDX 1 23 85 26 86 27 90 28 87 29 88 30 89 31 20 32 21 33 22 34
REMARK SMILES IDX 23 35 24 36 25 37 26 38 27 39 28 40 29 41 30 42 82 43 31 44
REMARK SMILES IDX 81 45 32 46 33 47 34 48 75 49 35 50 80 51 74 52 76 53 36 54
REMARK SMILES IDX 79 55 73 56 72 57 37 59 63 60 46 61 62 62 47 63 50 64 61 65
REMARK SMILES IDX 77 66 48 67 49 68 60 70 78 71 51 72 38 73 39 74 44 75 40 76
REMARK SMILES IDX 41 77 43 78 45 79 42 80 64 81 65 82 70 83 66 84 67 85 69 86
REMARK SMILES IDX 71 87 68 88 52 89 53 90 58 91 54 92 55 93 57 94 59 95 56 96
REMARK H PARENT 1 24 1 25 76 58 50 69
REMARK Flexibility Score: inf
ROOT
ATOM      1  C   UNL     1       2.998   1.565  10.607  1.00  0.00     0.188 C 
ENDROOT
BRANCH   1   2
ATOM      2  C   UNL     1       1.513   1.673  11.016  1.00  0.00     0.188 C 
BRANCH   2   3
ATOM      3  O   UNL     1       1.307   1.439  12.396  1.00  0.00    -0.376 OA
BRANCH   3   4
ATOM      4  C   UNL     1       0.714   0.249  12.855  1.00  0.00     0.202 C 
BRANCH   4   5
ATOM      5  C   UNL     1       1.262  -1.116  12.417  1.00  0.00     0.261 C 
BRANCH   5   6
ATOM      6  O   UNL     1       1.740  -1.226  11.076  1.00  0.00    -0.458 OA
BRANCH   6   7
ATOM      7  C   UNL     1       0.811  -1.217  10.081  1.00  0.00     0.358 C 
ATOM      8  O   UNL     1      -0.400  -1.211  10.267  1.00  0.00    -0.244 OA
BRANCH   7   9
ATOM      9  C   UNL     1       1.464  -1.099   8.770  1.00  0.00     0.171 A 
ATOM     10  N   UNL     1       1.835  -0.500   6.750  1.00  0.00    -0.231 N 
ATOM     11  N   UNL     1       1.024  -0.264   7.808  1.00  0.00    -0.160 NA
ATOM     12  C   UNL     1       2.863  -1.375   7.061  1.00  0.00     0.085 A 
ATOM     13  C   UNL     1       2.667  -1.734   8.374  1.00  0.00     0.068 A 
BRANCH  10  14
ATOM     14  C   UNL     1       1.471  -0.028   5.469  1.00  0.00     0.065 A 
ATOM     15  C   UNL     1       0.843   0.856   2.919  1.00  0.00     0.082 A 
ATOM     16  C   UNL     1       0.925  -0.516   3.170  1.00  0.00     0.024 A 
ATOM     17  C   UNL     1       1.062   1.790   3.940  1.00  0.00     0.024 A 
ATOM     18  C   UNL     1       1.259  -0.960   4.445  1.00  0.00     0.030 A 
ATOM     19  C   UNL     1       1.346   1.346   5.235  1.00  0.00     0.030 A 
BRANCH  15  20
ATOM     20  S   UNL     1       0.503   1.423   1.279  1.00  0.00     0.238 S 
ATOM     21  O   UNL     1       1.236   2.637   1.038  1.00  0.00    -0.207 OA
ATOM     22  O   UNL     1      -0.921   1.298   1.041  1.00  0.00    -0.207 OA
BRANCH  20  23
ATOM     23  N   UNL     1       1.236   0.264   0.303  1.00  0.00    -0.225 NA
ATOM     24  H   UNL     1       1.094   0.506  -0.678  1.00  0.00     0.137 HD
ATOM     25  H   UNL     1       0.824  -0.650   0.491  1.00  0.00     0.137 HD
ENDBRANCH  20  23
ENDBRANCH  15  20
ENDBRANCH  10  14
BRANCH  12  26
ATOM     26  C   UNL     1       3.892  -1.811   6.165  1.00  0.00     0.054 A 
ATOM     27  C   UNL     1       4.207  -3.124   5.874  1.00  0.00     0.024 A 
ATOM     28  S   UNL     1       4.903  -0.718   5.314  1.00  0.00    -0.122 S 
ATOM     29  C   UNL     1       5.236  -3.228   4.892  1.00  0.00     0.033 A 
ATOM     30  C   UNL     1       5.682  -1.989   4.514  1.00  0.00     0.094 A 
ATOM     31  Cl  UNL     1       6.902  -1.652   3.354  1.00  0.00    -0.072 Cl
ENDBRANCH  12  26
ENDBRANCH   7   9
ENDBRANCH   6   7
ENDBRANCH   5   6
ENDBRANCH   4   5
ENDBRANCH   3   4
ENDBRANCH   2   3
ENDBRANCH   1   2
BRANCH   1  32
ATOM     32  O   UNL     1       3.916   1.003  11.534  1.00  0.00    -0.377 OA
BRANCH  32  33
ATOM     33  C   UNL     1       4.025   1.534  12.855  1.00  0.00     0.188 C 
BRANCH  33  34
ATOM     34  C   UNL     1       3.418   2.896  13.302  1.00  0.00     0.188 C 
BRANCH  34  35
ATOM     35  O   UNL     1       2.753   3.641  12.299  1.00  0.00    -0.376 OA
BRANCH  35  36
ATOM     36  C   UNL     1       3.255   4.836  11.744  1.00  0.00     0.202 C 
BRANCH  36  37
ATOM     37  C   UNL     1       4.610   4.806  11.052  1.00  0.00     0.261 C 
BRANCH  37  38
ATOM     38  O   UNL     1       5.538   3.943  11.672  1.00  0.00    -0.460 OA
BRANCH  38  39
ATOM     39  C   UNL     1       5.997   4.392  12.853  1.00  0.00     0.338 C 
ATOM     40  O   UNL     1       5.587   5.342  13.497  1.00  0.00    -0.246 OA
BRANCH  39  41
ATOM     41  C   UNL     1       7.193   3.620  13.185  1.00  0.00     0.060 A 
ATOM     42  C   UNL     1       7.800   3.963  14.390  1.00  0.00     0.016 A 
ATOM     43  C   UNL     1       7.876   2.983  12.137  1.00  0.00     0.016 A 
ATOM     44  C   UNL     1       9.168   3.978  14.411  1.00  0.00     0.010 A 
ATOM     45  C   UNL     1       9.242   3.022  12.151  1.00  0.00     0.010 A 
ATOM     46  C   UNL     1       9.855   3.624  13.242  1.00  0.00    -0.014 A 
BRANCH  46  47
ATOM     47  C   UNL     1      11.278   3.832  13.232  1.00  0.00     0.031 A 
ATOM     48  C   UNL     1      11.975   2.842  14.072  1.00  0.00     0.074 A 
ATOM     49  C   UNL     1      11.862   4.785  12.486  1.00  0.00     0.049 A 
ATOM     50  N   UNL     1      12.570   3.050  15.196  1.00  0.00    -0.248 NA
ATOM     51  C   UNL     1      11.795   1.422  13.728  1.00  0.00     0.031 C 
ATOM     52  C   UNL     1      11.276   5.615  11.430  1.00  0.00     0.029 A 
ATOM     53  N   UNL     1      13.170   5.144  12.463  1.00  0.00    -0.354 N 
ATOM     54  C   UNL     1      13.039   1.804  15.590  1.00  0.00     0.074 A 
ATOM     55  C   UNL     1      12.357   0.831  14.781  1.00  0.00     0.031 C 
ATOM     56  C   UNL     1      12.273   6.198  10.721  1.00  0.00     0.029 A 
ATOM     57  C   UNL     1      13.544   5.886  11.352  1.00  0.00     0.049 A 
ATOM     58  H   UNL     1      13.802   4.898  13.177  1.00  0.00     0.167 HD
ATOM     59  C   UNL     1      14.169   1.701  16.335  1.00  0.00     0.037 A 
ATOM     60  C   UNL     1      14.825   6.113  10.964  1.00  0.00     0.037 A 
ATOM     61  C   UNL     1      14.455   2.938  17.021  1.00  0.00     0.049 A 
ATOM     62  C   UNL     1      15.698   5.835  12.138  1.00  0.00     0.074 A 
ATOM     63  C   UNL     1      13.765   3.723  17.926  1.00  0.00     0.029 A 
ATOM     64  N   UNL     1      15.446   3.741  16.512  1.00  0.00    -0.354 N 
ATOM     65  N   UNL     1      15.743   6.582  13.204  1.00  0.00    -0.248 NA
ATOM     66  C   UNL     1      16.171   4.468  12.315  1.00  0.00     0.031 C 
ATOM     67  C   UNL     1      14.067   5.068  17.559  1.00  0.00     0.029 A 
ATOM     68  C   UNL     1      14.967   5.026  16.494  1.00  0.00     0.049 A 
ATOM     69  H   UNL     1      16.337   3.448  16.214  1.00  0.00     0.167 HD
ATOM     70  C   UNL     1      15.830   5.687  14.261  1.00  0.00     0.074 A 
ATOM     71  C   UNL     1      16.167   4.404  13.649  1.00  0.00     0.031 C 
ATOM     72  C   UNL     1      15.333   6.000  15.494  1.00  0.00     0.037 A 
BRANCH  59  73
ATOM     73  C   UNL     1      15.214   0.644  16.083  1.00  0.00     0.057 A 
ATOM     74  C   UNL     1      16.308   0.557  16.958  1.00  0.00     0.134 A 
ATOM     75  C   UNL     1      15.354  -0.078  14.877  1.00  0.00     0.134 A 
ATOM     76  F   UNL     1      16.303   1.206  18.132  1.00  0.00    -0.206 F 
ATOM     77  C   UNL     1      17.485  -0.121  16.620  1.00  0.00     0.040 A 
ATOM     78  C   UNL     1      16.502  -0.802  14.553  1.00  0.00     0.040 A 
ATOM     79  F   UNL     1      14.443  -0.047  13.897  1.00  0.00    -0.206 F 
ATOM     80  C   UNL     1      17.587  -0.795  15.410  1.00  0.00     0.006 A 
ENDBRANCH  59  73
BRANCH  60  81
ATOM     81  C   UNL     1      15.380   6.202   9.594  1.00  0.00     0.057 A 
ATOM     82  C   UNL     1      16.687   6.667   9.383  1.00  0.00     0.134 A 
ATOM     83  C   UNL     1      14.770   5.563   8.501  1.00  0.00     0.134 A 
ATOM     84  F   UNL     1      17.366   7.261  10.375  1.00  0.00    -0.206 F 
ATOM     85  C   UNL     1      17.364   6.469   8.172  1.00  0.00     0.040 A 
ATOM     86  C   UNL     1      15.431   5.367   7.284  1.00  0.00     0.040 A 
ATOM     87  F   UNL     1      13.548   5.022   8.604  1.00  0.00    -0.206 F 
ATOM     88  C   UNL     1      16.740   5.803   7.123  1.00  0.00     0.006 A 
ENDBRANCH  60  81
BRANCH  72  89
ATOM     89  C   UNL     1      14.922   7.425  15.743  1.00  0.00     0.057 A 
ATOM     90  C   UNL     1      13.900   8.086  15.043  1.00  0.00     0.134 A 
ATOM     91  C   UNL     1      15.492   8.107  16.823  1.00  0.00     0.134 A 
ATOM     92  F   UNL     1      13.224   7.476  14.061  1.00  0.00    -0.206 F 
ATOM     93  C   UNL     1      13.505   9.387  15.371  1.00  0.00     0.040 A 
ATOM     94  C   UNL     1      15.081   9.392  17.184  1.00  0.00     0.040 A 
ATOM     95  F   UNL     1      16.434   7.516  17.574  1.00  0.00    -0.206 F 
ATOM     96  C   UNL     1      14.093  10.041  16.449  1.00  0.00     0.006 A 
ENDBRANCH  72  89
ENDBRANCH  46  47
ENDBRANCH  39  41
ENDBRANCH  38  39
ENDBRANCH  37  38
ENDBRANCH  36  37
ENDBRANCH  35  36
ENDBRANCH  34  35
ENDBRANCH  33  34
ENDBRANCH  32  33
ENDBRANCH   1  32
TORSDOF 24
