REMARK SMILES COc1cc(OC)cc(-c2ccc([C@@H](C)C(=O)OCCOCCOCCOCCOC(=O)c3ccc(-c4c5nc(c(-c6c(F)cccc6F)c6ccc([nH]6)c(-c6c(F)cccc6F)c6nc(c(-c7c(F)cccc7F)c7ccc4[nH]7)C=C6)C=C5)cc3)cc2F)c1
REMARK SMILES IDX 23 1 22 2 21 3 20 4 19 5 18 6 16 7 17 8 14 9 15 10 13 11
REMARK SMILES IDX 10 12 11 13 88 14 12 15 87 16 89 17 9 18 3 19 4 20 90 21
REMARK SMILES IDX 5 22 8 23 2 24 1 25 6 26 7 27 24 28 25 29 26 30 27 31 28 32
REMARK SMILES IDX 29 33 30 34 31 35 32 36 33 37 34 38 86 39 35 40 85 41 36 42
REMARK SMILES IDX 37 43 38 44 79 45 39 46 84 47 78 48 80 49 40 50 83 51 77 52
REMARK SMILES IDX 76 53 41 55 67 56 50 57 66 58 51 59 54 60 65 61 81 62 52 63
REMARK SMILES IDX 53 64 64 66 82 67 55 68 42 69 43 70 48 71 44 72 45 73 47 74
REMARK SMILES IDX 49 75 46 76 68 77 69 78 74 79 70 80 71 81 73 82 75 83 72 84
REMARK SMILES IDX 56 85 57 86 62 87 58 88 59 89 61 90 63 91 60 92
REMARK H PARENT 80 54 54 65
REMARK Flexibility Score: inf
ROOT
ATOM      1  C   UNL     1       7.413  -2.607  -2.931  1.00  0.00     0.188 C 
ENDROOT
BRANCH   1   2
ATOM      2  C   UNL     1       8.943  -2.520  -2.992  1.00  0.00     0.188 C 
BRANCH   2   3
ATOM      3  O   UNL     1       9.609  -2.263  -4.219  1.00  0.00    -0.376 OA
BRANCH   3   4
ATOM      4  C   UNL     1       9.163  -2.860  -5.427  1.00  0.00     0.202 C 
BRANCH   4   5
ATOM      5  C   UNL     1       8.880  -4.371  -5.528  1.00  0.00     0.261 C 
BRANCH   5   6
ATOM      6  O   UNL     1       8.034  -4.952  -4.513  1.00  0.00    -0.463 OA
BRANCH   6   7
ATOM      7  C   UNL     1       8.647  -5.732  -3.594  1.00  0.00     0.313 C 
ATOM      8  O   UNL     1       9.853  -5.975  -3.612  1.00  0.00    -0.252 OA
BRANCH   7   9
ATOM      9  C   UNL     1       7.745  -6.337  -2.517  1.00  0.00     0.126 C 
ATOM     10  C   UNL     1       7.644  -7.838  -2.765  1.00  0.00     0.025 C 
BRANCH   9  11
ATOM     11  C   UNL     1       6.376  -5.732  -2.198  1.00  0.00    -0.031 A 
ATOM     12  C   UNL     1       3.858  -4.546  -1.480  1.00  0.00     0.018 A 
ATOM     13  C   UNL     1       4.117  -5.003  -2.787  1.00  0.00     0.012 A 
ATOM     14  C   UNL     1       4.891  -4.684  -0.549  1.00  0.00     0.131 A 
ATOM     15  C   UNL     1       5.350  -5.589  -3.140  1.00  0.00     0.005 A 
ATOM     16  C   UNL     1       6.115  -5.277  -0.888  1.00  0.00     0.044 A 
ATOM     17  F   UNL     1       4.721  -4.269   0.716  1.00  0.00    -0.206 F 
BRANCH  12  18
ATOM     18  C   UNL     1       2.514  -4.072  -1.086  1.00  0.00    -0.008 A 
ATOM     19  C   UNL     1       0.983  -2.443  -0.109  1.00  0.00     0.123 A 
ATOM     20  C   UNL     1      -0.067  -3.356  -0.220  1.00  0.00     0.092 A 
ATOM     21  C   UNL     1       2.272  -2.802  -0.526  1.00  0.00     0.055 A 
ATOM     22  C   UNL     1       0.150  -4.620  -0.762  1.00  0.00     0.123 A 
ATOM     23  C   UNL     1       1.427  -4.961  -1.207  1.00  0.00     0.055 A 
BRANCH  19  24
ATOM     24  O   UNL     1       0.666  -1.270   0.522  1.00  0.00    -0.497 OA
ATOM     25  C   UNL     1       1.205  -0.100  -0.080  1.00  0.00     0.278 C 
ENDBRANCH  19  24
BRANCH  22  26
ATOM     26  O   UNL     1      -0.947  -5.436  -0.797  1.00  0.00    -0.497 OA
ATOM     27  C   UNL     1      -0.696  -6.816  -1.044  1.00  0.00     0.278 C 
ENDBRANCH  22  26
ENDBRANCH  12  18
ENDBRANCH   9  11
ENDBRANCH   7   9
ENDBRANCH   6   7
ENDBRANCH   5   6
ENDBRANCH   4   5
ENDBRANCH   3   4
ENDBRANCH   2   3
ENDBRANCH   1   2
BRANCH   1  28
ATOM     28  O   UNL     1       6.759  -2.649  -4.182  1.00  0.00    -0.377 OA
BRANCH  28  29
ATOM     29  C   UNL     1       6.172  -1.442  -4.640  1.00  0.00     0.188 C 
BRANCH  29  30
ATOM     30  C   UNL     1       6.920  -0.130  -4.341  1.00  0.00     0.188 C 
BRANCH  30  31
ATOM     31  O   UNL     1       7.263   0.040  -2.972  1.00  0.00    -0.376 OA
BRANCH  31  32
ATOM     32  C   UNL     1       6.395   0.788  -2.132  1.00  0.00     0.202 C 
BRANCH  32  33
ATOM     33  C   UNL     1       4.984   0.238  -1.855  1.00  0.00     0.261 C 
BRANCH  33  34
ATOM     34  O   UNL     1       4.134   0.004  -2.990  1.00  0.00    -0.460 OA
BRANCH  34  35
ATOM     35  C   UNL     1       3.879   1.033  -3.821  1.00  0.00     0.338 C 
ATOM     36  O   UNL     1       4.226   2.195  -3.681  1.00  0.00    -0.246 OA
BRANCH  35  37
ATOM     37  C   UNL     1       3.266   0.486  -5.052  1.00  0.00     0.060 A 
ATOM     38  C   UNL     1       3.912   0.691  -6.280  1.00  0.00     0.016 A 
ATOM     39  C   UNL     1       2.065  -0.224  -4.999  1.00  0.00     0.016 A 
ATOM     40  C   UNL     1       3.338   0.221  -7.462  1.00  0.00     0.010 A 
ATOM     41  C   UNL     1       1.476  -0.670  -6.188  1.00  0.00     0.010 A 
ATOM     42  C   UNL     1       2.092  -0.417  -7.427  1.00  0.00    -0.014 A 
BRANCH  42  43
ATOM     43  C   UNL     1       1.339  -0.630  -8.688  1.00  0.00     0.031 A 
ATOM     44  C   UNL     1       0.284   0.376  -9.065  1.00  0.00     0.074 A 
ATOM     45  C   UNL     1       1.592  -1.673  -9.497  1.00  0.00     0.049 A 
ATOM     46  N   UNL     1      -0.544   0.378 -10.077  1.00  0.00    -0.248 NA
ATOM     47  C   UNL     1       0.148   1.540  -8.173  1.00  0.00     0.031 C 
ATOM     48  C   UNL     1       2.623  -2.685  -9.277  1.00  0.00     0.029 A 
ATOM     49  N   UNL     1       0.987  -2.055 -10.669  1.00  0.00    -0.354 N 
ATOM     50  C   UNL     1      -1.303   1.534  -9.940  1.00  0.00     0.074 A 
ATOM     51  C   UNL     1      -0.861   2.191  -8.729  1.00  0.00     0.031 C 
ATOM     52  C   UNL     1       2.570  -3.583 -10.278  1.00  0.00     0.029 A 
ATOM     53  C   UNL     1       1.479  -3.229 -11.186  1.00  0.00     0.049 A 
ATOM     54  H   UNL     1       0.269  -1.537 -11.099  1.00  0.00     0.167 HD
ATOM     55  C   UNL     1      -2.276   2.011 -10.752  1.00  0.00     0.037 A 
ATOM     56  C   UNL     1       1.076  -3.946 -12.253  1.00  0.00     0.037 A 
ATOM     57  C   UNL     1      -2.722   1.350 -11.950  1.00  0.00     0.049 A 
ATOM     58  C   UNL     1      -0.078  -3.448 -13.088  1.00  0.00     0.074 A 
ATOM     59  C   UNL     1      -3.697   1.754 -12.845  1.00  0.00     0.029 A 
ATOM     60  N   UNL     1      -2.229   0.140 -12.415  1.00  0.00    -0.354 N 
ATOM     61  N   UNL     1      -0.779  -2.346 -12.961  1.00  0.00    -0.248 NA
ATOM     62  C   UNL     1      -0.496  -4.295 -14.215  1.00  0.00     0.031 C 
ATOM     63  C   UNL     1      -3.837   0.758 -13.817  1.00  0.00     0.029 A 
ATOM     64  C   UNL     1      -2.902  -0.233 -13.567  1.00  0.00     0.049 A 
ATOM     65  H   UNL     1      -1.508  -0.378 -11.989  1.00  0.00     0.167 HD
ATOM     66  C   UNL     1      -1.692  -2.350 -14.011  1.00  0.00     0.074 A 
ATOM     67  C   UNL     1      -1.449  -3.559 -14.769  1.00  0.00     0.031 C 
ATOM     68  C   UNL     1      -2.643  -1.434 -14.321  1.00  0.00     0.037 A 
BRANCH  55  69
ATOM     69  C   UNL     1      -2.946   3.292 -10.348  1.00  0.00     0.057 A 
ATOM     70  C   UNL     1      -2.280   4.524 -10.383  1.00  0.00     0.134 A 
ATOM     71  C   UNL     1      -4.285   3.296  -9.933  1.00  0.00     0.134 A 
ATOM     72  F   UNL     1      -0.992   4.591 -10.755  1.00  0.00    -0.206 F 
ATOM     73  C   UNL     1      -2.910   5.708  -9.993  1.00  0.00     0.040 A 
ATOM     74  C   UNL     1      -4.935   4.476  -9.571  1.00  0.00     0.040 A 
ATOM     75  F   UNL     1      -4.984   2.152  -9.879  1.00  0.00    -0.206 F 
ATOM     76  C   UNL     1      -4.245   5.686  -9.592  1.00  0.00     0.006 A 
ENDBRANCH  55  69
BRANCH  56  77
ATOM     77  C   UNL     1       1.751  -5.226 -12.595  1.00  0.00     0.057 A 
ATOM     78  C   UNL     1       2.493  -5.362 -13.775  1.00  0.00     0.134 A 
ATOM     79  C   UNL     1       1.641  -6.353 -11.772  1.00  0.00     0.134 A 
ATOM     80  F   UNL     1       2.614  -4.327 -14.619  1.00  0.00    -0.206 F 
ATOM     81  C   UNL     1       3.083  -6.575 -14.133  1.00  0.00     0.040 A 
ATOM     82  C   UNL     1       2.251  -7.565 -12.103  1.00  0.00     0.040 A 
ATOM     83  F   UNL     1       0.944  -6.292 -10.628  1.00  0.00    -0.206 F 
ATOM     84  C   UNL     1       2.967  -7.681 -13.293  1.00  0.00     0.006 A 
ENDBRANCH  56  77
BRANCH  68  85
ATOM     85  C   UNL     1      -3.460  -1.672 -15.560  1.00  0.00     0.057 A 
ATOM     86  C   UNL     1      -4.420  -2.689 -15.637  1.00  0.00     0.134 A 
ATOM     87  C   UNL     1      -3.316  -0.836 -16.676  1.00  0.00     0.134 A 
ATOM     88  F   UNL     1      -4.603  -3.532 -14.609  1.00  0.00    -0.206 F 
ATOM     89  C   UNL     1      -5.187  -2.883 -16.788  1.00  0.00     0.040 A 
ATOM     90  C   UNL     1      -4.099  -1.000 -17.819  1.00  0.00     0.040 A 
ATOM     91  F   UNL     1      -2.424   0.166 -16.666  1.00  0.00    -0.206 F 
ATOM     92  C   UNL     1      -5.033  -2.031 -17.880  1.00  0.00     0.006 A 
ENDBRANCH  68  85
ENDBRANCH  42  43
ENDBRANCH  35  37
ENDBRANCH  34  35
ENDBRANCH  33  34
ENDBRANCH  32  33
ENDBRANCH  31  32
ENDBRANCH  30  31
ENDBRANCH  29  30
ENDBRANCH  28  29
ENDBRANCH   1  28
TORSDOF 24
