REMARK SMILES O=C(OCCOCCOCCOCCOC(=O)[C@@H]1CS[C@@H](c2ncc(-c3cccc(Br)c3)s2)[NH2+]1)c1ccc(-c2c3nc(c(-c4c(F)cccc4F)c4ccc([nH]4)c(-c4c(F)cccc4F)c4nc(c(-c5c(F)cccc5F)c5ccc2[nH]5)C=C4)C=C3)cc1
REMARK SMILES IDX 9 1 8 2 7 3 6 4 5 5 4 6 3 7 2 8 1 9 35 10 36 11 88 12 37 13
REMARK SMILES IDX 87 14 38 15 39 16 40 17 81 18 41 19 86 20 80 21 82 22 42 23
REMARK SMILES IDX 85 24 79 25 78 26 43 28 69 29 52 30 68 31 53 32 56 33 67 34
REMARK SMILES IDX 83 35 54 36 55 37 66 39 84 40 57 41 44 42 45 43 50 44 46 45
REMARK SMILES IDX 47 46 49 47 51 48 48 49 70 50 71 51 76 52 72 53 73 54 75 55
REMARK SMILES IDX 77 56 74 57 58 58 59 59 64 60 60 61 61 62 63 63 65 64 62 65
REMARK SMILES IDX 10 66 11 67 12 68 13 69 14 70 15 71 16 72 17 73 18 74 19 75
REMARK SMILES IDX 34 76 20 77 21 78 22 81 23 82 33 83 24 84 25 85 26 86 27 87
REMARK SMILES IDX 32 88 28 89 30 90 29 91 31 92
REMARK H PARENT 82 27 56 38 34 79 34 80
REMARK Flexibility Score: inf
ROOT
ATOM      1  O   UNL     1       2.937  -2.488  -6.503  1.00  0.00    -0.377 OA
ENDROOT
BRANCH   1   2
ATOM      2  C   UNL     1       1.972  -3.180  -7.279  1.00  0.00     0.188 C 
BRANCH   2   3
ATOM      3  C   UNL     1       0.516  -2.825  -7.015  1.00  0.00     0.188 C 
BRANCH   3   4
ATOM      4  O   UNL     1       0.253  -1.440  -7.220  1.00  0.00    -0.376 OA
BRANCH   4   5
ATOM      5  C   UNL     1      -0.484  -0.777  -6.190  1.00  0.00     0.202 C 
BRANCH   5   6
ATOM      6  C   UNL     1      -1.931  -1.230  -6.008  1.00  0.00     0.261 C 
BRANCH   6   7
ATOM      7  O   UNL     1      -2.241  -2.519  -6.566  1.00  0.00    -0.460 OA
BRANCH   7   8
ATOM      8  C   UNL     1      -2.544  -2.878  -7.834  1.00  0.00     0.338 C 
ATOM      9  O   UNL     1      -2.838  -4.056  -8.050  1.00  0.00    -0.246 OA
BRANCH   8  10
ATOM     10  C   UNL     1      -2.545  -1.948  -9.001  1.00  0.00     0.060 A 
ATOM     11  C   UNL     1      -1.826  -0.760  -9.078  1.00  0.00     0.016 A 
ATOM     12  C   UNL     1      -3.282  -2.332 -10.134  1.00  0.00     0.016 A 
ATOM     13  C   UNL     1      -1.873   0.065 -10.179  1.00  0.00     0.010 A 
ATOM     14  C   UNL     1      -3.346  -1.508 -11.262  1.00  0.00     0.010 A 
ATOM     15  C   UNL     1      -2.673  -0.283 -11.254  1.00  0.00    -0.014 A 
BRANCH  15  16
ATOM     16  C   UNL     1      -2.996   0.817 -12.170  1.00  0.00     0.031 A 
ATOM     17  C   UNL     1      -4.307   1.508 -11.951  1.00  0.00     0.074 A 
ATOM     18  C   UNL     1      -2.040   1.324 -12.965  1.00  0.00     0.049 A 
ATOM     19  N   UNL     1      -4.848   2.494 -12.608  1.00  0.00    -0.248 NA
ATOM     20  C   UNL     1      -5.114   1.033 -10.809  1.00  0.00     0.031 C 
ATOM     21  C   UNL     1      -0.660   0.834 -13.046  1.00  0.00     0.029 A 
ATOM     22  N   UNL     1      -2.065   2.397 -13.808  1.00  0.00    -0.354 N 
ATOM     23  C   UNL     1      -6.077   2.714 -11.998  1.00  0.00     0.074 A 
ATOM     24  C   UNL     1      -6.202   1.774 -10.912  1.00  0.00     0.031 C 
ATOM     25  C   UNL     1       0.035   1.622 -13.882  1.00  0.00     0.029 A 
ATOM     26  C   UNL     1      -0.871   2.611 -14.452  1.00  0.00     0.049 A 
ATOM     27  H   UNL     1      -2.860   2.961 -13.942  1.00  0.00     0.167 HD
ATOM     28  C   UNL     1      -7.020   3.617 -12.342  1.00  0.00     0.037 A 
ATOM     29  C   UNL     1      -0.579   3.490 -15.425  1.00  0.00     0.037 A 
ATOM     30  C   UNL     1      -6.837   4.541 -13.427  1.00  0.00     0.049 A 
ATOM     31  C   UNL     1      -1.688   4.399 -15.883  1.00  0.00     0.074 A 
ATOM     32  C   UNL     1      -7.727   5.455 -13.952  1.00  0.00     0.029 A 
ATOM     33  N   UNL     1      -5.656   4.656 -14.153  1.00  0.00    -0.354 N 
ATOM     34  N   UNL     1      -2.902   4.529 -15.399  1.00  0.00    -0.248 NA
ATOM     35  C   UNL     1      -1.398   5.265 -17.029  1.00  0.00     0.031 C 
ATOM     36  C   UNL     1      -7.102   6.083 -15.035  1.00  0.00     0.029 A 
ATOM     37  C   UNL     1      -5.799   5.612 -15.139  1.00  0.00     0.049 A 
ATOM     38  H   UNL     1      -4.838   4.134 -13.988  1.00  0.00     0.167 HD
ATOM     39  C   UNL     1      -3.515   5.513 -16.159  1.00  0.00     0.074 A 
ATOM     40  C   UNL     1      -2.528   5.951 -17.131  1.00  0.00     0.031 C 
ATOM     41  C   UNL     1      -4.772   6.017 -16.069  1.00  0.00     0.037 A 
BRANCH  28  42
ATOM     42  C   UNL     1      -8.333   3.534 -11.621  1.00  0.00     0.057 A 
ATOM     43  C   UNL     1      -8.483   3.876 -10.270  1.00  0.00     0.134 A 
ATOM     44  C   UNL     1      -9.453   3.005 -12.277  1.00  0.00     0.134 A 
ATOM     45  F   UNL     1      -7.441   4.348  -9.567  1.00  0.00    -0.206 F 
ATOM     46  C   UNL     1      -9.685   3.657  -9.589  1.00  0.00     0.040 A 
ATOM     47  C   UNL     1     -10.666   2.809 -11.616  1.00  0.00     0.040 A 
ATOM     48  F   UNL     1      -9.377   2.640 -13.566  1.00  0.00    -0.206 F 
ATOM     49  C   UNL     1     -10.781   3.123 -10.264  1.00  0.00     0.006 A 
ENDBRANCH  28  42
BRANCH  29  50
ATOM     50  C   UNL     1       0.766   3.507 -16.054  1.00  0.00     0.057 A 
ATOM     51  C   UNL     1       1.604   4.623 -15.962  1.00  0.00     0.134 A 
ATOM     52  C   UNL     1       1.248   2.405 -16.777  1.00  0.00     0.134 A 
ATOM     53  F   UNL     1       1.200   5.717 -15.299  1.00  0.00    -0.206 F 
ATOM     54  C   UNL     1       2.859   4.652 -16.576  1.00  0.00     0.040 A 
ATOM     55  C   UNL     1       2.511   2.409 -17.372  1.00  0.00     0.040 A 
ATOM     56  F   UNL     1       0.500   1.299 -16.907  1.00  0.00    -0.206 F 
ATOM     57  C   UNL     1       3.317   3.540 -17.279  1.00  0.00     0.006 A 
ENDBRANCH  29  50
BRANCH  41  58
ATOM     58  C   UNL     1      -5.112   7.137 -17.003  1.00  0.00     0.057 A 
ATOM     59  C   UNL     1      -5.309   6.931 -18.373  1.00  0.00     0.134 A 
ATOM     60  C   UNL     1      -5.290   8.434 -16.504  1.00  0.00     0.134 A 
ATOM     61  F   UNL     1      -5.139   5.713 -18.910  1.00  0.00    -0.206 F 
ATOM     62  C   UNL     1      -5.644   7.984 -19.222  1.00  0.00     0.040 A 
ATOM     63  C   UNL     1      -5.660   9.487 -17.337  1.00  0.00     0.040 A 
ATOM     64  F   UNL     1      -5.128   8.690 -15.197  1.00  0.00    -0.206 F 
ATOM     65  C   UNL     1      -5.829   9.265 -18.702  1.00  0.00     0.006 A 
ENDBRANCH  41  58
ENDBRANCH  15  16
ENDBRANCH   8  10
ENDBRANCH   7   8
ENDBRANCH   6   7
ENDBRANCH   5   6
ENDBRANCH   4   5
ENDBRANCH   3   4
ENDBRANCH   2   3
ENDBRANCH   1   2
BRANCH   1  66
ATOM     66  C   UNL     1       2.812  -1.081  -6.376  1.00  0.00     0.188 C 
BRANCH  66  67
ATOM     67  C   UNL     1       3.052  -0.156  -7.582  1.00  0.00     0.188 C 
BRANCH  67  68
ATOM     68  O   UNL     1       2.677  -0.639  -8.851  1.00  0.00    -0.376 OA
BRANCH  68  69
ATOM     69  C   UNL     1       3.604  -1.376  -9.639  1.00  0.00     0.202 C 
BRANCH  69  70
ATOM     70  C   UNL     1       5.016  -1.812  -9.177  1.00  0.00     0.261 C 
BRANCH  70  71
ATOM     71  O   UNL     1       5.234  -1.878  -7.762  1.00  0.00    -0.459 OA
BRANCH  71  72
ATOM     72  C   UNL     1       6.270  -1.152  -7.248  1.00  0.00     0.365 C 
ATOM     73  O   UNL     1       7.100  -0.572  -7.928  1.00  0.00    -0.245 OA
BRANCH  72  74
ATOM     74  C   UNL     1       6.156  -0.939  -5.721  1.00  0.00     0.304 C 
ATOM     75  C   UNL     1       7.498  -0.771  -5.030  1.00  0.00     0.153 C 
ATOM     76  N   UNL     1       5.386  -1.959  -4.984  1.00  0.00    -0.317 N 
ATOM     77  S   UNL     1       7.838  -2.354  -4.200  1.00  0.00    -0.085 SA
ATOM     78  C   UNL     1       6.245  -3.090  -4.660  1.00  0.00     0.303 C 
ATOM     79  H   UNL     1       4.610  -2.279  -5.563  1.00  0.00     0.348 HD
ATOM     80  H   UNL     1       5.029  -1.550  -4.121  1.00  0.00     0.348 HD
BRANCH  78  81
ATOM     81  C   UNL     1       5.565  -4.000  -3.639  1.00  0.00     0.162 A 
ATOM     82  N   UNL     1       4.686  -4.929  -3.978  1.00  0.00    -0.242 NA
ATOM     83  S   UNL     1       5.777  -3.828  -1.931  1.00  0.00    -0.112 S 
ATOM     84  C   UNL     1       4.187  -5.560  -2.857  1.00  0.00     0.132 A 
ATOM     85  C   UNL     1       4.704  -5.140  -1.649  1.00  0.00     0.055 A 
BRANCH  85  86
ATOM     86  C   UNL     1       4.502  -5.690  -0.308  1.00  0.00    -0.006 A 
ATOM     87  C   UNL     1       4.713  -7.062  -0.091  1.00  0.00     0.010 A 
ATOM     88  C   UNL     1       4.120  -4.887   0.775  1.00  0.00     0.025 A 
ATOM     89  C   UNL     1       4.579  -7.616   1.184  1.00  0.00     0.002 A 
ATOM     90  C   UNL     1       3.983  -5.449   2.048  1.00  0.00     0.018 A 
ATOM     91  C   UNL     1       4.218  -6.807   2.259  1.00  0.00     0.016 A 
ATOM     92  Br  UNL     1       3.484  -4.355   3.508  1.00  0.00    -0.051 Br
ENDBRANCH  85  86
ENDBRANCH  78  81
ENDBRANCH  72  74
ENDBRANCH  71  72
ENDBRANCH  70  71
ENDBRANCH  69  70
ENDBRANCH  68  69
ENDBRANCH  67  68
ENDBRANCH  66  67
ENDBRANCH   1  66
TORSDOF 22
