REMARK SMILES CC[C@H]1CCCC[C@@H]1Sc1csc(C(=O)OCCOCCOCCOCCOC(=O)c2ccc(-c3c4nc(c(-c5c(F)cccc5F)c5ccc([nH]5)c(-c5c(F)cccc5F)c5nc(c(-c6c(F)cccc6F)c6ccc3[nH]6)C=C5)C=C4)cc2)c1
REMARK SMILES IDX 21 1 20 2 19 3 18 4 17 5 16 6 14 7 15 8 13 9 10 10 11 11
REMARK SMILES IDX 85 12 12 13 9 14 8 15 3 16 4 17 5 18 7 19 6 20 2 21 1 22
REMARK SMILES IDX 22 23 23 24 24 25 25 26 26 27 27 28 28 29 29 30 30 31 31 32
REMARK SMILES IDX 32 33 84 34 33 35 83 36 34 37 35 38 36 39 77 40 37 41 82 42
REMARK SMILES IDX 76 43 78 44 38 45 81 46 75 47 74 48 39 50 65 51 48 52 64 53
REMARK SMILES IDX 49 54 52 55 63 56 79 57 50 58 51 59 62 61 80 62 53 63 40 64
REMARK SMILES IDX 41 65 46 66 42 67 43 68 45 69 47 70 44 71 66 72 67 73 72 74
REMARK SMILES IDX 68 75 69 76 71 77 73 78 70 79 54 80 55 81 60 82 56 83 57 84
REMARK SMILES IDX 59 85 61 86 58 87
REMARK H PARENT 78 49 52 60
REMARK Flexibility Score: inf
ROOT
ATOM      1  C   UNL     1      -3.324  -5.341   5.527  1.00  0.00     0.188 C 
ENDROOT
BRANCH   1   2
ATOM      2  C   UNL     1      -3.192  -4.878   6.987  1.00  0.00     0.188 C 
BRANCH   2   3
ATOM      3  O   UNL     1      -4.444  -4.558   7.595  1.00  0.00    -0.376 OA
BRANCH   3   4
ATOM      4  C   UNL     1      -4.706  -3.174   7.795  1.00  0.00     0.202 C 
BRANCH   4   5
ATOM      5  C   UNL     1      -5.095  -2.404   6.526  1.00  0.00     0.261 C 
BRANCH   5   6
ATOM      6  O   UNL     1      -4.058  -2.312   5.537  1.00  0.00    -0.459 OA
BRANCH   6   7
ATOM      7  C   UNL     1      -2.912  -1.669   5.888  1.00  0.00     0.348 C 
ATOM      8  O   UNL     1      -2.746  -1.082   6.950  1.00  0.00    -0.245 OA
BRANCH   7   9
ATOM      9  C   UNL     1      -1.920  -1.893   4.858  1.00  0.00     0.113 A 
ATOM     10  C   UNL     1      -0.876  -2.360   2.818  1.00  0.00     0.019 A 
ATOM     11  C   UNL     1       0.199  -2.330   3.674  1.00  0.00     0.080 A 
ATOM     12  C   UNL     1      -2.102  -2.134   3.509  1.00  0.00     0.042 A 
ATOM     13  S   UNL     1      -0.263  -1.952   5.281  1.00  0.00    -0.136 S 
BRANCH  10  14
ATOM     14  S   UNL     1      -0.883  -2.625   1.081  1.00  0.00    -0.122 SA
BRANCH  14  15
ATOM     15  C   UNL     1       0.879  -2.909   0.627  1.00  0.00     0.055 C 
ATOM     16  C   UNL     1       1.083  -2.494  -0.855  1.00  0.00     0.002 C 
ATOM     17  C   UNL     1       0.538  -3.540  -1.846  1.00  0.00     0.005 C 
ATOM     18  C   UNL     1       0.982  -4.965  -1.548  1.00  0.00     0.000 C 
ATOM     19  C   UNL     1       1.241  -4.380   0.903  1.00  0.00     0.015 C 
ATOM     20  C   UNL     1       0.667  -5.366  -0.114  1.00  0.00     0.001 C 
BRANCH  16  21
ATOM     21  C   UNL     1       2.524  -2.037  -1.208  1.00  0.00     0.001 C 
ATOM     22  C   UNL     1       3.695  -2.805  -0.619  1.00  0.00     0.004 C 
ENDBRANCH  16  21
ENDBRANCH  14  15
ENDBRANCH  10  14
ENDBRANCH   7   9
ENDBRANCH   6   7
ENDBRANCH   5   6
ENDBRANCH   4   5
ENDBRANCH   3   4
ENDBRANCH   2   3
ENDBRANCH   1   2
BRANCH   1  23
ATOM     23  O   UNL     1      -4.637  -5.249   5.002  1.00  0.00    -0.377 OA
BRANCH  23  24
ATOM     24  C   UNL     1      -5.619  -6.188   5.435  1.00  0.00     0.188 C 
BRANCH  24  25
ATOM     25  C   UNL     1      -5.379  -7.166   6.606  1.00  0.00     0.188 C 
BRANCH  25  26
ATOM     26  O   UNL     1      -4.090  -7.775   6.610  1.00  0.00    -0.376 OA
BRANCH  26  27
ATOM     27  C   UNL     1      -4.053  -9.165   6.312  1.00  0.00     0.202 C 
BRANCH  27  28
ATOM     28  C   UNL     1      -4.076  -9.443   4.805  1.00  0.00     0.261 C 
BRANCH  28  29
ATOM     29  O   UNL     1      -5.303  -9.067   4.159  1.00  0.00    -0.460 OA
BRANCH  29  30
ATOM     30  C   UNL     1      -6.417  -9.712   4.569  1.00  0.00     0.338 C 
ATOM     31  O   UNL     1      -6.492 -10.620   5.377  1.00  0.00    -0.246 OA
BRANCH  30  32
ATOM     32  C   UNL     1      -7.585  -9.021   3.994  1.00  0.00     0.060 A 
ATOM     33  C   UNL     1      -8.607  -8.610   4.856  1.00  0.00     0.016 A 
ATOM     34  C   UNL     1      -7.682  -8.810   2.616  1.00  0.00     0.016 A 
ATOM     35  C   UNL     1      -9.763  -8.034   4.331  1.00  0.00     0.010 A 
ATOM     36  C   UNL     1      -8.844  -8.245   2.091  1.00  0.00     0.010 A 
ATOM     37  C   UNL     1      -9.905  -7.895   2.943  1.00  0.00    -0.014 A 
BRANCH  37  38
ATOM     38  C   UNL     1     -11.239  -7.591   2.377  1.00  0.00     0.031 A 
ATOM     39  C   UNL     1     -12.117  -8.742   1.970  1.00  0.00     0.074 A 
ATOM     40  C   UNL     1     -11.673  -6.327   2.249  1.00  0.00     0.049 A 
ATOM     41  N   UNL     1     -13.324  -8.730   1.467  1.00  0.00    -0.248 NA
ATOM     42  C   UNL     1     -11.555 -10.091   2.157  1.00  0.00     0.031 C 
ATOM     43  C   UNL     1     -10.923  -5.130   2.621  1.00  0.00     0.029 A 
ATOM     44  N   UNL     1     -12.862  -5.845   1.762  1.00  0.00    -0.354 N 
ATOM     45  C   UNL     1     -13.669 -10.063   1.290  1.00  0.00     0.074 A 
ATOM     46  C   UNL     1     -12.531 -10.857   1.698  1.00  0.00     0.031 C 
ATOM     47  C   UNL     1     -11.667  -4.046   2.338  1.00  0.00     0.029 A 
ATOM     48  C   UNL     1     -12.937  -4.474   1.753  1.00  0.00     0.049 A 
ATOM     49  H   UNL     1     -13.591  -6.427   1.448  1.00  0.00     0.167 HD
ATOM     50  C   UNL     1     -14.836 -10.583   0.842  1.00  0.00     0.037 A 
ATOM     51  C   UNL     1     -13.918  -3.664   1.312  1.00  0.00     0.037 A 
ATOM     52  C   UNL     1     -15.962  -9.797   0.417  1.00  0.00     0.049 A 
ATOM     53  C   UNL     1     -15.184  -4.265   0.758  1.00  0.00     0.074 A 
ATOM     54  C   UNL     1     -17.189 -10.230  -0.054  1.00  0.00     0.029 A 
ATOM     55  N   UNL     1     -15.992  -8.412   0.404  1.00  0.00    -0.354 N 
ATOM     56  N   UNL     1     -15.516  -5.527   0.631  1.00  0.00    -0.248 NA
ATOM     57  C   UNL     1     -16.215  -3.325   0.293  1.00  0.00     0.031 C 
ATOM     58  C   UNL     1     -17.949  -9.104  -0.387  1.00  0.00     0.029 A 
ATOM     59  C   UNL     1     -17.210  -7.971  -0.084  1.00  0.00     0.049 A 
ATOM     60  H   UNL     1     -15.256  -7.827   0.698  1.00  0.00     0.167 HD
ATOM     61  C   UNL     1     -16.799  -5.533   0.098  1.00  0.00     0.074 A 
ATOM     62  C   UNL     1     -17.192  -4.148  -0.062  1.00  0.00     0.031 C 
ATOM     63  C   UNL     1     -17.584  -6.588  -0.231  1.00  0.00     0.037 A 
BRANCH  50  64
ATOM     64  C   UNL     1     -14.937 -12.077   0.780  1.00  0.00     0.057 A 
ATOM     65  C   UNL     1     -15.062 -12.852   1.941  1.00  0.00     0.134 A 
ATOM     66  C   UNL     1     -14.916 -12.747  -0.448  1.00  0.00     0.134 A 
ATOM     67  F   UNL     1     -15.067 -12.270   3.150  1.00  0.00    -0.206 F 
ATOM     68  C   UNL     1     -15.143 -14.244   1.882  1.00  0.00     0.040 A 
ATOM     69  C   UNL     1     -15.019 -14.137  -0.521  1.00  0.00     0.040 A 
ATOM     70  F   UNL     1     -14.796 -12.062  -1.596  1.00  0.00    -0.206 F 
ATOM     71  C   UNL     1     -15.126 -14.889   0.647  1.00  0.00     0.006 A 
ENDBRANCH  50  64
BRANCH  51  72
ATOM     72  C   UNL     1     -13.749  -2.191   1.370  1.00  0.00     0.057 A 
ATOM     73  C   UNL     1     -14.496  -1.409   2.257  1.00  0.00     0.134 A 
ATOM     74  C   UNL     1     -12.862  -1.529   0.514  1.00  0.00     0.134 A 
ATOM     75  F   UNL     1     -15.381  -1.984   3.084  1.00  0.00    -0.206 F 
ATOM     76  C   UNL     1     -14.381  -0.018   2.280  1.00  0.00     0.040 A 
ATOM     77  C   UNL     1     -12.720  -0.141   0.540  1.00  0.00     0.040 A 
ATOM     78  F   UNL     1     -12.120  -2.223  -0.361  1.00  0.00    -0.206 F 
ATOM     79  C   UNL     1     -13.487   0.620   1.421  1.00  0.00     0.006 A 
ENDBRANCH  51  72
BRANCH  63  80
ATOM     80  C   UNL     1     -18.953  -6.287  -0.766  1.00  0.00     0.057 A 
ATOM     81  C   UNL     1     -19.146  -5.794  -2.062  1.00  0.00     0.134 A 
ATOM     82  C   UNL     1     -20.092  -6.530   0.011  1.00  0.00     0.134 A 
ATOM     83  F   UNL     1     -18.095  -5.530  -2.853  1.00  0.00    -0.206 F 
ATOM     84  C   UNL     1     -20.424  -5.532  -2.559  1.00  0.00     0.040 A 
ATOM     85  C   UNL     1     -21.376  -6.295  -0.482  1.00  0.00     0.040 A 
ATOM     86  F   UNL     1     -19.976  -7.012   1.258  1.00  0.00    -0.206 F 
ATOM     87  C   UNL     1     -21.544  -5.789  -1.770  1.00  0.00     0.006 A 
ENDBRANCH  63  80
ENDBRANCH  37  38
ENDBRANCH  30  32
ENDBRANCH  29  30
ENDBRANCH  28  29
ENDBRANCH  27  28
ENDBRANCH  26  27
ENDBRANCH  25  26
ENDBRANCH  24  25
ENDBRANCH  23  24
ENDBRANCH   1  23
TORSDOF 23
