REMARK SMILES Cc1ccccc1OC1(C(=O)OCCOCCOCCOCCOC(=O)c2ccc(-c3c4nc(c(-c5c(F)cccc5F)c5ccc([nH]5)c(-c5c(F)cccc5F)c5nc(c(-c6c(F)cccc6F)c6ccc3[nH]6)C=C5)C=C4)cc2)CCN(C(=O)[C@H]2CCCCO2)CC1
REMARK SMILES IDX 18 1 17 2 16 3 15 4 14 5 13 6 12 7 10 8 11 9 9 10 81 11
REMARK SMILES IDX 93 12 82 13 92 14 83 15 84 16 85 17 8 18 7 19 1 20 2 21 3 22
REMARK SMILES IDX 4 23 6 24 5 25 86 26 87 27 91 28 88 29 90 30 89 31 19 32
REMARK SMILES IDX 20 33 21 34 22 35 23 36 24 37 25 38 26 39 27 40 28 41 80 42
REMARK SMILES IDX 29 43 79 44 30 45 31 46 32 47 73 48 33 49 78 50 72 51 74 52
REMARK SMILES IDX 34 53 77 54 71 55 70 56 35 58 61 59 44 60 60 61 45 62 48 63
REMARK SMILES IDX 59 64 75 65 46 66 47 67 58 69 76 70 49 71 36 72 37 73 42 74
REMARK SMILES IDX 38 75 39 76 41 77 43 78 40 79 62 80 63 81 68 82 64 83 65 84
REMARK SMILES IDX 67 85 69 86 66 87 50 88 51 89 56 90 52 91 53 92 55 93 57 94
REMARK SMILES IDX 54 95
REMARK H PARENT 74 57 48 68
REMARK Flexibility Score: inf
ROOT
ATOM      1  O   UNL     1       8.045  -7.264  -1.405  1.00  0.00    -0.377 OA
ENDROOT
BRANCH   1   2
ATOM      2  C   UNL     1       7.490  -8.401  -0.749  1.00  0.00     0.188 C 
BRANCH   2   3
ATOM      3  C   UNL     1       6.320  -9.053  -1.500  1.00  0.00     0.188 C 
BRANCH   3   4
ATOM      4  O   UNL     1       6.589  -9.524  -2.817  1.00  0.00    -0.376 OA
BRANCH   4   5
ATOM      5  C   UNL     1       6.593  -8.526  -3.837  1.00  0.00     0.202 C 
BRANCH   5   6
ATOM      6  C   UNL     1       5.225  -7.915  -4.135  1.00  0.00     0.261 C 
BRANCH   6   7
ATOM      7  O   UNL     1       5.016  -6.802  -3.261  1.00  0.00    -0.460 OA
BRANCH   7   8
ATOM      8  C   UNL     1       3.854  -6.740  -2.561  1.00  0.00     0.350 C 
ATOM      9  O   UNL     1       2.873  -7.397  -2.822  1.00  0.00    -0.247 OA
BRANCH   8  10
ATOM     10  C   UNL     1       4.020  -5.741  -1.375  1.00  0.00     0.209 C 
ATOM     11  C   UNL     1       5.425  -5.842  -0.759  1.00  0.00     0.082 C 
ATOM     12  C   UNL     1       3.885  -4.326  -1.962  1.00  0.00     0.082 C 
ATOM     13  C   UNL     1       6.100  -4.593  -0.214  1.00  0.00     0.124 C 
ATOM     14  C   UNL     1       4.106  -3.242  -0.907  1.00  0.00     0.124 C 
ATOM     15  N   UNL     1       5.244  -3.444  -0.012  1.00  0.00    -0.340 N 
ATOM     16  C   UNL     1       5.617  -2.571   1.021  1.00  0.00     0.251 C 
ATOM     17  O   UNL     1       6.673  -2.733   1.642  1.00  0.00    -0.272 OA
BRANCH  10  18
ATOM     18  O   UNL     1       2.962  -5.846  -0.413  1.00  0.00    -0.475 OA
BRANCH  18  19
ATOM     19  C   UNL     1       2.834  -6.904   0.453  1.00  0.00     0.123 A 
ATOM     20  C   UNL     1       3.674  -5.418   2.332  1.00  0.00     0.048 C 
ATOM     21  C   UNL     1       2.937  -6.609   1.821  1.00  0.00    -0.009 A 
ATOM     22  C   UNL     1       2.307  -7.427   2.768  1.00  0.00     0.007 A 
ATOM     23  C   UNL     1       1.637  -8.575   2.371  1.00  0.00     0.001 A 
ATOM     24  C   UNL     1       2.237  -8.107   0.071  1.00  0.00     0.047 A 
ATOM     25  C   UNL     1       1.651  -8.944   1.030  1.00  0.00     0.004 A 
ENDBRANCH  18  19
ENDBRANCH  10  18
BRANCH  16  26
ATOM     26  C   UNL     1       4.629  -1.447   1.414  1.00  0.00     0.207 C 
ATOM     27  C   UNL     1       3.503  -2.056   2.256  1.00  0.00     0.042 C 
ATOM     28  O   UNL     1       5.297  -0.439   2.183  1.00  0.00    -0.368 OA
ATOM     29  C   UNL     1       2.543  -0.997   2.771  1.00  0.00     0.006 C 
ATOM     30  C   UNL     1       4.433   0.619   2.586  1.00  0.00     0.161 C 
ATOM     31  C   UNL     1       3.314   0.103   3.479  1.00  0.00     0.029 C 
ENDBRANCH  16  26
ENDBRANCH   8  10
ENDBRANCH   7   8
ENDBRANCH   6   7
ENDBRANCH   5   6
ENDBRANCH   4   5
ENDBRANCH   3   4
ENDBRANCH   2   3
ENDBRANCH   1   2
BRANCH   1  32
ATOM     32  C   UNL     1       9.451  -7.156  -1.226  1.00  0.00     0.188 C 
BRANCH  32  33
ATOM     33  C   UNL     1      10.197  -8.011  -2.238  1.00  0.00     0.188 C 
BRANCH  33  34
ATOM     34  O   UNL     1       9.703  -9.328  -2.441  1.00  0.00    -0.376 OA
BRANCH  34  35
ATOM     35  C   UNL     1      10.234 -10.419  -1.698  1.00  0.00     0.202 C 
BRANCH  35  36
ATOM     36  C   UNL     1      11.762 -10.523  -1.665  1.00  0.00     0.261 C 
BRANCH  36  37
ATOM     37  O   UNL     1      12.258 -10.655  -3.012  1.00  0.00    -0.460 OA
BRANCH  37  38
ATOM     38  C   UNL     1      12.874  -9.554  -3.522  1.00  0.00     0.338 C 
ATOM     39  O   UNL     1      13.729  -8.897  -2.948  1.00  0.00    -0.246 OA
BRANCH  38  40
ATOM     40  C   UNL     1      12.123  -9.060  -4.720  1.00  0.00     0.060 A 
ATOM     41  C   UNL     1      12.379  -7.764  -5.200  1.00  0.00     0.016 A 
ATOM     42  C   UNL     1      10.934  -9.692  -5.068  1.00  0.00     0.016 A 
ATOM     43  C   UNL     1      11.360  -7.030  -5.834  1.00  0.00     0.010 A 
ATOM     44  C   UNL     1       9.906  -8.924  -5.590  1.00  0.00     0.010 A 
ATOM     45  C   UNL     1      10.076  -7.568  -5.922  1.00  0.00    -0.014 A 
BRANCH  45  46
ATOM     46  C   UNL     1       8.827  -6.780  -6.091  1.00  0.00     0.031 A 
ATOM     47  C   UNL     1       7.726  -7.314  -6.975  1.00  0.00     0.074 A 
ATOM     48  C   UNL     1       8.552  -5.794  -5.191  1.00  0.00     0.049 A 
ATOM     49  N   UNL     1       6.560  -6.778  -7.124  1.00  0.00    -0.248 NA
ATOM     50  C   UNL     1       7.848  -8.533  -7.780  1.00  0.00     0.031 C 
ATOM     51  C   UNL     1       7.226  -5.352  -4.755  1.00  0.00     0.029 A 
ATOM     52  N   UNL     1       9.400  -4.986  -4.425  1.00  0.00    -0.354 N 
ATOM     53  C   UNL     1       5.713  -7.701  -7.718  1.00  0.00     0.074 A 
ATOM     54  C   UNL     1       6.589  -8.739  -8.187  1.00  0.00     0.031 C 
ATOM     55  C   UNL     1       7.323  -4.362  -3.858  1.00  0.00     0.029 A 
ATOM     56  C   UNL     1       8.669  -3.880  -3.942  1.00  0.00     0.049 A 
ATOM     57  H   UNL     1      10.353  -5.162  -4.250  1.00  0.00     0.167 HD
ATOM     58  C   UNL     1       4.358  -7.531  -7.622  1.00  0.00     0.037 A 
ATOM     59  C   UNL     1       8.921  -2.609  -4.384  1.00  0.00     0.037 A 
ATOM     60  C   UNL     1       4.021  -6.210  -7.066  1.00  0.00     0.049 A 
ATOM     61  C   UNL     1       7.811  -2.070  -5.287  1.00  0.00     0.074 A 
ATOM     62  C   UNL     1       3.235  -5.760  -6.019  1.00  0.00     0.029 A 
ATOM     63  N   UNL     1       4.688  -5.086  -7.551  1.00  0.00    -0.354 N 
ATOM     64  N   UNL     1       6.960  -2.856  -5.911  1.00  0.00    -0.248 NA
ATOM     65  C   UNL     1       7.466  -0.661  -5.474  1.00  0.00     0.031 C 
ATOM     66  C   UNL     1       3.543  -4.385  -5.802  1.00  0.00     0.029 A 
ATOM     67  C   UNL     1       4.452  -3.980  -6.769  1.00  0.00     0.049 A 
ATOM     68  H   UNL     1       5.257  -5.084  -8.355  1.00  0.00     0.167 HD
ATOM     69  C   UNL     1       5.983  -2.122  -6.516  1.00  0.00     0.074 A 
ATOM     70  C   UNL     1       6.356  -0.749  -6.236  1.00  0.00     0.031 C 
ATOM     71  C   UNL     1       4.934  -2.674  -7.197  1.00  0.00     0.037 A 
BRANCH  58  72
ATOM     72  C   UNL     1       3.289  -8.602  -7.853  1.00  0.00     0.057 A 
ATOM     73  C   UNL     1       1.922  -8.245  -7.924  1.00  0.00     0.134 A 
ATOM     74  C   UNL     1       3.510  -9.994  -7.883  1.00  0.00     0.134 A 
ATOM     75  F   UNL     1       1.538  -6.961  -7.929  1.00  0.00    -0.206 F 
ATOM     76  C   UNL     1       0.876  -9.183  -7.987  1.00  0.00     0.040 A 
ATOM     77  C   UNL     1       2.474 -10.942  -8.004  1.00  0.00     0.040 A 
ATOM     78  F   UNL     1       4.732 -10.522  -7.742  1.00  0.00    -0.206 F 
ATOM     79  C   UNL     1       1.149 -10.540  -8.037  1.00  0.00     0.006 A 
ENDBRANCH  58  72
BRANCH  59  80
ATOM     80  C   UNL     1      10.381  -2.303  -4.272  1.00  0.00     0.057 A 
ATOM     81  C   UNL     1      10.835  -2.294  -2.934  1.00  0.00     0.134 A 
ATOM     82  C   UNL     1      11.259  -2.844  -5.222  1.00  0.00     0.134 A 
ATOM     83  F   UNL     1      10.080  -1.727  -1.979  1.00  0.00    -0.206 F 
ATOM     84  C   UNL     1      11.911  -3.088  -2.521  1.00  0.00     0.040 A 
ATOM     85  C   UNL     1      12.367  -3.608  -4.819  1.00  0.00     0.040 A 
ATOM     86  F   UNL     1      10.934  -2.846  -6.522  1.00  0.00    -0.206 F 
ATOM     87  C   UNL     1      12.640  -3.803  -3.464  1.00  0.00     0.006 A 
ENDBRANCH  59  80
BRANCH  71  88
ATOM     88  C   UNL     1       4.240  -2.024  -8.374  1.00  0.00     0.057 A 
ATOM     89  C   UNL     1       4.824  -1.005  -9.139  1.00  0.00     0.134 A 
ATOM     90  C   UNL     1       3.060  -2.580  -8.927  1.00  0.00     0.134 A 
ATOM     91  F   UNL     1       6.004  -0.463  -8.809  1.00  0.00    -0.206 F 
ATOM     92  C   UNL     1       4.256  -0.538 -10.330  1.00  0.00     0.040 A 
ATOM     93  C   UNL     1       2.518  -2.162 -10.145  1.00  0.00     0.040 A 
ATOM     94  F   UNL     1       2.400  -3.589  -8.340  1.00  0.00    -0.206 F 
ATOM     95  C   UNL     1       3.109  -1.125 -10.845  1.00  0.00     0.006 A 
ENDBRANCH  71  88
ENDBRANCH  45  46
ENDBRANCH  38  40
ENDBRANCH  37  38
ENDBRANCH  36  37
ENDBRANCH  35  36
ENDBRANCH  34  35
ENDBRANCH  33  34
ENDBRANCH  32  33
ENDBRANCH   1  32
TORSDOF 23
