REMARK SMILES O=C(OCCOCCOCCOCCOC(=O)[C@@H]1CCCC[C@@H]1Sc1ccncc1)c1ccc(-c2c3nc(c(-c4c(F)cccc4F)c4ccc([nH]4)c(-c4c(F)cccc4F)c4nc(c(-c5c(F)cccc5F)c5ccc2[nH]5)C=C4)C=C3)cc1
REMARK SMILES IDX 9 1 8 2 7 3 6 4 5 5 4 6 3 7 2 8 1 9 31 10 32 11 84 12 33 13
REMARK SMILES IDX 83 14 34 15 35 16 36 17 77 18 37 19 82 20 76 21 78 22 38 23
REMARK SMILES IDX 81 24 75 25 74 26 39 28 65 29 48 30 64 31 49 32 52 33 63 34
REMARK SMILES IDX 79 35 50 36 51 37 62 39 80 40 53 41 40 42 41 43 46 44 42 45
REMARK SMILES IDX 43 46 45 47 47 48 44 49 66 50 67 51 72 52 68 53 69 54 71 55
REMARK SMILES IDX 73 56 70 57 54 58 55 59 60 60 56 61 57 62 59 63 61 64 58 65
REMARK SMILES IDX 10 66 11 67 12 68 13 69 14 70 15 71 16 72 17 73 18 74 19 75
REMARK SMILES IDX 23 76 20 77 22 78 21 79 24 80 25 81 26 82 30 83 27 84 29 85
REMARK SMILES IDX 28 86
REMARK H PARENT 78 27 52 38
REMARK Flexibility Score: inf
ROOT
ATOM      1  O   UNL     1       3.442  -3.161  -1.830  1.00  0.00    -0.377 OA
ENDROOT
BRANCH   1   2
ATOM      2  C   UNL     1       2.438  -2.206  -1.539  1.00  0.00     0.188 C 
BRANCH   2   3
ATOM      3  C   UNL     1       2.724  -1.374  -0.313  1.00  0.00     0.188 C 
BRANCH   3   4
ATOM      4  O   UNL     1       3.998  -0.778  -0.453  1.00  0.00    -0.376 OA
BRANCH   4   5
ATOM      5  C   UNL     1       4.851  -0.723   0.676  1.00  0.00     0.202 C 
BRANCH   5   6
ATOM      6  C   UNL     1       4.274  -0.095   1.934  1.00  0.00     0.261 C 
BRANCH   6   7
ATOM      7  O   UNL     1       2.906   0.358   1.886  1.00  0.00    -0.460 OA
BRANCH   7   8
ATOM      8  C   UNL     1       2.255   1.345   1.248  1.00  0.00     0.338 C 
ATOM      9  O   UNL     1       1.036   1.459   1.455  1.00  0.00    -0.246 OA
BRANCH   8  10
ATOM     10  C   UNL     1       2.862   2.326   0.316  1.00  0.00     0.060 A 
ATOM     11  C   UNL     1       3.915   2.067  -0.556  1.00  0.00     0.016 A 
ATOM     12  C   UNL     1       2.241   3.582   0.224  1.00  0.00     0.016 A 
ATOM     13  C   UNL     1       4.407   3.011  -1.430  1.00  0.00     0.010 A 
ATOM     14  C   UNL     1       2.715   4.550  -0.662  1.00  0.00     0.010 A 
ATOM     15  C   UNL     1       3.829   4.266  -1.457  1.00  0.00    -0.014 A 
BRANCH  15  16
ATOM     16  C   UNL     1       4.606   5.316  -2.113  1.00  0.00     0.031 A 
ATOM     17  C   UNL     1       5.384   6.221  -1.215  1.00  0.00     0.074 A 
ATOM     18  C   UNL     1       4.744   5.321  -3.447  1.00  0.00     0.049 A 
ATOM     19  N   UNL     1       6.015   7.323  -1.493  1.00  0.00    -0.248 NA
ATOM     20  C   UNL     1       5.466   5.816   0.202  1.00  0.00     0.031 C 
ATOM     21  C   UNL     1       4.194   4.316  -4.361  1.00  0.00     0.029 A 
ATOM     22  N   UNL     1       5.410   6.190  -4.261  1.00  0.00    -0.354 N 
ATOM     23  C   UNL     1       6.504   7.781  -0.277  1.00  0.00     0.074 A 
ATOM     24  C   UNL     1       6.119   6.832   0.738  1.00  0.00     0.031 C 
ATOM     25  C   UNL     1       4.534   4.640  -5.618  1.00  0.00     0.029 A 
ATOM     26  C   UNL     1       5.238   5.915  -5.593  1.00  0.00     0.049 A 
ATOM     27  H   UNL     1       5.958   6.937  -3.926  1.00  0.00     0.167 HD
ATOM     28  C   UNL     1       7.190   8.921  -0.050  1.00  0.00     0.037 A 
ATOM     29  C   UNL     1       5.554   6.670  -6.659  1.00  0.00     0.037 A 
ATOM     30  C   UNL     1       7.540   9.819  -1.114  1.00  0.00     0.049 A 
ATOM     31  C   UNL     1       6.209   7.997  -6.384  1.00  0.00     0.074 A 
ATOM     32  C   UNL     1       8.154  11.052  -1.050  1.00  0.00     0.029 A 
ATOM     33  N   UNL     1       7.292   9.554  -2.459  1.00  0.00    -0.354 N 
ATOM     34  N   UNL     1       6.562   8.517  -5.229  1.00  0.00    -0.248 NA
ATOM     35  C   UNL     1       6.489   8.850  -7.541  1.00  0.00     0.031 C 
ATOM     36  C   UNL     1       8.229  11.556  -2.354  1.00  0.00     0.029 A 
ATOM     37  C   UNL     1       7.724  10.608  -3.237  1.00  0.00     0.049 A 
ATOM     38  H   UNL     1       6.870   8.735  -2.804  1.00  0.00     0.167 HD
ATOM     39  C   UNL     1       7.131   9.747  -5.518  1.00  0.00     0.074 A 
ATOM     40  C   UNL     1       7.076   9.890  -6.963  1.00  0.00     0.031 C 
ATOM     41  C   UNL     1       7.655  10.675  -4.678  1.00  0.00     0.037 A 
BRANCH  28  42
ATOM     42  C   UNL     1       7.460   9.273   1.383  1.00  0.00     0.057 A 
ATOM     43  C   UNL     1       8.343   8.542   2.190  1.00  0.00     0.134 A 
ATOM     44  C   UNL     1       6.736  10.304   1.996  1.00  0.00     0.134 A 
ATOM     45  F   UNL     1       9.037   7.512   1.680  1.00  0.00    -0.206 F 
ATOM     46  C   UNL     1       8.463   8.795   3.559  1.00  0.00     0.040 A 
ATOM     47  C   UNL     1       6.869  10.586   3.356  1.00  0.00     0.040 A 
ATOM     48  F   UNL     1       5.860  11.034   1.289  1.00  0.00    -0.206 F 
ATOM     49  C   UNL     1       7.724   9.821   4.146  1.00  0.00     0.006 A 
ENDBRANCH  28  42
BRANCH  29  50
ATOM     50  C   UNL     1       5.184   6.225  -8.025  1.00  0.00     0.057 A 
ATOM     51  C   UNL     1       6.155   5.895  -8.975  1.00  0.00     0.134 A 
ATOM     52  C   UNL     1       3.841   6.085  -8.407  1.00  0.00     0.134 A 
ATOM     53  F   UNL     1       7.457   6.017  -8.679  1.00  0.00    -0.206 F 
ATOM     54  C   UNL     1       5.808   5.449 -10.253  1.00  0.00     0.040 A 
ATOM     55  C   UNL     1       3.480   5.615  -9.671  1.00  0.00     0.040 A 
ATOM     56  F   UNL     1       2.856   6.377  -7.545  1.00  0.00    -0.206 F 
ATOM     57  C   UNL     1       4.467   5.300 -10.601  1.00  0.00     0.006 A 
ENDBRANCH  29  50
BRANCH  41  58
ATOM     58  C   UNL     1       8.264  11.886  -5.313  1.00  0.00     0.057 A 
ATOM     59  C   UNL     1       7.483  12.911  -5.855  1.00  0.00     0.134 A 
ATOM     60  C   UNL     1       9.654  12.057  -5.293  1.00  0.00     0.134 A 
ATOM     61  F   UNL     1       6.148  12.794  -5.910  1.00  0.00    -0.206 F 
ATOM     62  C   UNL     1       8.068  14.067  -6.370  1.00  0.00     0.040 A 
ATOM     63  C   UNL     1      10.247  13.221  -5.776  1.00  0.00     0.040 A 
ATOM     64  F   UNL     1      10.450  11.111  -4.774  1.00  0.00    -0.206 F 
ATOM     65  C   UNL     1       9.452  14.229  -6.319  1.00  0.00     0.006 A 
ENDBRANCH  41  58
ENDBRANCH  15  16
ENDBRANCH   8  10
ENDBRANCH   7   8
ENDBRANCH   6   7
ENDBRANCH   5   6
ENDBRANCH   4   5
ENDBRANCH   3   4
ENDBRANCH   2   3
ENDBRANCH   1   2
BRANCH   1  66
ATOM     66  C   UNL     1       4.791  -2.781  -2.071  1.00  0.00     0.188 C 
BRANCH  66  67
ATOM     67  C   UNL     1       5.129  -1.905  -3.282  1.00  0.00     0.188 C 
BRANCH  67  68
ATOM     68  O   UNL     1       4.122  -0.983  -3.625  1.00  0.00    -0.376 OA
BRANCH  68  69
ATOM     69  C   UNL     1       3.235  -1.313  -4.689  1.00  0.00     0.202 C 
BRANCH  69  70
ATOM     70  C   UNL     1       2.978  -2.757  -5.192  1.00  0.00     0.261 C 
BRANCH  70  71
ATOM     71  O   UNL     1       3.068  -3.847  -4.245  1.00  0.00    -0.463 OA
BRANCH  71  72
ATOM     72  C   UNL     1       4.037  -4.761  -4.496  1.00  0.00     0.310 C 
ATOM     73  O   UNL     1       4.780  -4.680  -5.477  1.00  0.00    -0.252 OA
BRANCH  72  74
ATOM     74  C   UNL     1       4.276  -5.881  -3.470  1.00  0.00     0.112 C 
ATOM     75  C   UNL     1       4.317  -7.219  -4.229  1.00  0.00     0.016 C 
ATOM     76  C   UNL     1       3.579  -6.024  -2.087  1.00  0.00     0.066 C 
ATOM     77  C   UNL     1       4.999  -8.299  -3.400  1.00  0.00     0.001 C 
ATOM     78  C   UNL     1       4.229  -7.183  -1.294  1.00  0.00     0.016 C 
ATOM     79  C   UNL     1       4.305  -8.491  -2.063  1.00  0.00     0.001 C 
BRANCH  76  80
ATOM     80  S   UNL     1       1.746  -6.190  -2.138  1.00  0.00    -0.122 SA
BRANCH  80  81
ATOM     81  C   UNL     1       1.179  -5.680  -0.499  1.00  0.00     0.011 A 
ATOM     82  C   UNL     1       1.981  -5.452   0.621  1.00  0.00     0.035 A 
ATOM     83  C   UNL     1      -0.203  -5.532  -0.341  1.00  0.00     0.035 A 
ATOM     84  C   UNL     1       1.377  -5.141   1.834  1.00  0.00     0.112 A 
ATOM     85  C   UNL     1      -0.714  -5.201   0.906  1.00  0.00     0.112 A 
ATOM     86  N   UNL     1       0.047  -5.012   2.002  1.00  0.00    -0.265 NA
ENDBRANCH  80  81
ENDBRANCH  76  80
ENDBRANCH  72  74
ENDBRANCH  71  72
ENDBRANCH  70  71
ENDBRANCH  69  70
ENDBRANCH  68  69
ENDBRANCH  67  68
ENDBRANCH  66  67
ENDBRANCH   1  66
TORSDOF 22
