REMARK SMILES Cc1ccc(C)c(NC(=O)/C=C/C(=O)OCCOCCOCCOCCOC(=O)c2ccc(-c3c4nc(c(-c5c(F)cccc5F)c5ccc([nH]5)c(-c5c(F)cccc5F)c5nc(c(-c6c(F)cccc6F)c6ccc3[nH]6)C=C5)C=C4)cc2)c1
REMARK SMILES IDX 21 1 20 2 19 3 18 4 17 5 16 6 15 7 13 8 14 9 12 10 11 11
REMARK SMILES IDX 9 12 8 13 10 15 7 16 1 17 2 18 3 19 84 20 4 21 5 22 6 23
REMARK SMILES IDX 22 24 23 25 24 26 25 27 26 28 27 29 28 30 29 31 30 32 31 33
REMARK SMILES IDX 83 34 32 35 82 36 33 37 34 38 35 39 76 40 36 41 81 42 75 43
REMARK SMILES IDX 77 44 37 45 80 46 74 47 73 48 38 50 64 51 47 52 63 53 48 54
REMARK SMILES IDX 51 55 62 56 78 57 49 58 50 59 61 61 79 62 52 63 39 64 40 65
REMARK SMILES IDX 45 66 41 67 42 68 44 69 46 70 43 71 65 72 66 73 71 74 67 75
REMARK SMILES IDX 68 76 70 77 72 78 69 79 53 80 54 81 59 82 55 83 56 84 58 85
REMARK SMILES IDX 60 86 57 87
REMARK H PARENT 8 14 77 49 51 60
REMARK Flexibility Score: inf
ROOT
ATOM      1  O   UNL     1      -6.673   0.393  -3.691  1.00  0.00    -0.377 OA
ENDROOT
BRANCH   1   2
ATOM      2  C   UNL     1      -5.489   0.282  -2.927  1.00  0.00     0.188 C 
BRANCH   2   3
ATOM      3  C   UNL     1      -5.252  -0.888  -1.951  1.00  0.00     0.188 C 
BRANCH   3   4
ATOM      4  O   UNL     1      -6.305  -1.773  -1.642  1.00  0.00    -0.376 OA
BRANCH   4   5
ATOM      5  C   UNL     1      -7.115  -1.509  -0.510  1.00  0.00     0.202 C 
BRANCH   5   6
ATOM      6  C   UNL     1      -6.409  -0.972   0.738  1.00  0.00     0.261 C 
BRANCH   6   7
ATOM      7  O   UNL     1      -5.813   0.331   0.497  1.00  0.00    -0.460 OA
BRANCH   7   8
ATOM      8  C   UNL     1      -4.966   0.698   1.491  1.00  0.00     0.331 C 
ATOM      9  O   UNL     1      -5.023   0.234   2.620  1.00  0.00    -0.247 OA
BRANCH   8  10
ATOM     10  C   UNL     1      -3.854   1.610   1.078  1.00  0.00     0.099 C 
ATOM     11  C   UNL     1      -3.529   2.079  -0.141  1.00  0.00     0.079 C 
BRANCH  11  12
ATOM     12  C   UNL     1      -2.346   2.957  -0.376  1.00  0.00     0.248 C 
ATOM     13  N   UNL     1      -1.133   2.624  -0.936  1.00  0.00    -0.322 N 
ATOM     14  H   UNL     1      -0.555   3.422  -0.944  1.00  0.00     0.170 HD
ATOM     15  O   UNL     1      -2.467   4.124   0.020  1.00  0.00    -0.270 OA
BRANCH  13  16
ATOM     16  C   UNL     1      -0.414   1.524  -1.511  1.00  0.00     0.044 A 
ATOM     17  C   UNL     1       3.312   0.436  -1.320  1.00  0.00     0.044 C 
ATOM     18  C   UNL     1       1.839   0.450  -1.599  1.00  0.00    -0.049 A 
ATOM     19  C   UNL     1       1.262  -0.759  -1.931  1.00  0.00     0.004 A 
ATOM     20  C   UNL     1       1.004   1.588  -1.440  1.00  0.00     0.029 A 
ATOM     21  C   UNL     1      -0.075  -0.769  -2.249  1.00  0.00     0.006 A 
ATOM     22  C   UNL     1      -0.918   0.351  -2.055  1.00  0.00    -0.027 A 
ATOM     23  C   UNL     1      -2.305   0.145  -2.505  1.00  0.00     0.046 C 
ENDBRANCH  13  16
ENDBRANCH  11  12
ENDBRANCH   8  10
ENDBRANCH   7   8
ENDBRANCH   6   7
ENDBRANCH   5   6
ENDBRANCH   4   5
ENDBRANCH   3   4
ENDBRANCH   2   3
ENDBRANCH   1   2
BRANCH   1  24
ATOM     24  C   UNL     1      -7.237  -0.805  -4.195  1.00  0.00     0.188 C 
BRANCH  24  25
ATOM     25  C   UNL     1      -6.343  -1.726  -5.037  1.00  0.00     0.188 C 
BRANCH  25  26
ATOM     26  O   UNL     1      -5.046  -1.922  -4.494  1.00  0.00    -0.376 OA
BRANCH  26  27
ATOM     27  C   UNL     1      -3.972  -1.962  -5.420  1.00  0.00     0.202 C 
BRANCH  27  28
ATOM     28  C   UNL     1      -4.067  -3.130  -6.403  1.00  0.00     0.261 C 
BRANCH  28  29
ATOM     29  O   UNL     1      -4.004  -4.461  -5.833  1.00  0.00    -0.460 OA
BRANCH  29  30
ATOM     30  C   UNL     1      -4.788  -4.746  -4.766  1.00  0.00     0.338 C 
ATOM     31  O   UNL     1      -5.931  -5.202  -4.850  1.00  0.00    -0.246 OA
BRANCH  30  32
ATOM     32  C   UNL     1      -4.067  -4.490  -3.491  1.00  0.00     0.060 A 
ATOM     33  C   UNL     1      -4.764  -4.333  -2.292  1.00  0.00     0.016 A 
ATOM     34  C   UNL     1      -2.687  -4.279  -3.506  1.00  0.00     0.016 A 
ATOM     35  C   UNL     1      -4.101  -3.830  -1.157  1.00  0.00     0.010 A 
ATOM     36  C   UNL     1      -2.044  -3.756  -2.386  1.00  0.00     0.010 A 
ATOM     37  C   UNL     1      -2.745  -3.450  -1.209  1.00  0.00    -0.014 A 
BRANCH  37  38
ATOM     38  C   UNL     1      -1.935  -3.312   0.036  1.00  0.00     0.031 A 
ATOM     39  C   UNL     1      -1.946  -4.637   0.660  1.00  0.00     0.074 A 
ATOM     40  C   UNL     1      -1.334  -2.274   0.693  1.00  0.00     0.049 A 
ATOM     41  N   UNL     1      -2.672  -4.865   1.703  1.00  0.00    -0.248 NA
ATOM     42  C   UNL     1      -1.462  -5.852  -0.018  1.00  0.00     0.031 C 
ATOM     43  C   UNL     1      -1.628  -0.870   0.507  1.00  0.00     0.029 A 
ATOM     44  N   UNL     1      -0.351  -2.188   1.686  1.00  0.00    -0.354 N 
ATOM     45  C   UNL     1      -2.329  -6.144   2.062  1.00  0.00     0.074 A 
ATOM     46  C   UNL     1      -1.828  -6.783   0.869  1.00  0.00     0.031 C 
ATOM     47  C   UNL     1      -0.700  -0.085   1.105  1.00  0.00     0.029 A 
ATOM     48  C   UNL     1       0.251  -0.906   1.817  1.00  0.00     0.049 A 
ATOM     49  H   UNL     1      -0.097  -2.954   2.250  1.00  0.00     0.167 HD
ATOM     50  C   UNL     1      -1.925  -6.272   3.349  1.00  0.00     0.037 A 
ATOM     51  C   UNL     1       1.245  -0.428   2.638  1.00  0.00     0.037 A 
ATOM     52  C   UNL     1      -2.544  -5.289   4.215  1.00  0.00     0.049 A 
ATOM     53  C   UNL     1       0.934  -1.018   3.947  1.00  0.00     0.074 A 
ATOM     54  C   UNL     1      -3.833  -4.962   4.586  1.00  0.00     0.029 A 
ATOM     55  N   UNL     1      -1.779  -4.187   4.481  1.00  0.00    -0.354 N 
ATOM     56  N   UNL     1      -0.009  -0.559   4.718  1.00  0.00    -0.248 NA
ATOM     57  C   UNL     1       1.471  -2.326   4.294  1.00  0.00     0.031 C 
ATOM     58  C   UNL     1      -3.804  -3.628   5.091  1.00  0.00     0.029 A 
ATOM     59  C   UNL     1      -2.492  -3.175   5.072  1.00  0.00     0.049 A 
ATOM     60  H   UNL     1      -0.819  -4.126   4.271  1.00  0.00     0.167 HD
ATOM     61  C   UNL     1      -0.530  -1.712   5.256  1.00  0.00     0.074 A 
ATOM     62  C   UNL     1       0.532  -2.705   5.159  1.00  0.00     0.031 C 
ATOM     63  C   UNL     1      -1.877  -1.889   5.321  1.00  0.00     0.037 A 
BRANCH  50  64
ATOM     64  C   UNL     1      -0.564  -6.843   3.631  1.00  0.00     0.057 A 
ATOM     65  C   UNL     1      -0.297  -7.365   4.895  1.00  0.00     0.134 A 
ATOM     66  C   UNL     1       0.562  -6.666   2.791  1.00  0.00     0.134 A 
ATOM     67  F   UNL     1      -1.274  -7.473   5.806  1.00  0.00    -0.206 F 
ATOM     68  C   UNL     1       0.999  -7.724   5.282  1.00  0.00     0.040 A 
ATOM     69  C   UNL     1       1.841  -7.091   3.134  1.00  0.00     0.040 A 
ATOM     70  F   UNL     1       0.505  -5.964   1.654  1.00  0.00    -0.206 F 
ATOM     71  C   UNL     1       2.066  -7.610   4.394  1.00  0.00     0.006 A 
ENDBRANCH  50  64
BRANCH  51  72
ATOM     72  C   UNL     1       2.290   0.661   2.608  1.00  0.00     0.057 A 
ATOM     73  C   UNL     1       3.436   0.538   3.428  1.00  0.00     0.134 A 
ATOM     74  C   UNL     1       2.373   1.708   1.694  1.00  0.00     0.134 A 
ATOM     75  F   UNL     1       3.451  -0.319   4.460  1.00  0.00    -0.206 F 
ATOM     76  C   UNL     1       4.630   1.246   3.210  1.00  0.00     0.040 A 
ATOM     77  C   UNL     1       3.580   2.391   1.416  1.00  0.00     0.040 A 
ATOM     78  F   UNL     1       1.276   2.138   1.070  1.00  0.00    -0.206 F 
ATOM     79  C   UNL     1       4.732   2.121   2.143  1.00  0.00     0.006 A 
ENDBRANCH  51  72
BRANCH  63  80
ATOM     80  C   UNL     1      -2.729  -0.685   5.588  1.00  0.00     0.057 A 
ATOM     81  C   UNL     1      -2.874   0.426   4.750  1.00  0.00     0.134 A 
ATOM     82  C   UNL     1      -3.472  -0.675   6.776  1.00  0.00     0.134 A 
ATOM     83  F   UNL     1      -2.223   0.506   3.582  1.00  0.00    -0.206 F 
ATOM     84  C   UNL     1      -3.734   1.486   5.075  1.00  0.00     0.040 A 
ATOM     85  C   UNL     1      -4.348   0.362   7.100  1.00  0.00     0.040 A 
ATOM     86  F   UNL     1      -3.365  -1.692   7.645  1.00  0.00    -0.206 F 
ATOM     87  C   UNL     1      -4.487   1.447   6.244  1.00  0.00     0.006 A 
ENDBRANCH  63  80
ENDBRANCH  37  38
ENDBRANCH  30  32
ENDBRANCH  29  30
ENDBRANCH  28  29
ENDBRANCH  27  28
ENDBRANCH  26  27
ENDBRANCH  25  26
ENDBRANCH  24  25
ENDBRANCH   1  24
TORSDOF 22
