REMARK SMILES CC(C)[C@@H](NC(=O)[C@H]1CC[C@@H](C(C)C)CC1)C(=O)OCCOCCOCCOCCOC(=O)c1ccc(-c2c3nc(c(-c4c(F)cccc4F)c4ccc([nH]4)c(-c4c(F)cccc4F)c4nc(c(-c5c(F)cccc5F)c5ccc2[nH]5)C=C4)C=C3)cc1
REMARK SMILES IDX 24 1 23 2 22 3 21 4 20 5 19 6 17 7 18 8 4 9 5 10 6 11 7 12
REMARK SMILES IDX 8 14 11 15 15 16 10 17 16 18 9 19 12 20 13 21 14 22 2 23
REMARK SMILES IDX 1 24 3 25 25 26 26 27 27 28 28 29 29 30 30 31 31 32 32 33
REMARK SMILES IDX 33 34 34 35 35 36 87 37 36 38 86 39 37 40 38 41 39 42 80 43
REMARK SMILES IDX 40 44 85 45 79 46 81 47 41 48 84 49 78 50 77 51 42 53 68 54
REMARK SMILES IDX 51 55 67 56 52 57 55 58 66 59 82 60 53 61 54 62 65 64 83 65
REMARK SMILES IDX 56 66 43 67 44 68 49 69 45 70 46 71 48 72 50 73 47 74 69 75
REMARK SMILES IDX 70 76 75 77 71 78 72 79 74 80 76 81 73 82 57 83 58 84 63 85
REMARK SMILES IDX 59 86 60 87 62 88 64 89 61 90
REMARK H PARENT 5 13 81 52 55 63
REMARK Flexibility Score: inf
ROOT
ATOM      1  C   UNL     1       0.819   1.889   3.437  1.00  0.00     0.188 C 
ENDROOT
BRANCH   1   2
ATOM      2  C   UNL     1       2.114   2.206   2.668  1.00  0.00     0.188 C 
BRANCH   2   3
ATOM      3  O   UNL     1       2.211   3.553   2.229  1.00  0.00    -0.376 OA
BRANCH   3   4
ATOM      4  C   UNL     1       1.835   3.870   0.901  1.00  0.00     0.202 C 
BRANCH   4   5
ATOM      5  C   UNL     1       0.353   3.740   0.505  1.00  0.00     0.261 C 
BRANCH   5   6
ATOM      6  O   UNL     1      -0.328   2.512   0.816  1.00  0.00    -0.462 OA
BRANCH   6   7
ATOM      7  C   UNL     1       0.247   1.347   0.427  1.00  0.00     0.328 C 
ATOM      8  O   UNL     1       1.321   1.304  -0.160  1.00  0.00    -0.250 OA
BRANCH   7   9
ATOM      9  C   UNL     1      -0.636   0.103   0.760  1.00  0.00     0.194 C 
BRANCH   9  10
ATOM     10  N   UNL     1      -1.901   0.472   1.391  1.00  0.00    -0.342 N 
ATOM     11  C   UNL     1      -3.167   0.452   0.914  1.00  0.00     0.223 C 
ATOM     12  O   UNL     1      -4.061   0.683   1.737  1.00  0.00    -0.275 OA
ATOM     13  H   UNL     1      -1.818   0.789   2.320  1.00  0.00     0.164 HD
BRANCH  11  14
ATOM     14  C   UNL     1      -3.539   0.222  -0.563  1.00  0.00     0.078 C 
ATOM     15  C   UNL     1      -1.528   0.058  -2.855  1.00  0.00    -0.009 C 
ATOM     16  C   UNL     1      -1.965  -1.219  -2.108  1.00  0.00     0.004 C 
ATOM     17  C   UNL     1      -1.898   1.386  -2.162  1.00  0.00     0.004 C 
ATOM     18  C   UNL     1      -3.222  -1.116  -1.232  1.00  0.00     0.014 C 
ATOM     19  C   UNL     1      -3.247   1.417  -1.459  1.00  0.00     0.014 C 
BRANCH  15  20
ATOM     20  C   UNL     1      -0.015   0.072  -3.301  1.00  0.00    -0.014 C 
ATOM     21  C   UNL     1       0.994  -0.622  -2.389  1.00  0.00     0.007 C 
ATOM     22  C   UNL     1       0.175  -0.576  -4.668  1.00  0.00     0.007 C 
ENDBRANCH  15  20
ENDBRANCH  11  14
ENDBRANCH   9  10
BRANCH   9  23
ATOM     23  C   UNL     1       0.041  -1.075   1.536  1.00  0.00     0.017 C 
ATOM     24  C   UNL     1      -0.973  -2.188   1.852  1.00  0.00     0.010 C 
ATOM     25  C   UNL     1       1.234  -1.721   0.828  1.00  0.00     0.010 C 
ENDBRANCH   9  23
ENDBRANCH   7   9
ENDBRANCH   6   7
ENDBRANCH   5   6
ENDBRANCH   4   5
ENDBRANCH   3   4
ENDBRANCH   2   3
ENDBRANCH   1   2
BRANCH   1  26
ATOM     26  O   UNL     1      -0.165   2.894   3.567  1.00  0.00    -0.377 OA
BRANCH  26  27
ATOM     27  C   UNL     1       0.230   4.173   4.038  1.00  0.00     0.188 C 
BRANCH  27  28
ATOM     28  C   UNL     1       1.519   4.321   4.873  1.00  0.00     0.188 C 
BRANCH  28  29
ATOM     29  O   UNL     1       2.038   3.115   5.407  1.00  0.00    -0.376 OA
BRANCH  29  30
ATOM     30  C   UNL     1       1.665   2.742   6.723  1.00  0.00     0.202 C 
BRANCH  30  31
ATOM     31  C   UNL     1       0.173   2.516   7.013  1.00  0.00     0.261 C 
BRANCH  31  32
ATOM     32  O   UNL     1      -0.705   3.632   6.791  1.00  0.00    -0.460 OA
BRANCH  32  33
ATOM     33  C   UNL     1      -0.410   4.812   7.373  1.00  0.00     0.338 C 
ATOM     34  O   UNL     1       0.496   5.049   8.154  1.00  0.00    -0.246 OA
BRANCH  33  35
ATOM     35  C   UNL     1      -1.246   5.847   6.729  1.00  0.00     0.060 A 
ATOM     36  C   UNL     1      -0.621   6.918   6.072  1.00  0.00     0.016 A 
ATOM     37  C   UNL     1      -2.638   5.736   6.737  1.00  0.00     0.016 A 
ATOM     38  C   UNL     1      -1.388   7.905   5.458  1.00  0.00     0.010 A 
ATOM     39  C   UNL     1      -3.406   6.747   6.158  1.00  0.00     0.010 A 
ATOM     40  C   UNL     1      -2.783   7.855   5.556  1.00  0.00    -0.014 A 
BRANCH  40  41
ATOM     41  C   UNL     1      -3.566   9.082   5.292  1.00  0.00     0.031 A 
ATOM     42  C   UNL     1      -3.878   9.972   6.464  1.00  0.00     0.074 A 
ATOM     43  C   UNL     1      -3.968   9.420   4.056  1.00  0.00     0.049 A 
ATOM     44  N   UNL     1      -4.590  11.067   6.514  1.00  0.00    -0.248 NA
ATOM     45  C   UNL     1      -3.309   9.562   7.759  1.00  0.00     0.031 C 
ATOM     46  C   UNL     1      -3.683   8.669   2.836  1.00  0.00     0.029 A 
ATOM     47  N   UNL     1      -4.719  10.488   3.632  1.00  0.00    -0.354 N 
ATOM     48  C   UNL     1      -4.560  11.470   7.844  1.00  0.00     0.074 A 
ATOM     49  C   UNL     1      -3.790  10.487   8.572  1.00  0.00     0.031 C 
ATOM     50  C   UNL     1      -4.271   9.292   1.798  1.00  0.00     0.029 A 
ATOM     51  C   UNL     1      -4.998  10.463   2.289  1.00  0.00     0.049 A 
ATOM     52  H   UNL     1      -5.027  11.203   4.234  1.00  0.00     0.167 HD
ATOM     53  C   UNL     1      -5.120  12.565   8.408  1.00  0.00     0.037 A 
ATOM     54  C   UNL     1      -5.776  11.279   1.551  1.00  0.00     0.037 A 
ATOM     55  C   UNL     1      -5.896  13.533   7.683  1.00  0.00     0.049 A 
ATOM     56  C   UNL     1      -6.463  12.446   2.214  1.00  0.00     0.074 A 
ATOM     57  C   UNL     1      -6.501  14.683   8.157  1.00  0.00     0.029 A 
ATOM     58  N   UNL     1      -6.187  13.454   6.329  1.00  0.00    -0.354 N 
ATOM     59  N   UNL     1      -6.416  12.834   3.466  1.00  0.00    -0.248 NA
ATOM     60  C   UNL     1      -7.311  13.289   1.359  1.00  0.00     0.031 C 
ATOM     61  C   UNL     1      -7.206  15.270   7.101  1.00  0.00     0.029 A 
ATOM     62  C   UNL     1      -6.988  14.521   5.955  1.00  0.00     0.049 A 
ATOM     63  H   UNL     1      -5.871  12.746   5.723  1.00  0.00     0.167 HD
ATOM     64  C   UNL     1      -7.200  13.980   3.543  1.00  0.00     0.074 A 
ATOM     65  C   UNL     1      -7.702  14.230   2.208  1.00  0.00     0.031 C 
ATOM     66  C   UNL     1      -7.476  14.758   4.620  1.00  0.00     0.037 A 
BRANCH  53  67
ATOM     67  C   UNL     1      -4.942  12.739   9.888  1.00  0.00     0.057 A 
ATOM     68  C   UNL     1      -3.699  13.047  10.457  1.00  0.00     0.134 A 
ATOM     69  C   UNL     1      -6.031  12.592  10.756  1.00  0.00     0.134 A 
ATOM     70  F   UNL     1      -2.610  13.181   9.684  1.00  0.00    -0.206 F 
ATOM     71  C   UNL     1      -3.539  13.171  11.839  1.00  0.00     0.040 A 
ATOM     72  C   UNL     1      -5.890  12.745  12.136  1.00  0.00     0.040 A 
ATOM     73  F   UNL     1      -7.249  12.297  10.278  1.00  0.00    -0.206 F 
ATOM     74  C   UNL     1      -4.639  13.026  12.682  1.00  0.00     0.006 A 
ENDBRANCH  53  67
BRANCH  54  75
ATOM     75  C   UNL     1      -5.963  11.014   0.102  1.00  0.00     0.057 A 
ATOM     76  C   UNL     1      -5.439  11.874  -0.869  1.00  0.00     0.134 A 
ATOM     77  C   UNL     1      -6.683   9.899  -0.347  1.00  0.00     0.134 A 
ATOM     78  F   UNL     1      -4.763  12.973  -0.503  1.00  0.00    -0.206 F 
ATOM     79  C   UNL     1      -5.634  11.644  -2.233  1.00  0.00     0.040 A 
ATOM     80  C   UNL     1      -6.863   9.643  -1.707  1.00  0.00     0.040 A 
ATOM     81  F   UNL     1      -7.214   9.037   0.533  1.00  0.00    -0.206 F 
ATOM     82  C   UNL     1      -6.342  10.521  -2.655  1.00  0.00     0.006 A 
ENDBRANCH  54  75
BRANCH  66  83
ATOM     83  C   UNL     1      -8.325  15.977   4.395  1.00  0.00     0.057 A 
ATOM     84  C   UNL     1      -9.696  15.889   4.125  1.00  0.00     0.134 A 
ATOM     85  C   UNL     1      -7.769  17.259   4.503  1.00  0.00     0.134 A 
ATOM     86  F   UNL     1     -10.290  14.693   3.999  1.00  0.00    -0.206 F 
ATOM     87  C   UNL     1     -10.479  17.032   3.945  1.00  0.00     0.040 A 
ATOM     88  C   UNL     1      -8.547  18.408   4.356  1.00  0.00     0.040 A 
ATOM     89  F   UNL     1      -6.464  17.416   4.773  1.00  0.00    -0.206 F 
ATOM     90  C   UNL     1      -9.905  18.296   4.069  1.00  0.00     0.006 A 
ENDBRANCH  66  83
ENDBRANCH  40  41
ENDBRANCH  33  35
ENDBRANCH  32  33
ENDBRANCH  31  32
ENDBRANCH  30  31
ENDBRANCH  29  30
ENDBRANCH  28  29
ENDBRANCH  27  28
ENDBRANCH  26  27
ENDBRANCH   1  26
TORSDOF 24
