REMARK SMILES Cc1ccc(C)c(-n2nc(C)c(C=C(C#N)C(=O)OCCOCCOCCOCCOC(=O)c3ccc(-c4c5nc(c(-c6c(F)cccc6F)c6ccc([nH]6)c(-c6c(F)cccc6F)c6nc(c(-c7c(F)cccc7F)c7ccc4[nH]7)C=C6)C=C5)cc3)c2Cl)c1
REMARK SMILES IDX 25 1 24 2 23 3 22 4 21 5 20 6 19 7 17 8 18 9 14 10 13 11
REMARK SMILES IDX 12 12 8 13 9 14 88 15 10 16 89 17 11 18 7 19 1 20 2 21 3 22
REMARK SMILES IDX 90 23 4 24 5 25 6 26 15 27 16 28 26 29 27 30 28 31 29 32
REMARK SMILES IDX 30 33 31 34 32 35 33 36 34 37 35 38 87 39 36 40 86 41 37 42
REMARK SMILES IDX 38 43 39 44 80 45 40 46 85 47 79 48 81 49 41 50 84 51 78 52
REMARK SMILES IDX 77 53 42 55 68 56 51 57 67 58 52 59 55 60 66 61 82 62 53 63
REMARK SMILES IDX 54 64 65 66 83 67 56 68 43 69 44 70 49 71 45 72 46 73 48 74
REMARK SMILES IDX 50 75 47 76 69 77 70 78 75 79 71 80 72 81 74 82 76 83 73 84
REMARK SMILES IDX 57 85 58 86 63 87 59 88 60 89 62 90 64 91 61 92
REMARK H PARENT 81 54 55 65
REMARK Flexibility Score: inf
ROOT
ATOM      1  O   UNL     1      -7.324   6.624  -3.639  1.00  0.00    -0.377 OA
ENDROOT
BRANCH   1   2
ATOM      2  C   UNL     1      -6.205   6.372  -2.796  1.00  0.00     0.188 C 
BRANCH   2   3
ATOM      3  C   UNL     1      -6.329   6.295  -1.239  1.00  0.00     0.188 C 
BRANCH   3   4
ATOM      4  O   UNL     1      -7.141   7.161  -0.436  1.00  0.00    -0.376 OA
BRANCH   4   5
ATOM      5  C   UNL     1      -6.869   8.493   0.015  1.00  0.00     0.202 C 
BRANCH   5   6
ATOM      6  C   UNL     1      -5.555   8.816   0.762  1.00  0.00     0.261 C 
BRANCH   6   7
ATOM      7  O   UNL     1      -4.505   7.898   0.450  1.00  0.00    -0.459 OA
BRANCH   7   8
ATOM      8  C   UNL     1      -4.267   7.844  -0.860  1.00  0.00     0.348 C 
ATOM      9  O   UNL     1      -4.970   8.565  -1.580  1.00  0.00    -0.245 OA
BRANCH   8  10
ATOM     10  C   UNL     1      -3.024   6.816  -1.421  1.00  0.00     0.138 C 
ATOM     11  C   UNL     1      -3.206   5.450  -1.833  1.00  0.00     0.040 C 
BRANCH  11  12
ATOM     12  C   UNL     1      -2.532   4.066  -1.378  1.00  0.00     0.037 A 
ATOM     13  N   UNL     1      -1.216   2.165  -1.235  1.00  0.00    -0.221 N 
ATOM     14  N   UNL     1      -1.222   2.756  -0.046  1.00  0.00    -0.171 NA
ATOM     15  C   UNL     1      -2.052   2.932  -2.094  1.00  0.00     0.140 A 
ATOM     16  C   UNL     1      -2.391   3.379  -0.126  1.00  0.00     0.069 A 
ATOM     17  Cl  UNL     1      -2.315   2.372  -3.677  1.00  0.00    -0.061 Cl
ATOM     18  C   UNL     1      -3.097   3.311   1.127  1.00  0.00     0.069 C 
BRANCH  13  19
ATOM     19  C   UNL     1      -0.608   0.874  -1.161  1.00  0.00     0.069 A 
ATOM     20  C   UNL     1       2.953  -0.165  -0.091  1.00  0.00     0.044 C 
ATOM     21  C   UNL     1       1.481  -0.220  -0.393  1.00  0.00    -0.049 A 
ATOM     22  C   UNL     1       0.769  -1.386  -0.124  1.00  0.00     0.004 A 
ATOM     23  C   UNL     1       0.793   0.890  -0.921  1.00  0.00     0.032 A 
ATOM     24  C   UNL     1      -0.619  -1.396  -0.256  1.00  0.00     0.006 A 
ATOM     25  C   UNL     1      -1.329  -0.251  -0.690  1.00  0.00    -0.025 A 
ATOM     26  C   UNL     1      -2.818  -0.293  -0.462  1.00  0.00     0.047 C 
ENDBRANCH  13  19
ENDBRANCH  11  12
BRANCH  10  27
ATOM     27  C   UNL     1      -3.058   7.979  -2.401  1.00  0.00     0.107 C 
ATOM     28  N   UNL     1      -3.086   8.943  -3.213  1.00  0.00    -0.192 NA
ENDBRANCH  10  27
ENDBRANCH   8  10
ENDBRANCH   7   8
ENDBRANCH   6   7
ENDBRANCH   5   6
ENDBRANCH   4   5
ENDBRANCH   3   4
ENDBRANCH   2   3
ENDBRANCH   1   2
BRANCH   1  29
ATOM     29  C   UNL     1      -8.354   7.367  -3.014  1.00  0.00     0.188 C 
BRANCH  29  30
ATOM     30  C   UNL     1      -9.298   6.425  -2.265  1.00  0.00     0.188 C 
BRANCH  30  31
ATOM     31  O   UNL     1      -8.589   5.358  -1.669  1.00  0.00    -0.376 OA
BRANCH  31  32
ATOM     32  C   UNL     1      -8.685   4.053  -2.187  1.00  0.00     0.202 C 
BRANCH  32  33
ATOM     33  C   UNL     1      -9.895   3.446  -1.502  1.00  0.00     0.261 C 
BRANCH  33  34
ATOM     34  O   UNL     1      -9.661   3.393  -0.058  1.00  0.00    -0.460 OA
BRANCH  34  35
ATOM     35  C   UNL     1      -9.674   4.582   0.651  1.00  0.00     0.338 C 
ATOM     36  O   UNL     1     -10.584   5.369   0.659  1.00  0.00    -0.246 OA
BRANCH  35  37
ATOM     37  C   UNL     1      -8.318   4.796   1.312  1.00  0.00     0.060 A 
ATOM     38  C   UNL     1      -7.953   5.943   2.023  1.00  0.00     0.016 A 
ATOM     39  C   UNL     1      -7.295   3.919   1.019  1.00  0.00     0.016 A 
ATOM     40  C   UNL     1      -6.562   6.249   2.274  1.00  0.00     0.010 A 
ATOM     41  C   UNL     1      -5.943   4.300   1.148  1.00  0.00     0.010 A 
ATOM     42  C   UNL     1      -5.476   5.515   1.707  1.00  0.00    -0.014 A 
BRANCH  42  43
ATOM     43  C   UNL     1      -3.918   6.013   2.037  1.00  0.00     0.031 A 
ATOM     44  C   UNL     1      -3.843   5.604   3.469  1.00  0.00     0.074 A 
ATOM     45  C   UNL     1      -2.537   6.172   1.562  1.00  0.00     0.049 A 
ATOM     46  N   UNL     1      -3.427   6.340   4.439  1.00  0.00    -0.248 NA
ATOM     47  C   UNL     1      -4.350   4.284   3.936  1.00  0.00     0.031 C 
ATOM     48  C   UNL     1      -2.096   7.507   1.119  1.00  0.00     0.029 A 
ATOM     49  N   UNL     1      -1.484   5.476   0.822  1.00  0.00    -0.354 N 
ATOM     50  C   UNL     1      -2.984   5.369   5.312  1.00  0.00     0.074 A 
ATOM     51  C   UNL     1      -3.882   4.256   5.182  1.00  0.00     0.031 C 
ATOM     52  C   UNL     1      -1.121   7.516   0.169  1.00  0.00     0.029 A 
ATOM     53  C   UNL     1      -0.704   6.163  -0.177  1.00  0.00     0.049 A 
ATOM     54  H   UNL     1      -1.306   4.527   1.009  1.00  0.00     0.167 HD
ATOM     55  C   UNL     1      -1.635   5.313   5.479  1.00  0.00     0.037 A 
ATOM     56  C   UNL     1       0.451   5.957  -0.945  1.00  0.00     0.037 A 
ATOM     57  C   UNL     1      -0.997   6.579   5.145  1.00  0.00     0.049 A 
ATOM     58  C   UNL     1       1.515   6.384   0.017  1.00  0.00     0.074 A 
ATOM     59  C   UNL     1      -1.324   7.885   5.476  1.00  0.00     0.029 A 
ATOM     60  N   UNL     1      -0.184   6.656   4.034  1.00  0.00    -0.354 N 
ATOM     61  N   UNL     1       1.684   7.620   0.407  1.00  0.00    -0.248 NA
ATOM     62  C   UNL     1       1.931   5.357   0.977  1.00  0.00     0.031 C 
ATOM     63  C   UNL     1      -0.744   8.733   4.512  1.00  0.00     0.029 A 
ATOM     64  C   UNL     1       0.063   7.975   3.682  1.00  0.00     0.049 A 
ATOM     65  H   UNL     1       0.175   5.875   3.552  1.00  0.00     0.167 HD
ATOM     66  C   UNL     1       1.563   7.497   1.787  1.00  0.00     0.074 A 
ATOM     67  C   UNL     1       1.915   6.105   2.082  1.00  0.00     0.031 C 
ATOM     68  C   UNL     1       0.804   8.381   2.508  1.00  0.00     0.037 A 
BRANCH  55  69
ATOM     69  C   UNL     1      -0.902   4.018   5.621  1.00  0.00     0.057 A 
ATOM     70  C   UNL     1       0.184   3.971   6.489  1.00  0.00     0.134 A 
ATOM     71  C   UNL     1      -1.131   2.855   4.853  1.00  0.00     0.134 A 
ATOM     72  F   UNL     1       0.483   5.031   7.252  1.00  0.00    -0.206 F 
ATOM     73  C   UNL     1       1.001   2.842   6.586  1.00  0.00     0.040 A 
ATOM     74  C   UNL     1      -0.337   1.712   4.953  1.00  0.00     0.040 A 
ATOM     75  F   UNL     1      -2.111   2.778   3.949  1.00  0.00    -0.206 F 
ATOM     76  C   UNL     1       0.744   1.709   5.819  1.00  0.00     0.006 A 
ENDBRANCH  55  69
BRANCH  56  77
ATOM     77  C   UNL     1       0.877   5.167  -2.221  1.00  0.00     0.057 A 
ATOM     78  C   UNL     1       2.212   4.772  -2.500  1.00  0.00     0.134 A 
ATOM     79  C   UNL     1       0.047   4.934  -3.337  1.00  0.00     0.134 A 
ATOM     80  F   UNL     1       3.208   5.119  -1.673  1.00  0.00    -0.206 F 
ATOM     81  C   UNL     1       2.617   4.046  -3.658  1.00  0.00     0.040 A 
ATOM     82  C   UNL     1       0.414   4.165  -4.478  1.00  0.00     0.040 A 
ATOM     83  F   UNL     1      -1.156   5.508  -3.414  1.00  0.00    -0.206 F 
ATOM     84  C   UNL     1       1.699   3.679  -4.626  1.00  0.00     0.006 A 
ENDBRANCH  56  77
BRANCH  68  85
ATOM     85  C   UNL     1       0.640   9.811   1.989  1.00  0.00     0.057 A 
ATOM     86  C   UNL     1      -0.415  10.320   1.214  1.00  0.00     0.134 A 
ATOM     87  C   UNL     1       1.438  10.819   2.503  1.00  0.00     0.134 A 
ATOM     88  F   UNL     1      -1.657   9.906   1.452  1.00  0.00    -0.206 F 
ATOM     89  C   UNL     1      -0.439  11.564   0.593  1.00  0.00     0.040 A 
ATOM     90  C   UNL     1       1.272  12.164   2.122  1.00  0.00     0.040 A 
ATOM     91  F   UNL     1       2.289  10.546   3.503  1.00  0.00    -0.206 F 
ATOM     92  C   UNL     1       0.394  12.527   1.101  1.00  0.00     0.006 A 
ENDBRANCH  68  85
ENDBRANCH  42  43
ENDBRANCH  35  37
ENDBRANCH  34  35
ENDBRANCH  33  34
ENDBRANCH  32  33
ENDBRANCH  31  32
ENDBRANCH  30  31
ENDBRANCH  29  30
ENDBRANCH   1  29
TORSDOF 23
