REMARK SMILES C[C@@H]1CN(C(=O)C[NH+]2CCC(CC(=O)OCCOCCOCCOCCOC(=O)c3ccc(-c4c5nc(c(-c6c(F)cccc6F)c6ccc([nH]6)c(-c6c(F)cccc6F)c6nc(c(-c7c(F)cccc7F)c7ccc4[nH]7)C=C6)C=C5)cc3)CC2)C[C@@H](C)O1
REMARK SMILES IDX 20 1 19 2 18 3 17 4 16 5 15 6 13 7 14 8 12 9 11 10 8 11 9 12
REMARK SMILES IDX 85 13 10 15 84 16 7 17 5 18 1 19 2 20 3 21 89 22 4 23 87 24
REMARK SMILES IDX 86 25 88 26 6 27 21 28 22 29 23 30 24 31 25 32 26 33 27 34
REMARK SMILES IDX 28 35 29 36 30 37 31 38 83 39 32 40 82 41 33 42 34 43 35 44
REMARK SMILES IDX 76 45 36 46 81 47 75 48 77 49 37 50 80 51 74 52 73 53 38 55
REMARK SMILES IDX 64 56 47 57 63 58 48 59 51 60 62 61 78 62 49 63 50 64 61 66
REMARK SMILES IDX 79 67 52 68 39 69 40 70 45 71 41 72 42 73 44 74 46 75 43 76
REMARK SMILES IDX 65 77 66 78 71 79 67 80 68 81 70 82 72 83 69 84 53 85 54 86
REMARK SMILES IDX 59 87 55 88 56 89 58 90 60 91 57 92
REMARK H PARENT 8 14 77 54 51 65
REMARK Flexibility Score: inf
ROOT
ATOM      1  C   UNL     1       0.328   5.303   5.140  1.00  0.00     0.188 C 
ENDROOT
BRANCH   1   2
ATOM      2  C   UNL     1      -0.340   6.026   6.313  1.00  0.00     0.188 C 
BRANCH   2   3
ATOM      3  O   UNL     1       0.459   6.417   7.408  1.00  0.00    -0.376 OA
BRANCH   3   4
ATOM      4  C   UNL     1       0.877   5.482   8.391  1.00  0.00     0.202 C 
BRANCH   4   5
ATOM      5  C   UNL     1       0.285   4.077   8.598  1.00  0.00     0.261 C 
BRANCH   5   6
ATOM      6  O   UNL     1      -0.157   3.370   7.434  1.00  0.00    -0.463 OA
BRANCH   6   7
ATOM      7  C   UNL     1      -1.464   3.025   7.421  1.00  0.00     0.306 C 
ATOM      8  O   UNL     1      -2.271   3.329   8.295  1.00  0.00    -0.252 OA
BRANCH   7   9
ATOM      9  C   UNL     1      -1.905   2.237   6.210  1.00  0.00     0.126 C 
BRANCH   9  10
ATOM     10  C   UNL     1      -0.952   1.936   5.050  1.00  0.00     0.011 C 
ATOM     11  N   UNL     1       0.263   0.114   3.067  1.00  0.00    -0.327 N 
ATOM     12  C   UNL     1      -0.874   0.972   2.729  1.00  0.00     0.262 C 
ATOM     13  C   UNL     1       1.079   0.731   4.126  1.00  0.00     0.262 C 
ATOM     14  H   UNL     1       0.836   0.030   2.228  1.00  0.00     0.348 HD
ATOM     15  C   UNL     1      -1.762   1.275   3.925  1.00  0.00     0.066 C 
ATOM     16  C   UNL     1       0.281   1.091   5.394  1.00  0.00     0.066 C 
BRANCH  11  17
ATOM     17  C   UNL     1      -0.139  -1.264   3.414  1.00  0.00     0.363 C 
BRANCH  17  18
ATOM     18  C   UNL     1       0.846  -2.267   2.802  1.00  0.00     0.277 C 
ATOM     19  C   UNL     1       1.295  -0.142  -0.410  1.00  0.00     0.040 C 
ATOM     20  C   UNL     1       0.517  -1.429  -0.692  1.00  0.00     0.135 C 
ATOM     21  C   UNL     1      -0.246  -1.994   0.522  1.00  0.00     0.151 C 
ATOM     22  O   UNL     1       1.362  -2.435  -1.283  1.00  0.00    -0.372 OA
ATOM     23  N   UNL     1       0.665  -2.624   1.474  1.00  0.00    -0.333 N 
ATOM     24  C   UNL     1       2.261  -3.058  -0.339  1.00  0.00     0.135 C 
ATOM     25  C   UNL     1       1.506  -3.646   0.864  1.00  0.00     0.151 C 
ATOM     26  C   UNL     1       3.004  -4.154  -1.089  1.00  0.00     0.040 C 
ATOM     27  O   UNL     1       1.742  -2.756   3.495  1.00  0.00    -0.268 OA
ENDBRANCH  17  18
ENDBRANCH  11  17
ENDBRANCH   9  10
ENDBRANCH   7   9
ENDBRANCH   6   7
ENDBRANCH   5   6
ENDBRANCH   4   5
ENDBRANCH   3   4
ENDBRANCH   2   3
ENDBRANCH   1   2
BRANCH   1  28
ATOM     28  O   UNL     1       1.360   4.387   5.450  1.00  0.00    -0.377 OA
BRANCH  28  29
ATOM     29  C   UNL     1       2.676   4.868   5.711  1.00  0.00     0.188 C 
BRANCH  29  30
ATOM     30  C   UNL     1       3.010   6.373   5.653  1.00  0.00     0.188 C 
BRANCH  30  31
ATOM     31  O   UNL     1       2.289   7.122   4.691  1.00  0.00    -0.376 OA
BRANCH  31  32
ATOM     32  C   UNL     1       2.848   7.298   3.397  1.00  0.00     0.202 C 
BRANCH  32  33
ATOM     33  C   UNL     1       3.168   6.038   2.578  1.00  0.00     0.261 C 
BRANCH  33  34
ATOM     34  O   UNL     1       4.175   5.170   3.127  1.00  0.00    -0.460 OA
BRANCH  34  35
ATOM     35  C   UNL     1       5.389   5.701   3.387  1.00  0.00     0.338 C 
ATOM     36  O   UNL     1       5.772   6.826   3.144  1.00  0.00    -0.246 OA
BRANCH  35  37
ATOM     37  C   UNL     1       6.139   4.726   4.205  1.00  0.00     0.060 A 
ATOM     38  C   UNL     1       6.523   5.092   5.501  1.00  0.00     0.016 A 
ATOM     39  C   UNL     1       6.485   3.477   3.688  1.00  0.00     0.016 A 
ATOM     40  C   UNL     1       7.293   4.222   6.270  1.00  0.00     0.010 A 
ATOM     41  C   UNL     1       7.276   2.614   4.452  1.00  0.00     0.010 A 
ATOM     42  C   UNL     1       7.713   2.998   5.733  1.00  0.00    -0.014 A 
BRANCH  42  43
ATOM     43  C   UNL     1       8.753   2.213   6.442  1.00  0.00     0.031 A 
ATOM     44  C   UNL     1      10.183   2.336   5.989  1.00  0.00     0.074 A 
ATOM     45  C   UNL     1       8.442   1.437   7.496  1.00  0.00     0.049 A 
ATOM     46  N   UNL     1      11.253   1.736   6.442  1.00  0.00    -0.248 NA
ATOM     47  C   UNL     1      10.439   3.262   4.873  1.00  0.00     0.031 C 
ATOM     48  C   UNL     1       7.103   1.266   8.054  1.00  0.00     0.029 A 
ATOM     49  N   UNL     1       9.240   0.642   8.280  1.00  0.00    -0.354 N 
ATOM     50  C   UNL     1      12.306   2.204   5.665  1.00  0.00     0.074 A 
ATOM     51  C   UNL     1      11.743   3.117   4.694  1.00  0.00     0.031 C 
ATOM     52  C   UNL     1       7.169   0.405   9.085  1.00  0.00     0.029 A 
ATOM     53  C   UNL     1       8.547  -0.058   9.238  1.00  0.00     0.049 A 
ATOM     54  H   UNL     1      10.216   0.580   8.168  1.00  0.00     0.167 HD
ATOM     55  C   UNL     1      13.623   1.905   5.757  1.00  0.00     0.037 A 
ATOM     56  C   UNL     1       8.975  -0.986  10.116  1.00  0.00     0.037 A 
ATOM     57  C   UNL     1      14.181   0.998   6.726  1.00  0.00     0.049 A 
ATOM     58  C   UNL     1      10.437  -1.352  10.151  1.00  0.00     0.074 A 
ATOM     59  C   UNL     1      15.507   0.652   6.916  1.00  0.00     0.029 A 
ATOM     60  N   UNL     1      13.443   0.284   7.657  1.00  0.00    -0.354 N 
ATOM     61  N   UNL     1      11.430  -0.876   9.438  1.00  0.00    -0.248 NA
ATOM     62  C   UNL     1      10.839  -2.384  11.119  1.00  0.00     0.031 C 
ATOM     63  C   UNL     1      15.566  -0.319   7.921  1.00  0.00     0.029 A 
ATOM     64  C   UNL     1      14.284  -0.526   8.403  1.00  0.00     0.049 A 
ATOM     65  H   UNL     1      12.467   0.345   7.772  1.00  0.00     0.167 HD
ATOM     66  C   UNL     1      12.573  -1.527   9.890  1.00  0.00     0.074 A 
ATOM     67  C   UNL     1      12.153  -2.415  10.953  1.00  0.00     0.031 C 
ATOM     68  C   UNL     1      13.854  -1.403   9.463  1.00  0.00     0.037 A 
BRANCH  55  69
ATOM     69  C   UNL     1      14.553   2.540   4.765  1.00  0.00     0.057 A 
ATOM     70  C   UNL     1      14.874   3.903   4.811  1.00  0.00     0.134 A 
ATOM     71  C   UNL     1      15.178   1.763   3.781  1.00  0.00     0.134 A 
ATOM     72  F   UNL     1      14.300   4.707   5.719  1.00  0.00    -0.206 F 
ATOM     73  C   UNL     1      15.770   4.473   3.904  1.00  0.00     0.040 A 
ATOM     74  C   UNL     1      16.096   2.315   2.886  1.00  0.00     0.040 A 
ATOM     75  F   UNL     1      14.918   0.450   3.683  1.00  0.00    -0.206 F 
ATOM     76  C   UNL     1      16.391   3.675   2.944  1.00  0.00     0.006 A 
ENDBRANCH  55  69
BRANCH  56  77
ATOM     77  C   UNL     1       8.010  -1.664  11.021  1.00  0.00     0.057 A 
ATOM     78  C   UNL     1       8.062  -1.492  12.409  1.00  0.00     0.134 A 
ATOM     79  C   UNL     1       7.040  -2.542  10.519  1.00  0.00     0.134 A 
ATOM     80  F   UNL     1       8.985  -0.685  12.955  1.00  0.00    -0.206 F 
ATOM     81  C   UNL     1       7.207  -2.187  13.266  1.00  0.00     0.040 A 
ATOM     82  C   UNL     1       6.157  -3.219  11.362  1.00  0.00     0.040 A 
ATOM     83  F   UNL     1       6.936  -2.753   9.199  1.00  0.00    -0.206 F 
ATOM     84  C   UNL     1       6.247  -3.050  12.742  1.00  0.00     0.006 A 
ENDBRANCH  56  77
BRANCH  68  85
ATOM     85  C   UNL     1      14.900  -2.216  10.173  1.00  0.00     0.057 A 
ATOM     86  C   UNL     1      14.975  -3.609  10.044  1.00  0.00     0.134 A 
ATOM     87  C   UNL     1      15.866  -1.591  10.974  1.00  0.00     0.134 A 
ATOM     88  F   UNL     1      14.076  -4.272   9.301  1.00  0.00    -0.206 F 
ATOM     89  C   UNL     1      15.948  -4.354  10.713  1.00  0.00     0.040 A 
ATOM     90  C   UNL     1      16.864  -2.321  11.621  1.00  0.00     0.040 A 
ATOM     91  F   UNL     1      15.864  -0.259  11.131  1.00  0.00    -0.206 F 
ATOM     92  C   UNL     1      16.901  -3.708  11.499  1.00  0.00     0.006 A 
ENDBRANCH  68  85
ENDBRANCH  42  43
ENDBRANCH  35  37
ENDBRANCH  34  35
ENDBRANCH  33  34
ENDBRANCH  32  33
ENDBRANCH  31  32
ENDBRANCH  30  31
ENDBRANCH  29  30
ENDBRANCH  28  29
ENDBRANCH   1  28
TORSDOF 23
