REMARK SMILES CCCOc1ccccc1O[C@@H]1CC[C@@]([NH3+])(C(=O)OCCOCCOCCOCCOC(=O)c2ccc(-c3c4nc(c(-c5c(F)cccc5F)c5ccc([nH]5)c(-c5c(F)cccc5F)c5nc(c(-c6c(F)cccc6F)c6ccc3[nH]6)C=C5)C=C4)cc2)C1
REMARK SMILES IDX 23 1 22 2 21 3 20 4 19 5 17 6 18 7 15 8 12 9 13 10 88 11
REMARK SMILES IDX 14 12 11 13 10 14 5 15 6 16 7 17 9 18 8 19 4 20 3 21 2 22
REMARK SMILES IDX 1 23 16 24 24 28 25 29 26 30 27 31 28 32 29 33 30 34 31 35
REMARK SMILES IDX 32 36 33 37 34 38 35 39 87 40 36 41 86 42 37 43 38 44 39 45
REMARK SMILES IDX 80 46 40 47 85 48 79 49 81 50 41 51 84 52 78 53 77 54 42 56
REMARK SMILES IDX 68 57 51 58 67 59 52 60 55 61 66 62 82 63 53 64 54 65 65 67
REMARK SMILES IDX 83 68 56 69 43 70 44 71 49 72 45 73 46 74 48 75 50 76 47 77
REMARK SMILES IDX 69 78 70 79 75 80 71 81 72 82 74 83 76 84 73 85 57 86 58 87
REMARK SMILES IDX 63 88 59 89 60 90 62 91 64 92 61 93
REMARK H PARENT 16 25 16 26 16 27 81 55 55 66
REMARK Flexibility Score: inf
ROOT
ATOM      1  C   UNL     1      -0.611   1.274   3.985  1.00  0.00     0.188 C 
ENDROOT
BRANCH   1   2
ATOM      2  O   UNL     1      -0.335   1.616   5.321  1.00  0.00    -0.376 OA
BRANCH   2   3
ATOM      3  C   UNL     1       0.234   2.893   5.574  1.00  0.00     0.202 C 
BRANCH   3   4
ATOM      4  C   UNL     1       0.818   3.899   4.525  1.00  0.00     0.261 C 
BRANCH   4   5
ATOM      5  O   UNL     1       0.796   3.636   3.104  1.00  0.00    -0.459 OA
BRANCH   5   6
ATOM      6  C   UNL     1       1.927   3.266   2.413  1.00  0.00     0.368 C 
ATOM      7  O   UNL     1       3.015   3.039   2.928  1.00  0.00    -0.245 OA
BRANCH   6   8
ATOM      8  C   UNL     1       1.643   3.212   0.743  1.00  0.00     0.196 C 
ATOM      9  C   UNL     1       0.475   0.576  -0.869  1.00  0.00     0.180 C 
ATOM     10  C   UNL     1      -1.026   1.921  -0.651  1.00  0.00     0.052 C 
ATOM     11  C   UNL     1       2.175   1.449  -0.116  1.00  0.00     0.126 C 
ATOM     12  C   UNL     1      -0.311   3.465   0.392  1.00  0.00     0.085 C 
BRANCH   9  13
ATOM     13  O   UNL     1       0.544  -0.362  -1.920  1.00  0.00    -0.486 OA
BRANCH  13  14
ATOM     14  C   UNL     1       1.178   0.096  -3.005  1.00  0.00     0.161 A 
ATOM     15  C   UNL     1       1.185   1.444  -3.283  1.00  0.00     0.161 A 
ATOM     16  C   UNL     1       1.751   1.899  -4.460  1.00  0.00     0.050 A 
ATOM     17  C   UNL     1       2.329   0.974  -5.338  1.00  0.00     0.004 A 
ATOM     18  C   UNL     1       1.713  -0.839  -3.878  1.00  0.00     0.050 A 
ATOM     19  C   UNL     1       2.301  -0.395  -5.053  1.00  0.00     0.004 A 
BRANCH  15  20
ATOM     20  O   UNL     1       0.395   2.235  -2.512  1.00  0.00    -0.490 OA
BRANCH  20  21
ATOM     21  C   UNL     1       0.852   2.544  -1.095  1.00  0.00     0.229 C 
BRANCH  21  22
ATOM     22  C   UNL     1       0.415   1.555   0.786  1.00  0.00     0.038 C 
ATOM     23  C   UNL     1       1.127   0.119   1.577  1.00  0.00     0.007 C 
ENDBRANCH  21  22
ENDBRANCH  20  21
ENDBRANCH  15  20
ENDBRANCH  13  14
ENDBRANCH   9  13
BRANCH   8  24
ATOM     24  N   UNL     1       2.380   4.431   0.310  1.00  0.00    -0.343 N 
ATOM     25  H   UNL     1       2.020   5.242   0.812  1.00  0.00     0.345 HD
ATOM     26  H   UNL     1       2.252   4.567  -0.693  1.00  0.00     0.345 HD
ATOM     27  H   UNL     1       3.373   4.317   0.513  1.00  0.00     0.345 HD
ENDBRANCH   8  24
ENDBRANCH   6   8
ENDBRANCH   5   6
ENDBRANCH   4   5
ENDBRANCH   3   4
ENDBRANCH   2   3
ENDBRANCH   1   2
BRANCH   1  28
ATOM     28  C   UNL     1      -1.734   2.064   3.318  1.00  0.00     0.188 C 
BRANCH  28  29
ATOM     29  O   UNL     1      -2.199   3.119   4.117  1.00  0.00    -0.377 OA
BRANCH  29  30
ATOM     30  C   UNL     1      -3.356   2.762   4.850  1.00  0.00     0.188 C 
BRANCH  30  31
ATOM     31  C   UNL     1      -3.531   1.296   5.352  1.00  0.00     0.188 C 
BRANCH  31  32
ATOM     32  O   UNL     1      -3.126   0.232   4.506  1.00  0.00    -0.376 OA
BRANCH  32  33
ATOM     33  C   UNL     1      -3.913  -0.407   3.517  1.00  0.00     0.202 C 
BRANCH  33  34
ATOM     34  C   UNL     1      -4.938   0.299   2.610  1.00  0.00     0.261 C 
BRANCH  34  35
ATOM     35  O   UNL     1      -5.459   1.544   3.062  1.00  0.00    -0.460 OA
BRANCH  35  36
ATOM     36  C   UNL     1      -6.454   1.464   3.973  1.00  0.00     0.338 C 
ATOM     37  O   UNL     1      -6.925   0.453   4.458  1.00  0.00    -0.246 OA
BRANCH  36  38
ATOM     38  C   UNL     1      -6.736   2.831   4.451  1.00  0.00     0.060 A 
ATOM     39  C   UNL     1      -6.445   3.134   5.787  1.00  0.00     0.016 A 
ATOM     40  C   UNL     1      -7.223   3.816   3.587  1.00  0.00     0.016 A 
ATOM     41  C   UNL     1      -6.632   4.423   6.266  1.00  0.00     0.010 A 
ATOM     42  C   UNL     1      -7.470   5.097   4.087  1.00  0.00     0.010 A 
ATOM     43  C   UNL     1      -7.195   5.395   5.434  1.00  0.00    -0.014 A 
BRANCH  43  44
ATOM     44  C   UNL     1      -7.678   6.644   6.058  1.00  0.00     0.031 A 
ATOM     45  C   UNL     1      -9.122   6.723   6.459  1.00  0.00     0.074 A 
ATOM     46  C   UNL     1      -6.829   7.644   6.349  1.00  0.00     0.049 A 
ATOM     47  N   UNL     1      -9.768   7.692   7.053  1.00  0.00    -0.248 NA
ATOM     48  C   UNL     1      -9.950   5.544   6.152  1.00  0.00     0.031 C 
ATOM     49  C   UNL     1      -5.396   7.648   6.062  1.00  0.00     0.029 A 
ATOM     50  N   UNL     1      -7.058   8.849   6.959  1.00  0.00    -0.354 N 
ATOM     51  C   UNL     1     -11.075   7.243   7.188  1.00  0.00     0.074 A 
ATOM     52  C   UNL     1     -11.140   5.931   6.583  1.00  0.00     0.031 C 
ATOM     53  C   UNL     1      -4.872   8.809   6.492  1.00  0.00     0.029 A 
ATOM     54  C   UNL     1      -5.938   9.637   7.053  1.00  0.00     0.049 A 
ATOM     55  H   UNL     1      -7.941   9.124   7.298  1.00  0.00     0.167 HD
ATOM     56  C   UNL     1     -12.124   7.867   7.773  1.00  0.00     0.037 A 
ATOM     57  C   UNL     1      -5.801  10.892   7.521  1.00  0.00     0.037 A 
ATOM     58  C   UNL     1     -12.053   9.180   8.359  1.00  0.00     0.049 A 
ATOM     59  C   UNL     1      -7.007  11.600   8.083  1.00  0.00     0.074 A 
ATOM     60  C   UNL     1     -13.056   9.901   8.981  1.00  0.00     0.029 A 
ATOM     61  N   UNL     1     -10.916   9.976   8.383  1.00  0.00    -0.354 N 
ATOM     62  N   UNL     1      -8.235  11.164   8.229  1.00  0.00    -0.248 NA
ATOM     63  C   UNL     1      -6.800  12.976   8.556  1.00  0.00     0.031 C 
ATOM     64  C   UNL     1     -12.547  11.160   9.315  1.00  0.00     0.029 A 
ATOM     65  C   UNL     1     -11.204  11.195   8.976  1.00  0.00     0.049 A 
ATOM     66  H   UNL     1     -10.035   9.713   8.030  1.00  0.00     0.167 HD
ATOM     67  C   UNL     1      -8.940  12.198   8.836  1.00  0.00     0.074 A 
ATOM     68  C   UNL     1      -7.991  13.270   9.056  1.00  0.00     0.031 C 
ATOM     69  C   UNL     1     -10.251  12.258   9.180  1.00  0.00     0.037 A 
BRANCH  56  70
ATOM     70  C   UNL     1     -13.445   7.153   7.764  1.00  0.00     0.057 A 
ATOM     71  C   UNL     1     -13.674   5.994   8.517  1.00  0.00     0.134 A 
ATOM     72  C   UNL     1     -14.514   7.649   7.005  1.00  0.00     0.134 A 
ATOM     73  F   UNL     1     -12.690   5.453   9.252  1.00  0.00    -0.206 F 
ATOM     74  C   UNL     1     -14.908   5.340   8.495  1.00  0.00     0.040 A 
ATOM     75  C   UNL     1     -15.761   7.024   7.002  1.00  0.00     0.040 A 
ATOM     76  F   UNL     1     -14.365   8.755   6.261  1.00  0.00    -0.206 F 
ATOM     77  C   UNL     1     -15.959   5.861   7.743  1.00  0.00     0.006 A 
ENDBRANCH  56  70
BRANCH  57  78
ATOM     78  C   UNL     1      -4.481  11.572   7.463  1.00  0.00     0.057 A 
ATOM     79  C   UNL     1      -3.792  11.930   8.627  1.00  0.00     0.134 A 
ATOM     80  C   UNL     1      -3.894  11.914   6.238  1.00  0.00     0.134 A 
ATOM     81  F   UNL     1      -4.313  11.652   9.832  1.00  0.00    -0.206 F 
ATOM     82  C   UNL     1      -2.583  12.626   8.578  1.00  0.00     0.040 A 
ATOM     83  C   UNL     1      -2.669  12.579   6.173  1.00  0.00     0.040 A 
ATOM     84  F   UNL     1      -4.501  11.601   5.084  1.00  0.00    -0.206 F 
ATOM     85  C   UNL     1      -2.015  12.947   7.347  1.00  0.00     0.006 A 
ENDBRANCH  57  78
BRANCH  69  86
ATOM     86  C   UNL     1     -10.722  13.514   9.864  1.00  0.00     0.057 A 
ATOM     87  C   UNL     1     -10.764  14.752   9.208  1.00  0.00     0.134 A 
ATOM     88  C   UNL     1     -11.136  13.483  11.203  1.00  0.00     0.134 A 
ATOM     89  F   UNL     1     -10.376  14.857   7.928  1.00  0.00    -0.206 F 
ATOM     90  C   UNL     1     -11.147  15.919   9.872  1.00  0.00     0.040 A 
ATOM     91  C   UNL     1     -11.561  14.636  11.865  1.00  0.00     0.040 A 
ATOM     92  F   UNL     1     -11.141  12.331  11.891  1.00  0.00    -0.206 F 
ATOM     93  C   UNL     1     -11.550  15.862  11.204  1.00  0.00     0.006 A 
ENDBRANCH  69  86
ENDBRANCH  43  44
ENDBRANCH  36  38
ENDBRANCH  35  36
ENDBRANCH  34  35
ENDBRANCH  33  34
ENDBRANCH  32  33
ENDBRANCH  31  32
ENDBRANCH  30  31
ENDBRANCH  29  30
ENDBRANCH  28  29
ENDBRANCH   1  28
TORSDOF 26
