REMARK SMILES CC[C@@](C)(NC(=O)Nc1c(C)cccc1Cl)C(=O)OCCOCCOCCOCCOC(=O)c1ccc(-c2c3nc(c(-c4c(F)cccc4F)c4ccc([nH]4)c(-c4c(F)cccc4F)c4nc(c(-c5c(F)cccc5F)c5ccc2[nH]5)C=C4)C=C3)cc1
REMARK SMILES IDX 25 1 24 2 23 3 22 4 21 5 20 6 19 7 17 8 18 9 3 10 4 11 2 12
REMARK SMILES IDX 1 13 5 14 6 15 7 17 8 18 9 20 10 21 15 22 11 23 12 24 14 25
REMARK SMILES IDX 16 26 13 27 26 28 27 29 28 30 29 31 30 32 31 33 32 34 33 35
REMARK SMILES IDX 34 36 35 37 87 38 36 39 86 40 37 41 38 42 39 43 80 44 40 45
REMARK SMILES IDX 85 46 79 47 81 48 41 49 84 50 78 51 77 52 42 54 68 55 51 56
REMARK SMILES IDX 67 57 52 58 55 59 66 60 82 61 53 62 54 63 65 65 83 66 56 67
REMARK SMILES IDX 43 68 44 69 49 70 45 71 46 72 48 73 50 74 47 75 69 76 70 77
REMARK SMILES IDX 75 78 71 79 72 80 74 81 76 82 73 83 57 84 58 85 63 86 59 87
REMARK SMILES IDX 60 88 62 89 64 90 61 91
REMARK H PARENT 5 16 8 19 81 53 55 64
REMARK Flexibility Score: inf
ROOT
ATOM      1  O   UNL     1       3.766  -0.310  -4.735  1.00  0.00    -0.377 OA
ENDROOT
BRANCH   1   2
ATOM      2  C   UNL     1       4.743   0.425  -4.008  1.00  0.00     0.188 C 
BRANCH   2   3
ATOM      3  C   UNL     1       5.509  -0.459  -2.978  1.00  0.00     0.188 C 
BRANCH   3   4
ATOM      4  O   UNL     1       4.905  -1.770  -2.940  1.00  0.00    -0.376 OA
BRANCH   4   5
ATOM      5  C   UNL     1       5.180  -2.743  -1.929  1.00  0.00     0.202 C 
BRANCH   5   6
ATOM      6  C   UNL     1       4.207  -4.104  -2.013  1.00  0.00     0.261 C 
BRANCH   6   7
ATOM      7  O   UNL     1       2.619  -4.037  -1.868  1.00  0.00    -0.462 OA
BRANCH   7   8
ATOM      8  C   UNL     1       1.461  -4.214  -1.059  1.00  0.00     0.331 C 
ATOM      9  O   UNL     1       1.325  -5.129  -0.244  1.00  0.00    -0.249 OA
BRANCH   8  10
ATOM     10  C   UNL     1       0.202  -3.084  -1.300  1.00  0.00     0.136 C 
ATOM     11  C   UNL     1      -1.102  -3.757  -0.822  1.00  0.00     0.047 C 
BRANCH  10  12
ATOM     12  C   UNL     1      -0.139  -1.531  -1.089  1.00  0.00     0.037 C 
ATOM     13  C   UNL     1      -0.110  -0.787   0.228  1.00  0.00     0.007 C 
ENDBRANCH  10  12
BRANCH  10  14
ATOM     14  N   UNL     1       0.437  -3.070  -2.704  1.00  0.00    -0.322 N 
ATOM     15  C   UNL     1       1.560  -2.437  -3.150  1.00  0.00     0.320 C 
ATOM     16  H   UNL     1      -0.189  -3.502  -3.330  1.00  0.00     0.166 HD
ATOM     17  O   UNL     1       1.777  -2.483  -4.360  1.00  0.00    -0.248 OA
ATOM     18  N   UNL     1       2.406  -1.761  -2.257  1.00  0.00    -0.306 N 
ATOM     19  H   UNL     1       3.003  -1.202  -2.805  1.00  0.00     0.171 HD
BRANCH  18  20
ATOM     20  C   UNL     1       2.799  -1.519  -0.801  1.00  0.00     0.064 A 
ATOM     21  C   UNL     1       3.124  -2.322   0.407  1.00  0.00    -0.026 A 
ATOM     22  C   UNL     1       3.137  -0.143  -0.666  1.00  0.00     0.064 A 
ATOM     23  C   UNL     1       3.285  -3.798   0.843  1.00  0.00     0.046 C 
ATOM     24  C   UNL     1       3.656  -1.652   1.555  1.00  0.00     0.005 A 
ATOM     25  C   UNL     1       3.893   0.381   0.386  1.00  0.00     0.023 A 
ATOM     26  Cl  UNL     1       2.463   1.057  -1.731  1.00  0.00    -0.082 Cl
ATOM     27  C   UNL     1       4.139  -0.368   1.509  1.00  0.00     0.002 A 
ENDBRANCH  18  20
ENDBRANCH  10  14
ENDBRANCH   8  10
ENDBRANCH   7   8
ENDBRANCH   6   7
ENDBRANCH   5   6
ENDBRANCH   4   5
ENDBRANCH   3   4
ENDBRANCH   2   3
ENDBRANCH   1   2
BRANCH   1  28
ATOM     28  C   UNL     1       4.305  -1.360  -5.547  1.00  0.00     0.188 C 
BRANCH  28  29
ATOM     29  C   UNL     1       5.481  -0.901  -6.408  1.00  0.00     0.188 C 
BRANCH  29  30
ATOM     30  O   UNL     1       5.226   0.068  -7.419  1.00  0.00    -0.376 OA
BRANCH  30  31
ATOM     31  C   UNL     1       3.870   0.272  -7.789  1.00  0.00     0.202 C 
BRANCH  31  32
ATOM     32  C   UNL     1       3.156  -0.850  -8.571  1.00  0.00     0.261 C 
BRANCH  32  33
ATOM     33  O   UNL     1       3.571  -2.203  -8.309  1.00  0.00    -0.460 OA
BRANCH  33  34
ATOM     34  C   UNL     1       4.704  -2.614  -8.928  1.00  0.00     0.338 C 
ATOM     35  O   UNL     1       5.401  -1.984  -9.691  1.00  0.00    -0.246 OA
BRANCH  34  36
ATOM     36  C   UNL     1       5.037  -3.979  -8.456  1.00  0.00     0.060 A 
ATOM     37  C   UNL     1       6.240  -4.202  -7.770  1.00  0.00     0.016 A 
ATOM     38  C   UNL     1       4.224  -5.053  -8.815  1.00  0.00     0.016 A 
ATOM     39  C   UNL     1       6.650  -5.498  -7.467  1.00  0.00     0.010 A 
ATOM     40  C   UNL     1       4.656  -6.357  -8.552  1.00  0.00     0.010 A 
ATOM     41  C   UNL     1       5.891  -6.582  -7.916  1.00  0.00    -0.014 A 
BRANCH  41  42
ATOM     42  C   UNL     1       6.509  -7.928  -7.948  1.00  0.00     0.031 A 
ATOM     43  C   UNL     1       7.126  -8.392  -9.240  1.00  0.00     0.074 A 
ATOM     44  C   UNL     1       6.560  -8.704  -6.852  1.00  0.00     0.049 A 
ATOM     45  N   UNL     1       7.622  -9.560  -9.553  1.00  0.00    -0.248 NA
ATOM     46  C   UNL     1       7.194  -7.398 -10.325  1.00  0.00     0.031 C 
ATOM     47  C   UNL     1       6.075  -8.331  -5.526  1.00  0.00     0.029 A 
ATOM     48  N   UNL     1       7.037  -9.981  -6.692  1.00  0.00    -0.354 N 
ATOM     49  C   UNL     1       8.037  -9.449 -10.876  1.00  0.00     0.074 A 
ATOM     50  C   UNL     1       7.725  -8.106 -11.310  1.00  0.00     0.031 C 
ATOM     51  C   UNL     1       6.254  -9.369  -4.690  1.00  0.00     0.029 A 
ATOM     52  C   UNL     1       6.822 -10.491  -5.436  1.00  0.00     0.049 A 
ATOM     53  H   UNL     1       7.490 -10.482  -7.408  1.00  0.00     0.167 HD
ATOM     54  C   UNL     1       8.623 -10.386 -11.656  1.00  0.00     0.037 A 
ATOM     55  C   UNL     1       7.022 -11.736  -4.961  1.00  0.00     0.037 A 
ATOM     56  C   UNL     1       8.936 -11.719 -11.213  1.00  0.00     0.049 A 
ATOM     57  C   UNL     1       7.589 -12.791  -5.878  1.00  0.00     0.074 A 
ATOM     58  C   UNL     1       9.534 -12.745 -11.923  1.00  0.00     0.029 A 
ATOM     59  N   UNL     1       8.669 -12.210  -9.944  1.00  0.00    -0.354 N 
ATOM     60  N   UNL     1       7.971 -12.685  -7.129  1.00  0.00    -0.248 NA
ATOM     61  C   UNL     1       7.750 -14.140  -5.317  1.00  0.00     0.031 C 
ATOM     62  C   UNL     1       9.578 -13.875 -11.101  1.00  0.00     0.029 A 
ATOM     63  C   UNL     1       9.066 -13.534  -9.859  1.00  0.00     0.049 A 
ATOM     64  H   UNL     1       8.259 -11.694  -9.213  1.00  0.00     0.167 HD
ATOM     65  C   UNL     1       8.446 -13.940  -7.492  1.00  0.00     0.074 A 
ATOM     66  C   UNL     1       8.317 -14.787  -6.325  1.00  0.00     0.031 C 
ATOM     67  C   UNL     1       8.944 -14.357  -8.682  1.00  0.00     0.037 A 
BRANCH  54  68
ATOM     68  C   UNL     1       8.925 -10.019 -13.080  1.00  0.00     0.057 A 
ATOM     69  C   UNL     1       9.949  -9.126 -13.419  1.00  0.00     0.134 A 
ATOM     70  C   UNL     1       8.204 -10.604 -14.130  1.00  0.00     0.134 A 
ATOM     71  F   UNL     1      10.667  -8.518 -12.463  1.00  0.00    -0.206 F 
ATOM     72  C   UNL     1      10.233  -8.814 -14.751  1.00  0.00     0.040 A 
ATOM     73  C   UNL     1       8.497 -10.322 -15.464  1.00  0.00     0.040 A 
ATOM     74  F   UNL     1       7.212 -11.470 -13.875  1.00  0.00    -0.206 F 
ATOM     75  C   UNL     1       9.512  -9.420 -15.778  1.00  0.00     0.006 A 
ENDBRANCH  54  68
BRANCH  55  76
ATOM     76  C   UNL     1       6.642 -12.078  -3.565  1.00  0.00     0.057 A 
ATOM     77  C   UNL     1       7.605 -12.435  -2.614  1.00  0.00     0.134 A 
ATOM     78  C   UNL     1       5.301 -12.098  -3.160  1.00  0.00     0.134 A 
ATOM     79  F   UNL     1       8.904 -12.461  -2.946  1.00  0.00    -0.206 F 
ATOM     80  C   UNL     1       7.248 -12.823  -1.321  1.00  0.00     0.040 A 
ATOM     81  C   UNL     1       4.932 -12.454  -1.862  1.00  0.00     0.040 A 
ATOM     82  F   UNL     1       4.327 -11.771  -4.022  1.00  0.00    -0.206 F 
ATOM     83  C   UNL     1       5.908 -12.828  -0.941  1.00  0.00     0.006 A 
ENDBRANCH  55  76
BRANCH  67  84
ATOM     84  C   UNL     1       9.436 -15.773  -8.769  1.00  0.00     0.057 A 
ATOM     85  C   UNL     1       8.562 -16.867  -8.764  1.00  0.00     0.134 A 
ATOM     86  C   UNL     1      10.805 -16.041  -8.903  1.00  0.00     0.134 A 
ATOM     87  F   UNL     1       7.240 -16.681  -8.628  1.00  0.00    -0.206 F 
ATOM     88  C   UNL     1       9.033 -18.177  -8.863  1.00  0.00     0.040 A 
ATOM     89  C   UNL     1      11.286 -17.345  -9.034  1.00  0.00     0.040 A 
ATOM     90  F   UNL     1      11.697 -15.040  -8.928  1.00  0.00    -0.206 F 
ATOM     91  C   UNL     1      10.398 -18.418  -9.006  1.00  0.00     0.006 A 
ENDBRANCH  67  84
ENDBRANCH  41  42
ENDBRANCH  34  36
ENDBRANCH  33  34
ENDBRANCH  32  33
ENDBRANCH  31  32
ENDBRANCH  30  31
ENDBRANCH  29  30
ENDBRANCH  28  29
ENDBRANCH   1  28
TORSDOF 23
