REMARK SMILES COc1ccccc1[C@H](C(=O)OCCOCCOCCOCCOC(=O)c1ccc(-c2c3nc(c(-c4c(F)cccc4F)c4ccc([nH]4)c(-c4c(F)cccc4F)c4nc(c(-c5c(F)cccc5F)c5ccc2[nH]5)C=C4)C=C3)cc1)[NH+](C)C
REMARK SMILES IDX 18 1 17 2 16 3 15 4 14 5 13 6 12 7 10 8 11 9 9 10 8 11 3 12
REMARK SMILES IDX 4 13 5 14 7 15 6 16 2 17 1 18 81 19 82 20 83 21 19 23 20 24
REMARK SMILES IDX 21 25 22 26 23 27 24 28 25 29 26 30 27 31 28 32 80 33 29 34
REMARK SMILES IDX 79 35 30 36 31 37 32 38 73 39 33 40 78 41 72 42 74 43 34 44
REMARK SMILES IDX 77 45 71 46 70 47 35 49 61 50 44 51 60 52 45 53 48 54 59 55
REMARK SMILES IDX 75 56 46 57 47 58 58 60 76 61 49 62 36 63 37 64 42 65 38 66
REMARK SMILES IDX 39 67 41 68 43 69 40 70 62 71 63 72 68 73 64 74 65 75 67 76
REMARK SMILES IDX 69 77 66 78 50 79 51 80 56 81 52 82 53 83 55 84 57 85 54 86
REMARK H PARENT 81 22 74 48 48 59
REMARK Flexibility Score: inf
ROOT
ATOM      1  O   UNL     1       1.474   0.600  -3.944  1.00  0.00    -0.377 OA
ENDROOT
BRANCH   1   2
ATOM      2  C   UNL     1       0.896   0.258  -2.699  1.00  0.00     0.188 C 
BRANCH   2   3
ATOM      3  C   UNL     1       0.037   1.330  -2.009  1.00  0.00     0.188 C 
BRANCH   3   4
ATOM      4  O   UNL     1      -0.421   2.340  -2.895  1.00  0.00    -0.376 OA
BRANCH   4   5
ATOM      5  C   UNL     1       0.170   3.626  -2.801  1.00  0.00     0.202 C 
BRANCH   5   6
ATOM      6  C   UNL     1       1.667   3.771  -3.135  1.00  0.00     0.261 C 
BRANCH   6   7
ATOM      7  O   UNL     1       2.542   2.823  -2.509  1.00  0.00    -0.459 OA
BRANCH   7   8
ATOM      8  C   UNL     1       2.720   2.964  -1.167  1.00  0.00     0.370 C 
ATOM      9  O   UNL     1       2.172   3.858  -0.529  1.00  0.00    -0.245 OA
BRANCH   8  10
ATOM     10  C   UNL     1       3.497   1.749  -0.565  1.00  0.00     0.329 C 
BRANCH  10  11
ATOM     11  C   UNL     1       4.608   1.181  -1.460  1.00  0.00     0.063 A 
ATOM     12  C   UNL     1       5.723   1.911  -1.882  1.00  0.00     0.128 A 
ATOM     13  C   UNL     1       6.635   1.379  -2.808  1.00  0.00     0.047 A 
ATOM     14  C   UNL     1       6.487   0.079  -3.283  1.00  0.00     0.004 A 
ATOM     15  C   UNL     1       4.506  -0.151  -1.927  1.00  0.00     0.014 A 
ATOM     16  C   UNL     1       5.427  -0.694  -2.830  1.00  0.00     0.001 A 
BRANCH  12  17
ATOM     17  O   UNL     1       5.931   3.184  -1.424  1.00  0.00    -0.496 OA
ATOM     18  C   UNL     1       7.005   3.182  -0.477  1.00  0.00     0.278 C 
ENDBRANCH  12  17
ENDBRANCH  10  11
BRANCH  10  19
ATOM     19  N   UNL     1       3.787   1.895   0.886  1.00  0.00    -0.324 N 
ATOM     20  C   UNL     1       4.545   0.815   1.484  1.00  0.00     0.333 C 
ATOM     21  C   UNL     1       4.117   3.226   1.360  1.00  0.00     0.333 C 
ATOM     22  H   UNL     1       2.855   1.770   1.283  1.00  0.00     0.348 HD
ENDBRANCH  10  19
ENDBRANCH   8  10
ENDBRANCH   7   8
ENDBRANCH   6   7
ENDBRANCH   5   6
ENDBRANCH   4   5
ENDBRANCH   3   4
ENDBRANCH   2   3
ENDBRANCH   1   2
BRANCH   1  23
ATOM     23  C   UNL     1       0.621   0.900  -5.045  1.00  0.00     0.188 C 
BRANCH  23  24
ATOM     24  C   UNL     1      -0.905   0.630  -5.011  1.00  0.00     0.188 C 
BRANCH  24  25
ATOM     25  O   UNL     1      -1.336  -0.301  -4.034  1.00  0.00    -0.376 OA
BRANCH  25  26
ATOM     26  C   UNL     1      -1.675  -1.607  -4.468  1.00  0.00     0.202 C 
BRANCH  26  27
ATOM     27  C   UNL     1      -0.532  -2.461  -5.034  1.00  0.00     0.261 C 
BRANCH  27  28
ATOM     28  O   UNL     1       0.181  -1.903  -6.147  1.00  0.00    -0.460 OA
BRANCH  28  29
ATOM     29  C   UNL     1      -0.521  -1.643  -7.277  1.00  0.00     0.338 C 
ATOM     30  O   UNL     1      -1.691  -1.851  -7.485  1.00  0.00    -0.246 OA
BRANCH  29  31
ATOM     31  C   UNL     1       0.377  -0.872  -8.167  1.00  0.00     0.060 A 
ATOM     32  C   UNL     1       0.023   0.431  -8.545  1.00  0.00     0.016 A 
ATOM     33  C   UNL     1       1.580  -1.435  -8.594  1.00  0.00     0.016 A 
ATOM     34  C   UNL     1       0.865   1.169  -9.380  1.00  0.00     0.010 A 
ATOM     35  C   UNL     1       2.404  -0.711  -9.453  1.00  0.00     0.010 A 
ATOM     36  C   UNL     1       2.033   0.579  -9.877  1.00  0.00    -0.014 A 
BRANCH  36  37
ATOM     37  C   UNL     1       2.746   1.176 -11.030  1.00  0.00     0.031 A 
ATOM     38  C   UNL     1       2.393   0.660 -12.398  1.00  0.00     0.074 A 
ATOM     39  C   UNL     1       3.708   2.101 -10.873  1.00  0.00     0.049 A 
ATOM     40  N   UNL     1       2.983   0.870 -13.544  1.00  0.00    -0.248 NA
ATOM     41  C   UNL     1       1.219  -0.228 -12.477  1.00  0.00     0.031 C 
ATOM     42  C   UNL     1       4.100   2.716  -9.608  1.00  0.00     0.029 A 
ATOM     43  N   UNL     1       4.553   2.663 -11.799  1.00  0.00    -0.354 N 
ATOM     44  C   UNL     1       2.274   0.116 -14.471  1.00  0.00     0.074 A 
ATOM     45  C   UNL     1       1.214  -0.559 -13.759  1.00  0.00     0.031 C 
ATOM     46  C   UNL     1       5.133   3.550  -9.832  1.00  0.00     0.029 A 
ATOM     47  C   UNL     1       5.502   3.489 -11.246  1.00  0.00     0.049 A 
ATOM     48  H   UNL     1       4.485   2.491 -12.766  1.00  0.00     0.167 HD
ATOM     49  C   UNL     1       2.496  -0.006 -15.799  1.00  0.00     0.037 A 
ATOM     50  C   UNL     1       6.569   4.085 -11.815  1.00  0.00     0.037 A 
ATOM     51  C   UNL     1       3.543   0.680 -16.504  1.00  0.00     0.049 A 
ATOM     52  C   UNL     1       6.834   3.872 -13.287  1.00  0.00     0.074 A 
ATOM     53  C   UNL     1       3.826   0.655 -17.857  1.00  0.00     0.029 A 
ATOM     54  N   UNL     1       4.483   1.505 -15.908  1.00  0.00    -0.354 N 
ATOM     55  N   UNL     1       6.142   3.187 -14.166  1.00  0.00    -0.248 NA
ATOM     56  C   UNL     1       8.036   4.511 -13.847  1.00  0.00     0.031 C 
ATOM     57  C   UNL     1       4.977   1.417 -18.072  1.00  0.00     0.029 A 
ATOM     58  C   UNL     1       5.369   1.970 -16.863  1.00  0.00     0.049 A 
ATOM     59  H   UNL     1       4.516   1.727 -14.950  1.00  0.00     0.167 HD
ATOM     60  C   UNL     1       6.795   3.353 -15.382  1.00  0.00     0.074 A 
ATOM     61  C   UNL     1       7.938   4.203 -15.132  1.00  0.00     0.031 C 
ATOM     62  C   UNL     1       6.478   2.849 -16.600  1.00  0.00     0.037 A 
BRANCH  49  63
ATOM     63  C   UNL     1       1.619  -0.941 -16.575  1.00  0.00     0.057 A 
ATOM     64  C   UNL     1       0.285  -0.639 -16.872  1.00  0.00     0.134 A 
ATOM     65  C   UNL     1       2.144  -2.134 -17.089  1.00  0.00     0.134 A 
ATOM     66  F   UNL     1      -0.282   0.479 -16.394  1.00  0.00    -0.206 F 
ATOM     67  C   UNL     1      -0.499  -1.494 -17.648  1.00  0.00     0.040 A 
ATOM     68  C   UNL     1       1.379  -2.984 -17.888  1.00  0.00     0.040 A 
ATOM     69  F   UNL     1       3.416  -2.482 -16.839  1.00  0.00    -0.206 F 
ATOM     70  C   UNL     1       0.052  -2.664 -18.169  1.00  0.00     0.006 A 
ENDBRANCH  49  63
BRANCH  50  71
ATOM     71  C   UNL     1       7.505   4.909 -11.004  1.00  0.00     0.057 A 
ATOM     72  C   UNL     1       7.654   6.281 -11.241  1.00  0.00     0.134 A 
ATOM     73  C   UNL     1       8.328   4.334 -10.027  1.00  0.00     0.134 A 
ATOM     74  F   UNL     1       6.915   6.887 -12.182  1.00  0.00    -0.206 F 
ATOM     75  C   UNL     1       8.610   7.043 -10.565  1.00  0.00     0.040 A 
ATOM     76  C   UNL     1       9.266   5.090  -9.322  1.00  0.00     0.040 A 
ATOM     77  F   UNL     1       8.241   3.025  -9.752  1.00  0.00    -0.206 F 
ATOM     78  C   UNL     1       9.418   6.447  -9.600  1.00  0.00     0.006 A 
ENDBRANCH  50  71
BRANCH  62  79
ATOM     79  C   UNL     1       7.322   3.258 -17.771  1.00  0.00     0.057 A 
ATOM     80  C   UNL     1       8.619   2.769 -17.964  1.00  0.00     0.134 A 
ATOM     81  C   UNL     1       6.790   4.091 -18.765  1.00  0.00     0.134 A 
ATOM     82  F   UNL     1       9.190   1.974 -17.046  1.00  0.00    -0.206 F 
ATOM     83  C   UNL     1       9.363   3.105 -19.096  1.00  0.00     0.040 A 
ATOM     84  C   UNL     1       7.512   4.411 -19.915  1.00  0.00     0.040 A 
ATOM     85  F   UNL     1       5.547   4.583 -18.648  1.00  0.00    -0.206 F 
ATOM     86  C   UNL     1       8.805   3.920 -20.081  1.00  0.00     0.006 A 
ENDBRANCH  62  79
ENDBRANCH  36  37
ENDBRANCH  29  31
ENDBRANCH  28  29
ENDBRANCH  27  28
ENDBRANCH  26  27
ENDBRANCH  25  26
ENDBRANCH  24  25
ENDBRANCH  23  24
ENDBRANCH   1  23
TORSDOF 23
