REMARK SMILES C[C@@H](C(=O)OCCOCCOCCOCCOC(=O)c1ccc(-c2c3nc(c(-c4c(F)cccc4F)c4ccc([nH]4)c(-c4c(F)cccc4F)c4nc(c(-c5c(F)cccc5F)c5ccc2[nH]5)C=C4)C=C3)cc1)c1ccc(-c2ccccc2)c(F)c1
REMARK SMILES IDX 11 1 10 2 9 3 8 4 7 5 6 6 5 7 3 8 4 9 2 10 1 11 74 12 75 13
REMARK SMILES IDX 86 14 76 15 84 16 77 17 85 18 78 19 79 20 83 21 80 22 82 23
REMARK SMILES IDX 81 24 12 25 13 26 14 27 15 28 16 29 17 30 18 31 19 32 20 33
REMARK SMILES IDX 21 34 73 35 22 36 72 37 23 38 24 39 25 40 66 41 26 42 71 43
REMARK SMILES IDX 65 44 67 45 27 46 70 47 64 48 63 49 28 51 54 52 37 53 53 54
REMARK SMILES IDX 38 55 41 56 52 57 68 58 39 59 40 60 51 62 69 63 42 64 29 65
REMARK SMILES IDX 30 66 35 67 31 68 32 69 34 70 36 71 33 72 55 73 56 74 61 75
REMARK SMILES IDX 57 76 58 77 60 78 62 79 59 80 43 81 44 82 49 83 45 84 46 85
REMARK SMILES IDX 48 86 50 87 47 88
REMARK H PARENT 67 50 41 61
REMARK Flexibility Score: inf
ROOT
ATOM      1  O   UNL     1       2.602  -2.160  -2.106  1.00  0.00    -0.377 OA
ENDROOT
BRANCH   1   2
ATOM      2  C   UNL     1       1.223  -2.039  -1.821  1.00  0.00     0.188 C 
BRANCH   2   3
ATOM      3  C   UNL     1       0.316  -1.866  -3.057  1.00  0.00     0.188 C 
BRANCH   3   4
ATOM      4  O   UNL     1       0.872  -1.910  -4.362  1.00  0.00    -0.376 OA
BRANCH   4   5
ATOM      5  C   UNL     1       2.111  -1.273  -4.630  1.00  0.00     0.202 C 
BRANCH   5   6
ATOM      6  C   UNL     1       2.423   0.149  -4.117  1.00  0.00     0.261 C 
BRANCH   6   7
ATOM      7  O   UNL     1       2.001   0.480  -2.779  1.00  0.00    -0.463 OA
BRANCH   7   8
ATOM      8  C   UNL     1       0.947   1.327  -2.664  1.00  0.00     0.313 C 
ATOM      9  O   UNL     1       0.377   1.835  -3.626  1.00  0.00    -0.252 OA
BRANCH   8  10
ATOM     10  C   UNL     1       0.514   1.608  -1.210  1.00  0.00     0.126 C 
ATOM     11  C   UNL     1       1.348   1.032  -0.058  1.00  0.00     0.025 C 
BRANCH  10  12
ATOM     12  C   UNL     1      -0.989   1.381  -1.036  1.00  0.00    -0.031 A 
ATOM     13  C   UNL     1      -1.853   2.469  -1.198  1.00  0.00     0.005 A 
ATOM     14  C   UNL     1      -1.567   0.122  -0.814  1.00  0.00     0.044 A 
ATOM     15  C   UNL     1      -3.241   2.300  -1.159  1.00  0.00     0.012 A 
ATOM     16  C   UNL     1      -2.957  -0.044  -0.803  1.00  0.00     0.131 A 
ATOM     17  C   UNL     1      -3.828   1.036  -0.979  1.00  0.00     0.017 A 
ATOM     18  F   UNL     1      -3.438  -1.288  -0.639  1.00  0.00    -0.206 F 
BRANCH  17  19
ATOM     19  C   UNL     1      -5.294   0.893  -0.971  1.00  0.00    -0.015 A 
ATOM     20  C   UNL     1      -6.081   1.514  -1.959  1.00  0.00     0.009 A 
ATOM     21  C   UNL     1      -5.959   0.185   0.043  1.00  0.00     0.009 A 
ATOM     22  C   UNL     1      -7.476   1.465  -1.913  1.00  0.00     0.001 A 
ATOM     23  C   UNL     1      -7.355   0.133   0.090  1.00  0.00     0.001 A 
ATOM     24  C   UNL     1      -8.113   0.781  -0.882  1.00  0.00     0.000 A 
ENDBRANCH  17  19
ENDBRANCH  10  12
ENDBRANCH   8  10
ENDBRANCH   7   8
ENDBRANCH   6   7
ENDBRANCH   5   6
ENDBRANCH   4   5
ENDBRANCH   3   4
ENDBRANCH   2   3
ENDBRANCH   1   2
BRANCH   1  25
ATOM     25  C   UNL     1       3.109  -3.482  -2.172  1.00  0.00     0.188 C 
BRANCH  25  26
ATOM     26  C   UNL     1       2.217  -4.560  -2.816  1.00  0.00     0.188 C 
BRANCH  26  27
ATOM     27  O   UNL     1       0.908  -4.631  -2.259  1.00  0.00    -0.376 OA
BRANCH  27  28
ATOM     28  C   UNL     1       0.628  -5.626  -1.286  1.00  0.00     0.202 C 
BRANCH  28  29
ATOM     29  C   UNL     1       1.271  -5.457   0.101  1.00  0.00     0.261 C 
BRANCH  29  30
ATOM     30  O   UNL     1       2.705  -5.391   0.138  1.00  0.00    -0.460 OA
BRANCH  30  31
ATOM     31  C   UNL     1       3.398  -6.433  -0.367  1.00  0.00     0.338 C 
ATOM     32  O   UNL     1       2.946  -7.480  -0.797  1.00  0.00    -0.246 OA
BRANCH  31  33
ATOM     33  C   UNL     1       4.807  -6.008  -0.509  1.00  0.00     0.060 A 
ATOM     34  C   UNL     1       5.395  -6.035  -1.781  1.00  0.00     0.016 A 
ATOM     35  C   UNL     1       5.536  -5.564   0.597  1.00  0.00     0.016 A 
ATOM     36  C   UNL     1       6.726  -5.651  -1.945  1.00  0.00     0.010 A 
ATOM     37  C   UNL     1       6.878  -5.207   0.436  1.00  0.00     0.010 A 
ATOM     38  C   UNL     1       7.487  -5.282  -0.829  1.00  0.00    -0.014 A 
BRANCH  38  39
ATOM     39  C   UNL     1       8.963  -5.196  -0.949  1.00  0.00     0.031 A 
ATOM     40  C   UNL     1       9.776  -6.396  -0.546  1.00  0.00     0.074 A 
ATOM     41  C   UNL     1       9.570  -4.096  -1.425  1.00  0.00     0.049 A 
ATOM     42  N   UNL     1      11.074  -6.551  -0.511  1.00  0.00    -0.248 NA
ATOM     43  C   UNL     1       9.016  -7.584  -0.123  1.00  0.00     0.031 C 
ATOM     44  C   UNL     1       8.893  -2.889  -1.895  1.00  0.00     0.029 A 
ATOM     45  N   UNL     1      10.906  -3.818  -1.583  1.00  0.00    -0.354 N 
ATOM     46  C   UNL     1      11.285  -7.846  -0.053  1.00  0.00     0.074 A 
ATOM     47  C   UNL     1       9.985  -8.424   0.205  1.00  0.00     0.031 C 
ATOM     48  C   UNL     1       9.820  -1.993  -2.280  1.00  0.00     0.029 A 
ATOM     49  C   UNL     1      11.152  -2.549  -2.049  1.00  0.00     0.049 A 
ATOM     50  H   UNL     1      11.618  -4.466  -1.381  1.00  0.00     0.167 HD
ATOM     51  C   UNL     1      12.457  -8.497   0.130  1.00  0.00     0.037 A 
ATOM     52  C   UNL     1      12.322  -1.908  -2.241  1.00  0.00     0.037 A 
ATOM     53  C   UNL     1      13.749  -7.918  -0.126  1.00  0.00     0.049 A 
ATOM     54  C   UNL     1      13.616  -2.625  -1.947  1.00  0.00     0.074 A 
ATOM     55  C   UNL     1      14.996  -8.500   0.010  1.00  0.00     0.029 A 
ATOM     56  N   UNL     1      13.959  -6.617  -0.559  1.00  0.00    -0.354 N 
ATOM     57  N   UNL     1      13.808  -3.857  -1.539  1.00  0.00    -0.248 NA
ATOM     58  C   UNL     1      14.857  -1.861  -2.143  1.00  0.00     0.031 C 
ATOM     59  C   UNL     1      15.963  -7.532  -0.279  1.00  0.00     0.029 A 
ATOM     60  C   UNL     1      15.317  -6.368  -0.663  1.00  0.00     0.049 A 
ATOM     61  H   UNL     1      13.248  -5.967  -0.762  1.00  0.00     0.167 HD
ATOM     62  C   UNL     1      15.187  -4.025  -1.464  1.00  0.00     0.074 A 
ATOM     63  C   UNL     1      15.782  -2.773  -1.881  1.00  0.00     0.031 C 
ATOM     64  C   UNL     1      15.896  -5.119  -1.089  1.00  0.00     0.037 A 
BRANCH  51  65
ATOM     65  C   UNL     1      12.394  -9.897   0.668  1.00  0.00     0.057 A 
ATOM     66  C   UNL     1      11.904 -10.967  -0.092  1.00  0.00     0.134 A 
ATOM     67  C   UNL     1      12.854 -10.181   1.960  1.00  0.00     0.134 A 
ATOM     68  F   UNL     1      11.431 -10.762  -1.331  1.00  0.00    -0.206 F 
ATOM     69  C   UNL     1      11.850 -12.264   0.423  1.00  0.00     0.040 A 
ATOM     70  C   UNL     1      12.833 -11.478   2.475  1.00  0.00     0.040 A 
ATOM     71  F   UNL     1      13.338  -9.204   2.742  1.00  0.00    -0.206 F 
ATOM     72  C   UNL     1      12.323 -12.523   1.707  1.00  0.00     0.006 A 
ENDBRANCH  51  65
BRANCH  52  73
ATOM     73  C   UNL     1      12.335  -0.501  -2.722  1.00  0.00     0.057 A 
ATOM     74  C   UNL     1      12.849  -0.168  -3.981  1.00  0.00     0.134 A 
ATOM     75  C   UNL     1      11.868   0.548  -1.921  1.00  0.00     0.134 A 
ATOM     76  F   UNL     1      13.336  -1.124  -4.785  1.00  0.00    -0.206 F 
ATOM     77  C   UNL     1      12.918   1.157  -4.417  1.00  0.00     0.040 A 
ATOM     78  C   UNL     1      11.904   1.875  -2.356  1.00  0.00     0.040 A 
ATOM     79  F   UNL     1      11.365   0.299  -0.703  1.00  0.00    -0.206 F 
ATOM     80  C   UNL     1      12.440   2.182  -3.605  1.00  0.00     0.006 A 
ENDBRANCH  52  73
BRANCH  64  81
ATOM     81  C   UNL     1      17.395  -5.031  -1.157  1.00  0.00     0.057 A 
ATOM     82  C   UNL     1      18.138  -4.246  -0.266  1.00  0.00     0.134 A 
ATOM     83  C   UNL     1      18.107  -5.783  -2.101  1.00  0.00     0.134 A 
ATOM     84  F   UNL     1      17.519  -3.494   0.657  1.00  0.00    -0.206 F 
ATOM     85  C   UNL     1      19.532  -4.191  -0.329  1.00  0.00     0.040 A 
ATOM     86  C   UNL     1      19.502  -5.762  -2.153  1.00  0.00     0.040 A 
ATOM     87  F   UNL     1      17.460  -6.567  -2.977  1.00  0.00    -0.206 F 
ATOM     88  C   UNL     1      20.218  -4.957  -1.270  1.00  0.00     0.006 A 
ENDBRANCH  64  81
ENDBRANCH  38  39
ENDBRANCH  31  33
ENDBRANCH  30  31
ENDBRANCH  29  30
ENDBRANCH  28  29
ENDBRANCH  27  28
ENDBRANCH  26  27
ENDBRANCH  25  26
ENDBRANCH   1  25
TORSDOF 22
