REMARK SMILES C=CC[N@H+]1C[C@@H]2CN(C(=O)c3ccc(COC)s3)C[C@@]2(C(=O)OCCOCCOCCOCCOC(=O)c2ccc(-c3c4nc(c(-c5c(F)cccc5F)c5ccc([nH]5)c(-c5c(F)cccc5F)c5nc(c(-c6c(F)cccc6F)c6ccc3[nH]6)C=C5)C=C4)cc2)C1
REMARK SMILES IDX 28 1 27 2 26 3 25 4 24 5 23 6 21 7 22 8 20 9 4 10 5 11 92 12
REMARK SMILES IDX 6 14 7 15 19 16 8 17 3 18 2 19 1 20 9 21 10 22 11 23 12 24
REMARK SMILES IDX 18 25 13 26 14 27 15 28 16 29 17 30 29 31 30 32 31 33 32 34
REMARK SMILES IDX 33 35 34 36 35 37 36 38 37 39 38 40 39 41 91 42 40 43 90 44
REMARK SMILES IDX 41 45 42 46 43 47 84 48 44 49 89 50 83 51 85 52 45 53 88 54
REMARK SMILES IDX 82 55 81 56 46 58 72 59 55 60 71 61 56 62 59 63 70 64 86 65
REMARK SMILES IDX 57 66 58 67 69 69 87 70 60 71 47 72 48 73 53 74 49 75 50 76
REMARK SMILES IDX 52 77 54 78 51 79 73 80 74 81 79 82 75 83 76 84 78 85 80 86
REMARK SMILES IDX 77 87 61 88 62 89 67 90 63 91 64 92 66 93 68 94 65 95
REMARK H PARENT 4 13 85 57 59 68
REMARK Flexibility Score: inf
ROOT
ATOM      1  C   UNL     1      -6.715   2.129   2.719  1.00  0.00     0.188 C 
ENDROOT
BRANCH   1   2
ATOM      2  C   UNL     1      -6.591   0.767   1.990  1.00  0.00     0.188 C 
BRANCH   2   3
ATOM      3  O   UNL     1      -6.907  -0.466   2.646  1.00  0.00    -0.376 OA
BRANCH   3   4
ATOM      4  C   UNL     1      -6.433  -0.748   3.966  1.00  0.00     0.202 C 
BRANCH   4   5
ATOM      5  C   UNL     1      -4.958  -0.480   4.309  1.00  0.00     0.261 C 
BRANCH   5   6
ATOM      6  O   UNL     1      -4.587   0.766   3.731  1.00  0.00    -0.463 OA
BRANCH   6   7
ATOM      7  C   UNL     1      -3.295   1.145   3.554  1.00  0.00     0.320 C 
ATOM      8  O   UNL     1      -2.332   0.554   4.011  1.00  0.00    -0.251 OA
BRANCH   7   9
ATOM      9  C   UNL     1      -3.387   2.464   2.689  1.00  0.00     0.144 C 
ATOM     10  N   UNL     1      -1.456   1.780   1.308  1.00  0.00    -0.330 N 
ATOM     11  C   UNL     1      -1.222   3.176   1.623  1.00  0.00     0.269 C 
ATOM     12  C   UNL     1      -2.885   1.545   1.504  1.00  0.00     0.283 C 
ATOM     13  H   UNL     1      -0.897   1.198   1.932  1.00  0.00     0.348 HD
ATOM     14  C   UNL     1      -2.606   3.644   1.998  1.00  0.00     0.089 C 
ATOM     15  C   UNL     1      -2.644   4.943   2.768  1.00  0.00     0.130 C 
ATOM     16  C   UNL     1      -3.300   3.140   4.106  1.00  0.00     0.145 C 
ATOM     17  N   UNL     1      -3.270   4.578   3.984  1.00  0.00    -0.336 N 
BRANCH  10  18
ATOM     18  C   UNL     1      -0.977   1.351   0.000  1.00  0.00     0.290 C 
BRANCH  18  19
ATOM     19  C   UNL     1       0.515   1.210   0.027  1.00  0.00     0.025 C 
ATOM     20  C   UNL     1       1.164   0.049  -0.128  1.00  0.00     0.010 C 
ENDBRANCH  18  19
ENDBRANCH  10  18
BRANCH  17  21
ATOM     21  C   UNL     1      -3.737   5.548   4.861  1.00  0.00     0.263 C 
ATOM     22  O   UNL     1      -3.571   6.740   4.593  1.00  0.00    -0.268 OA
BRANCH  21  23
ATOM     23  C   UNL     1      -4.486   5.106   6.025  1.00  0.00     0.092 A 
ATOM     24  C   UNL     1      -4.284   4.059   6.906  1.00  0.00     0.026 A 
ATOM     25  S   UNL     1      -5.910   5.973   6.411  1.00  0.00    -0.133 S 
ATOM     26  C   UNL     1      -5.378   3.884   7.800  1.00  0.00     0.018 A 
ATOM     27  C   UNL     1      -6.338   4.855   7.624  1.00  0.00     0.031 A 
BRANCH  27  28
ATOM     28  C   UNL     1      -7.664   4.963   8.277  1.00  0.00     0.206 C 
BRANCH  28  29
ATOM     29  O   UNL     1      -7.766   6.161   9.040  1.00  0.00    -0.379 OA
ATOM     30  C   UNL     1      -7.144   6.059  10.313  1.00  0.00     0.195 C 
ENDBRANCH  28  29
ENDBRANCH  27  28
ENDBRANCH  21  23
ENDBRANCH  17  21
ENDBRANCH   7   9
ENDBRANCH   6   7
ENDBRANCH   5   6
ENDBRANCH   4   5
ENDBRANCH   3   4
ENDBRANCH   2   3
ENDBRANCH   1   2
BRANCH   1  31
ATOM     31  O   UNL     1      -6.907   2.028   4.120  1.00  0.00    -0.377 OA
BRANCH  31  32
ATOM     32  C   UNL     1      -8.247   2.205   4.570  1.00  0.00     0.188 C 
BRANCH  32  33
ATOM     33  C   UNL     1      -9.344   1.545   3.714  1.00  0.00     0.188 C 
BRANCH  33  34
ATOM     34  O   UNL     1      -9.410   2.085   2.399  1.00  0.00    -0.376 OA
BRANCH  34  35
ATOM     35  C   UNL     1     -10.307   3.157   2.140  1.00  0.00     0.202 C 
BRANCH  35  36
ATOM     36  C   UNL     1     -10.184   4.448   2.965  1.00  0.00     0.261 C 
BRANCH  36  37
ATOM     37  O   UNL     1     -10.333   4.339   4.393  1.00  0.00    -0.460 OA
BRANCH  37  38
ATOM     38  C   UNL     1     -11.420   3.737   4.913  1.00  0.00     0.338 C 
ATOM     39  O   UNL     1     -12.370   3.265   4.316  1.00  0.00    -0.246 OA
BRANCH  38  40
ATOM     40  C   UNL     1     -11.168   3.598   6.363  1.00  0.00     0.060 A 
ATOM     41  C   UNL     1     -11.002   2.331   6.943  1.00  0.00     0.016 A 
ATOM     42  C   UNL     1     -11.055   4.745   7.143  1.00  0.00     0.016 A 
ATOM     43  C   UNL     1     -10.732   2.209   8.314  1.00  0.00     0.010 A 
ATOM     44  C   UNL     1     -10.781   4.618   8.506  1.00  0.00     0.010 A 
ATOM     45  C   UNL     1     -10.639   3.351   9.116  1.00  0.00    -0.014 A 
BRANCH  45  46
ATOM     46  C   UNL     1     -10.567   3.282  10.606  1.00  0.00     0.031 A 
ATOM     47  C   UNL     1     -11.727   3.860  11.380  1.00  0.00     0.074 A 
ATOM     48  C   UNL     1      -9.503   2.799  11.281  1.00  0.00     0.049 A 
ATOM     49  N   UNL     1     -11.850   4.093  12.661  1.00  0.00    -0.248 NA
ATOM     50  C   UNL     1     -12.902   4.258  10.583  1.00  0.00     0.031 C 
ATOM     51  C   UNL     1      -8.315   2.176  10.698  1.00  0.00     0.029 A 
ATOM     52  N   UNL     1      -9.236   2.805  12.633  1.00  0.00    -0.354 N 
ATOM     53  C   UNL     1     -13.101   4.678  12.812  1.00  0.00     0.074 A 
ATOM     54  C   UNL     1     -13.651   4.860  11.488  1.00  0.00     0.031 C 
ATOM     55  C   UNL     1      -7.422   1.924  11.673  1.00  0.00     0.029 A 
ATOM     56  C   UNL     1      -7.977   2.352  12.955  1.00  0.00     0.049 A 
ATOM     57  H   UNL     1      -9.886   3.106  13.307  1.00  0.00     0.167 HD
ATOM     58  C   UNL     1     -13.769   4.988  13.947  1.00  0.00     0.037 A 
ATOM     59  C   UNL     1      -7.342   2.296  14.144  1.00  0.00     0.037 A 
ATOM     60  C   UNL     1     -13.253   4.772  15.268  1.00  0.00     0.049 A 
ATOM     61  C   UNL     1      -8.069   2.713  15.399  1.00  0.00     0.074 A 
ATOM     62  C   UNL     1     -13.878   4.989  16.483  1.00  0.00     0.029 A 
ATOM     63  N   UNL     1     -11.985   4.289  15.547  1.00  0.00    -0.354 N 
ATOM     64  N   UNL     1      -9.283   3.189  15.533  1.00  0.00    -0.248 NA
ATOM     65  C   UNL     1      -7.348   2.552  16.672  1.00  0.00     0.031 C 
ATOM     66  C   UNL     1     -12.969   4.682  17.499  1.00  0.00     0.029 A 
ATOM     67  C   UNL     1     -11.799   4.221  16.916  1.00  0.00     0.049 A 
ATOM     68  H   UNL     1     -11.316   4.033  14.871  1.00  0.00     0.167 HD
ATOM     69  C   UNL     1      -9.491   3.324  16.902  1.00  0.00     0.074 A 
ATOM     70  C   UNL     1      -8.277   2.887  17.556  1.00  0.00     0.031 C 
ATOM     71  C   UNL     1     -10.596   3.757  17.558  1.00  0.00     0.037 A 
BRANCH  58  72
ATOM     72  C   UNL     1     -15.142   5.572  13.789  1.00  0.00     0.057 A 
ATOM     73  C   UNL     1     -16.209   4.821  13.272  1.00  0.00     0.134 A 
ATOM     74  C   UNL     1     -15.399   6.903  14.139  1.00  0.00     0.134 A 
ATOM     75  F   UNL     1     -16.024   3.545  12.900  1.00  0.00    -0.206 F 
ATOM     76  C   UNL     1     -17.467   5.386  13.065  1.00  0.00     0.040 A 
ATOM     77  C   UNL     1     -16.663   7.468  13.970  1.00  0.00     0.040 A 
ATOM     78  F   UNL     1     -14.426   7.676  14.643  1.00  0.00    -0.206 F 
ATOM     79  C   UNL     1     -17.698   6.713  13.419  1.00  0.00     0.006 A 
ENDBRANCH  58  72
BRANCH  59  80
ATOM     80  C   UNL     1      -5.944   1.792  14.233  1.00  0.00     0.057 A 
ATOM     81  C   UNL     1      -5.656   0.560  14.835  1.00  0.00     0.134 A 
ATOM     82  C   UNL     1      -4.861   2.552  13.777  1.00  0.00     0.134 A 
ATOM     83  F   UNL     1      -6.649  -0.203  15.314  1.00  0.00    -0.206 F 
ATOM     84  C   UNL     1      -4.344   0.116  15.008  1.00  0.00     0.040 A 
ATOM     85  C   UNL     1      -3.543   2.110  13.924  1.00  0.00     0.040 A 
ATOM     86  F   UNL     1      -5.067   3.739  13.188  1.00  0.00    -0.206 F 
ATOM     87  C   UNL     1      -3.282   0.893  14.551  1.00  0.00     0.006 A 
ENDBRANCH  59  80
BRANCH  71  88
ATOM     88  C   UNL     1     -10.582   3.716  19.060  1.00  0.00     0.057 A 
ATOM     89  C   UNL     1      -9.809   4.598  19.824  1.00  0.00     0.134 A 
ATOM     90  C   UNL     1     -11.408   2.817  19.749  1.00  0.00     0.134 A 
ATOM     91  F   UNL     1      -8.988   5.476  19.228  1.00  0.00    -0.206 F 
ATOM     92  C   UNL     1      -9.842   4.574  21.220  1.00  0.00     0.040 A 
ATOM     93  C   UNL     1     -11.474   2.805  21.143  1.00  0.00     0.040 A 
ATOM     94  F   UNL     1     -12.184   1.952  19.078  1.00  0.00    -0.206 F 
ATOM     95  C   UNL     1     -10.684   3.682  21.883  1.00  0.00     0.006 A 
ENDBRANCH  71  88
ENDBRANCH  45  46
ENDBRANCH  38  40
ENDBRANCH  37  38
ENDBRANCH  36  37
ENDBRANCH  35  36
ENDBRANCH  34  35
ENDBRANCH  33  34
ENDBRANCH  32  33
ENDBRANCH  31  32
ENDBRANCH   1  31
TORSDOF 26
