REMARK SMILES Cc1ccc(S(=O)(=O)n2cc(C(=O)C(=O)N[C@@H](Cc3c[nH]c4ccccc34)C(=O)NCC(=O)OCCOCCOCCOCCOC(=O)c3ccc(-c4c5nc(c(-c6c(F)cccc6F)c6ccc([nH]6)c(-c6c(F)cccc6F)c6nc(c(-c7c(F)cccc7F)c7ccc4[nH]7)C=C6)C=C5)cc3)c3ccccc32)cc1
REMARK SMILES IDX 38 1 37 2 36 3 35 4 34 5 32 6 33 7 31 8 30 9 28 10 29 11
REMARK SMILES IDX 17 13 16 14 14 15 15 16 12 18 13 19 11 20 9 21 10 22 108 23
REMARK SMILES IDX 103 24 107 25 104 26 106 27 105 28 6 29 7 30 8 31 5 32 1 33
REMARK SMILES IDX 2 34 3 35 110 36 4 37 109 38 18 39 19 40 20 41 27 42 21 43
REMARK SMILES IDX 22 44 26 45 23 47 25 48 24 49 39 50 40 51 41 52 42 53 43 54
REMARK SMILES IDX 44 55 45 56 46 57 47 58 48 59 49 60 50 61 102 62 51 63
REMARK SMILES IDX 101 64 52 65 53 66 54 67 95 68 55 69 100 70 94 71 96 72
REMARK SMILES IDX 56 73 99 74 93 75 92 76 57 78 83 79 66 80 82 81 67 82 70 83
REMARK SMILES IDX 81 84 97 85 68 86 69 87 80 89 98 90 71 91 58 92 59 93 64 94
REMARK SMILES IDX 60 95 61 96 63 97 65 98 62 99 84 100 85 101 90 102 86 103
REMARK SMILES IDX 87 104 89 105 91 106 88 107 72 108 73 109 78 110 74 111
REMARK SMILES IDX 75 112 77 113 79 114 76 115
REMARK H PARENT 30 12 16 17 21 46 96 77 70 88
REMARK Flexibility Score: inf
ROOT
ATOM      1  C   UNL     1     -12.074   5.134  -5.578  1.00  0.00     0.188 C 
ENDROOT
BRANCH   1   2
ATOM      2  O   UNL     1     -10.775   5.900  -5.453  1.00  0.00    -0.376 OA
BRANCH   2   3
ATOM      3  C   UNL     1     -10.222   7.102  -4.533  1.00  0.00     0.202 C 
BRANCH   3   4
ATOM      4  C   UNL     1     -10.317   7.708  -2.777  1.00  0.00     0.261 C 
BRANCH   4   5
ATOM      5  O   UNL     1     -10.887   6.998  -1.298  1.00  0.00    -0.462 OA
BRANCH   5   6
ATOM      6  C   UNL     1     -11.925   6.693  -0.368  1.00  0.00     0.325 C 
ATOM      7  O   UNL     1     -13.113   7.053  -0.421  1.00  0.00    -0.250 OA
BRANCH   6   8
ATOM      8  C   UNL     1     -11.712   5.479   0.713  1.00  0.00     0.238 C 
BRANCH   8   9
ATOM      9  N   UNL     1     -12.579   4.176   0.595  1.00  0.00    -0.343 N 
ATOM     10  C   UNL     1     -12.384   2.818   0.369  1.00  0.00     0.243 C 
ATOM     11  O   UNL     1     -13.295   2.225  -0.238  1.00  0.00    -0.273 OA
ATOM     12  H   UNL     1     -13.535   4.378   0.716  1.00  0.00     0.164 HD
BRANCH  10  13
ATOM     13  C   UNL     1     -11.219   1.935   0.974  1.00  0.00     0.176 C 
BRANCH  13  14
ATOM     14  N   UNL     1      -9.934   2.620   1.298  1.00  0.00    -0.337 N 
ATOM     15  C   UNL     1      -8.592   2.418   0.952  1.00  0.00     0.293 C 
ATOM     16  O   UNL     1      -7.735   3.163   1.428  1.00  0.00    -0.265 OA
ATOM     17  H   UNL     1     -10.059   3.393   1.895  1.00  0.00     0.164 HD
BRANCH  15  18
ATOM     18  C   UNL     1      -8.118   1.308  -0.010  1.00  0.00     0.252 C 
ATOM     19  O   UNL     1      -8.928   0.964  -0.870  1.00  0.00    -0.283 OA
BRANCH  18  20
ATOM     20  C   UNL     1      -6.836   0.552   0.175  1.00  0.00     0.054 A 
ATOM     21  N   UNL     1      -4.757  -0.249   0.699  1.00  0.00    -0.240 N 
ATOM     22  C   UNL     1      -5.491   0.917   0.409  1.00  0.00     0.117 A 
ATOM     23  C   UNL     1      -5.686  -1.305   0.748  1.00  0.00     0.065 A 
ATOM     24  C   UNL     1      -6.797  -0.870   0.036  1.00  0.00     0.012 A 
ATOM     25  C   UNL     1      -5.538  -2.659   1.110  1.00  0.00     0.028 A 
ATOM     26  C   UNL     1      -7.644  -1.836  -0.545  1.00  0.00     0.011 A 
ATOM     27  C   UNL     1      -6.356  -3.597   0.487  1.00  0.00     0.002 A 
ATOM     28  C   UNL     1      -7.362  -3.194  -0.377  1.00  0.00     0.001 A 
BRANCH  21  29
ATOM     29  S   UNL     1      -3.219  -0.795   0.030  1.00  0.00     0.268 S 
ATOM     30  O   UNL     1      -3.525  -1.011  -1.372  1.00  0.00    -0.201 OA
ATOM     31  O   UNL     1      -2.924  -1.925   0.913  1.00  0.00    -0.201 OA
BRANCH  29  32
ATOM     32  C   UNL     1      -1.632  -0.021   0.034  1.00  0.00     0.088 A 
ATOM     33  C   UNL     1       2.609   0.909  -0.023  1.00  0.00     0.044 C 
ATOM     34  C   UNL     1       1.131   0.630  -0.038  1.00  0.00    -0.051 A 
ATOM     35  C   UNL     1       0.732  -0.674  -0.282  1.00  0.00     0.005 A 
ATOM     36  C   UNL     1       0.139   1.604   0.222  1.00  0.00     0.005 A 
ATOM     37  C   UNL     1      -0.619  -0.980  -0.260  1.00  0.00     0.022 A 
ATOM     38  C   UNL     1      -1.251   1.288   0.264  1.00  0.00     0.022 A 
ENDBRANCH  29  32
ENDBRANCH  21  29
ENDBRANCH  18  20
ENDBRANCH  15  18
ENDBRANCH  13  14
BRANCH  13  39
ATOM     39  C   UNL     1     -11.896   1.196   2.197  1.00  0.00     0.072 C 
BRANCH  39  40
ATOM     40  C   UNL     1     -12.823   2.123   2.958  1.00  0.00    -0.020 A 
ATOM     41  C   UNL     1     -14.194   2.251   2.787  1.00  0.00     0.087 A 
ATOM     42  C   UNL     1     -12.378   3.284   3.655  1.00  0.00     0.003 A 
ATOM     43  N   UNL     1     -14.550   3.514   3.200  1.00  0.00    -0.361 N 
ATOM     44  C   UNL     1     -13.434   4.194   3.634  1.00  0.00     0.046 A 
ATOM     45  C   UNL     1     -11.096   3.714   4.039  1.00  0.00     0.010 A 
ATOM     46  H   UNL     1     -15.465   3.878   3.186  1.00  0.00     0.166 HD
ATOM     47  C   UNL     1     -13.245   5.553   3.894  1.00  0.00     0.026 A 
ATOM     48  C   UNL     1     -10.872   5.075   4.221  1.00  0.00     0.001 A 
ATOM     49  C   UNL     1     -11.934   5.973   4.153  1.00  0.00     0.002 A 
ENDBRANCH  39  40
ENDBRANCH  13  39
ENDBRANCH  10  13
ENDBRANCH   8   9
ENDBRANCH   6   8
ENDBRANCH   5   6
ENDBRANCH   4   5
ENDBRANCH   3   4
ENDBRANCH   2   3
ENDBRANCH   1   2
BRANCH   1  50
ATOM     50  C   UNL     1     -12.188   3.630  -5.115  1.00  0.00     0.188 C 
BRANCH  50  51
ATOM     51  O   UNL     1     -11.143   2.881  -5.682  1.00  0.00    -0.377 OA
BRANCH  51  52
ATOM     52  C   UNL     1     -11.497   2.277  -6.920  1.00  0.00     0.188 C 
BRANCH  52  53
ATOM     53  C   UNL     1     -12.291   3.140  -7.931  1.00  0.00     0.188 C 
BRANCH  53  54
ATOM     54  O   UNL     1     -13.560   3.493  -7.375  1.00  0.00    -0.376 OA
BRANCH  54  55
ATOM     55  C   UNL     1     -14.702   3.642  -8.194  1.00  0.00     0.202 C 
BRANCH  55  56
ATOM     56  C   UNL     1     -14.569   4.571  -9.404  1.00  0.00     0.261 C 
BRANCH  56  57
ATOM     57  O   UNL     1     -14.639   5.941  -8.970  1.00  0.00    -0.460 OA
BRANCH  57  58
ATOM     58  C   UNL     1     -13.483   6.641  -8.843  1.00  0.00     0.338 C 
ATOM     59  O   UNL     1     -12.456   6.454  -9.470  1.00  0.00    -0.246 OA
BRANCH  58  60
ATOM     60  C   UNL     1     -13.599   7.474  -7.601  1.00  0.00     0.060 A 
ATOM     61  C   UNL     1     -12.496   8.169  -7.107  1.00  0.00     0.016 A 
ATOM     62  C   UNL     1     -14.671   7.235  -6.739  1.00  0.00     0.016 A 
ATOM     63  C   UNL     1     -12.387   8.366  -5.718  1.00  0.00     0.010 A 
ATOM     64  C   UNL     1     -14.438   7.230  -5.371  1.00  0.00     0.010 A 
ATOM     65  C   UNL     1     -13.187   7.600  -4.857  1.00  0.00    -0.014 A 
BRANCH  65  66
ATOM     66  C   UNL     1     -12.866   7.061  -3.405  1.00  0.00     0.031 A 
ATOM     67  C   UNL     1     -13.254   8.329  -2.541  1.00  0.00     0.074 A 
ATOM     68  C   UNL     1     -12.149   5.818  -3.043  1.00  0.00     0.049 A 
ATOM     69  N   UNL     1     -12.485   9.049  -1.763  1.00  0.00    -0.248 NA
ATOM     70  C   UNL     1     -14.499   9.063  -2.840  1.00  0.00     0.031 C 
ATOM     71  C   UNL     1     -12.311   4.774  -2.026  1.00  0.00     0.029 A 
ATOM     72  N   UNL     1     -10.756   5.351  -3.312  1.00  0.00    -0.354 N 
ATOM     73  C   UNL     1     -13.238  10.065  -1.220  1.00  0.00     0.074 A 
ATOM     74  C   UNL     1     -14.370  10.165  -2.104  1.00  0.00     0.031 C 
ATOM     75  C   UNL     1     -11.093   4.239  -1.640  1.00  0.00     0.029 A 
ATOM     76  C   UNL     1      -9.992   4.804  -2.316  1.00  0.00     0.049 A 
ATOM     77  H   UNL     1     -10.382   5.439  -4.218  1.00  0.00     0.167 HD
ATOM     78  C   UNL     1     -13.000  10.612   0.015  1.00  0.00     0.037 A 
ATOM     79  C   UNL     1      -8.649   4.917  -2.039  1.00  0.00     0.037 A 
ATOM     80  C   UNL     1     -11.930   9.932   0.774  1.00  0.00     0.049 A 
ATOM     81  C   UNL     1      -8.152   5.855  -0.885  1.00  0.00     0.074 A 
ATOM     82  C   UNL     1     -11.974   9.201   1.952  1.00  0.00     0.029 A 
ATOM     83  N   UNL     1     -10.623   9.751   0.283  1.00  0.00    -0.354 N 
ATOM     84  N   UNL     1      -8.849   6.740  -0.215  1.00  0.00    -0.248 NA
ATOM     85  C   UNL     1      -6.745   5.895  -0.457  1.00  0.00     0.031 C 
ATOM     86  C   UNL     1     -10.695   8.688   2.227  1.00  0.00     0.029 A 
ATOM     87  C   UNL     1      -9.861   8.995   1.173  1.00  0.00     0.049 A 
ATOM     88  H   UNL     1     -10.292  10.109  -0.572  1.00  0.00     0.167 HD
ATOM     89  C   UNL     1      -8.017   7.584   0.508  1.00  0.00     0.074 A 
ATOM     90  C   UNL     1      -6.736   6.910   0.426  1.00  0.00     0.031 C 
ATOM     91  C   UNL     1      -8.417   8.773   1.089  1.00  0.00     0.037 A 
BRANCH  78  92
ATOM     92  C   UNL     1     -14.101  11.486   0.661  1.00  0.00     0.057 A 
ATOM     93  C   UNL     1     -14.425  11.440   2.029  1.00  0.00     0.134 A 
ATOM     94  C   UNL     1     -14.960  12.327  -0.072  1.00  0.00     0.134 A 
ATOM     95  F   UNL     1     -13.570  10.984   2.949  1.00  0.00    -0.206 F 
ATOM     96  C   UNL     1     -15.639  11.919   2.551  1.00  0.00     0.040 A 
ATOM     97  C   UNL     1     -16.200  12.779   0.415  1.00  0.00     0.040 A 
ATOM     98  F   UNL     1     -14.614  12.768  -1.292  1.00  0.00    -0.206 F 
ATOM     99  C   UNL     1     -16.568  12.528   1.726  1.00  0.00     0.006 A 
ENDBRANCH  78  92
BRANCH  79 100
ATOM    100  C   UNL     1      -7.789   4.656  -3.251  1.00  0.00     0.057 A 
ATOM    101  C   UNL     1      -7.821   3.345  -3.749  1.00  0.00     0.134 A 
ATOM    102  C   UNL     1      -7.251   5.622  -4.105  1.00  0.00     0.134 A 
ATOM    103  F   UNL     1      -8.155   2.339  -2.934  1.00  0.00    -0.206 F 
ATOM    104  C   UNL     1      -7.596   3.046  -5.092  1.00  0.00     0.040 A 
ATOM    105  C   UNL     1      -7.038   5.345  -5.469  1.00  0.00     0.040 A 
ATOM    106  F   UNL     1      -7.101   6.892  -3.697  1.00  0.00    -0.206 F 
ATOM    107  C   UNL     1      -7.272   4.067  -5.975  1.00  0.00     0.006 A 
ENDBRANCH  79 100
BRANCH  91 108
ATOM    108  C   UNL     1      -7.534   9.743   1.909  1.00  0.00     0.057 A 
ATOM    109  C   UNL     1      -6.136   9.826   1.844  1.00  0.00     0.134 A 
ATOM    110  C   UNL     1      -8.106  10.677   2.821  1.00  0.00     0.134 A 
ATOM    111  F   UNL     1      -5.442   9.199   0.888  1.00  0.00    -0.206 F 
ATOM    112  C   UNL     1      -5.373  10.620   2.724  1.00  0.00     0.040 A 
ATOM    113  C   UNL     1      -7.360  11.488   3.687  1.00  0.00     0.040 A 
ATOM    114  F   UNL     1      -9.427  10.886   2.904  1.00  0.00    -0.206 F 
ATOM    115  C   UNL     1      -5.982  11.435   3.668  1.00  0.00     0.006 A 
ENDBRANCH  91 108
ENDBRANCH  65  66
ENDBRANCH  58  60
ENDBRANCH  57  58
ENDBRANCH  56  57
ENDBRANCH  55  56
ENDBRANCH  54  55
ENDBRANCH  53  54
ENDBRANCH  52  53
ENDBRANCH  51  52
ENDBRANCH  50  51
ENDBRANCH   1  50
TORSDOF 29
