REMARK SMILES Cc1cccc(C(=O)Nc2ccc(C(=O)NNC(=O)c3ccccc3C(=O)OCCOCCOCCOCCOC(=O)c3ccc(-c4c5nc(c(-c6c(F)cccc6F)c6ccc([nH]6)c(-c6c(F)cccc6F)c6nc(c(-c7c(F)cccc7F)c7ccc4[nH]7)C=C6)C=C5)cc3)cc2)c1
REMARK SMILES IDX 32 1 31 2 30 3 29 4 28 5 26 6 27 7 25 8 20 9 21 10 22 11
REMARK SMILES IDX 24 12 23 13 18 14 17 15 19 17 16 18 14 19 15 20 13 22 10 23
REMARK SMILES IDX 11 24 98 25 12 26 97 27 9 28 7 29 8 30 6 32 1 33 2 34 3 35
REMARK SMILES IDX 99 36 4 37 5 38 33 39 34 40 35 41 36 42 37 43 38 44 39 45
REMARK SMILES IDX 40 46 41 47 42 48 43 49 44 50 96 51 45 52 95 53 46 54 47 55
REMARK SMILES IDX 48 56 89 57 49 58 94 59 88 60 90 61 50 62 93 63 87 64 86 65
REMARK SMILES IDX 51 67 77 68 60 69 76 70 61 71 64 72 75 73 91 74 62 75 63 76
REMARK SMILES IDX 74 78 92 79 65 80 52 81 53 82 58 83 54 84 55 85 57 86 59 87
REMARK SMILES IDX 56 88 78 89 79 90 84 91 80 92 81 93 83 94 85 95 82 96 66 97
REMARK SMILES IDX 67 98 72 99 68 100 69 101 71 102 73 103 70 104
REMARK H PARENT 17 16 16 21 9 31 90 66 64 77
REMARK Flexibility Score: inf
ROOT
ATOM      1  C   UNL     1       6.378  -1.590   2.300  1.00  0.00     0.188 C 
ENDROOT
BRANCH   1   2
ATOM      2  O   UNL     1       6.004  -0.679   3.328  1.00  0.00    -0.376 OA
BRANCH   2   3
ATOM      3  C   UNL     1       6.283   0.705   3.155  1.00  0.00     0.202 C 
BRANCH   3   4
ATOM      4  C   UNL     1       7.689   1.114   2.800  1.00  0.00     0.261 C 
BRANCH   4   5
ATOM      5  O   UNL     1       7.913   0.623   1.502  1.00  0.00    -0.460 OA
BRANCH   5   6
ATOM      6  C   UNL     1       9.150   0.660   1.055  1.00  0.00     0.339 C 
ATOM      7  O   UNL     1      10.191   0.987   1.647  1.00  0.00    -0.246 OA
BRANCH   6   8
ATOM      8  C   UNL     1       9.055  -0.032  -0.196  1.00  0.00     0.072 A 
ATOM      9  C   UNL     1       8.138   0.334  -1.167  1.00  0.00     0.056 A 
ATOM     10  C   UNL     1       8.073  -0.561  -2.297  1.00  0.00     0.015 A 
ATOM     11  C   UNL     1       8.740  -1.790  -2.360  1.00  0.00     0.001 A 
ATOM     12  C   UNL     1       9.751  -1.266  -0.261  1.00  0.00     0.016 A 
ATOM     13  C   UNL     1       9.564  -2.156  -1.315  1.00  0.00     0.001 A 
BRANCH   9  14
ATOM     14  C   UNL     1       7.006   1.334  -1.075  1.00  0.00     0.270 C 
ATOM     15  N   UNL     1       6.649   2.417  -0.073  1.00  0.00    -0.263 N 
ATOM     16  H   UNL     1       6.810   2.232   0.881  1.00  0.00     0.191 HD
ATOM     17  O   UNL     1       6.165   0.824  -1.835  1.00  0.00    -0.267 OA
BRANCH  15  18
ATOM     18  N   UNL     1       5.947   4.027  -0.519  1.00  0.00    -0.263 N 
ATOM     19  C   UNL     1       4.967   5.195  -0.077  1.00  0.00     0.269 C 
ATOM     20  O   UNL     1       5.483   6.312   0.137  1.00  0.00    -0.267 OA
ATOM     21  H   UNL     1       6.328   4.280  -1.391  1.00  0.00     0.191 HD
BRANCH  19  22
ATOM     22  C   UNL     1       3.347   5.370  -0.015  1.00  0.00     0.041 A 
ATOM     23  C   UNL     1       0.464   4.891   0.272  1.00  0.00     0.041 A 
ATOM     24  C   UNL     1       1.057   5.004  -0.950  1.00  0.00     0.027 A 
ATOM     25  C   UNL     1       1.215   5.512   1.287  1.00  0.00     0.027 A 
ATOM     26  C   UNL     1       2.446   5.376  -1.079  1.00  0.00     0.016 A 
ATOM     27  C   UNL     1       2.649   5.713   1.154  1.00  0.00     0.016 A 
BRANCH  23  28
ATOM     28  N   UNL     1      -0.836   4.322   0.500  1.00  0.00    -0.322 N 
ATOM     29  C   UNL     1      -1.631   3.188   0.172  1.00  0.00     0.255 C 
ATOM     30  O   UNL     1      -2.848   3.397   0.316  1.00  0.00    -0.269 OA
ATOM     31  H   UNL     1      -1.355   4.923   1.083  1.00  0.00     0.170 HD
BRANCH  29  32
ATOM     32  C   UNL     1      -1.308   1.692  -0.099  1.00  0.00     0.040 A 
ATOM     33  C   UNL     1       1.293  -0.870  -1.508  1.00  0.00     0.044 C 
ATOM     34  C   UNL     1       0.088  -0.260  -0.826  1.00  0.00    -0.050 A 
ATOM     35  C   UNL     1      -0.929  -1.152  -0.508  1.00  0.00     0.003 A 
ATOM     36  C   UNL     1      -0.115   1.131  -0.539  1.00  0.00     0.017 A 
ATOM     37  C   UNL     1      -2.132  -0.655  -0.035  1.00  0.00     0.001 A 
ATOM     38  C   UNL     1      -2.322   0.736   0.133  1.00  0.00     0.014 A 
ENDBRANCH  29  32
ENDBRANCH  23  28
ENDBRANCH  19  22
ENDBRANCH  15  18
ENDBRANCH   9  14
ENDBRANCH   6   8
ENDBRANCH   5   6
ENDBRANCH   4   5
ENDBRANCH   3   4
ENDBRANCH   2   3
ENDBRANCH   1   2
BRANCH   1  39
ATOM     39  C   UNL     1       5.529  -1.831   1.034  1.00  0.00     0.188 C 
BRANCH  39  40
ATOM     40  O   UNL     1       4.967  -0.753   0.333  1.00  0.00    -0.377 OA
BRANCH  40  41
ATOM     41  C   UNL     1       3.729  -0.255   0.794  1.00  0.00     0.188 C 
BRANCH  41  42
ATOM     42  C   UNL     1       2.774  -1.130   1.579  1.00  0.00     0.188 C 
BRANCH  42  43
ATOM     43  O   UNL     1       3.301  -1.236   2.890  1.00  0.00    -0.376 OA
BRANCH  43  44
ATOM     44  C   UNL     1       2.903  -2.385   3.614  1.00  0.00     0.202 C 
BRANCH  44  45
ATOM     45  C   UNL     1       1.394  -2.435   3.861  1.00  0.00     0.261 C 
BRANCH  45  46
ATOM     46  O   UNL     1       1.040  -1.338   4.731  1.00  0.00    -0.460 OA
BRANCH  46  47
ATOM     47  C   UNL     1       0.179  -0.437   4.190  1.00  0.00     0.338 C 
ATOM     48  O   UNL     1      -0.924  -0.709   3.746  1.00  0.00    -0.246 OA
BRANCH  47  49
ATOM     49  C   UNL     1       0.886   0.853   3.934  1.00  0.00     0.060 A 
ATOM     50  C   UNL     1       0.357   1.716   2.990  1.00  0.00     0.016 A 
ATOM     51  C   UNL     1       2.211   1.021   4.285  1.00  0.00     0.016 A 
ATOM     52  C   UNL     1       1.229   2.456   2.168  1.00  0.00     0.010 A 
ATOM     53  C   UNL     1       3.034   1.781   3.448  1.00  0.00     0.010 A 
ATOM     54  C   UNL     1       2.601   2.435   2.278  1.00  0.00    -0.014 A 
BRANCH  54  55
ATOM     55  C   UNL     1       3.664   2.912   1.240  1.00  0.00     0.031 A 
ATOM     56  C   UNL     1       4.942   3.618   2.171  1.00  0.00     0.074 A 
ATOM     57  C   UNL     1       3.545   2.648  -0.192  1.00  0.00     0.049 A 
ATOM     58  N   UNL     1       6.165   3.867   1.810  1.00  0.00    -0.248 NA
ATOM     59  C   UNL     1       4.815   4.109   3.574  1.00  0.00     0.031 C 
ATOM     60  C   UNL     1       4.453   2.286  -1.275  1.00  0.00     0.029 A 
ATOM     61  N   UNL     1       2.489   2.656  -1.147  1.00  0.00    -0.354 N 
ATOM     62  C   UNL     1       6.969   4.425   2.785  1.00  0.00     0.074 A 
ATOM     63  C   UNL     1       6.064   4.500   3.909  1.00  0.00     0.031 C 
ATOM     64  C   UNL     1       4.043   2.002  -2.514  1.00  0.00     0.029 A 
ATOM     65  C   UNL     1       2.894   2.797  -2.567  1.00  0.00     0.049 A 
ATOM     66  H   UNL     1       1.545   2.573  -0.880  1.00  0.00     0.167 HD
ATOM     67  C   UNL     1       8.323   4.592   2.535  1.00  0.00     0.037 A 
ATOM     68  C   UNL     1       3.211   3.806  -3.477  1.00  0.00     0.037 A 
ATOM     69  C   UNL     1       8.661   4.657   1.082  1.00  0.00     0.049 A 
ATOM     70  C   UNL     1       4.571   4.828  -3.462  1.00  0.00     0.074 A 
ATOM     71  C   UNL     1       9.471   3.972   0.187  1.00  0.00     0.029 A 
ATOM     72  N   UNL     1       8.068   5.629   0.299  1.00  0.00    -0.354 N 
ATOM     73  N   UNL     1       5.782   4.701  -2.904  1.00  0.00    -0.248 NA
ATOM     74  C   UNL     1       4.416   6.208  -3.964  1.00  0.00     0.031 C 
ATOM     75  C   UNL     1       9.225   4.447  -1.155  1.00  0.00     0.029 A 
ATOM     76  C   UNL     1       8.320   5.491  -1.087  1.00  0.00     0.049 A 
ATOM     77  H   UNL     1       7.517   6.355   0.673  1.00  0.00     0.167 HD
ATOM     78  C   UNL     1       6.444   5.983  -2.776  1.00  0.00     0.074 A 
ATOM     79  C   UNL     1       5.507   6.849  -3.495  1.00  0.00     0.031 C 
ATOM     80  C   UNL     1       7.574   6.398  -2.006  1.00  0.00     0.037 A 
BRANCH  67  81
ATOM     81  C   UNL     1       9.464   4.486   3.582  1.00  0.00     0.057 A 
ATOM     82  C   UNL     1      10.822   4.588   3.180  1.00  0.00     0.134 A 
ATOM     83  C   UNL     1       9.320   4.094   4.929  1.00  0.00     0.134 A 
ATOM     84  F   UNL     1      11.165   5.019   1.959  1.00  0.00    -0.206 F 
ATOM     85  C   UNL     1      11.916   4.250   4.001  1.00  0.00     0.040 A 
ATOM     86  C   UNL     1      10.413   3.810   5.780  1.00  0.00     0.040 A 
ATOM     87  F   UNL     1       8.119   3.920   5.490  1.00  0.00    -0.206 F 
ATOM     88  C   UNL     1      11.716   3.858   5.311  1.00  0.00     0.006 A 
ENDBRANCH  67  81
BRANCH  68  89
ATOM     89  C   UNL     1       2.167   3.575  -4.611  1.00  0.00     0.057 A 
ATOM     90  C   UNL     1       2.199   2.270  -5.172  1.00  0.00     0.134 A 
ATOM     91  C   UNL     1       0.877   3.976  -4.221  1.00  0.00     0.134 A 
ATOM     92  F   UNL     1       3.318   1.828  -5.763  1.00  0.00    -0.206 F 
ATOM     93  C   UNL     1       1.204   1.312  -4.878  1.00  0.00     0.040 A 
ATOM     94  C   UNL     1      -0.113   3.032  -3.874  1.00  0.00     0.040 A 
ATOM     95  F   UNL     1       0.662   5.264  -3.919  1.00  0.00    -0.206 F 
ATOM     96  C   UNL     1       0.087   1.680  -4.134  1.00  0.00     0.006 A 
ENDBRANCH  68  89
BRANCH  80  97
ATOM     97  C   UNL     1       8.094   7.869  -1.867  1.00  0.00     0.057 A 
ATOM     98  C   UNL     1       8.168   8.754  -2.943  1.00  0.00     0.134 A 
ATOM     99  C   UNL     1       8.699   8.391  -0.673  1.00  0.00     0.134 A 
ATOM    100  F   UNL     1       7.775   8.379  -4.168  1.00  0.00    -0.206 F 
ATOM    101  C   UNL     1       8.699  10.056  -2.821  1.00  0.00     0.040 A 
ATOM    102  C   UNL     1       9.273   9.659  -0.556  1.00  0.00     0.040 A 
ATOM    103  F   UNL     1       8.788   7.722   0.480  1.00  0.00    -0.206 F 
ATOM    104  C   UNL     1       9.252  10.514  -1.630  1.00  0.00     0.006 A 
ENDBRANCH  80  97
ENDBRANCH  54  55
ENDBRANCH  47  49
ENDBRANCH  46  47
ENDBRANCH  45  46
ENDBRANCH  44  45
ENDBRANCH  43  44
ENDBRANCH  42  43
ENDBRANCH  41  42
ENDBRANCH  40  41
ENDBRANCH  39  40
ENDBRANCH   1  39
TORSDOF 25
