REMARK SMILES COc1ccccc1N1CC[NH+]([C@@H](C(=O)OCCOCCOCCOCCOC(=O)c2ccc(-c3c4nc(c(-c5c(F)cccc5F)c5ccc([nH]5)c(-c5c(F)cccc5F)c5nc(c(-c6c(F)cccc6F)c6ccc3[nH]6)C=C5)C=C4)cc2)c2c[nH]c3ccc(OCC#N)cc23)CC1
REMARK SMILES IDX 21 1 20 2 19 3 18 4 17 5 16 6 14 7 15 8 13 9 12 10 9 11
REMARK SMILES IDX 10 12 99 13 11 14 98 15 8 17 3 18 4 19 5 20 7 21 6 22 2 23
REMARK SMILES IDX 1 24 85 25 86 26 97 27 87 28 88 29 96 30 89 32 91 33 90 34
REMARK SMILES IDX 92 35 93 36 94 37 95 38 22 39 23 40 24 41 25 42 26 43 27 44
REMARK SMILES IDX 28 45 29 46 30 47 31 48 32 49 84 50 33 51 83 52 34 53 35 54
REMARK SMILES IDX 36 55 77 56 37 57 82 58 76 59 78 60 38 61 81 62 75 63 74 64
REMARK SMILES IDX 39 66 65 67 48 68 64 69 49 70 52 71 63 72 79 73 50 74 51 75
REMARK SMILES IDX 62 77 80 78 53 79 40 80 41 81 46 82 42 83 43 84 45 85 47 86
REMARK SMILES IDX 44 87 66 88 67 89 72 90 68 91 69 92 71 93 73 94 70 95 54 96
REMARK SMILES IDX 55 97 60 98 56 99 57 100 59 101 61 102 58 103
REMARK H PARENT 12 16 87 31 78 65 52 76
REMARK Flexibility Score: inf
ROOT
ATOM      1  C   UNL     1       6.992   3.375  -0.712  1.00  0.00     0.188 C 
ENDROOT
BRANCH   1   2
ATOM      2  C   UNL     1       8.056   2.503  -1.354  1.00  0.00     0.188 C 
BRANCH   2   3
ATOM      3  O   UNL     1       7.968   2.332  -2.752  1.00  0.00    -0.376 OA
BRANCH   3   4
ATOM      4  C   UNL     1       7.189   1.261  -3.279  1.00  0.00     0.202 C 
BRANCH   4   5
ATOM      5  C   UNL     1       6.861   0.011  -2.452  1.00  0.00     0.261 C 
BRANCH   5   6
ATOM      6  O   UNL     1       6.038   0.284  -1.298  1.00  0.00    -0.459 OA
BRANCH   6   7
ATOM      7  C   UNL     1       6.528  -0.106  -0.084  1.00  0.00     0.370 C 
ATOM      8  O   UNL     1       7.650  -0.594   0.055  1.00  0.00    -0.245 OA
BRANCH   7   9
ATOM      9  C   UNL     1       5.528  -0.005   1.073  1.00  0.00     0.328 C 
BRANCH   9  10
ATOM     10  N   UNL     1       4.161  -0.631   0.877  1.00  0.00    -0.316 N 
ATOM     11  N   UNL     1       2.225   0.754  -0.947  1.00  0.00    -0.357 N 
ATOM     12  C   UNL     1       2.650   1.230   0.376  1.00  0.00     0.178 C 
ATOM     13  C   UNL     1       3.046  -0.322  -1.533  1.00  0.00     0.178 C 
ATOM     14  C   UNL     1       2.993   0.098   1.318  1.00  0.00     0.284 C 
ATOM     15  C   UNL     1       3.798  -1.218  -0.441  1.00  0.00     0.284 C 
ATOM     16  H   UNL     1       4.377  -1.386   1.527  1.00  0.00     0.349 HD
BRANCH  11  17
ATOM     17  C   UNL     1       1.429   1.694  -1.637  1.00  0.00     0.080 A 
ATOM     18  C   UNL     1      -0.263   2.010  -1.020  1.00  0.00     0.142 A 
ATOM     19  C   UNL     1      -1.220   3.448  -1.620  1.00  0.00     0.048 A 
ATOM     20  C   UNL     1      -0.609   4.450  -3.007  1.00  0.00     0.004 A 
ATOM     21  C   UNL     1       2.130   2.869  -2.856  1.00  0.00     0.030 A 
ATOM     22  C   UNL     1       1.088   4.183  -3.631  1.00  0.00     0.002 A 
BRANCH  18  23
ATOM     23  O   UNL     1      -1.005   1.210  -0.190  1.00  0.00    -0.495 OA
ATOM     24  C   UNL     1      -0.385   0.065   0.360  1.00  0.00     0.278 C 
ENDBRANCH  18  23
ENDBRANCH  11  17
ENDBRANCH   9  10
BRANCH   9  25
ATOM     25  C   UNL     1       5.803   1.013   2.278  1.00  0.00     0.046 A 
ATOM     26  C   UNL     1       5.702   0.559   3.602  1.00  0.00     0.094 A 
ATOM     27  C   UNL     1       5.563   2.435   2.545  1.00  0.00     0.013 A 
ATOM     28  N   UNL     1       4.481   1.150   3.952  1.00  0.00    -0.361 N 
ATOM     29  C   UNL     1       4.532   2.450   3.492  1.00  0.00     0.046 A 
ATOM     30  C   UNL     1       6.195   3.699   2.395  1.00  0.00     0.057 A 
ATOM     31  H   UNL     1       3.734   0.723   4.430  1.00  0.00     0.166 HD
ATOM     32  C   UNL     1       3.840   3.607   3.879  1.00  0.00     0.030 A 
ATOM     33  C   UNL     1       5.587   4.898   2.821  1.00  0.00     0.121 A 
ATOM     34  C   UNL     1       4.376   4.848   3.498  1.00  0.00     0.048 A 
BRANCH  33  35
ATOM     35  O   UNL     1       6.250   6.032   2.430  1.00  0.00    -0.479 OA
BRANCH  35  36
ATOM     36  C   UNL     1       6.181   7.210   3.247  1.00  0.00     0.349 C 
BRANCH  36  37
ATOM     37  C   UNL     1       6.649   6.991   4.625  1.00  0.00     0.104 C 
ATOM     38  N   UNL     1       7.013   6.835   5.717  1.00  0.00    -0.195 NA
ENDBRANCH  36  37
ENDBRANCH  35  36
ENDBRANCH  33  35
ENDBRANCH   9  25
ENDBRANCH   7   9
ENDBRANCH   6   7
ENDBRANCH   5   6
ENDBRANCH   4   5
ENDBRANCH   3   4
ENDBRANCH   2   3
ENDBRANCH   1   2
BRANCH   1  39
ATOM     39  O   UNL     1       5.673   2.909  -0.752  1.00  0.00    -0.377 OA
BRANCH  39  40
ATOM     40  C   UNL     1       4.940   3.356  -1.864  1.00  0.00     0.188 C 
BRANCH  40  41
ATOM     41  C   UNL     1       4.385   4.792  -1.881  1.00  0.00     0.188 C 
BRANCH  41  42
ATOM     42  O   UNL     1       3.715   5.419  -0.802  1.00  0.00    -0.376 OA
BRANCH  42  43
ATOM     43  C   UNL     1       3.299   4.690   0.333  1.00  0.00     0.202 C 
BRANCH  43  44
ATOM     44  C   UNL     1       1.792   4.489   0.545  1.00  0.00     0.261 C 
BRANCH  44  45
ATOM     45  O   UNL     1       1.214   3.449  -0.279  1.00  0.00    -0.460 OA
BRANCH  45  46
ATOM     46  C   UNL     1       0.795   3.751  -1.628  1.00  0.00     0.338 C 
ATOM     47  O   UNL     1       1.015   4.993  -1.664  1.00  0.00    -0.246 OA
BRANCH  46  48
ATOM     48  C   UNL     1       0.031   2.390  -3.122  1.00  0.00     0.060 A 
ATOM     49  C   UNL     1       0.737   1.897  -4.373  1.00  0.00     0.016 A 
ATOM     50  C   UNL     1      -1.341   1.856  -3.358  1.00  0.00     0.016 A 
ATOM     51  C   UNL     1       0.221   1.831  -5.643  1.00  0.00     0.010 A 
ATOM     52  C   UNL     1      -1.882   1.469  -4.589  1.00  0.00     0.010 A 
ATOM     53  C   UNL     1      -1.106   1.568  -5.726  1.00  0.00    -0.014 A 
BRANCH  53  54
ATOM     54  C   UNL     1      -1.648   1.174  -7.003  1.00  0.00     0.031 A 
ATOM     55  C   UNL     1      -2.731   2.021  -7.540  1.00  0.00     0.074 A 
ATOM     56  C   UNL     1      -1.221  -0.017  -7.447  1.00  0.00     0.049 A 
ATOM     57  N   UNL     1      -3.655   1.694  -8.386  1.00  0.00    -0.248 NA
ATOM     58  C   UNL     1      -2.855   3.381  -6.979  1.00  0.00     0.031 C 
ATOM     59  C   UNL     1      -0.126  -0.812  -6.857  1.00  0.00     0.029 A 
ATOM     60  N   UNL     1      -1.695  -0.808  -8.441  1.00  0.00    -0.354 N 
ATOM     61  C   UNL     1      -4.512   2.780  -8.418  1.00  0.00     0.074 A 
ATOM     62  C   UNL     1      -4.018   3.764  -7.484  1.00  0.00     0.031 C 
ATOM     63  C   UNL     1      -0.039  -1.989  -7.479  1.00  0.00     0.029 A 
ATOM     64  C   UNL     1      -1.125  -2.057  -8.432  1.00  0.00     0.049 A 
ATOM     65  H   UNL     1      -2.372  -0.520  -9.095  1.00  0.00     0.167 HD
ATOM     66  C   UNL     1      -5.622   2.884  -9.176  1.00  0.00     0.037 A 
ATOM     67  C   UNL     1      -1.517  -3.160  -9.078  1.00  0.00     0.037 A 
ATOM     68  C   UNL     1      -6.019   1.810 -10.048  1.00  0.00     0.049 A 
ATOM     69  C   UNL     1      -2.737  -3.000  -9.924  1.00  0.00     0.074 A 
ATOM     70  C   UNL     1      -7.070   1.749 -10.935  1.00  0.00     0.029 A 
ATOM     71  N   UNL     1      -5.348   0.586 -10.124  1.00  0.00    -0.354 N 
ATOM     72  N   UNL     1      -3.542  -1.963 -10.009  1.00  0.00    -0.248 NA
ATOM     73  C   UNL     1      -3.097  -4.129 -10.773  1.00  0.00     0.031 C 
ATOM     74  C   UNL     1      -7.064   0.472 -11.508  1.00  0.00     0.029 A 
ATOM     75  C   UNL     1      -5.967  -0.242 -11.036  1.00  0.00     0.049 A 
ATOM     76  H   UNL     1      -4.549   0.348  -9.601  1.00  0.00     0.167 HD
ATOM     77  C   UNL     1      -4.489  -2.291 -10.958  1.00  0.00     0.074 A 
ATOM     78  C   UNL     1      -4.145  -3.631 -11.416  1.00  0.00     0.031 C 
ATOM     79  C   UNL     1      -5.539  -1.569 -11.424  1.00  0.00     0.037 A 
BRANCH  66  80
ATOM     80  C   UNL     1      -6.437   4.137  -9.054  1.00  0.00     0.057 A 
ATOM     81  C   UNL     1      -5.923   5.397  -9.397  1.00  0.00     0.134 A 
ATOM     82  C   UNL     1      -7.748   4.096  -8.564  1.00  0.00     0.134 A 
ATOM     83  F   UNL     1      -4.665   5.520  -9.850  1.00  0.00    -0.206 F 
ATOM     84  C   UNL     1      -6.667   6.567  -9.229  1.00  0.00     0.040 A 
ATOM     85  C   UNL     1      -8.515   5.255  -8.424  1.00  0.00     0.040 A 
ATOM     86  F   UNL     1      -8.304   2.932  -8.199  1.00  0.00    -0.206 F 
ATOM     87  C   UNL     1      -7.972   6.497  -8.748  1.00  0.00     0.006 A 
ENDBRANCH  66  80
BRANCH  67  88
ATOM     88  C   UNL     1      -0.724  -4.404  -8.966  1.00  0.00     0.057 A 
ATOM     89  C   UNL     1       0.061  -4.831 -10.040  1.00  0.00     0.134 A 
ATOM     90  C   UNL     1      -0.630  -5.133  -7.771  1.00  0.00     0.134 A 
ATOM     91  F   UNL     1       0.042  -4.153 -11.197  1.00  0.00    -0.206 F 
ATOM     92  C   UNL     1       0.884  -5.954  -9.947  1.00  0.00     0.040 A 
ATOM     93  C   UNL     1       0.209  -6.243  -7.655  1.00  0.00     0.040 A 
ATOM     94  F   UNL     1      -1.308  -4.743  -6.681  1.00  0.00    -0.206 F 
ATOM     95  C   UNL     1       0.962  -6.662  -8.750  1.00  0.00     0.006 A 
ENDBRANCH  67  88
BRANCH  79  96
ATOM     96  C   UNL     1      -6.332  -2.218 -12.508  1.00  0.00     0.057 A 
ATOM     97  C   UNL     1      -7.187  -3.294 -12.252  1.00  0.00     0.134 A 
ATOM     98  C   UNL     1      -6.276  -1.709 -13.811  1.00  0.00     0.134 A 
ATOM     99  F   UNL     1      -7.258  -3.830 -11.023  1.00  0.00    -0.206 F 
ATOM    100  C   UNL     1      -7.952  -3.859 -13.267  1.00  0.00     0.040 A 
ATOM    101  C   UNL     1      -7.068  -2.239 -14.823  1.00  0.00     0.040 A 
ATOM    102  F   UNL     1      -5.478  -0.672 -14.105  1.00  0.00    -0.206 F 
ATOM    103  C   UNL     1      -7.903  -3.321 -14.553  1.00  0.00     0.006 A 
ENDBRANCH  79  96
ENDBRANCH  53  54
ENDBRANCH  46  48
ENDBRANCH  45  46
ENDBRANCH  44  45
ENDBRANCH  43  44
ENDBRANCH  42  43
ENDBRANCH  41  42
ENDBRANCH  40  41
ENDBRANCH  39  40
ENDBRANCH   1  39
TORSDOF 27
