REMARK SMILES O=C(Cc1csc(Sc2ncnc3c2CCCC3)n1)OCCOCCOCCOCCOC(=O)c1ccc(-c2c3nc(c(-c4c(F)cccc4F)c4ccc([nH]4)c(-c4c(F)cccc4F)c4nc(c(-c5c(F)cccc5F)c5ccc2[nH]5)C=C4)C=C3)cc1
REMARK SMILES IDX 25 1 24 2 23 3 22 4 21 5 20 6 2 7 1 8 3 9 4 10 5 11 19 12
REMARK SMILES IDX 6 13 7 14 8 15 9 16 10 17 14 18 11 19 13 20 15 21 12 22
REMARK SMILES IDX 18 23 16 24 17 25 26 26 27 27 28 28 29 29 30 30 31 31 32 32
REMARK SMILES IDX 33 33 34 34 35 35 36 36 88 37 37 38 87 39 38 40 39 41 40 42
REMARK SMILES IDX 81 43 41 44 86 45 80 46 82 47 42 48 85 49 79 50 78 51 43 53
REMARK SMILES IDX 69 54 52 55 68 56 53 57 56 58 67 59 83 60 54 61 55 62 66 64
REMARK SMILES IDX 84 65 57 66 44 67 45 68 50 69 46 70 47 71 49 72 51 73 48 74
REMARK SMILES IDX 70 75 71 76 76 77 72 78 73 79 75 80 77 81 74 82 58 83 59 84
REMARK SMILES IDX 64 85 60 86 61 87 63 88 65 89 62 90
REMARK H PARENT 82 52 56 63
REMARK Flexibility Score: inf
ROOT
ATOM      1  C   UNL     1       2.052   2.446  -0.657  1.00  0.00     0.188 C 
ENDROOT
BRANCH   1   2
ATOM      2  C   UNL     1       2.664   1.706   0.544  1.00  0.00     0.188 C 
BRANCH   2   3
ATOM      3  O   UNL     1       4.066   1.574   0.513  1.00  0.00    -0.376 OA
BRANCH   3   4
ATOM      4  C   UNL     1       4.798   0.415   0.186  1.00  0.00     0.202 C 
BRANCH   4   5
ATOM      5  C   UNL     1       4.252  -0.649  -0.761  1.00  0.00     0.261 C 
BRANCH   5   6
ATOM      6  O   UNL     1       2.884  -1.064  -0.605  1.00  0.00    -0.463 OA
BRANCH   6   7
ATOM      7  C   UNL     1       2.305  -1.587   0.498  1.00  0.00     0.311 C 
ATOM      8  O   UNL     1       1.143  -1.987   0.432  1.00  0.00    -0.252 OA
BRANCH   7   9
ATOM      9  C   UNL     1       3.046  -1.587   1.810  1.00  0.00     0.179 C 
BRANCH   9  10
ATOM     10  C   UNL     1       4.186  -2.540   1.817  1.00  0.00     0.064 A 
ATOM     11  C   UNL     1       4.095  -3.906   1.649  1.00  0.00     0.092 A 
ATOM     12  N   UNL     1       5.481  -2.061   1.996  1.00  0.00    -0.234 NA
ATOM     13  S   UNL     1       5.652  -4.603   1.710  1.00  0.00    -0.116 S 
ATOM     14  C   UNL     1       6.348  -3.046   1.966  1.00  0.00     0.156 A 
BRANCH  14  15
ATOM     15  S   UNL     1       8.073  -2.891   2.190  1.00  0.00    -0.039 SA
BRANCH  15  16
ATOM     16  C   UNL     1       8.424  -1.162   1.878  1.00  0.00     0.110 A 
ATOM     17  N   UNL     1       8.072  -0.307   2.858  1.00  0.00    -0.229 NA
ATOM     18  C   UNL     1       9.273  -0.792   0.828  1.00  0.00     0.006 A 
ATOM     19  C   UNL     1       8.591   0.925   2.789  1.00  0.00     0.223 A 
ATOM     20  C   UNL     1       9.819   0.486   0.914  1.00  0.00     0.048 A 
ATOM     21  C   UNL     1       9.669  -1.733  -0.279  1.00  0.00     0.040 C 
ATOM     22  N   UNL     1       9.466   1.361   1.875  1.00  0.00    -0.241 NA
ATOM     23  C   UNL     1      10.867   0.977  -0.057  1.00  0.00     0.056 C 
ATOM     24  C   UNL     1      10.406  -1.048  -1.433  1.00  0.00     0.005 C 
ATOM     25  C   UNL     1      11.496  -0.138  -0.888  1.00  0.00     0.007 C 
ENDBRANCH  15  16
ENDBRANCH  14  15
ENDBRANCH   9  10
ENDBRANCH   7   9
ENDBRANCH   6   7
ENDBRANCH   5   6
ENDBRANCH   4   5
ENDBRANCH   3   4
ENDBRANCH   2   3
ENDBRANCH   1   2
BRANCH   1  26
ATOM     26  O   UNL     1       2.798   3.494  -1.264  1.00  0.00    -0.377 OA
BRANCH  26  27
ATOM     27  C   UNL     1       4.160   3.217  -1.535  1.00  0.00     0.188 C 
BRANCH  27  28
ATOM     28  C   UNL     1       5.151   3.855  -0.528  1.00  0.00     0.188 C 
BRANCH  28  29
ATOM     29  O   UNL     1       4.729   4.332   0.739  1.00  0.00    -0.376 OA
BRANCH  29  30
ATOM     30  C   UNL     1       3.576   5.145   0.874  1.00  0.00     0.202 C 
BRANCH  30  31
ATOM     31  C   UNL     1       3.218   6.286  -0.099  1.00  0.00     0.261 C 
BRANCH  31  32
ATOM     32  O   UNL     1       3.564   6.108  -1.476  1.00  0.00    -0.460 OA
BRANCH  32  33
ATOM     33  C   UNL     1       4.703   6.706  -1.887  1.00  0.00     0.338 C 
ATOM     34  O   UNL     1       5.445   7.424  -1.236  1.00  0.00    -0.246 OA
BRANCH  33  35
ATOM     35  C   UNL     1       5.044   6.166  -3.219  1.00  0.00     0.060 A 
ATOM     36  C   UNL     1       6.273   5.506  -3.375  1.00  0.00     0.016 A 
ATOM     37  C   UNL     1       4.153   6.270  -4.289  1.00  0.00     0.016 A 
ATOM     38  C   UNL     1       6.617   4.949  -4.601  1.00  0.00     0.010 A 
ATOM     39  C   UNL     1       4.524   5.762  -5.536  1.00  0.00     0.010 A 
ATOM     40  C   UNL     1       5.769   5.129  -5.700  1.00  0.00    -0.014 A 
BRANCH  40  41
ATOM     41  C   UNL     1       6.317   4.907  -7.055  1.00  0.00     0.031 A 
ATOM     42  C   UNL     1       6.976   6.077  -7.731  1.00  0.00     0.074 A 
ATOM     43  C   UNL     1       6.286   3.702  -7.647  1.00  0.00     0.049 A 
ATOM     44  N   UNL     1       7.513   6.155  -8.919  1.00  0.00    -0.248 NA
ATOM     45  C   UNL     1       7.043   7.328  -6.954  1.00  0.00     0.031 C 
ATOM     46  C   UNL     1       5.738   2.482  -7.058  1.00  0.00     0.029 A 
ATOM     47  N   UNL     1       6.733   3.312  -8.883  1.00  0.00    -0.354 N 
ATOM     48  C   UNL     1       7.984   7.457  -9.028  1.00  0.00     0.074 A 
ATOM     49  C   UNL     1       7.641   8.145  -7.805  1.00  0.00     0.031 C 
ATOM     50  C   UNL     1       5.875   1.476  -7.941  1.00  0.00     0.029 A 
ATOM     51  C   UNL     1       6.490   1.990  -9.165  1.00  0.00     0.049 A 
ATOM     52  H   UNL     1       7.186   3.921  -9.510  1.00  0.00     0.167 HD
ATOM     53  C   UNL     1       8.655   8.026 -10.055  1.00  0.00     0.037 A 
ATOM     54  C   UNL     1       6.723   1.288 -10.292  1.00  0.00     0.037 A 
ATOM     55  C   UNL     1       8.982   7.342 -11.276  1.00  0.00     0.049 A 
ATOM     56  C   UNL     1       7.370   1.976 -11.468  1.00  0.00     0.074 A 
ATOM     57  C   UNL     1       9.648   7.833 -12.383  1.00  0.00     0.029 A 
ATOM     58  N   UNL     1       8.658   6.022 -11.550  1.00  0.00    -0.354 N 
ATOM     59  N   UNL     1       7.817   3.205 -11.566  1.00  0.00    -0.248 NA
ATOM     60  C   UNL     1       7.542   1.179 -12.693  1.00  0.00     0.031 C 
ATOM     61  C   UNL     1       9.679   6.826 -13.351  1.00  0.00     0.029 A 
ATOM     62  C   UNL     1       9.087   5.689 -12.823  1.00  0.00     0.049 A 
ATOM     63  H   UNL     1       8.192   5.413 -10.933  1.00  0.00     0.167 HD
ATOM     64  C   UNL     1       8.346   3.321 -12.846  1.00  0.00     0.074 A 
ATOM     65  C   UNL     1       8.177   2.033 -13.485  1.00  0.00     0.031 C 
ATOM     66  C   UNL     1       8.918   4.398 -13.440  1.00  0.00     0.037 A 
BRANCH  53  67
ATOM     67  C   UNL     1       9.061   9.461  -9.908  1.00  0.00     0.057 A 
ATOM     68  C   UNL     1      10.084   9.852  -9.034  1.00  0.00     0.134 A 
ATOM     69  C   UNL     1       8.453  10.458 -10.681  1.00  0.00     0.134 A 
ATOM     70  F   UNL     1      10.691   8.949  -8.249  1.00  0.00    -0.206 F 
ATOM     71  C   UNL     1      10.480  11.186  -8.927  1.00  0.00     0.040 A 
ATOM     72  C   UNL     1       8.860  11.790 -10.603  1.00  0.00     0.040 A 
ATOM     73  F   UNL     1       7.465  10.150 -11.535  1.00  0.00    -0.206 F 
ATOM     74  C   UNL     1       9.875  12.157  -9.722  1.00  0.00     0.006 A 
ENDBRANCH  53  67
BRANCH  54  75
ATOM     75  C   UNL     1       6.341  -0.145 -10.367  1.00  0.00     0.057 A 
ATOM     76  C   UNL     1       7.312  -1.150 -10.449  1.00  0.00     0.134 A 
ATOM     77  C   UNL     1       4.999  -0.547 -10.365  1.00  0.00     0.134 A 
ATOM     78  F   UNL     1       8.614  -0.830 -10.482  1.00  0.00    -0.206 F 
ATOM     79  C   UNL     1       6.964  -2.500 -10.534  1.00  0.00     0.040 A 
ATOM     80  C   UNL     1       4.638  -1.894 -10.422  1.00  0.00     0.040 A 
ATOM     81  F   UNL     1       4.019   0.365 -10.292  1.00  0.00    -0.206 F 
ATOM     82  C   UNL     1       5.622  -2.875 -10.512  1.00  0.00     0.006 A 
ENDBRANCH  54  75
BRANCH  66  83
ATOM     83  C   UNL     1       9.431   4.236 -14.842  1.00  0.00     0.057 A 
ATOM     84  C   UNL     1       8.565   4.131 -15.937  1.00  0.00     0.134 A 
ATOM     85  C   UNL     1      10.807   4.280 -15.108  1.00  0.00     0.134 A 
ATOM     86  F   UNL     1       7.238   4.076 -15.752  1.00  0.00    -0.206 F 
ATOM     87  C   UNL     1       9.049   4.064 -17.245  1.00  0.00     0.040 A 
ATOM     88  C   UNL     1      11.301   4.244 -16.413  1.00  0.00     0.040 A 
ATOM     89  F   UNL     1      11.692   4.395 -14.106  1.00  0.00    -0.206 F 
ATOM     90  C   UNL     1      10.420   4.133 -17.486  1.00  0.00     0.006 A 
ENDBRANCH  66  83
ENDBRANCH  40  41
ENDBRANCH  33  35
ENDBRANCH  32  33
ENDBRANCH  31  32
ENDBRANCH  30  31
ENDBRANCH  29  30
ENDBRANCH  28  29
ENDBRANCH  27  28
ENDBRANCH  26  27
ENDBRANCH   1  26
TORSDOF 23
