REMARK SMILES O=C(OCCOCCOCCOCCOC(=O)[C@@H]1[C@H](C(=O)Nc2ccccc2OC(F)F)[C@@H]2C=C[C@H]1C2)c1ccc(-c2c3nc(c(-c4c(F)cccc4F)c4ccc([nH]4)c(-c4c(F)cccc4F)c4nc(c(-c5c(F)cccc5F)c5ccc2[nH]5)C=C4)C=C3)cc1
REMARK SMILES IDX 10 1 9 2 8 3 7 4 6 5 5 6 4 7 3 8 2 9 1 10 38 11 39 12 91 13
REMARK SMILES IDX 40 14 90 15 41 16 42 17 43 18 84 19 44 20 89 21 83 22 85 23
REMARK SMILES IDX 45 24 88 25 82 26 81 27 46 29 72 30 55 31 71 32 56 33 59 34
REMARK SMILES IDX 70 35 86 36 57 37 58 38 69 40 87 41 60 42 47 43 48 44 53 45
REMARK SMILES IDX 49 46 50 47 52 48 54 49 51 50 73 51 74 52 79 53 75 54 76 55
REMARK SMILES IDX 78 56 80 57 77 58 61 59 62 60 67 61 63 62 64 63 66 64 68 65
REMARK SMILES IDX 65 66 11 67 12 68 13 69 14 70 15 71 16 72 17 73 18 74 19 75
REMARK SMILES IDX 36 76 33 77 35 78 37 79 34 80 20 81 21 82 22 83 23 85 24 86
REMARK SMILES IDX 28 87 25 88 27 89 26 90 29 91 30 92 31 93 32 94
REMARK H PARENT 85 28 59 39 22 84
REMARK Flexibility Score: inf
ROOT
ATOM      1  C   UNL     1       4.747  -0.551   3.034  1.00  0.00     0.188 C 
ENDROOT
BRANCH   1   2
ATOM      2  O   UNL     1       3.535   0.177   3.219  1.00  0.00    -0.377 OA
BRANCH   2   3
ATOM      3  C   UNL     1       2.470  -0.225   2.362  1.00  0.00     0.188 C 
BRANCH   3   4
ATOM      4  C   UNL     1       2.819  -0.080   0.883  1.00  0.00     0.188 C 
BRANCH   4   5
ATOM      5  O   UNL     1       3.498   1.131   0.561  1.00  0.00    -0.376 OA
BRANCH   5   6
ATOM      6  C   UNL     1       4.620   1.024  -0.308  1.00  0.00     0.202 C 
BRANCH   6   7
ATOM      7  C   UNL     1       4.315   0.762  -1.793  1.00  0.00     0.261 C 
BRANCH   7   8
ATOM      8  O   UNL     1       2.989   0.273  -2.060  1.00  0.00    -0.460 OA
BRANCH   8   9
ATOM      9  C   UNL     1       2.510  -0.981  -2.211  1.00  0.00     0.338 C 
ATOM     10  O   UNL     1       1.401  -1.127  -2.717  1.00  0.00    -0.246 OA
BRANCH   9  11
ATOM     11  C   UNL     1       3.184  -2.195  -1.649  1.00  0.00     0.060 A 
ATOM     12  C   UNL     1       4.431  -2.202  -1.021  1.00  0.00     0.016 A 
ATOM     13  C   UNL     1       2.460  -3.402  -1.678  1.00  0.00     0.016 A 
ATOM     14  C   UNL     1       4.908  -3.317  -0.356  1.00  0.00     0.010 A 
ATOM     15  C   UNL     1       2.977  -4.567  -1.104  1.00  0.00     0.010 A 
ATOM     16  C   UNL     1       4.212  -4.515  -0.454  1.00  0.00    -0.014 A 
BRANCH  16  17
ATOM     17  C   UNL     1       5.010  -5.716  -0.190  1.00  0.00     0.031 A 
ATOM     18  C   UNL     1       5.800  -6.245  -1.351  1.00  0.00     0.074 A 
ATOM     19  C   UNL     1       5.197  -6.146   1.067  1.00  0.00     0.049 A 
ATOM     20  N   UNL     1       6.593  -7.275  -1.418  1.00  0.00    -0.248 NA
ATOM     21  C   UNL     1       5.709  -5.472  -2.607  1.00  0.00     0.031 C 
ATOM     22  C   UNL     1       4.619  -5.534   2.266  1.00  0.00     0.029 A 
ATOM     23  N   UNL     1       5.960  -7.172   1.546  1.00  0.00    -0.354 N 
ATOM     24  C   UNL     1       7.070  -7.288  -2.722  1.00  0.00     0.074 A 
ATOM     25  C   UNL     1       6.504  -6.157  -3.412  1.00  0.00     0.031 C 
ATOM     26  C   UNL     1       5.048  -6.208   3.347  1.00  0.00     0.029 A 
ATOM     27  C   UNL     1       5.873  -7.328   2.907  1.00  0.00     0.049 A 
ATOM     28  H   UNL     1       6.518  -7.745   0.971  1.00  0.00     0.167 HD
ATOM     29  C   UNL     1       7.894  -8.192  -3.295  1.00  0.00     0.037 A 
ATOM     30  C   UNL     1       6.376  -8.307   3.681  1.00  0.00     0.037 A 
ATOM     31  C   UNL     1       8.410  -9.319  -2.575  1.00  0.00     0.049 A 
ATOM     32  C   UNL     1       7.176  -9.386   2.997  1.00  0.00     0.074 A 
ATOM     33  C   UNL     1       9.154 -10.383  -3.040  1.00  0.00     0.029 A 
ATOM     34  N   UNL     1       8.217  -9.518  -1.213  1.00  0.00    -0.354 N 
ATOM     35  N   UNL     1       7.533  -9.475   1.735  1.00  0.00    -0.248 NA
ATOM     36  C   UNL     1       7.623 -10.509   3.828  1.00  0.00     0.031 C 
ATOM     37  C   UNL     1       9.375 -11.249  -1.963  1.00  0.00     0.029 A 
ATOM     38  C   UNL     1       8.814 -10.697  -0.819  1.00  0.00     0.049 A 
ATOM     39  H   UNL     1       7.726  -8.907  -0.617  1.00  0.00     0.167 HD
ATOM     40  C   UNL     1       8.257 -10.652   1.621  1.00  0.00     0.074 A 
ATOM     41  C   UNL     1       8.303 -11.234   2.950  1.00  0.00     0.031 C 
ATOM     42  C   UNL     1       8.830 -11.215   0.527  1.00  0.00     0.037 A 
BRANCH  29  43
ATOM     43  C   UNL     1       8.157  -8.032  -4.761  1.00  0.00     0.057 A 
ATOM     44  C   UNL     1       8.966  -7.008  -5.272  1.00  0.00     0.134 A 
ATOM     45  C   UNL     1       7.513  -8.867  -5.684  1.00  0.00     0.134 A 
ATOM     46  F   UNL     1       9.570  -6.142  -4.445  1.00  0.00    -0.206 F 
ATOM     47  C   UNL     1       9.105  -6.807  -6.648  1.00  0.00     0.040 A 
ATOM     48  C   UNL     1       7.662  -8.689  -7.060  1.00  0.00     0.040 A 
ATOM     49  F   UNL     1       6.704  -9.850  -5.262  1.00  0.00    -0.206 F 
ATOM     50  C   UNL     1       8.454  -7.651  -7.546  1.00  0.00     0.006 A 
ENDBRANCH  29  43
BRANCH  30  51
ATOM     51  C   UNL     1       6.074  -8.354   5.136  1.00  0.00     0.057 A 
ATOM     52  C   UNL     1       7.079  -8.241   6.102  1.00  0.00     0.134 A 
ATOM     53  C   UNL     1       4.761  -8.529   5.598  1.00  0.00     0.134 A 
ATOM     54  F   UNL     1       8.359  -8.094   5.731  1.00  0.00    -0.206 F 
ATOM     55  C   UNL     1       6.794  -8.310   7.469  1.00  0.00     0.040 A 
ATOM     56  C   UNL     1       4.458  -8.573   6.960  1.00  0.00     0.040 A 
ATOM     57  F   UNL     1       3.747  -8.650   4.729  1.00  0.00    -0.206 F 
ATOM     58  C   UNL     1       5.479  -8.470   7.901  1.00  0.00     0.006 A 
ENDBRANCH  30  51
BRANCH  42  59
ATOM     59  C   UNL     1       9.575 -12.495   0.742  1.00  0.00     0.057 A 
ATOM     60  C   UNL     1       8.908 -13.708   0.943  1.00  0.00     0.134 A 
ATOM     61  C   UNL     1      10.973 -12.515   0.678  1.00  0.00     0.134 A 
ATOM     62  F   UNL     1       7.569 -13.745   1.022  1.00  0.00    -0.206 F 
ATOM     63  C   UNL     1       9.612 -14.902   1.091  1.00  0.00     0.040 A 
ATOM     64  C   UNL     1      11.685 -13.706   0.798  1.00  0.00     0.040 A 
ATOM     65  F   UNL     1      11.663 -11.383   0.473  1.00  0.00    -0.206 F 
ATOM     66  C   UNL     1      11.004 -14.903   1.010  1.00  0.00     0.006 A 
ENDBRANCH  42  59
ENDBRANCH  16  17
ENDBRANCH   9  11
ENDBRANCH   8   9
ENDBRANCH   7   8
ENDBRANCH   6   7
ENDBRANCH   5   6
ENDBRANCH   4   5
ENDBRANCH   3   4
ENDBRANCH   2   3
ENDBRANCH   1   2
BRANCH   1  67
ATOM     67  C   UNL     1       5.538  -0.714   4.333  1.00  0.00     0.188 C 
BRANCH  67  68
ATOM     68  O   UNL     1       4.850  -1.406   5.373  1.00  0.00    -0.376 OA
BRANCH  68  69
ATOM     69  C   UNL     1       3.645  -0.793   5.840  1.00  0.00     0.202 C 
BRANCH  69  70
ATOM     70  C   UNL     1       3.770   0.642   6.393  1.00  0.00     0.261 C 
BRANCH  70  71
ATOM     71  O   UNL     1       4.305   1.618   5.461  1.00  0.00    -0.463 OA
BRANCH  71  72
ATOM     72  C   UNL     1       4.604   2.822   6.019  1.00  0.00     0.310 C 
ATOM     73  O   UNL     1       4.310   3.102   7.179  1.00  0.00    -0.252 OA
BRANCH  72  74
ATOM     74  C   UNL     1       5.507   3.726   5.194  1.00  0.00     0.119 C 
ATOM     75  C   UNL     1       5.205   5.211   4.801  1.00  0.00     0.100 C 
ATOM     76  C   UNL     1       6.350   3.221   3.996  1.00  0.00     0.027 C 
ATOM     77  C   UNL     1       6.074   5.409   3.516  1.00  0.00     0.025 C 
ATOM     78  C   UNL     1       5.635   3.322   2.675  1.00  0.00    -0.027 C 
ATOM     79  C   UNL     1       7.256   4.467   3.807  1.00  0.00     0.017 C 
ATOM     80  C   UNL     1       5.526   4.621   2.362  1.00  0.00    -0.027 C 
BRANCH  75  81
ATOM     81  C   UNL     1       3.894   6.028   4.883  1.00  0.00     0.229 C 
ATOM     82  O   UNL     1       3.703   6.729   5.888  1.00  0.00    -0.274 OA
ATOM     83  N   UNL     1       3.048   6.262   3.835  1.00  0.00    -0.323 N 
ATOM     84  H   UNL     1       2.699   7.182   3.798  1.00  0.00     0.170 HD
BRANCH  83  85
ATOM     85  C   UNL     1       2.587   5.435   2.806  1.00  0.00     0.084 A 
ATOM     86  C   UNL     1       2.229   6.011   1.575  1.00  0.00     0.030 A 
ATOM     87  C   UNL     1       2.414   4.072   2.976  1.00  0.00     0.149 A 
ATOM     88  C   UNL     1       1.897   5.204   0.478  1.00  0.00     0.002 A 
ATOM     89  C   UNL     1       2.074   3.284   1.887  1.00  0.00     0.049 A 
ATOM     90  C   UNL     1       1.858   3.827   0.627  1.00  0.00     0.004 A 
BRANCH  87  91
ATOM     91  O   UNL     1       2.591   3.449   4.169  1.00  0.00    -0.433 OA
BRANCH  91  92
ATOM     92  C   UNL     1       1.500   3.621   5.074  1.00  0.00     0.542 C 
ATOM     93  F   UNL     1       1.970   4.254   6.173  1.00  0.00    -0.167 F 
ATOM     94  F   UNL     1       0.511   4.389   4.559  1.00  0.00    -0.167 F 
ENDBRANCH  91  92
ENDBRANCH  87  91
ENDBRANCH  83  85
ENDBRANCH  75  81
ENDBRANCH  72  74
ENDBRANCH  71  72
ENDBRANCH  70  71
ENDBRANCH  69  70
ENDBRANCH  68  69
ENDBRANCH  67  68
ENDBRANCH   1  67
TORSDOF 24
