REMARK SMILES CS(=O)(=O)c1ccc(/C=C(/C(=O)OCCOCCOCCOCCOC(=O)c2ccc(-c3c4nc(c(-c5c(F)cccc5F)c5ccc([nH]5)c(-c5c(F)cccc5F)c5nc(c(-c6c(F)cccc6F)c6ccc3[nH]6)C=C5)C=C4)cc2)c2ccc(O)cc2)cc1
REMARK SMILES IDX 19 1 18 2 17 3 16 4 15 5 14 6 13 7 11 8 12 9 10 10 9 11 8 12
REMARK SMILES IDX 5 13 6 14 90 15 7 16 89 17 2 18 1 19 3 20 4 21 82 22 83 23
REMARK SMILES IDX 88 24 84 25 87 26 85 27 86 28 20 30 21 31 22 32 23 33 24 34
REMARK SMILES IDX 25 35 26 36 27 37 28 38 29 39 81 40 30 41 80 42 31 43 32 44
REMARK SMILES IDX 33 45 74 46 34 47 79 48 73 49 75 50 35 51 78 52 72 53 71 54
REMARK SMILES IDX 36 56 62 57 45 58 61 59 46 60 49 61 60 62 76 63 47 64 48 65
REMARK SMILES IDX 59 67 77 68 50 69 37 70 38 71 43 72 39 73 40 74 42 75 44 76
REMARK SMILES IDX 41 77 63 78 64 79 69 80 65 81 66 82 68 83 70 84 67 85 51 86
REMARK SMILES IDX 52 87 57 88 53 89 54 90 56 91 58 92 55 93
REMARK H PARENT 86 29 75 55 49 66
REMARK Flexibility Score: inf
ROOT
ATOM      1  O   UNL     1       5.080   2.911  -8.462  1.00  0.00    -0.377 OA
ENDROOT
BRANCH   1   2
ATOM      2  C   UNL     1       5.136   1.494  -8.497  1.00  0.00     0.188 C 
BRANCH   2   3
ATOM      3  C   UNL     1       4.959   0.762  -9.848  1.00  0.00     0.188 C 
BRANCH   3   4
ATOM      4  O   UNL     1       4.780   1.632 -10.953  1.00  0.00    -0.376 OA
BRANCH   4   5
ATOM      5  C   UNL     1       3.487   1.681 -11.530  1.00  0.00     0.202 C 
BRANCH   5   6
ATOM      6  C   UNL     1       2.349   2.219 -10.648  1.00  0.00     0.261 C 
BRANCH   6   7
ATOM      7  O   UNL     1       2.285   1.686  -9.315  1.00  0.00    -0.460 OA
BRANCH   7   8
ATOM      8  C   UNL     1       1.822   0.420  -9.171  1.00  0.00     0.338 C 
ATOM      9  O   UNL     1       1.404  -0.281 -10.079  1.00  0.00    -0.246 OA
BRANCH   8  10
ATOM     10  C   UNL     1       2.022  -0.059  -7.758  1.00  0.00     0.067 C 
ATOM     11  C   UNL     1       1.823   0.815  -6.740  1.00  0.00     0.024 C 
BRANCH  11  12
ATOM     12  C   UNL     1       1.740   0.548  -5.283  1.00  0.00    -0.025 A 
ATOM     13  C   UNL     1       1.004  -0.193  -2.683  1.00  0.00     0.067 A 
ATOM     14  C   UNL     1       1.988  -0.914  -3.352  1.00  0.00     0.021 A 
ATOM     15  C   UNL     1       0.478   0.972  -3.241  1.00  0.00     0.021 A 
ATOM     16  C   UNL     1       2.384  -0.510  -4.629  1.00  0.00     0.009 A 
ATOM     17  C   UNL     1       0.857   1.343  -4.534  1.00  0.00     0.009 A 
BRANCH  13  18
ATOM     18  S   UNL     1       0.284  -0.852  -1.200  1.00  0.00     0.175 S 
ATOM     19  C   UNL     1       0.970   0.144   0.090  1.00  0.00     0.163 C 
ATOM     20  O   UNL     1       0.780  -2.205  -1.032  1.00  0.00    -0.224 OA
ATOM     21  O   UNL     1      -1.141  -0.590  -1.268  1.00  0.00    -0.224 OA
ENDBRANCH  13  18
ENDBRANCH  11  12
BRANCH  10  22
ATOM     22  C   UNL     1       2.409  -1.472  -7.559  1.00  0.00    -0.011 A 
ATOM     23  C   UNL     1       3.763  -1.847  -7.647  1.00  0.00     0.013 A 
ATOM     24  C   UNL     1       1.470  -2.433  -7.172  1.00  0.00     0.013 A 
ATOM     25  C   UNL     1       4.172  -3.145  -7.348  1.00  0.00     0.047 A 
ATOM     26  C   UNL     1       1.882  -3.731  -6.852  1.00  0.00     0.047 A 
ATOM     27  C   UNL     1       3.229  -4.073  -6.939  1.00  0.00     0.115 A 
BRANCH  27  28
ATOM     28  O   UNL     1       3.678  -5.315  -6.604  1.00  0.00    -0.508 OA
ATOM     29  H   UNL     1       4.590  -5.518  -6.672  1.00  0.00     0.293 HD
ENDBRANCH  27  28
ENDBRANCH  10  22
ENDBRANCH   8  10
ENDBRANCH   7   8
ENDBRANCH   6   7
ENDBRANCH   5   6
ENDBRANCH   4   5
ENDBRANCH   3   4
ENDBRANCH   2   3
ENDBRANCH   1   2
BRANCH   1  30
ATOM     30  C   UNL     1       5.758   3.656  -9.466  1.00  0.00     0.188 C 
BRANCH  30  31
ATOM     31  C   UNL     1       7.036   3.094 -10.134  1.00  0.00     0.188 C 
BRANCH  31  32
ATOM     32  O   UNL     1       7.538   1.903  -9.550  1.00  0.00    -0.376 OA
BRANCH  32  33
ATOM     33  C   UNL     1       8.702   1.998  -8.748  1.00  0.00     0.202 C 
BRANCH  33  34
ATOM     34  C   UNL     1       8.594   2.824  -7.460  1.00  0.00     0.261 C 
BRANCH  34  35
ATOM     35  O   UNL     1       8.124   4.172  -7.610  1.00  0.00    -0.460 OA
BRANCH  35  36
ATOM     36  C   UNL     1       8.887   5.023  -8.327  1.00  0.00     0.338 C 
ATOM     37  O   UNL     1       9.958   4.788  -8.861  1.00  0.00    -0.246 OA
BRANCH  36  38
ATOM     38  C   UNL     1       8.104   6.260  -8.519  1.00  0.00     0.060 A 
ATOM     39  C   UNL     1       7.762   6.663  -9.818  1.00  0.00     0.016 A 
ATOM     40  C   UNL     1       7.681   6.999  -7.412  1.00  0.00     0.016 A 
ATOM     41  C   UNL     1       7.017   7.825 -10.013  1.00  0.00     0.010 A 
ATOM     42  C   UNL     1       6.958   8.177  -7.611  1.00  0.00     0.010 A 
ATOM     43  C   UNL     1       6.652   8.611  -8.913  1.00  0.00    -0.014 A 
BRANCH  43  44
ATOM     44  C   UNL     1       6.141   9.986  -9.126  1.00  0.00     0.031 A 
ATOM     45  C   UNL     1       7.117  11.125  -9.025  1.00  0.00     0.074 A 
ATOM     46  C   UNL     1       4.848  10.222  -9.408  1.00  0.00     0.049 A 
ATOM     47  N   UNL     1       6.906  12.413  -9.101  1.00  0.00    -0.248 NA
ATOM     48  C   UNL     1       8.526  10.757  -8.804  1.00  0.00     0.031 C 
ATOM     49  C   UNL     1       3.817   9.201  -9.575  1.00  0.00     0.029 A 
ATOM     50  N   UNL     1       4.184  11.409  -9.594  1.00  0.00    -0.354 N 
ATOM     51  C   UNL     1       8.149  13.007  -8.928  1.00  0.00     0.074 A 
ATOM     52  C   UNL     1       9.104  11.943  -8.711  1.00  0.00     0.031 C 
ATOM     53  C   UNL     1       2.642   9.808  -9.823  1.00  0.00     0.029 A 
ATOM     54  C   UNL     1       2.835  11.257  -9.797  1.00  0.00     0.049 A 
ATOM     55  H   UNL     1       4.633  12.285  -9.582  1.00  0.00     0.167 HD
ATOM     56  C   UNL     1       8.468  14.322  -8.956  1.00  0.00     0.037 A 
ATOM     57  C   UNL     1       1.866  12.186  -9.921  1.00  0.00     0.037 A 
ATOM     58  C   UNL     1       7.513  15.378  -9.165  1.00  0.00     0.049 A 
ATOM     59  C   UNL     1       2.233  13.648  -9.865  1.00  0.00     0.074 A 
ATOM     60  C   UNL     1       7.737  16.742  -9.224  1.00  0.00     0.029 A 
ATOM     61  N   UNL     1       6.151  15.186  -9.339  1.00  0.00    -0.354 N 
ATOM     62  N   UNL     1       3.413  14.203  -9.726  1.00  0.00    -0.248 NA
ATOM     63  C   UNL     1       1.131  14.614  -9.987  1.00  0.00     0.031 C 
ATOM     64  C   UNL     1       6.501  17.379  -9.374  1.00  0.00     0.029 A 
ATOM     65  C   UNL     1       5.516  16.409  -9.476  1.00  0.00     0.049 A 
ATOM     66  H   UNL     1       5.702  14.310  -9.361  1.00  0.00     0.167 HD
ATOM     67  C   UNL     1       3.201  15.576  -9.780  1.00  0.00     0.074 A 
ATOM     68  C   UNL     1       1.779  15.770  -9.975  1.00  0.00     0.031 C 
ATOM     69  C   UNL     1       4.101  16.586  -9.682  1.00  0.00     0.037 A 
BRANCH  56  70
ATOM     70  C   UNL     1       9.904  14.690  -8.719  1.00  0.00     0.057 A 
ATOM     71  C   UNL     1      10.908  14.412  -9.656  1.00  0.00     0.134 A 
ATOM     72  C   UNL     1      10.283  15.355  -7.546  1.00  0.00     0.134 A 
ATOM     73  F   UNL     1      10.616  13.761 -10.793  1.00  0.00    -0.206 F 
ATOM     74  C   UNL     1      12.240  14.758  -9.424  1.00  0.00     0.040 A 
ATOM     75  C   UNL     1      11.607  15.734  -7.316  1.00  0.00     0.040 A 
ATOM     76  F   UNL     1       9.373  15.654  -6.607  1.00  0.00    -0.206 F 
ATOM     77  C   UNL     1      12.591  15.429  -8.254  1.00  0.00     0.006 A 
ENDBRANCH  56  70
BRANCH  57  78
ATOM     78  C   UNL     1       0.450  11.771 -10.093  1.00  0.00     0.057 A 
ATOM     79  C   UNL     1      -0.241  12.019 -11.285  1.00  0.00     0.134 A 
ATOM     80  C   UNL     1      -0.258  11.145  -9.059  1.00  0.00     0.134 A 
ATOM     81  F   UNL     1       0.373  12.638 -12.304  1.00  0.00    -0.206 F 
ATOM     82  C   UNL     1      -1.587  11.679 -11.436  1.00  0.00     0.040 A 
ATOM     83  C   UNL     1      -1.595  10.774  -9.206  1.00  0.00     0.040 A 
ATOM     84  F   UNL     1       0.344  10.880  -7.890  1.00  0.00    -0.206 F 
ATOM     85  C   UNL     1      -2.266  11.050 -10.395  1.00  0.00     0.006 A 
ENDBRANCH  57  78
BRANCH  69  86
ATOM     86  C   UNL     1       3.589  17.991  -9.835  1.00  0.00     0.057 A 
ATOM     87  C   UNL     1       2.801  18.608  -8.856  1.00  0.00     0.134 A 
ATOM     88  C   UNL     1       3.934  18.752 -10.960  1.00  0.00     0.134 A 
ATOM     89  F   UNL     1       2.426  17.934  -7.759  1.00  0.00    -0.206 F 
ATOM     90  C   UNL     1       2.353  19.923  -9.003  1.00  0.00     0.040 A 
ATOM     91  C   UNL     1       3.519  20.076 -11.103  1.00  0.00     0.040 A 
ATOM     92  F   UNL     1       4.697  18.226 -11.931  1.00  0.00    -0.206 F 
ATOM     93  C   UNL     1       2.720  20.663 -10.126  1.00  0.00     0.006 A 
ENDBRANCH  69  86
ENDBRANCH  43  44
ENDBRANCH  36  38
ENDBRANCH  35  36
ENDBRANCH  34  35
ENDBRANCH  33  34
ENDBRANCH  32  33
ENDBRANCH  31  32
ENDBRANCH  30  31
ENDBRANCH   1  30
TORSDOF 24
