REMARK SMILES C[C@H](C(=O)OCCOCCOCCOCCOC(=O)c1ccc(-c2c3nc(c(-c4c(F)cccc4F)c4ccc([nH]4)c(-c4c(F)cccc4F)c4nc(c(-c5c(F)cccc5F)c5ccc2[nH]5)C=C4)C=C3)cc1)c1ccc(C[C@@H]2CCC[C@H]2O)cc1
REMARK SMILES IDX 10 1 9 2 8 3 7 4 6 5 5 6 3 7 4 8 2 9 1 10 74 11 75 12 86 13
REMARK SMILES IDX 76 14 85 15 77 16 78 17 79 18 80 19 83 20 81 21 82 22 84 23
REMARK SMILES IDX 11 25 12 26 13 27 14 28 15 29 16 30 17 31 18 32 19 33 20 34
REMARK SMILES IDX 21 35 73 36 22 37 72 38 23 39 24 40 25 41 66 42 26 43 71 44
REMARK SMILES IDX 65 45 67 46 27 47 70 48 64 49 63 50 28 52 54 53 37 54 53 55
REMARK SMILES IDX 38 56 41 57 52 58 68 59 39 60 40 61 51 63 69 64 42 65 29 66
REMARK SMILES IDX 30 67 35 68 31 69 32 70 34 71 36 72 33 73 55 74 56 75 61 76
REMARK SMILES IDX 57 77 58 78 60 79 62 80 59 81 43 82 44 83 49 84 45 85 46 86
REMARK SMILES IDX 48 87 50 88 47 89
REMARK H PARENT 84 24 67 51 41 62
REMARK Flexibility Score: inf
ROOT
ATOM      1  C   UNL     1     -11.618   1.978   9.364  1.00  0.00     0.188 C 
ENDROOT
BRANCH   1   2
ATOM      2  C   UNL     1     -11.953   0.489   9.474  1.00  0.00     0.188 C 
BRANCH   2   3
ATOM      3  O   UNL     1     -11.568  -0.217  10.640  1.00  0.00    -0.376 OA
BRANCH   3   4
ATOM      4  C   UNL     1     -10.197  -0.460  10.933  1.00  0.00     0.202 C 
BRANCH   4   5
ATOM      5  C   UNL     1      -9.193  -0.874   9.844  1.00  0.00     0.261 C 
BRANCH   5   6
ATOM      6  O   UNL     1      -8.934   0.139   8.855  1.00  0.00    -0.463 OA
BRANCH   6   7
ATOM      7  C   UNL     1      -9.459  -0.112   7.630  1.00  0.00     0.313 C 
ATOM      8  O   UNL     1     -10.068  -1.148   7.364  1.00  0.00    -0.252 OA
BRANCH   7   9
ATOM      9  C   UNL     1      -9.295   1.019   6.604  1.00  0.00     0.126 C 
ATOM     10  C   UNL     1      -8.305   2.138   6.941  1.00  0.00     0.025 C 
BRANCH   9  11
ATOM     11  C   UNL     1      -8.931   0.448   5.239  1.00  0.00    -0.034 A 
ATOM     12  C   UNL     1      -8.251  -0.774   5.155  1.00  0.00     0.005 A 
ATOM     13  C   UNL     1      -9.203   1.150   4.058  1.00  0.00     0.005 A 
ATOM     14  C   UNL     1      -7.828  -1.274   3.941  1.00  0.00     0.004 A 
ATOM     15  C   UNL     1      -8.694   0.688   2.841  1.00  0.00     0.004 A 
ATOM     16  C   UNL     1      -7.941  -0.493   2.795  1.00  0.00    -0.048 A 
BRANCH  16  17
ATOM     17  C   UNL     1      -7.125  -0.873   1.591  1.00  0.00     0.041 C 
BRANCH  17  18
ATOM     18  C   UNL     1      -5.604  -0.580   1.706  1.00  0.00     0.022 C 
ATOM     19  C   UNL     1      -4.851  -1.307   2.837  1.00  0.00     0.007 C 
ATOM     20  C   UNL     1      -5.255   0.893   1.951  1.00  0.00     0.117 C 
ATOM     21  C   UNL     1      -4.649  -0.302   3.976  1.00  0.00     0.003 C 
ATOM     22  C   UNL     1      -5.125   1.054   3.462  1.00  0.00     0.032 C 
BRANCH  20  23
ATOM     23  O   UNL     1      -3.991   1.183   1.349  1.00  0.00    -0.393 OA
ATOM     24  H   UNL     1      -3.315   0.594   1.718  1.00  0.00     0.210 HD
ENDBRANCH  20  23
ENDBRANCH  17  18
ENDBRANCH  16  17
ENDBRANCH   9  11
ENDBRANCH   7   9
ENDBRANCH   6   7
ENDBRANCH   5   6
ENDBRANCH   4   5
ENDBRANCH   3   4
ENDBRANCH   2   3
ENDBRANCH   1   2
BRANCH   1  25
ATOM     25  O   UNL     1     -10.247   2.324   9.470  1.00  0.00    -0.377 OA
BRANCH  25  26
ATOM     26  C   UNL     1      -9.732   2.842  10.697  1.00  0.00     0.188 C 
BRANCH  26  27
ATOM     27  C   UNL     1     -10.746   3.279  11.755  1.00  0.00     0.188 C 
BRANCH  27  28
ATOM     28  O   UNL     1     -11.653   4.329  11.402  1.00  0.00    -0.376 OA
BRANCH  28  29
ATOM     29  C   UNL     1     -11.298   5.224  10.351  1.00  0.00     0.202 C 
BRANCH  29  30
ATOM     30  C   UNL     1     -10.491   6.440  10.798  1.00  0.00     0.261 C 
BRANCH  30  31
ATOM     31  O   UNL     1      -9.196   6.071  11.290  1.00  0.00    -0.460 OA
BRANCH  31  32
ATOM     32  C   UNL     1      -9.121   5.926  12.634  1.00  0.00     0.338 C 
ATOM     33  O   UNL     1     -10.001   6.102  13.455  1.00  0.00    -0.246 OA
BRANCH  32  34
ATOM     34  C   UNL     1      -7.799   5.382  12.984  1.00  0.00     0.060 A 
ATOM     35  C   UNL     1      -7.738   4.314  13.888  1.00  0.00     0.016 A 
ATOM     36  C   UNL     1      -6.633   5.980  12.501  1.00  0.00     0.016 A 
ATOM     37  C   UNL     1      -6.505   3.875  14.359  1.00  0.00     0.010 A 
ATOM     38  C   UNL     1      -5.400   5.550  12.983  1.00  0.00     0.010 A 
ATOM     39  C   UNL     1      -5.339   4.529  13.948  1.00  0.00    -0.014 A 
BRANCH  39  40
ATOM     40  C   UNL     1      -4.076   4.292  14.676  1.00  0.00     0.031 A 
ATOM     41  C   UNL     1      -3.665   5.283  15.728  1.00  0.00     0.074 A 
ATOM     42  C   UNL     1      -3.321   3.215  14.407  1.00  0.00     0.049 A 
ATOM     43  N   UNL     1      -2.566   5.339  16.432  1.00  0.00    -0.248 NA
ATOM     44  C   UNL     1      -4.624   6.363  16.017  1.00  0.00     0.031 C 
ATOM     45  C   UNL     1      -3.653   2.172  13.439  1.00  0.00     0.029 A 
ATOM     46  N   UNL     1      -2.110   2.833  14.919  1.00  0.00    -0.354 N 
ATOM     47  C   UNL     1      -2.696   6.462  17.240  1.00  0.00     0.074 A 
ATOM     48  C   UNL     1      -3.963   7.079  16.914  1.00  0.00     0.031 C 
ATOM     49  C   UNL     1      -2.653   1.275  13.410  1.00  0.00     0.029 A 
ATOM     50  C   UNL     1      -1.601   1.704  14.329  1.00  0.00     0.049 A 
ATOM     51  H   UNL     1      -1.649   3.321  15.639  1.00  0.00     0.167 HD
ATOM     52  C   UNL     1      -1.836   6.930  18.174  1.00  0.00     0.037 A 
ATOM     53  C   UNL     1      -0.405   1.108  14.495  1.00  0.00     0.037 A 
ATOM     54  C   UNL     1      -0.576   6.309  18.481  1.00  0.00     0.049 A 
ATOM     55  C   UNL     1       0.569   1.692  15.484  1.00  0.00     0.074 A 
ATOM     56  C   UNL     1       0.371   6.691  19.415  1.00  0.00     0.029 A 
ATOM     57  N   UNL     1      -0.083   5.176  17.849  1.00  0.00    -0.354 N 
ATOM     58  N   UNL     1       0.436   2.744  16.258  1.00  0.00    -0.248 NA
ATOM     59  C   UNL     1       1.859   1.004  15.626  1.00  0.00     0.031 C 
ATOM     60  C   UNL     1       1.462   5.822  19.308  1.00  0.00     0.029 A 
ATOM     61  C   UNL     1       1.167   4.860  18.354  1.00  0.00     0.049 A 
ATOM     62  H   UNL     1      -0.552   4.671  17.146  1.00  0.00     0.167 HD
ATOM     63  C   UNL     1       1.608   2.824  17.000  1.00  0.00     0.074 A 
ATOM     64  C   UNL     1       2.435   1.707  16.591  1.00  0.00     0.031 C 
ATOM     65  C   UNL     1       1.969   3.737  17.936  1.00  0.00     0.037 A 
BRANCH  52  66
ATOM     66  C   UNL     1      -2.220   8.187  18.901  1.00  0.00     0.057 A 
ATOM     67  C   UNL     1      -3.277   8.221  19.821  1.00  0.00     0.134 A 
ATOM     68  C   UNL     1      -1.511   9.376  18.692  1.00  0.00     0.134 A 
ATOM     69  F   UNL     1      -4.010   7.122  20.057  1.00  0.00    -0.206 F 
ATOM     70  C   UNL     1      -3.631   9.398  20.485  1.00  0.00     0.040 A 
ATOM     71  C   UNL     1      -1.837  10.552  19.371  1.00  0.00     0.040 A 
ATOM     72  F   UNL     1      -0.487   9.416  17.826  1.00  0.00    -0.206 F 
ATOM     73  C   UNL     1      -2.905  10.566  20.265  1.00  0.00     0.006 A 
ENDBRANCH  52  66
BRANCH  53  74
ATOM     74  C   UNL     1      -0.057  -0.093  13.696  1.00  0.00     0.057 A 
ATOM     75  C   UNL     1       0.095  -1.347  14.297  1.00  0.00     0.134 A 
ATOM     76  C   UNL     1       0.144  -0.014  12.312  1.00  0.00     0.134 A 
ATOM     77  F   UNL     1      -0.066  -1.484  15.622  1.00  0.00    -0.206 F 
ATOM     78  C   UNL     1       0.453  -2.475  13.557  1.00  0.00     0.040 A 
ATOM     79  C   UNL     1       0.475  -1.139  11.555  1.00  0.00     0.040 A 
ATOM     80  F   UNL     1       0.009   1.157  11.672  1.00  0.00    -0.206 F 
ATOM     81  C   UNL     1       0.639  -2.373  12.180  1.00  0.00     0.006 A 
ENDBRANCH  53  74
BRANCH  65  82
ATOM     82  C   UNL     1       3.295   3.539  18.613  1.00  0.00     0.057 A 
ATOM     83  C   UNL     1       4.509   3.746  17.947  1.00  0.00     0.134 A 
ATOM     84  C   UNL     1       3.353   3.179  19.966  1.00  0.00     0.134 A 
ATOM     85  F   UNL     1       4.524   4.082  16.648  1.00  0.00    -0.206 F 
ATOM     86  C   UNL     1       5.734   3.575  18.594  1.00  0.00     0.040 A 
ATOM     87  C   UNL     1       4.571   3.036  20.632  1.00  0.00     0.040 A 
ATOM     88  F   UNL     1       2.227   2.977  20.667  1.00  0.00    -0.206 F 
ATOM     89  C   UNL     1       5.766   3.226  19.944  1.00  0.00     0.006 A 
ENDBRANCH  65  82
ENDBRANCH  39  40
ENDBRANCH  32  34
ENDBRANCH  31  32
ENDBRANCH  30  31
ENDBRANCH  29  30
ENDBRANCH  28  29
ENDBRANCH  27  28
ENDBRANCH  26  27
ENDBRANCH  25  26
ENDBRANCH   1  25
TORSDOF 24
