REMARK SMILES C[NH+](C)[C@@H]1CC[N@@H+](Cc2ccc(C(=O)OCCOCCOCCOCCOC(=O)c3ccc(-c4c5nc(c(-c6c(F)cccc6F)c6ccc([nH]6)c(-c6c(F)cccc6F)c6nc(c(-c7c(F)cccc7F)c7ccc4[nH]7)C=C6)C=C5)cc3)cn2)C1
REMARK SMILES IDX 20 1 19 2 18 3 17 4 16 5 15 6 13 7 14 8 12 9 9 10 10 11
REMARK SMILES IDX 85 12 11 13 84 14 8 15 7 16 4 17 5 18 86 19 6 20 2 22 1 23
REMARK SMILES IDX 3 24 21 26 22 27 23 28 24 29 25 30 26 31 27 32 28 33 29 34
REMARK SMILES IDX 30 35 31 36 83 37 32 38 82 39 33 40 34 41 35 42 76 43 36 44
REMARK SMILES IDX 81 45 75 46 77 47 37 48 80 49 74 50 73 51 38 53 64 54 47 55
REMARK SMILES IDX 63 56 48 57 51 58 62 59 78 60 49 61 50 62 61 64 79 65 52 66
REMARK SMILES IDX 39 67 40 68 45 69 41 70 42 71 44 72 46 73 43 74 65 75 66 76
REMARK SMILES IDX 71 77 67 78 68 79 70 80 72 81 69 82 53 83 54 84 59 85 55 86
REMARK SMILES IDX 56 87 58 88 60 89 57 90
REMARK H PARENT 7 21 2 25 77 52 51 63
REMARK Flexibility Score: inf
ROOT
ATOM      1  C   UNL     1       0.638   2.660   8.388  1.00  0.00     0.188 C 
ENDROOT
BRANCH   1   2
ATOM      2  C   UNL     1      -0.600   3.557   8.590  1.00  0.00     0.188 C 
BRANCH   2   3
ATOM      3  O   UNL     1      -1.627   2.914   9.325  1.00  0.00    -0.376 OA
BRANCH   3   4
ATOM      4  C   UNL     1      -2.783   2.419   8.675  1.00  0.00     0.202 C 
BRANCH   4   5
ATOM      5  C   UNL     1      -2.701   1.481   7.458  1.00  0.00     0.261 C 
BRANCH   5   6
ATOM      6  O   UNL     1      -1.606   1.688   6.570  1.00  0.00    -0.460 OA
BRANCH   6   7
ATOM      7  C   UNL     1      -1.701   2.716   5.707  1.00  0.00     0.339 C 
ATOM      8  O   UNL     1      -2.659   3.449   5.541  1.00  0.00    -0.246 OA
BRANCH   7   9
ATOM      9  C   UNL     1      -0.364   2.941   5.132  1.00  0.00     0.078 A 
ATOM     10  C   UNL     1       2.047   3.546   3.992  1.00  0.00     0.095 A 
ATOM     11  C   UNL     1       1.804   2.229   4.375  1.00  0.00     0.031 A 
ATOM     12  N   UNL     1       1.202   4.566   4.299  1.00  0.00    -0.254 NA
ATOM     13  C   UNL     1       0.568   1.919   4.931  1.00  0.00     0.019 A 
ATOM     14  C   UNL     1       0.017   4.244   4.859  1.00  0.00     0.127 A 
BRANCH  10  15
ATOM     15  C   UNL     1       3.133   3.846   2.976  1.00  0.00     0.319 C 
BRANCH  15  16
ATOM     16  N   UNL     1       2.755   3.675   1.557  1.00  0.00    -0.325 N 
ATOM     17  C   UNL     1       0.923   2.090   1.148  1.00  0.00     0.245 C 
ATOM     18  C   UNL     1       0.370   3.520   1.224  1.00  0.00     0.132 C 
ATOM     19  C   UNL     1       2.462   2.302   1.125  1.00  0.00     0.328 C 
ATOM     20  C   UNL     1       1.577   4.449   1.152  1.00  0.00     0.269 C 
ATOM     21  H   UNL     1       3.609   4.008   1.111  1.00  0.00     0.348 HD
BRANCH  17  22
ATOM     22  N   UNL     1       0.382   1.286   0.028  1.00  0.00    -0.333 N 
ATOM     23  C   UNL     1       0.984  -0.051  -0.020  1.00  0.00     0.332 C 
ATOM     24  C   UNL     1      -1.077   1.139   0.115  1.00  0.00     0.332 C 
ATOM     25  H   UNL     1       0.617   1.796  -0.824  1.00  0.00     0.348 HD
ENDBRANCH  17  22
ENDBRANCH  15  16
ENDBRANCH  10  15
ENDBRANCH   7   9
ENDBRANCH   6   7
ENDBRANCH   5   6
ENDBRANCH   4   5
ENDBRANCH   3   4
ENDBRANCH   2   3
ENDBRANCH   1   2
BRANCH   1  26
ATOM     26  O   UNL     1       0.398   1.269   8.523  1.00  0.00    -0.377 OA
BRANCH  26  27
ATOM     27  C   UNL     1       0.131   0.745   9.826  1.00  0.00     0.188 C 
BRANCH  27  28
ATOM     28  C   UNL     1       0.033   1.634  11.094  1.00  0.00     0.188 C 
BRANCH  28  29
ATOM     29  O   UNL     1       0.769   2.846  11.043  1.00  0.00    -0.376 OA
BRANCH  29  30
ATOM     30  C   UNL     1       1.971   2.934  11.787  1.00  0.00     0.202 C 
BRANCH  30  31
ATOM     31  C   UNL     1       3.121   2.027  11.331  1.00  0.00     0.261 C 
BRANCH  31  32
ATOM     32  O   UNL     1       2.829   0.621  11.296  1.00  0.00    -0.460 OA
BRANCH  32  33
ATOM     33  C   UNL     1       2.526   0.022  12.466  1.00  0.00     0.338 C 
ATOM     34  O   UNL     1       2.498   0.532  13.574  1.00  0.00    -0.246 OA
BRANCH  33  35
ATOM     35  C   UNL     1       2.043  -1.337  12.157  1.00  0.00     0.060 A 
ATOM     36  C   UNL     1       0.737  -1.697  12.515  1.00  0.00     0.016 A 
ATOM     37  C   UNL     1       2.873  -2.246  11.497  1.00  0.00     0.016 A 
ATOM     38  C   UNL     1       0.267  -2.981  12.239  1.00  0.00     0.010 A 
ATOM     39  C   UNL     1       2.409  -3.538  11.241  1.00  0.00     0.010 A 
ATOM     40  C   UNL     1       1.116  -3.920  11.639  1.00  0.00    -0.014 A 
BRANCH  40  41
ATOM     41  C   UNL     1       0.727  -5.350  11.604  1.00  0.00     0.031 A 
ATOM     42  C   UNL     1       1.266  -6.261  12.673  1.00  0.00     0.074 A 
ATOM     43  C   UNL     1      -0.093  -5.833  10.655  1.00  0.00     0.049 A 
ATOM     44  N   UNL     1       1.119  -7.552  12.820  1.00  0.00    -0.248 NA
ATOM     45  C   UNL     1       2.089  -5.625  13.715  1.00  0.00     0.031 C 
ATOM     46  C   UNL     1      -0.714  -5.047   9.592  1.00  0.00     0.029 A 
ATOM     47  N   UNL     1      -0.535  -7.114  10.432  1.00  0.00    -0.354 N 
ATOM     48  C   UNL     1       1.833  -7.883  13.964  1.00  0.00     0.074 A 
ATOM     49  C   UNL     1       2.442  -6.665  14.453  1.00  0.00     0.031 C 
ATOM     50  C   UNL     1      -1.449  -5.866   8.819  1.00  0.00     0.029 A 
ATOM     51  C   UNL     1      -1.321  -7.237   9.312  1.00  0.00     0.049 A 
ATOM     52  H   UNL     1      -0.311  -7.871  11.019  1.00  0.00     0.167 HD
ATOM     53  C   UNL     1       1.964  -9.092  14.559  1.00  0.00     0.037 A 
ATOM     54  C   UNL     1      -1.852  -8.336   8.740  1.00  0.00     0.037 A 
ATOM     55  C   UNL     1       1.363 -10.303  14.067  1.00  0.00     0.049 A 
ATOM     56  C   UNL     1      -1.620  -9.685   9.373  1.00  0.00     0.074 A 
ATOM     57  C   UNL     1       1.420 -11.575  14.609  1.00  0.00     0.029 A 
ATOM     58  N   UNL     1       0.605 -10.394  12.909  1.00  0.00    -0.354 N 
ATOM     59  N   UNL     1      -0.970  -9.986  10.471  1.00  0.00    -0.248 NA
ATOM     60  C   UNL     1      -2.199 -10.848   8.684  1.00  0.00     0.031 C 
ATOM     61  C   UNL     1       0.748 -12.446  13.746  1.00  0.00     0.029 A 
ATOM     62  C   UNL     1       0.218 -11.707  12.701  1.00  0.00     0.049 A 
ATOM     63  H   UNL     1       0.377  -9.637  12.322  1.00  0.00     0.167 HD
ATOM     64  C   UNL     1      -1.085 -11.364  10.620  1.00  0.00     0.074 A 
ATOM     65  C   UNL     1      -1.881 -11.838   9.507  1.00  0.00     0.031 C 
ATOM     66  C   UNL     1      -0.579 -12.165  11.590  1.00  0.00     0.037 A 
BRANCH  53  67
ATOM     67  C   UNL     1       2.817  -9.165  15.792  1.00  0.00     0.057 A 
ATOM     68  C   UNL     1       2.420  -8.592  17.007  1.00  0.00     0.134 A 
ATOM     69  C   UNL     1       4.046  -9.837  15.767  1.00  0.00     0.134 A 
ATOM     70  F   UNL     1       1.262  -7.920  17.096  1.00  0.00    -0.206 F 
ATOM     71  C   UNL     1       3.225  -8.662  18.145  1.00  0.00     0.040 A 
ATOM     72  C   UNL     1       4.846  -9.939  16.906  1.00  0.00     0.040 A 
ATOM     73  F   UNL     1       4.487 -10.411  14.637  1.00  0.00    -0.206 F 
ATOM     74  C   UNL     1       4.440  -9.344  18.098  1.00  0.00     0.006 A 
ENDBRANCH  53  67
BRANCH  54  75
ATOM     75  C   UNL     1      -2.641  -8.218   7.486  1.00  0.00     0.057 A 
ATOM     76  C   UNL     1      -4.013  -8.494   7.463  1.00  0.00     0.134 A 
ATOM     77  C   UNL     1      -2.037  -7.858   6.275  1.00  0.00     0.134 A 
ATOM     78  F   UNL     1      -4.645  -8.870   8.584  1.00  0.00    -0.206 F 
ATOM     79  C   UNL     1      -4.752  -8.437   6.279  1.00  0.00     0.040 A 
ATOM     80  C   UNL     1      -2.768  -7.769   5.090  1.00  0.00     0.040 A 
ATOM     81  F   UNL     1      -0.725  -7.582   6.228  1.00  0.00    -0.206 F 
ATOM     82  C   UNL     1      -4.129  -8.067   5.088  1.00  0.00     0.006 A 
ENDBRANCH  54  75
BRANCH  66  83
ATOM     83  C   UNL     1      -0.898 -13.632  11.515  1.00  0.00     0.057 A 
ATOM     84  C   UNL     1      -0.336 -14.466  10.540  1.00  0.00     0.134 A 
ATOM     85  C   UNL     1      -1.742 -14.226  12.463  1.00  0.00     0.134 A 
ATOM     86  F   UNL     1       0.472 -13.960   9.597  1.00  0.00    -0.206 F 
ATOM     87  C   UNL     1      -0.622 -15.832  10.496  1.00  0.00     0.040 A 
ATOM     88  C   UNL     1      -2.010 -15.595  12.448  1.00  0.00     0.040 A 
ATOM     89  F   UNL     1      -2.306 -13.489  13.432  1.00  0.00    -0.206 F 
ATOM     90  C   UNL     1      -1.454 -16.401  11.457  1.00  0.00     0.006 A 
ENDBRANCH  66  83
ENDBRANCH  40  41
ENDBRANCH  33  35
ENDBRANCH  32  33
ENDBRANCH  31  32
ENDBRANCH  30  31
ENDBRANCH  29  30
ENDBRANCH  28  29
ENDBRANCH  27  28
ENDBRANCH  26  27
ENDBRANCH   1  26
TORSDOF 23
