REMARK SMILES O=C(OCCOCCOCCOCCOC(=O)c1ccc(-c2c3nc(c(-c4c(F)cccc4F)c4ccc([nH]4)c(-c4c(F)cccc4F)c4nc(c(-c5c(F)cccc5F)c5ccc2[nH]5)C=C4)C=C3)cc1)c1ccc(/N=C\c2ccccc2O)cc1
REMARK SMILES IDX 8 1 7 2 6 3 5 4 4 5 3 6 2 7 1 8 72 9 73 10 86 11 74 12 85 13
REMARK SMILES IDX 75 14 76 15 77 16 78 17 79 18 83 19 80 20 82 21 81 22 84 23
REMARK SMILES IDX 9 25 10 26 11 27 12 28 13 29 14 30 15 31 16 32 17 33 18 34
REMARK SMILES IDX 19 35 71 36 20 37 70 38 21 39 22 40 23 41 64 42 24 43 69 44
REMARK SMILES IDX 63 45 65 46 25 47 68 48 62 49 61 50 26 52 52 53 35 54 51 55
REMARK SMILES IDX 36 56 39 57 50 58 66 59 37 60 38 61 49 63 67 64 40 65 27 66
REMARK SMILES IDX 28 67 33 68 29 69 30 70 32 71 34 72 31 73 53 74 54 75 59 76
REMARK SMILES IDX 55 77 56 78 58 79 60 80 57 81 41 82 42 83 47 84 43 85 44 86
REMARK SMILES IDX 46 87 48 88 45 89
REMARK H PARENT 84 24 65 51 39 62
REMARK Flexibility Score: inf
ROOT
ATOM      1  C   UNL     1       1.782   0.345  -2.640  1.00  0.00     0.188 C 
ENDROOT
BRANCH   1   2
ATOM      2  C   UNL     1       2.308  -0.304  -1.358  1.00  0.00     0.188 C 
BRANCH   2   3
ATOM      3  O   UNL     1       3.617   0.158  -1.001  1.00  0.00    -0.376 OA
BRANCH   3   4
ATOM      4  C   UNL     1       4.564  -0.862  -0.701  1.00  0.00     0.202 C 
BRANCH   4   5
ATOM      5  C   UNL     1       4.425  -1.543   0.656  1.00  0.00     0.261 C 
BRANCH   5   6
ATOM      6  O   UNL     1       3.159  -1.388   1.303  1.00  0.00    -0.460 OA
BRANCH   6   7
ATOM      7  C   UNL     1       2.564  -0.271   1.778  1.00  0.00     0.338 C 
ATOM      8  O   UNL     1       1.407  -0.379   2.188  1.00  0.00    -0.246 OA
BRANCH   7   9
ATOM      9  C   UNL     1       3.195   1.091   1.825  1.00  0.00     0.060 A 
ATOM     10  C   UNL     1       4.557   1.378   1.702  1.00  0.00     0.018 A 
ATOM     11  C   UNL     1       2.327   2.164   2.103  1.00  0.00     0.018 A 
ATOM     12  C   UNL     1       5.051   2.653   1.986  1.00  0.00     0.029 A 
ATOM     13  C   UNL     1       2.823   3.438   2.394  1.00  0.00     0.029 A 
ATOM     14  C   UNL     1       4.201   3.642   2.465  1.00  0.00     0.063 A 
BRANCH  14  15
ATOM     15  N   UNL     1       4.788   4.707   3.167  1.00  0.00    -0.256 NA
ATOM     16  C   UNL     1       4.510   4.881   4.430  1.00  0.00     0.123 C 
BRANCH  16  17
ATOM     17  C   UNL     1       3.543   4.117   5.252  1.00  0.00     0.035 A 
ATOM     18  C   UNL     1       2.424   4.841   5.678  1.00  0.00     0.013 A 
ATOM     19  C   UNL     1       3.604   2.733   5.459  1.00  0.00     0.124 A 
ATOM     20  C   UNL     1       1.334   4.169   6.230  1.00  0.00     0.001 A 
ATOM     21  C   UNL     1       2.509   2.066   6.005  1.00  0.00     0.047 A 
ATOM     22  C   UNL     1       1.367   2.781   6.370  1.00  0.00     0.004 A 
BRANCH  19  23
ATOM     23  O   UNL     1       4.676   1.957   5.119  1.00  0.00    -0.507 OA
ATOM     24  H   UNL     1       5.441   2.351   4.747  1.00  0.00     0.293 HD
ENDBRANCH  19  23
ENDBRANCH  16  17
ENDBRANCH  14  15
ENDBRANCH   7   9
ENDBRANCH   6   7
ENDBRANCH   5   6
ENDBRANCH   4   5
ENDBRANCH   3   4
ENDBRANCH   2   3
ENDBRANCH   1   2
BRANCH   1  25
ATOM     25  O   UNL     1       2.380  -0.099  -3.856  1.00  0.00    -0.377 OA
BRANCH  25  26
ATOM     26  C   UNL     1       3.800  -0.149  -3.897  1.00  0.00     0.188 C 
BRANCH  26  27
ATOM     27  C   UNL     1       4.597   1.138  -3.600  1.00  0.00     0.188 C 
BRANCH  27  28
ATOM     28  O   UNL     1       3.781   2.245  -3.264  1.00  0.00    -0.376 OA
BRANCH  28  29
ATOM     29  C   UNL     1       3.601   3.232  -4.268  1.00  0.00     0.202 C 
BRANCH  29  30
ATOM     30  C   UNL     1       2.955   2.813  -5.601  1.00  0.00     0.261 C 
BRANCH  30  31
ATOM     31  O   UNL     1       3.470   1.624  -6.225  1.00  0.00    -0.460 OA
BRANCH  31  32
ATOM     32  C   UNL     1       4.681   1.665  -6.824  1.00  0.00     0.338 C 
ATOM     33  O   UNL     1       5.405   2.637  -6.949  1.00  0.00    -0.246 OA
BRANCH  32  34
ATOM     34  C   UNL     1       5.089   0.255  -7.074  1.00  0.00     0.060 A 
ATOM     35  C   UNL     1       6.306  -0.196  -6.539  1.00  0.00     0.016 A 
ATOM     36  C   UNL     1       4.219  -0.656  -7.684  1.00  0.00     0.016 A 
ATOM     37  C   UNL     1       6.647  -1.554  -6.605  1.00  0.00     0.010 A 
ATOM     38  C   UNL     1       4.573  -2.009  -7.772  1.00  0.00     0.010 A 
ATOM     39  C   UNL     1       5.794  -2.465  -7.244  1.00  0.00    -0.014 A 
BRANCH  39  40
ATOM     40  C   UNL     1       6.258  -3.846  -7.542  1.00  0.00     0.031 A 
ATOM     41  C   UNL     1       6.916  -4.091  -8.874  1.00  0.00     0.074 A 
ATOM     42  C   UNL     1       6.099  -4.867  -6.678  1.00  0.00     0.049 A 
ATOM     43  N   UNL     1       7.334  -5.211  -9.404  1.00  0.00    -0.248 NA
ATOM     44  C   UNL     1       7.127  -2.906  -9.722  1.00  0.00     0.031 C 
ATOM     45  C   UNL     1       5.513  -4.769  -5.343  1.00  0.00     0.029 A 
ATOM     46  N   UNL     1       6.408  -6.201  -6.811  1.00  0.00    -0.354 N 
ATOM     47  C   UNL     1       7.850  -4.867 -10.646  1.00  0.00     0.074 A 
ATOM     48  C   UNL     1       7.678  -3.440 -10.801  1.00  0.00     0.031 C 
ATOM     49  C   UNL     1       5.481  -5.996  -4.789  1.00  0.00     0.029 A 
ATOM     50  C   UNL     1       6.014  -6.971  -5.742  1.00  0.00     0.049 A 
ATOM     51  H   UNL     1       6.869  -6.571  -7.598  1.00  0.00     0.167 HD
ATOM     52  C   UNL     1       8.419  -5.667 -11.578  1.00  0.00     0.037 A 
ATOM     53  C   UNL     1       6.048  -8.310  -5.569  1.00  0.00     0.037 A 
ATOM     54  C   UNL     1       8.588  -7.087 -11.435  1.00  0.00     0.049 A 
ATOM     55  C   UNL     1       6.608  -9.190  -6.662  1.00  0.00     0.074 A 
ATOM     56  C   UNL     1       9.185  -7.973 -12.315  1.00  0.00     0.029 A 
ATOM     57  N   UNL     1       8.147  -7.830 -10.353  1.00  0.00    -0.354 N 
ATOM     58  N   UNL     1       7.139  -8.849  -7.812  1.00  0.00    -0.248 NA
ATOM     59  C   UNL     1       6.566 -10.644  -6.436  1.00  0.00     0.031 C 
ATOM     60  C   UNL     1       9.053  -9.262 -11.791  1.00  0.00     0.029 A 
ATOM     61  C   UNL     1       8.424  -9.171 -10.560  1.00  0.00     0.049 A 
ATOM     62  H   UNL     1       7.703  -7.461  -9.556  1.00  0.00     0.167 HD
ATOM     63  C   UNL     1       7.512 -10.038  -8.430  1.00  0.00     0.074 A 
ATOM     64  C   UNL     1       7.169 -11.109  -7.521  1.00  0.00     0.031 C 
ATOM     65  C   UNL     1       8.084 -10.228  -9.644  1.00  0.00     0.037 A 
BRANCH  52  66
ATOM     66  C   UNL     1       8.878  -5.029 -12.853  1.00  0.00     0.057 A 
ATOM     67  C   UNL     1      10.028  -4.232 -12.909  1.00  0.00     0.134 A 
ATOM     68  C   UNL     1       8.191  -5.263 -14.051  1.00  0.00     0.134 A 
ATOM     69  F   UNL     1      10.719  -3.957 -11.793  1.00  0.00    -0.206 F 
ATOM     70  C   UNL     1      10.475  -3.684 -14.112  1.00  0.00     0.040 A 
ATOM     71  C   UNL     1       8.641  -4.740 -15.263  1.00  0.00     0.040 A 
ATOM     72  F   UNL     1       7.081  -6.018 -14.063  1.00  0.00    -0.206 F 
ATOM     73  C   UNL     1       9.786  -3.947 -15.295  1.00  0.00     0.006 A 
ENDBRANCH  52  66
BRANCH  53  74
ATOM     74  C   UNL     1       5.494  -8.932  -4.336  1.00  0.00     0.057 A 
ATOM     75  C   UNL     1       6.314  -9.620  -3.432  1.00  0.00     0.134 A 
ATOM     76  C   UNL     1       4.118  -8.924  -4.073  1.00  0.00     0.134 A 
ATOM     77  F   UNL     1       7.636  -9.696  -3.644  1.00  0.00    -0.206 F 
ATOM     78  C   UNL     1       5.785 -10.299  -2.331  1.00  0.00     0.040 A 
ATOM     79  C   UNL     1       3.579  -9.573  -2.960  1.00  0.00     0.040 A 
ATOM     80  F   UNL     1       3.274  -8.292  -4.902  1.00  0.00    -0.206 F 
ATOM     81  C   UNL     1       4.413 -10.273  -2.091  1.00  0.00     0.006 A 
ENDBRANCH  53  74
BRANCH  65  82
ATOM     82  C   UNL     1       8.401 -11.638 -10.053  1.00  0.00     0.057 A 
ATOM     83  C   UNL     1       7.396 -12.546 -10.412  1.00  0.00     0.134 A 
ATOM     84  C   UNL     1       9.729 -12.075 -10.144  1.00  0.00     0.134 A 
ATOM     85  F   UNL     1       6.104 -12.194 -10.338  1.00  0.00    -0.206 F 
ATOM     86  C   UNL     1       7.701 -13.845 -10.825  1.00  0.00     0.040 A 
ATOM     87  C   UNL     1      10.047 -13.362 -10.582  1.00  0.00     0.040 A 
ATOM     88  F   UNL     1      10.741 -11.253  -9.828  1.00  0.00    -0.206 F 
ATOM     89  C   UNL     1       9.030 -14.253 -10.918  1.00  0.00     0.006 A 
ENDBRANCH  65  82
ENDBRANCH  39  40
ENDBRANCH  32  34
ENDBRANCH  31  32
ENDBRANCH  30  31
ENDBRANCH  29  30
ENDBRANCH  28  29
ENDBRANCH  27  28
ENDBRANCH  26  27
ENDBRANCH  25  26
ENDBRANCH   1  25
TORSDOF 23
