REMARK SMILES Cc1ccc(CCC(=O)N2CCC3(CC2)[C@H](C(=O)OCCOCCOCCOCCOC(=O)c2ccc(-c4c5nc(c(-c6c(F)cccc6F)c6ccc([nH]6)c(-c6c(F)cccc6F)c6nc(c(-c7c(F)cccc7F)c7ccc4[nH]7)C=C6)C=C5)cc2)CC(=O)N3C)cc1
REMARK SMILES IDX 24 1 23 2 22 3 21 4 20 5 19 6 17 7 18 8 16 9 8 10 9 11 10 12
REMARK SMILES IDX 11 13 15 14 12 15 14 16 13 17 91 18 88 19 89 20 92 21 90 22
REMARK SMILES IDX 7 23 6 24 5 25 1 26 2 27 3 28 94 29 4 30 93 31 25 32 26 33
REMARK SMILES IDX 27 34 28 35 29 36 30 37 31 38 32 39 33 40 34 41 35 42 87 43
REMARK SMILES IDX 36 44 86 45 37 46 38 47 39 48 80 49 40 50 85 51 79 52 81 53
REMARK SMILES IDX 41 54 84 55 78 56 77 57 42 59 68 60 51 61 67 62 52 63 55 64
REMARK SMILES IDX 66 65 82 66 53 67 54 68 65 70 83 71 56 72 43 73 44 74 49 75
REMARK SMILES IDX 45 76 46 77 48 78 50 79 47 80 69 81 70 82 75 83 71 84 72 85
REMARK SMILES IDX 74 86 76 87 73 88 57 89 58 90 63 91 59 92 60 93 62 94 64 95
REMARK SMILES IDX 61 96
REMARK H PARENT 81 58 55 69
REMARK Flexibility Score: inf
ROOT
ATOM      1  C   UNL     1      -1.269  -2.532  -4.492  1.00  0.00     0.188 C 
ENDROOT
BRANCH   1   2
ATOM      2  C   UNL     1      -0.338  -0.982  -4.666  1.00  0.00     0.188 C 
BRANCH   2   3
ATOM      3  O   UNL     1       0.637  -0.531  -5.634  1.00  0.00    -0.376 OA
BRANCH   3   4
ATOM      4  C   UNL     1       2.083  -0.701  -5.759  1.00  0.00     0.202 C 
BRANCH   4   5
ATOM      5  C   UNL     1       3.076  -1.672  -5.136  1.00  0.00     0.261 C 
BRANCH   5   6
ATOM      6  O   UNL     1       3.185  -1.851  -3.786  1.00  0.00    -0.463 OA
BRANCH   6   7
ATOM      7  C   UNL     1       2.714  -0.799  -3.141  1.00  0.00     0.311 C 
ATOM      8  O   UNL     1       2.531   0.338  -3.549  1.00  0.00    -0.252 OA
BRANCH   7   9
ATOM      9  C   UNL     1       2.561  -1.207  -1.753  1.00  0.00     0.134 C 
ATOM     10  C   UNL     1      -2.743  -1.935  -0.516  1.00  0.00     0.222 C 
ATOM     11  O   UNL     1      -3.601  -2.762  -0.848  1.00  0.00    -0.275 OA
ATOM     12  N   UNL     1      -1.428  -2.327  -0.288  1.00  0.00    -0.343 N 
ATOM     13  C   UNL     1      -0.813  -3.509  -0.808  1.00  0.00     0.122 C 
ATOM     14  C   UNL     1      -0.475  -1.600   0.429  1.00  0.00     0.122 C 
ATOM     15  C   UNL     1       0.485  -3.205  -1.690  1.00  0.00     0.051 C 
ATOM     16  C   UNL     1       0.528  -1.092  -0.538  1.00  0.00     0.051 C 
ATOM     17  C   UNL     1       1.489  -2.159  -1.085  1.00  0.00     0.060 C 
ATOM     18  N   UNL     1       2.369  -2.859  -0.121  1.00  0.00    -0.339 N 
ATOM     19  C   UNL     1       3.958  -1.570  -1.285  1.00  0.00     0.118 C 
ATOM     20  C   UNL     1       3.731  -2.650  -0.313  1.00  0.00     0.223 C 
ATOM     21  C   UNL     1       2.020  -4.056   0.612  1.00  0.00     0.147 C 
ATOM     22  O   UNL     1       4.641  -3.271   0.215  1.00  0.00    -0.275 OA
BRANCH  10  23
ATOM     23  C   UNL     1      -3.102  -0.422  -0.623  1.00  0.00     0.105 C 
BRANCH  23  24
ATOM     24  C   UNL     1      -3.149   0.579   0.566  1.00  0.00     0.045 C 
BRANCH  24  25
ATOM     25  C   UNL     1      -1.833   1.228   0.992  1.00  0.00    -0.047 A 
ATOM     26  C   UNL     1       2.442   1.320   1.247  1.00  0.00     0.044 C 
ATOM     27  C   UNL     1       0.949   1.545   1.330  1.00  0.00    -0.051 A 
ATOM     28  C   UNL     1       0.184   0.912   2.319  1.00  0.00     0.004 A 
ATOM     29  C   UNL     1       0.281   2.199   0.282  1.00  0.00     0.004 A 
ATOM     30  C   UNL     1      -1.213   0.824   2.192  1.00  0.00     0.004 A 
ATOM     31  C   UNL     1      -1.100   2.023   0.101  1.00  0.00     0.004 A 
ENDBRANCH  24  25
ENDBRANCH  23  24
ENDBRANCH  10  23
ENDBRANCH   7   9
ENDBRANCH   6   7
ENDBRANCH   5   6
ENDBRANCH   4   5
ENDBRANCH   3   4
ENDBRANCH   2   3
ENDBRANCH   1   2
BRANCH   1  32
ATOM     32  O   UNL     1      -1.061  -4.376  -4.594  1.00  0.00    -0.377 OA
BRANCH  32  33
ATOM     33  C   UNL     1      -2.599  -5.786  -4.830  1.00  0.00     0.188 C 
BRANCH  33  34
ATOM     34  C   UNL     1      -4.383  -5.103  -5.116  1.00  0.00     0.188 C 
BRANCH  34  35
ATOM     35  O   UNL     1      -4.812  -3.707  -5.478  1.00  0.00    -0.376 OA
BRANCH  35  36
ATOM     36  C   UNL     1      -4.802  -2.424  -4.795  1.00  0.00     0.202 C 
BRANCH  36  37
ATOM     37  C   UNL     1      -6.099  -1.713  -5.151  1.00  0.00     0.261 C 
BRANCH  37  38
ATOM     38  O   UNL     1      -6.154  -1.341  -6.556  1.00  0.00    -0.460 OA
BRANCH  38  39
ATOM     39  C   UNL     1      -5.820  -2.297  -7.480  1.00  0.00     0.338 C 
ATOM     40  O   UNL     1      -6.515  -3.265  -7.742  1.00  0.00    -0.246 OA
BRANCH  39  41
ATOM     41  C   UNL     1      -4.415  -2.066  -8.016  1.00  0.00     0.060 A 
ATOM     42  C   UNL     1      -3.695  -3.092  -8.653  1.00  0.00     0.016 A 
ATOM     43  C   UNL     1      -3.694  -0.943  -7.611  1.00  0.00     0.016 A 
ATOM     44  C   UNL     1      -2.257  -3.073  -8.680  1.00  0.00     0.010 A 
ATOM     45  C   UNL     1      -2.282  -0.984  -7.551  1.00  0.00     0.010 A 
ATOM     46  C   UNL     1      -1.515  -2.094  -7.978  1.00  0.00    -0.014 A 
BRANCH  46  47
ATOM     47  C   UNL     1       0.019  -2.134  -7.757  1.00  0.00     0.031 A 
ATOM     48  C   UNL     1       0.773  -0.962  -8.483  1.00  0.00     0.074 A 
ATOM     49  C   UNL     1       0.817  -2.864  -6.849  1.00  0.00     0.049 A 
ATOM     50  N   UNL     1       2.061  -0.721  -8.556  1.00  0.00    -0.248 NA
ATOM     51  C   UNL     1       0.022   0.079  -9.188  1.00  0.00     0.031 C 
ATOM     52  C   UNL     1       0.934  -3.025  -5.297  1.00  0.00     0.029 A 
ATOM     53  N   UNL     1       1.120  -4.183  -7.078  1.00  0.00    -0.354 N 
ATOM     54  C   UNL     1       2.236   0.640  -8.818  1.00  0.00     0.074 A 
ATOM     55  C   UNL     1       0.962   1.002  -9.408  1.00  0.00     0.031 C 
ATOM     56  C   UNL     1       1.521  -4.117  -4.833  1.00  0.00     0.029 A 
ATOM     57  C   UNL     1       1.688  -4.886  -6.024  1.00  0.00     0.049 A 
ATOM     58  H   UNL     1       0.943  -4.610  -7.948  1.00  0.00     0.167 HD
ATOM     59  C   UNL     1       3.344   1.360  -8.387  1.00  0.00     0.037 A 
ATOM     60  C   UNL     1       1.710  -6.195  -5.784  1.00  0.00     0.037 A 
ATOM     61  C   UNL     1       4.347   0.559  -7.530  1.00  0.00     0.049 A 
ATOM     62  C   UNL     1       3.403  -5.534  -5.886  1.00  0.00     0.074 A 
ATOM     63  C   UNL     1       4.938   0.789  -6.283  1.00  0.00     0.029 A 
ATOM     64  N   UNL     1       4.718  -0.778  -7.816  1.00  0.00    -0.354 N 
ATOM     65  N   UNL     1       4.004  -4.327  -5.667  1.00  0.00    -0.248 NA
ATOM     66  C   UNL     1       4.372  -6.364  -6.609  1.00  0.00     0.031 C 
ATOM     67  C   UNL     1       5.701  -0.376  -5.870  1.00  0.00     0.029 A 
ATOM     68  C   UNL     1       5.477  -1.425  -6.789  1.00  0.00     0.049 A 
ATOM     69  H   UNL     1       4.473  -1.227  -8.657  1.00  0.00     0.167 HD
ATOM     70  C   UNL     1       5.162  -4.108  -6.474  1.00  0.00     0.074 A 
ATOM     71  C   UNL     1       5.362  -5.504  -6.931  1.00  0.00     0.031 C 
ATOM     72  C   UNL     1       5.870  -2.925  -6.912  1.00  0.00     0.037 A 
BRANCH  59  73
ATOM     73  C   UNL     1       3.502   2.940  -8.567  1.00  0.00     0.057 A 
ATOM     74  C   UNL     1       4.633   3.626  -8.058  1.00  0.00     0.134 A 
ATOM     75  C   UNL     1       2.636   3.840  -9.246  1.00  0.00     0.134 A 
ATOM     76  F   UNL     1       5.628   2.983  -7.439  1.00  0.00    -0.206 F 
ATOM     77  C   UNL     1       4.854   5.020  -8.179  1.00  0.00     0.040 A 
ATOM     78  C   UNL     1       2.856   5.231  -9.398  1.00  0.00     0.040 A 
ATOM     79  F   UNL     1       1.510   3.469  -9.847  1.00  0.00    -0.206 F 
ATOM     80  C   UNL     1       3.969   5.833  -8.859  1.00  0.00     0.006 A 
ENDBRANCH  59  73
BRANCH  60  81
ATOM     81  C   UNL     1      -0.041  -6.122  -5.323  1.00  0.00     0.057 A 
ATOM     82  C   UNL     1      -0.460  -6.150  -3.676  1.00  0.00     0.134 A 
ATOM     83  C   UNL     1      -1.187  -5.258  -6.371  1.00  0.00     0.134 A 
ATOM     84  F   UNL     1       0.194  -7.001  -2.866  1.00  0.00    -0.206 F 
ATOM     85  C   UNL     1      -1.747  -5.232  -2.933  1.00  0.00     0.040 A 
ATOM     86  C   UNL     1      -2.444  -4.100  -5.776  1.00  0.00     0.040 A 
ATOM     87  F   UNL     1      -1.015  -5.400  -7.695  1.00  0.00    -0.206 F 
ATOM     88  C   UNL     1      -2.757  -4.095  -3.880  1.00  0.00     0.006 A 
ENDBRANCH  60  81
BRANCH  72  89
ATOM     89  C   UNL     1       7.133  -3.061  -7.782  1.00  0.00     0.057 A 
ATOM     90  C   UNL     1       8.027  -4.130  -7.711  1.00  0.00     0.134 A 
ATOM     91  C   UNL     1       7.499  -2.069  -8.727  1.00  0.00     0.134 A 
ATOM     92  F   UNL     1       8.011  -4.985  -6.677  1.00  0.00    -0.206 F 
ATOM     93  C   UNL     1       8.984  -4.362  -8.707  1.00  0.00     0.040 A 
ATOM     94  C   UNL     1       8.481  -2.256  -9.692  1.00  0.00     0.040 A 
ATOM     95  F   UNL     1       6.948  -0.850  -8.770  1.00  0.00    -0.206 F 
ATOM     96  C   UNL     1       9.179  -3.443  -9.731  1.00  0.00     0.006 A 
ENDBRANCH  72  89
ENDBRANCH  46  47
ENDBRANCH  39  41
ENDBRANCH  38  39
ENDBRANCH  37  38
ENDBRANCH  36  37
ENDBRANCH  35  36
ENDBRANCH  34  35
ENDBRANCH  33  34
ENDBRANCH  32  33
ENDBRANCH   1  32
TORSDOF 23
