REMARK SMILES COc1ccc(-c2c(C(=O)OCCOCCOCCOCCOC(=O)c3ccc(-c4c5nc(c(-c6c(F)cccc6F)c6ccc([nH]6)c(-c6c(F)cccc6F)c6nc(c(-c7c(F)cccc7F)c7ccc4[nH]7)C=C6)C=C5)cc3)sc3c2N=C(O)C[C@H]3c2ccc(OC)c(OC)c2)cc1
REMARK SMILES IDX 17 1 16 2 15 3 14 4 13 5 12 6 11 7 9 8 10 9 8 10 7 11 82 12
REMARK SMILES IDX 80 13 81 14 83 15 87 16 84 17 86 18 6 19 3 20 4 21 99 22
REMARK SMILES IDX 5 23 98 24 2 25 1 26 88 27 89 28 97 29 90 30 94 31 91 32
REMARK SMILES IDX 95 33 96 34 92 35 93 36 85 37 18 39 19 40 20 41 21 42 22 43
REMARK SMILES IDX 23 44 24 45 25 46 26 47 27 48 79 49 28 50 78 51 29 52 30 53
REMARK SMILES IDX 31 54 72 55 32 56 77 57 71 58 73 59 33 60 76 61 70 62 69 63
REMARK SMILES IDX 34 65 60 66 43 67 59 68 44 69 47 70 58 71 74 72 45 73 46 74
REMARK SMILES IDX 57 76 75 77 48 78 35 79 36 80 41 81 37 82 38 83 40 84 42 85
REMARK SMILES IDX 39 86 61 87 62 88 67 89 63 90 64 91 66 92 68 93 65 94 49 95
REMARK SMILES IDX 50 96 55 97 51 98 52 99 54 100 56 101 53 102
REMARK H PARENT 85 38 73 64 47 75
REMARK Flexibility Score: inf
ROOT
ATOM      1  O   UNL     1       1.758  -2.850   5.096  1.00  0.00    -0.377 OA
ENDROOT
BRANCH   1   2
ATOM      2  C   UNL     1       1.693  -2.404   6.445  1.00  0.00     0.188 C 
BRANCH   2   3
ATOM      3  C   UNL     1       0.489  -2.630   7.395  1.00  0.00     0.188 C 
BRANCH   3   4
ATOM      4  O   UNL     1      -0.645  -3.219   6.805  1.00  0.00    -0.376 OA
BRANCH   4   5
ATOM      5  C   UNL     1      -1.811  -2.502   6.488  1.00  0.00     0.202 C 
BRANCH   5   6
ATOM      6  C   UNL     1      -1.754  -1.106   5.866  1.00  0.00     0.261 C 
BRANCH   6   7
ATOM      7  O   UNL     1      -0.533  -0.395   6.047  1.00  0.00    -0.459 OA
BRANCH   7   8
ATOM      8  C   UNL     1      -0.455   0.430   7.126  1.00  0.00     0.349 C 
ATOM      9  O   UNL     1      -1.333   0.542   7.966  1.00  0.00    -0.245 OA
BRANCH   8  10
ATOM     10  C   UNL     1       0.861   1.047   7.169  1.00  0.00     0.123 A 
ATOM     11  C   UNL     1       1.704   1.511   6.161  1.00  0.00     0.033 A 
ATOM     12  C   UNL     1       2.883   2.091   6.729  1.00  0.00     0.090 A 
ATOM     13  S   UNL     1       1.602   1.162   8.720  1.00  0.00    -0.130 S 
ATOM     14  C   UNL     1       2.968   1.953   8.087  1.00  0.00     0.040 A 
ATOM     15  N   UNL     1       3.822   2.792   5.966  1.00  0.00    -0.216 NA
ATOM     16  C   UNL     1       4.090   2.453   8.936  1.00  0.00     0.071 C 
ATOM     17  C   UNL     1       4.786   3.334   6.628  1.00  0.00     0.186 C 
ATOM     18  C   UNL     1       5.120   3.219   8.094  1.00  0.00     0.111 C 
BRANCH  11  19
ATOM     19  C   UNL     1       1.389   1.416   4.733  1.00  0.00    -0.014 A 
ATOM     20  C   UNL     1       0.793   1.106   1.998  1.00  0.00     0.118 A 
ATOM     21  C   UNL     1      -0.141   1.669   2.869  1.00  0.00     0.047 A 
ATOM     22  C   UNL     1       2.041   0.726   2.487  1.00  0.00     0.047 A 
ATOM     23  C   UNL     1       0.155   1.834   4.225  1.00  0.00     0.012 A 
ATOM     24  C   UNL     1       2.333   0.875   3.849  1.00  0.00     0.012 A 
BRANCH  20  25
ATOM     25  O   UNL     1       0.390   1.018   0.694  1.00  0.00    -0.497 OA
ATOM     26  C   UNL     1       1.038   0.023  -0.091  1.00  0.00     0.278 C 
ENDBRANCH  20  25
ENDBRANCH  11  19
BRANCH  16  27
ATOM     27  C   UNL     1       3.622   3.322  10.095  1.00  0.00    -0.035 A 
ATOM     28  C   UNL     1       2.772   4.410   9.874  1.00  0.00     0.008 A 
ATOM     29  C   UNL     1       4.057   3.053  11.405  1.00  0.00     0.054 A 
ATOM     30  C   UNL     1       2.365   5.203  10.940  1.00  0.00     0.051 A 
ATOM     31  C   UNL     1       3.662   3.857  12.488  1.00  0.00     0.161 A 
ATOM     32  C   UNL     1       2.800   4.942  12.247  1.00  0.00     0.160 A 
BRANCH  31  33
ATOM     33  O   UNL     1       4.095   3.643  13.770  1.00  0.00    -0.493 OA
ATOM     34  C   UNL     1       4.968   2.550  14.021  1.00  0.00     0.278 C 
ENDBRANCH  31  33
BRANCH  32  35
ATOM     35  O   UNL     1       2.299   5.857  13.136  1.00  0.00    -0.493 OA
ATOM     36  C   UNL     1       2.472   5.627  14.524  1.00  0.00     0.278 C 
ENDBRANCH  32  35
ENDBRANCH  16  27
BRANCH  17  37
ATOM     37  O   UNL     1       5.656   4.111   5.946  1.00  0.00    -0.496 OA
ATOM     38  H   UNL     1       5.539   4.248   5.026  1.00  0.00     0.294 HD
ENDBRANCH  17  37
ENDBRANCH   8  10
ENDBRANCH   7   8
ENDBRANCH   6   7
ENDBRANCH   5   6
ENDBRANCH   4   5
ENDBRANCH   3   4
ENDBRANCH   2   3
ENDBRANCH   1   2
BRANCH   1  39
ATOM     39  C   UNL     1       0.773  -3.714   4.561  1.00  0.00     0.188 C 
BRANCH  39  40
ATOM     40  C   UNL     1       0.558  -5.098   5.215  1.00  0.00     0.188 C 
BRANCH  40  41
ATOM     41  O   UNL     1       0.972  -5.240   6.560  1.00  0.00    -0.376 OA
BRANCH  41  42
ATOM     42  C   UNL     1       2.256  -5.654   6.977  1.00  0.00     0.202 C 
BRANCH  42  43
ATOM     43  C   UNL     1       3.536  -5.439   6.183  1.00  0.00     0.261 C 
BRANCH  43  44
ATOM     44  O   UNL     1       3.368  -5.173   4.814  1.00  0.00    -0.460 OA
BRANCH  44  45
ATOM     45  C   UNL     1       3.116  -6.267   4.075  1.00  0.00     0.338 C 
ATOM     46  O   UNL     1       2.764  -7.363   4.465  1.00  0.00    -0.246 OA
BRANCH  45  47
ATOM     47  C   UNL     1       3.518  -5.964   2.704  1.00  0.00     0.060 A 
ATOM     48  C   UNL     1       3.219  -6.943   1.761  1.00  0.00     0.016 A 
ATOM     49  C   UNL     1       4.506  -4.986   2.506  1.00  0.00     0.016 A 
ATOM     50  C   UNL     1       4.107  -7.112   0.731  1.00  0.00     0.010 A 
ATOM     51  C   UNL     1       5.405  -5.172   1.491  1.00  0.00     0.010 A 
ATOM     52  C   UNL     1       5.241  -6.289   0.680  1.00  0.00    -0.014 A 
BRANCH  52  53
ATOM     53  C   UNL     1       6.189  -6.531  -0.377  1.00  0.00     0.031 A 
ATOM     54  C   UNL     1       5.628  -6.121  -1.677  1.00  0.00     0.074 A 
ATOM     55  C   UNL     1       7.431  -6.998  -0.157  1.00  0.00     0.049 A 
ATOM     56  N   UNL     1       5.215  -6.899  -2.618  1.00  0.00    -0.248 NA
ATOM     57  C   UNL     1       5.252  -4.707  -1.850  1.00  0.00     0.031 C 
ATOM     58  C   UNL     1       8.114  -7.185   1.126  1.00  0.00     0.029 A 
ATOM     59  N   UNL     1       8.389  -7.330  -1.063  1.00  0.00    -0.354 N 
ATOM     60  C   UNL     1       4.780  -6.043  -3.619  1.00  0.00     0.074 A 
ATOM     61  C   UNL     1       4.598  -4.753  -3.011  1.00  0.00     0.031 C 
ATOM     62  C   UNL     1       9.436  -7.373   0.904  1.00  0.00     0.029 A 
ATOM     63  C   UNL     1       9.667  -7.452  -0.529  1.00  0.00     0.049 A 
ATOM     64  H   UNL     1       8.194  -7.471  -2.017  1.00  0.00     0.167 HD
ATOM     65  C   UNL     1       4.976  -6.384  -4.918  1.00  0.00     0.037 A 
ATOM     66  C   UNL     1      10.821  -7.544  -1.238  1.00  0.00     0.037 A 
ATOM     67  C   UNL     1       5.159  -7.810  -5.057  1.00  0.00     0.049 A 
ATOM     68  C   UNL     1      10.457  -7.971  -2.612  1.00  0.00     0.074 A 
ATOM     69  C   UNL     1       4.415  -8.928  -4.736  1.00  0.00     0.029 A 
ATOM     70  N   UNL     1       6.446  -8.249  -5.241  1.00  0.00    -0.354 N 
ATOM     71  N   UNL     1      10.000  -9.155  -2.906  1.00  0.00    -0.248 NA
ATOM     72  C   UNL     1      10.187  -6.937  -3.598  1.00  0.00     0.031 C 
ATOM     73  C   UNL     1       5.367  -9.911  -4.330  1.00  0.00     0.029 A 
ATOM     74  C   UNL     1       6.644  -9.371  -4.485  1.00  0.00     0.049 A 
ATOM     75  H   UNL     1       7.117  -7.825  -5.824  1.00  0.00     0.167 HD
ATOM     76  C   UNL     1       9.015  -8.924  -3.854  1.00  0.00     0.074 A 
ATOM     77  C   UNL     1       9.256  -7.561  -4.323  1.00  0.00     0.031 C 
ATOM     78  C   UNL     1       7.929  -9.748  -3.939  1.00  0.00     0.037 A 
BRANCH  65  79
ATOM     79  C   UNL     1       5.503  -5.397  -5.934  1.00  0.00     0.057 A 
ATOM     80  C   UNL     1       5.571  -5.790  -7.279  1.00  0.00     0.134 A 
ATOM     81  C   UNL     1       6.224  -4.224  -5.615  1.00  0.00     0.134 A 
ATOM     82  F   UNL     1       4.957  -6.907  -7.699  1.00  0.00    -0.206 F 
ATOM     83  C   UNL     1       6.353  -5.107  -8.218  1.00  0.00     0.040 A 
ATOM     84  C   UNL     1       6.960  -3.504  -6.556  1.00  0.00     0.040 A 
ATOM     85  F   UNL     1       6.354  -3.764  -4.366  1.00  0.00    -0.206 F 
ATOM     86  C   UNL     1       7.054  -3.963  -7.857  1.00  0.00     0.006 A 
ENDBRANCH  65  79
BRANCH  66  87
ATOM     87  C   UNL     1      12.162  -6.992  -0.930  1.00  0.00     0.057 A 
ATOM     88  C   UNL     1      13.288  -7.377  -1.677  1.00  0.00     0.134 A 
ATOM     89  C   UNL     1      12.326  -5.862  -0.111  1.00  0.00     0.134 A 
ATOM     90  F   UNL     1      13.223  -8.418  -2.520  1.00  0.00    -0.206 F 
ATOM     91  C   UNL     1      14.492  -6.660  -1.639  1.00  0.00     0.040 A 
ATOM     92  C   UNL     1      13.525  -5.141  -0.060  1.00  0.00     0.040 A 
ATOM     93  F   UNL     1      11.303  -5.362   0.594  1.00  0.00    -0.206 F 
ATOM     94  C   UNL     1      14.608  -5.529  -0.839  1.00  0.00     0.006 A 
ENDBRANCH  66  87
BRANCH  78  95
ATOM     95  C   UNL     1       8.008 -11.076  -3.235  1.00  0.00     0.057 A 
ATOM     96  C   UNL     1       8.120 -11.240  -1.845  1.00  0.00     0.134 A 
ATOM     97  C   UNL     1       7.844 -12.238  -3.997  1.00  0.00     0.134 A 
ATOM     98  F   UNL     1       8.191 -10.184  -1.023  1.00  0.00    -0.206 F 
ATOM     99  C   UNL     1       8.113 -12.507  -1.251  1.00  0.00     0.040 A 
ATOM    100  C   UNL     1       7.799 -13.505  -3.413  1.00  0.00     0.040 A 
ATOM    101  F   UNL     1       7.682 -12.155  -5.327  1.00  0.00    -0.206 F 
ATOM    102  C   UNL     1       7.945 -13.644  -2.036  1.00  0.00     0.006 A 
ENDBRANCH  78  95
ENDBRANCH  52  53
ENDBRANCH  45  47
ENDBRANCH  44  45
ENDBRANCH  43  44
ENDBRANCH  42  43
ENDBRANCH  41  42
ENDBRANCH  40  41
ENDBRANCH  39  40
ENDBRANCH   1  39
TORSDOF 26
