REMARK SMILES COCC[C@]1(C(=O)OCCOCCOCCOCCOC(=O)c2ccc(-c3c4nc(c(-c5c(F)cccc5F)c5ccc([nH]5)c(-c5c(F)cccc5F)c5nc(c(-c6c(F)cccc6F)c6ccc3[nH]6)C=C5)C=C4)cc2)CCCN(C(=O)Cc2c(C)nc(C)[nH]c2=O)C1
REMARK SMILES IDX 13 1 12 2 11 3 10 4 9 5 8 6 6 7 7 8 5 9 77 10 93 11 78 12
REMARK SMILES IDX 80 13 79 14 4 15 3 16 2 17 1 18 81 19 82 20 83 21 84 22
REMARK SMILES IDX 85 23 91 24 86 25 87 26 90 27 92 28 88 29 89 31 14 32 15 33
REMARK SMILES IDX 16 34 17 35 18 36 19 37 20 38 21 39 22 40 23 41 24 42 76 43
REMARK SMILES IDX 25 44 75 45 26 46 27 47 28 48 69 49 29 50 74 51 68 52 70 53
REMARK SMILES IDX 30 54 73 55 67 56 66 57 31 59 57 60 40 61 56 62 41 63 44 64
REMARK SMILES IDX 55 65 71 66 42 67 43 68 54 70 72 71 45 72 32 73 33 74 38 75
REMARK SMILES IDX 34 76 35 77 37 78 39 79 36 80 58 81 59 82 64 83 60 84 61 85
REMARK SMILES IDX 63 86 65 87 62 88 46 89 47 90 52 91 48 92 49 93 51 94 53 95
REMARK SMILES IDX 50 96
REMARK H PARENT 90 30 70 58 44 69
REMARK Flexibility Score: inf
ROOT
ATOM      1  C   UNL     1       3.998   1.626   0.749  1.00  0.00     0.188 C 
ENDROOT
BRANCH   1   2
ATOM      2  C   UNL     1       4.071   3.158   0.613  1.00  0.00     0.188 C 
BRANCH   2   3
ATOM      3  O   UNL     1       4.739   3.953   1.580  1.00  0.00    -0.376 OA
BRANCH   3   4
ATOM      4  C   UNL     1       4.837   3.535   2.931  1.00  0.00     0.202 C 
BRANCH   4   5
ATOM      5  C   UNL     1       3.572   3.216   3.748  1.00  0.00     0.261 C 
BRANCH   5   6
ATOM      6  O   UNL     1       2.610   2.316   3.161  1.00  0.00    -0.463 OA
BRANCH   6   7
ATOM      7  C   UNL     1       1.566   2.912   2.532  1.00  0.00     0.314 C 
ATOM      8  O   UNL     1       1.452   4.129   2.429  1.00  0.00    -0.252 OA
BRANCH   7   9
ATOM      9  C   UNL     1       0.490   1.935   2.019  1.00  0.00     0.088 C 
ATOM     10  C   UNL     1       0.840   0.421   2.010  1.00  0.00     0.022 C 
ATOM     11  C   UNL     1      -0.604   2.119   3.104  1.00  0.00     0.138 C 
ATOM     12  C   UNL     1      -0.391  -0.475   1.803  1.00  0.00     0.023 C 
ATOM     13  N   UNL     1      -1.757   1.267   2.832  1.00  0.00    -0.341 N 
ATOM     14  C   UNL     1      -1.471  -0.164   2.827  1.00  0.00     0.119 C 
BRANCH   9  15
ATOM     15  C   UNL     1      -0.042   2.464   0.635  1.00  0.00     0.049 C 
BRANCH  15  16
ATOM     16  C   UNL     1       0.674   2.076  -0.666  1.00  0.00     0.161 C 
BRANCH  16  17
ATOM     17  O   UNL     1       0.123   0.875  -1.201  1.00  0.00    -0.385 OA
ATOM     18  C   UNL     1       1.075  -0.102  -1.586  1.00  0.00     0.194 C 
ENDBRANCH  16  17
ENDBRANCH  15  16
ENDBRANCH   9  15
BRANCH  13  19
ATOM     19  C   UNL     1      -2.952   1.880   2.502  1.00  0.00     0.227 C 
ATOM     20  O   UNL     1      -3.117   3.092   2.673  1.00  0.00    -0.275 OA
BRANCH  19  21
ATOM     21  C   UNL     1      -4.077   1.061   1.887  1.00  0.00     0.143 C 
BRANCH  21  22
ATOM     22  C   UNL     1      -3.842   0.684   0.446  1.00  0.00     0.048 A 
ATOM     23  C   UNL     1      -3.670   1.504  -0.616  1.00  0.00     0.049 A 
ATOM     24  C   UNL     1      -3.862  -0.773   0.150  1.00  0.00     0.254 A 
ATOM     25  C   UNL     1      -3.643   3.010  -0.537  1.00  0.00     0.067 C 
ATOM     26  N   UNL     1      -3.514   1.062  -1.913  1.00  0.00    -0.240 NA
ATOM     27  N   UNL     1      -3.700  -1.129  -1.151  1.00  0.00    -0.311 N 
ATOM     28  O   UNL     1      -4.021  -1.626   1.018  1.00  0.00    -0.269 OA
ATOM     29  C   UNL     1      -3.534  -0.208  -2.134  1.00  0.00     0.105 A 
ATOM     30  H   UNL     1      -3.704  -2.085  -1.388  1.00  0.00     0.171 HD
ATOM     31  C   UNL     1      -3.388  -0.737  -3.530  1.00  0.00     0.087 C 
ENDBRANCH  21  22
ENDBRANCH  19  21
ENDBRANCH  13  19
ENDBRANCH   7   9
ENDBRANCH   6   7
ENDBRANCH   5   6
ENDBRANCH   4   5
ENDBRANCH   3   4
ENDBRANCH   2   3
ENDBRANCH   1   2
BRANCH   1  32
ATOM     32  O   UNL     1       4.693   1.060   1.839  1.00  0.00    -0.377 OA
BRANCH  32  33
ATOM     33  C   UNL     1       5.989   0.559   1.559  1.00  0.00     0.188 C 
BRANCH  33  34
ATOM     34  C   UNL     1       6.854   1.386   0.594  1.00  0.00     0.188 C 
BRANCH  34  35
ATOM     35  O   UNL     1       6.231   1.623  -0.665  1.00  0.00    -0.376 OA
BRANCH  35  36
ATOM     36  C   UNL     1       6.556   0.779  -1.760  1.00  0.00     0.202 C 
BRANCH  36  37
ATOM     37  C   UNL     1       6.035  -0.668  -1.705  1.00  0.00     0.261 C 
BRANCH  37  38
ATOM     38  O   UNL     1       6.498  -1.470  -0.606  1.00  0.00    -0.460 OA
BRANCH  38  39
ATOM     39  C   UNL     1       7.835  -1.601  -0.452  1.00  0.00     0.338 C 
ATOM     40  O   UNL     1       8.700  -1.198  -1.201  1.00  0.00    -0.246 OA
BRANCH  39  41
ATOM     41  C   UNL     1       8.094  -2.130   0.906  1.00  0.00     0.060 A 
ATOM     42  C   UNL     1       8.924  -1.388   1.755  1.00  0.00     0.016 A 
ATOM     43  C   UNL     1       7.543  -3.340   1.337  1.00  0.00     0.016 A 
ATOM     44  C   UNL     1       9.250  -1.879   3.017  1.00  0.00     0.010 A 
ATOM     45  C   UNL     1       7.891  -3.844   2.596  1.00  0.00     0.010 A 
ATOM     46  C   UNL     1       8.782  -3.135   3.422  1.00  0.00    -0.014 A 
BRANCH  46  47
ATOM     47  C   UNL     1       9.409  -3.772   4.606  1.00  0.00     0.031 A 
ATOM     48  C   UNL     1      10.535  -4.748   4.380  1.00  0.00     0.074 A 
ATOM     49  C   UNL     1       9.063  -3.416   5.855  1.00  0.00     0.049 A 
ATOM     50  N   UNL     1      11.281  -5.374   5.253  1.00  0.00    -0.248 NA
ATOM     51  C   UNL     1      10.869  -5.049   2.977  1.00  0.00     0.031 C 
ATOM     52  C   UNL     1       8.026  -2.447   6.204  1.00  0.00     0.029 A 
ATOM     53  N   UNL     1       9.565  -3.823   7.067  1.00  0.00    -0.354 N 
ATOM     54  C   UNL     1      12.179  -6.130   4.507  1.00  0.00     0.074 A 
ATOM     55  C   UNL     1      11.855  -5.923   3.114  1.00  0.00     0.031 C 
ATOM     56  C   UNL     1       7.972  -2.329   7.542  1.00  0.00     0.029 A 
ATOM     57  C   UNL     1       8.953  -3.231   8.144  1.00  0.00     0.049 A 
ATOM     58  H   UNL     1      10.295  -4.477   7.155  1.00  0.00     0.167 HD
ATOM     59  C   UNL     1      13.195  -6.911   4.943  1.00  0.00     0.037 A 
ATOM     60  C   UNL     1       9.159  -3.407   9.464  1.00  0.00     0.037 A 
ATOM     61  C   UNL     1      13.514  -7.126   6.330  1.00  0.00     0.049 A 
ATOM     62  C   UNL     1      10.237  -4.357   9.921  1.00  0.00     0.074 A 
ATOM     63  C   UNL     1      14.515  -7.910   6.873  1.00  0.00     0.029 A 
ATOM     64  N   UNL     1      12.831  -6.556   7.393  1.00  0.00    -0.354 N 
ATOM     65  N   UNL     1      11.092  -5.051   9.208  1.00  0.00    -0.248 NA
ATOM     66  C   UNL     1      10.385  -4.538  11.373  1.00  0.00     0.031 C 
ATOM     67  C   UNL     1      14.407  -7.854   8.267  1.00  0.00     0.029 A 
ATOM     68  C   UNL     1      13.376  -6.987   8.591  1.00  0.00     0.049 A 
ATOM     69  H   UNL     1      12.070  -5.936   7.309  1.00  0.00     0.167 HD
ATOM     70  C   UNL     1      11.898  -5.720  10.123  1.00  0.00     0.074 A 
ATOM     71  C   UNL     1      11.445  -5.329  11.441  1.00  0.00     0.031 C 
ATOM     72  C   UNL     1      12.921  -6.582   9.895  1.00  0.00     0.037 A 
BRANCH  59  73
ATOM     73  C   UNL     1      14.030  -7.604   3.906  1.00  0.00     0.057 A 
ATOM     74  C   UNL     1      14.927  -6.902   3.088  1.00  0.00     0.134 A 
ATOM     75  C   UNL     1      13.970  -8.995   3.751  1.00  0.00     0.134 A 
ATOM     76  F   UNL     1      15.020  -5.566   3.172  1.00  0.00    -0.206 F 
ATOM     77  C   UNL     1      15.721  -7.557   2.145  1.00  0.00     0.040 A 
ATOM     78  C   UNL     1      14.779  -9.664   2.831  1.00  0.00     0.040 A 
ATOM     79  F   UNL     1      13.134  -9.728   4.502  1.00  0.00    -0.206 F 
ATOM     80  C   UNL     1      15.655  -8.943   2.022  1.00  0.00     0.006 A 
ENDBRANCH  59  73
BRANCH  60  81
ATOM     81  C   UNL     1       8.327  -2.685  10.464  1.00  0.00     0.057 A 
ATOM     82  C   UNL     1       8.888  -1.747  11.340  1.00  0.00     0.134 A 
ATOM     83  C   UNL     1       6.964  -2.967  10.614  1.00  0.00     0.134 A 
ATOM     84  F   UNL     1      10.194  -1.450  11.265  1.00  0.00    -0.206 F 
ATOM     85  C   UNL     1       8.134  -1.144  12.349  1.00  0.00     0.040 A 
ATOM     86  C   UNL     1       6.191  -2.349  11.598  1.00  0.00     0.040 A 
ATOM     87  F   UNL     1       6.363  -3.856   9.809  1.00  0.00    -0.206 F 
ATOM     88  C   UNL     1       6.780  -1.444  12.479  1.00  0.00     0.006 A 
ENDBRANCH  60  81
BRANCH  72  89
ATOM     89  C   UNL     1      13.645  -7.119  11.098  1.00  0.00     0.057 A 
ATOM     90  C   UNL     1      13.044  -8.018  11.989  1.00  0.00     0.134 A 
ATOM     91  C   UNL     1      14.968  -6.739  11.360  1.00  0.00     0.134 A 
ATOM     92  F   UNL     1      11.777  -8.416  11.803  1.00  0.00    -0.206 F 
ATOM     93  C   UNL     1      13.717  -8.483  13.121  1.00  0.00     0.040 A 
ATOM     94  C   UNL     1      15.662  -7.224  12.470  1.00  0.00     0.040 A 
ATOM     95  F   UNL     1      15.611  -5.894  10.540  1.00  0.00    -0.206 F 
ATOM     96  C   UNL     1      15.032  -8.089  13.361  1.00  0.00     0.006 A 
ENDBRANCH  72  89
ENDBRANCH  46  47
ENDBRANCH  39  41
ENDBRANCH  38  39
ENDBRANCH  37  38
ENDBRANCH  36  37
ENDBRANCH  35  36
ENDBRANCH  34  35
ENDBRANCH  33  34
ENDBRANCH  32  33
ENDBRANCH   1  32
TORSDOF 26
