REMARK SMILES O=C(COc1ccccc1[C@@H]1[NH2+]CCc2cc(O)c(O)cc21)OCCOCCOCCOCCOC(=O)c1ccc(-c2c3nc(c(-c4c(F)cccc4F)c4ccc([nH]4)c(-c4c(F)cccc4F)c4nc(c(-c5c(F)cccc5F)c5ccc2[nH]5)C=C4)C=C3)cc1
REMARK SMILES IDX 28 1 27 2 26 3 25 4 24 5 23 6 2 7 1 8 3 9 4 10 5 11 6 12
REMARK SMILES IDX 10 13 7 14 9 15 8 16 11 17 12 18 22 19 13 20 15 23 21 24
REMARK SMILES IDX 14 25 16 26 19 27 17 28 20 29 18 31 29 33 30 34 31 35 32 36
REMARK SMILES IDX 33 37 34 38 35 39 36 40 37 41 38 42 39 43 91 44 40 45 90 46
REMARK SMILES IDX 41 47 42 48 43 49 84 50 44 51 89 52 83 53 85 54 45 55 88 56
REMARK SMILES IDX 82 57 81 58 46 60 72 61 55 62 71 63 56 64 59 65 70 66 86 67
REMARK SMILES IDX 57 68 58 69 69 71 87 72 60 73 47 74 48 75 53 76 49 77 50 78
REMARK SMILES IDX 52 79 54 80 51 81 73 82 74 83 79 84 75 85 76 86 78 87 80 88
REMARK SMILES IDX 77 89 61 90 62 91 67 92 63 93 64 94 66 95 68 96 65 97
REMARK H PARENT 12 21 12 22 20 30 18 32 85 59 59 70
REMARK Flexibility Score: inf
ROOT
ATOM      1  C   UNL     1       2.702   1.793   1.431  1.00  0.00     0.188 C 
ENDROOT
BRANCH   1   2
ATOM      2  C   UNL     1       3.667   0.664   1.889  1.00  0.00     0.188 C 
BRANCH   2   3
ATOM      3  O   UNL     1       4.915   0.195   1.365  1.00  0.00    -0.376 OA
BRANCH   3   4
ATOM      4  C   UNL     1       5.919   0.762   0.543  1.00  0.00     0.202 C 
BRANCH   4   5
ATOM      5  C   UNL     1       5.944   0.284  -0.917  1.00  0.00     0.261 C 
BRANCH   5   6
ATOM      6  O   UNL     1       4.695   0.494  -1.559  1.00  0.00    -0.461 OA
BRANCH   6   7
ATOM      7  C   UNL     1       3.613  -0.193  -1.127  1.00  0.00     0.344 C 
ATOM      8  O   UNL     1       2.516   0.318  -1.329  1.00  0.00    -0.248 OA
BRANCH   7   9
ATOM      9  C   UNL     1       3.846  -1.571  -0.468  1.00  0.00     0.351 C 
BRANCH   9  10
ATOM     10  O   UNL     1       3.885  -2.622  -1.383  1.00  0.00    -0.481 OA
BRANCH  10  11
ATOM     11  C   UNL     1       2.830  -3.477  -1.528  1.00  0.00     0.129 A 
ATOM     12  C   UNL     1       3.344  -4.732  -1.896  1.00  0.00     0.047 A 
ATOM     13  C   UNL     1       1.444  -3.196  -1.622  1.00  0.00     0.056 A 
ATOM     14  C   UNL     1       2.558  -5.651  -2.563  1.00  0.00     0.004 A 
ATOM     15  C   UNL     1       0.697  -4.114  -2.385  1.00  0.00     0.014 A 
ATOM     16  C   UNL     1       1.252  -5.306  -2.873  1.00  0.00     0.001 A 
BRANCH  13  17
ATOM     17  C   UNL     1       0.756  -1.931  -1.111  1.00  0.00     0.249 C 
ATOM     18  N   UNL     1       1.095  -1.580   0.290  1.00  0.00    -0.336 N 
ATOM     19  C   UNL     1      -0.762  -1.719  -1.188  1.00  0.00     0.021 A 
ATOM     20  C   UNL     1       0.430  -2.408   1.309  1.00  0.00     0.266 C 
ATOM     21  H   UNL     1       0.829  -0.608   0.447  1.00  0.00     0.347 HD
ATOM     22  H   UNL     1       2.096  -1.745   0.394  1.00  0.00     0.347 HD
ATOM     23  C   UNL     1      -1.552  -2.260  -0.141  1.00  0.00    -0.029 A 
ATOM     24  C   UNL     1      -1.291  -0.708  -2.006  1.00  0.00     0.060 A 
ATOM     25  C   UNL     1      -0.838  -3.142   0.850  1.00  0.00     0.097 C 
ATOM     26  C   UNL     1      -2.850  -1.798   0.082  1.00  0.00     0.054 A 
ATOM     27  C   UNL     1      -2.562  -0.217  -1.733  1.00  0.00     0.157 A 
ATOM     28  C   UNL     1      -3.329  -0.759  -0.701  1.00  0.00     0.157 A 
BRANCH  27  29
ATOM     29  O   UNL     1      -3.067   0.870  -2.394  1.00  0.00    -0.504 OA
ATOM     30  H   UNL     1      -3.927   1.182  -2.193  1.00  0.00     0.293 HD
ENDBRANCH  27  29
BRANCH  28  31
ATOM     31  O   UNL     1      -4.535  -0.198  -0.389  1.00  0.00    -0.504 OA
ATOM     32  H   UNL     1      -5.054  -0.558   0.304  1.00  0.00     0.293 HD
ENDBRANCH  28  31
ENDBRANCH  13  17
ENDBRANCH  10  11
ENDBRANCH   9  10
ENDBRANCH   7   9
ENDBRANCH   6   7
ENDBRANCH   5   6
ENDBRANCH   4   5
ENDBRANCH   3   4
ENDBRANCH   2   3
ENDBRANCH   1   2
BRANCH   1  33
ATOM     33  O   UNL     1       3.002   3.161   1.651  1.00  0.00    -0.377 OA
BRANCH  33  34
ATOM     34  C   UNL     1       4.323   3.512   1.311  1.00  0.00     0.188 C 
BRANCH  34  35
ATOM     35  C   UNL     1       5.263   3.351   2.523  1.00  0.00     0.188 C 
BRANCH  35  36
ATOM     36  O   UNL     1       4.701   2.629   3.598  1.00  0.00    -0.376 OA
BRANCH  36  37
ATOM     37  C   UNL     1       3.847   3.261   4.539  1.00  0.00     0.202 C 
BRANCH  37  38
ATOM     38  C   UNL     1       3.070   4.580   4.333  1.00  0.00     0.261 C 
BRANCH  38  39
ATOM     39  O   UNL     1       3.448   5.457   3.272  1.00  0.00    -0.460 OA
BRANCH  39  40
ATOM     40  C   UNL     1       4.525   6.251   3.441  1.00  0.00     0.338 C 
ATOM     41  O   UNL     1       5.251   6.324   4.417  1.00  0.00    -0.246 OA
BRANCH  40  42
ATOM     42  C   UNL     1       4.812   6.826   2.108  1.00  0.00     0.060 A 
ATOM     43  C   UNL     1       6.029   6.524   1.472  1.00  0.00     0.016 A 
ATOM     44  C   UNL     1       3.827   7.560   1.444  1.00  0.00     0.016 A 
ATOM     45  C   UNL     1       6.267   6.961   0.170  1.00  0.00     0.010 A 
ATOM     46  C   UNL     1       4.088   8.049   0.167  1.00  0.00     0.010 A 
ATOM     47  C   UNL     1       5.320   7.779  -0.456  1.00  0.00    -0.014 A 
BRANCH  47  48
ATOM     48  C   UNL     1       5.726   8.637  -1.589  1.00  0.00     0.031 A 
ATOM     49  C   UNL     1       6.277   9.989  -1.240  1.00  0.00     0.074 A 
ATOM     50  C   UNL     1       5.541   8.274  -2.867  1.00  0.00     0.049 A 
ATOM     51  N   UNL     1       6.516  11.017  -2.007  1.00  0.00    -0.248 NA
ATOM     52  C   UNL     1       6.576  10.213   0.186  1.00  0.00     0.031 C 
ATOM     53  C   UNL     1       5.056   6.974  -3.320  1.00  0.00     0.029 A 
ATOM     54  N   UNL     1       5.707   9.000  -4.018  1.00  0.00    -0.354 N 
ATOM     55  C   UNL     1       6.965  12.016  -1.154  1.00  0.00     0.074 A 
ATOM     56  C   UNL     1       6.951  11.480   0.186  1.00  0.00     0.031 C 
ATOM     57  C   UNL     1       4.919   7.008  -4.658  1.00  0.00     0.029 A 
ATOM     58  C   UNL     1       5.262   8.347  -5.140  1.00  0.00     0.049 A 
ATOM     59  H   UNL     1       6.104   9.901  -4.038  1.00  0.00     0.167 HD
ATOM     60  C   UNL     1       7.342  13.277  -1.462  1.00  0.00     0.037 A 
ATOM     61  C   UNL     1       5.104   8.802  -6.398  1.00  0.00     0.037 A 
ATOM     62  C   UNL     1       7.324  13.807  -2.796  1.00  0.00     0.049 A 
ATOM     63  C   UNL     1       5.465  10.230  -6.718  1.00  0.00     0.074 A 
ATOM     64  C   UNL     1       7.704  15.062  -3.230  1.00  0.00     0.029 A 
ATOM     65  N   UNL     1       6.879  13.109  -3.910  1.00  0.00    -0.354 N 
ATOM     66  N   UNL     1       5.914  11.169  -5.917  1.00  0.00    -0.248 NA
ATOM     67  C   UNL     1       5.296  10.664  -8.112  1.00  0.00     0.031 C 
ATOM     68  C   UNL     1       7.431  15.145  -4.599  1.00  0.00     0.029 A 
ATOM     69  C   UNL     1       6.947  13.918  -5.030  1.00  0.00     0.049 A 
ATOM     70  H   UNL     1       6.562  12.177  -3.904  1.00  0.00     0.167 HD
ATOM     71  C   UNL     1       6.111  12.292  -6.713  1.00  0.00     0.074 A 
ATOM     72  C   UNL     1       5.731  11.916  -8.060  1.00  0.00     0.031 C 
ATOM     73  C   UNL     1       6.573  13.518  -6.364  1.00  0.00     0.037 A 
BRANCH  60  74
ATOM     74  C   UNL     1       7.736  14.166  -0.319  1.00  0.00     0.057 A 
ATOM     75  C   UNL     1       8.896  13.946   0.435  1.00  0.00     0.134 A 
ATOM     76  C   UNL     1       6.916  15.237   0.057  1.00  0.00     0.134 A 
ATOM     77  F   UNL     1       9.712  12.920   0.145  1.00  0.00    -0.206 F 
ATOM     78  C   UNL     1       9.205  14.732   1.547  1.00  0.00     0.040 A 
ATOM     79  C   UNL     1       7.231  16.051   1.146  1.00  0.00     0.040 A 
ATOM     80  F   UNL     1       5.787  15.502  -0.618  1.00  0.00    -0.206 F 
ATOM     81  C   UNL     1       8.373  15.791   1.902  1.00  0.00     0.006 A 
ENDBRANCH  60  74
BRANCH  61  82
ATOM     82  C   UNL     1       4.548   7.899  -7.438  1.00  0.00     0.057 A 
ATOM     83  C   UNL     1       5.350   7.401  -8.470  1.00  0.00     0.134 A 
ATOM     84  C   UNL     1       3.208   7.493  -7.409  1.00  0.00     0.134 A 
ATOM     85  F   UNL     1       6.636   7.772  -8.565  1.00  0.00    -0.206 F 
ATOM     86  C   UNL     1       4.841   6.533  -9.438  1.00  0.00     0.040 A 
ATOM     87  C   UNL     1       2.691   6.607  -8.356  1.00  0.00     0.040 A 
ATOM     88  F   UNL     1       2.387   7.935  -6.446  1.00  0.00    -0.206 F 
ATOM     89  C   UNL     1       3.509   6.126  -9.376  1.00  0.00     0.006 A 
ENDBRANCH  61  82
BRANCH  73  90
ATOM     90  C   UNL     1       6.749  14.536  -7.455  1.00  0.00     0.057 A 
ATOM     91  C   UNL     1       5.662  15.180  -8.057  1.00  0.00     0.134 A 
ATOM     92  C   UNL     1       8.035  14.936  -7.842  1.00  0.00     0.134 A 
ATOM     93  F   UNL     1       4.405  14.837  -7.737  1.00  0.00    -0.206 F 
ATOM     94  C   UNL     1       5.848  16.180  -9.014  1.00  0.00     0.040 A 
ATOM     95  C   UNL     1       8.234  15.953  -8.776  1.00  0.00     0.040 A 
ATOM     96  F   UNL     1       9.120  14.367  -7.294  1.00  0.00    -0.206 F 
ATOM     97  C   UNL     1       7.137  16.576  -9.367  1.00  0.00     0.006 A 
ENDBRANCH  73  90
ENDBRANCH  47  48
ENDBRANCH  40  42
ENDBRANCH  39  40
ENDBRANCH  38  39
ENDBRANCH  37  38
ENDBRANCH  36  37
ENDBRANCH  35  36
ENDBRANCH  34  35
ENDBRANCH  33  34
ENDBRANCH   1  33
TORSDOF 25
