REMARK SMILES CCc1ccc(C(=O)N2Cc3nc[nH]c3C[C@@H]2C(=O)OCCOCCOCCOCCOC(=O)c2ccc(-c3c4nc(c(-c5c(F)cccc5F)c5ccc([nH]5)c(-c5c(F)cccc5F)c5nc(c(-c6c(F)cccc6F)c6ccc3[nH]6)C=C5)C=C4)cc2)o1
REMARK SMILES IDX 25 1 24 2 23 3 22 4 21 5 20 6 18 7 19 8 17 9 9 10 10 11
REMARK SMILES IDX 11 12 16 13 12 14 15 15 13 16 14 17 7 19 8 20 6 21 3 22 4 23
REMARK SMILES IDX 89 24 5 25 2 26 1 27 26 28 27 29 28 30 29 31 30 32 31 33
REMARK SMILES IDX 32 34 33 35 34 36 35 37 36 38 88 39 37 40 87 41 38 42 39 43
REMARK SMILES IDX 40 44 81 45 41 46 86 47 80 48 82 49 42 50 85 51 79 52 78 53
REMARK SMILES IDX 43 55 69 56 52 57 68 58 53 59 56 60 67 61 83 62 54 63 55 64
REMARK SMILES IDX 66 66 84 67 57 68 44 69 45 70 50 71 46 72 47 73 49 74 51 75
REMARK SMILES IDX 48 76 70 77 71 78 76 79 72 80 73 81 75 82 77 83 74 84 58 85
REMARK SMILES IDX 59 86 64 87 60 88 61 89 63 90 65 91 62 92
REMARK H PARENT 14 18 82 54 56 65
REMARK Flexibility Score: inf
ROOT
ATOM      1  C   UNL     1      -0.739   6.440   3.401  1.00  0.00     0.188 C 
ENDROOT
BRANCH   1   2
ATOM      2  C   UNL     1      -0.921   4.905   3.430  1.00  0.00     0.188 C 
BRANCH   2   3
ATOM      3  O   UNL     1      -2.217   4.508   3.839  1.00  0.00    -0.376 OA
BRANCH   3   4
ATOM      4  C   UNL     1      -2.369   3.804   5.052  1.00  0.00     0.202 C 
BRANCH   4   5
ATOM      5  C   UNL     1      -1.813   4.447   6.328  1.00  0.00     0.261 C 
BRANCH   5   6
ATOM      6  O   UNL     1      -0.517   5.047   6.191  1.00  0.00    -0.462 OA
BRANCH   6   7
ATOM      7  C   UNL     1       0.587   4.239   6.202  1.00  0.00     0.329 C 
ATOM      8  O   UNL     1       0.576   3.046   6.448  1.00  0.00    -0.250 OA
BRANCH   7   9
ATOM      9  C   UNL     1       1.798   5.102   5.790  1.00  0.00     0.201 C 
ATOM     10  N   UNL     1       3.042   4.444   5.299  1.00  0.00    -0.316 N 
ATOM     11  C   UNL     1       4.178   5.313   4.939  1.00  0.00     0.179 C 
ATOM     12  C   UNL     1       4.303   6.417   5.925  1.00  0.00     0.081 A 
ATOM     13  C   UNL     1       2.053   6.035   7.017  1.00  0.00     0.093 C 
ATOM     14  N   UNL     1       5.368   7.269   6.033  1.00  0.00    -0.240 NA
ATOM     15  C   UNL     1       3.337   6.740   6.846  1.00  0.00     0.042 A 
ATOM     16  C   UNL     1       5.074   8.056   7.047  1.00  0.00     0.197 A 
ATOM     17  N   UNL     1       3.842   7.774   7.575  1.00  0.00    -0.348 N 
ATOM     18  H   UNL     1       3.406   8.229   8.332  1.00  0.00     0.167 HD
BRANCH  10  19
ATOM     19  C   UNL     1       3.096   3.161   4.756  1.00  0.00     0.290 C 
ATOM     20  O   UNL     1       3.915   2.363   5.213  1.00  0.00    -0.265 OA
BRANCH  19  21
ATOM     21  C   UNL     1       2.312   2.874   3.563  1.00  0.00     0.191 A 
ATOM     22  C   UNL     1       1.261   1.524   2.155  1.00  0.00     0.104 A 
ATOM     23  C   UNL     1       1.253   2.772   1.574  1.00  0.00     0.046 A 
ATOM     24  O   UNL     1       1.906   1.579   3.354  1.00  0.00    -0.456 OA
ATOM     25  C   UNL     1       1.947   3.634   2.465  1.00  0.00     0.056 A 
BRANCH  22  26
ATOM     26  C   UNL     1       0.721   0.196   1.754  1.00  0.00     0.072 C 
ATOM     27  C   UNL     1       1.040  -0.151   0.306  1.00  0.00     0.012 C 
ENDBRANCH  22  26
ENDBRANCH  19  21
ENDBRANCH  10  19
ENDBRANCH   7   9
ENDBRANCH   6   7
ENDBRANCH   5   6
ENDBRANCH   4   5
ENDBRANCH   3   4
ENDBRANCH   2   3
ENDBRANCH   1   2
BRANCH   1  28
ATOM     28  O   UNL     1      -1.799   7.240   3.897  1.00  0.00    -0.377 OA
BRANCH  28  29
ATOM     29  C   UNL     1      -3.119   6.992   3.417  1.00  0.00     0.188 C 
BRANCH  29  30
ATOM     30  C   UNL     1      -3.402   6.255   2.067  1.00  0.00     0.188 C 
BRANCH  30  31
ATOM     31  O   UNL     1      -2.260   5.780   1.364  1.00  0.00    -0.376 OA
BRANCH  31  32
ATOM     32  C   UNL     1      -1.958   6.171   0.038  1.00  0.00     0.202 C 
BRANCH  32  33
ATOM     33  C   UNL     1      -1.312   7.548  -0.101  1.00  0.00     0.261 C 
BRANCH  33  34
ATOM     34  O   UNL     1      -1.910   8.499   0.755  1.00  0.00    -0.460 OA
BRANCH  34  35
ATOM     35  C   UNL     1      -3.196   8.748   0.469  1.00  0.00     0.338 C 
ATOM     36  O   UNL     1      -3.853   8.289  -0.461  1.00  0.00    -0.246 OA
BRANCH  35  37
ATOM     37  C   UNL     1      -3.708   9.714   1.438  1.00  0.00     0.060 A 
ATOM     38  C   UNL     1      -5.043  10.068   1.256  1.00  0.00     0.016 A 
ATOM     39  C   UNL     1      -2.770  10.539   2.074  1.00  0.00     0.016 A 
ATOM     40  C   UNL     1      -5.324  11.403   1.291  1.00  0.00     0.010 A 
ATOM     41  C   UNL     1      -3.039  11.873   2.079  1.00  0.00     0.010 A 
ATOM     42  C   UNL     1      -4.261  12.273   1.547  1.00  0.00    -0.014 A 
BRANCH  42  43
ATOM     43  C   UNL     1      -4.428  13.643   1.154  1.00  0.00     0.031 A 
ATOM     44  C   UNL     1      -5.145  14.427   2.164  1.00  0.00     0.074 A 
ATOM     45  C   UNL     1      -3.893  14.100   0.009  1.00  0.00     0.049 A 
ATOM     46  N   UNL     1      -6.345  14.892   2.094  1.00  0.00    -0.248 NA
ATOM     47  C   UNL     1      -4.529  14.510   3.497  1.00  0.00     0.031 C 
ATOM     48  C   UNL     1      -2.935  13.442  -0.888  1.00  0.00     0.029 A 
ATOM     49  N   UNL     1      -4.035  15.329  -0.542  1.00  0.00    -0.354 N 
ATOM     50  C   UNL     1      -6.552  15.517   3.315  1.00  0.00     0.074 A 
ATOM     51  C   UNL     1      -5.520  15.050   4.201  1.00  0.00     0.031 C 
ATOM     52  C   UNL     1      -2.415  14.364  -1.732  1.00  0.00     0.029 A 
ATOM     53  C   UNL     1      -3.096  15.628  -1.516  1.00  0.00     0.049 A 
ATOM     54  H   UNL     1      -4.744  15.956  -0.273  1.00  0.00     0.167 HD
ATOM     55  C   UNL     1      -7.376  16.590   3.421  1.00  0.00     0.037 A 
ATOM     56  C   UNL     1      -2.856  16.872  -1.996  1.00  0.00     0.037 A 
ATOM     57  C   UNL     1      -8.264  16.685   2.292  1.00  0.00     0.049 A 
ATOM     58  C   UNL     1      -4.031  17.718  -1.645  1.00  0.00     0.074 A 
ATOM     59  C   UNL     1      -9.258  15.876   1.775  1.00  0.00     0.029 A 
ATOM     60  N   UNL     1      -7.928  17.559   1.286  1.00  0.00    -0.354 N 
ATOM     61  N   UNL     1      -5.219  17.558  -2.165  1.00  0.00    -0.248 NA
ATOM     62  C   UNL     1      -4.008  18.412  -0.363  1.00  0.00     0.031 C 
ATOM     63  C   UNL     1      -9.149  16.007   0.360  1.00  0.00     0.029 A 
ATOM     64  C   UNL     1      -8.128  16.919   0.088  1.00  0.00     0.049 A 
ATOM     65  H   UNL     1      -7.600  18.480   1.404  1.00  0.00     0.167 HD
ATOM     66  C   UNL     1      -6.106  17.755  -1.113  1.00  0.00     0.074 A 
ATOM     67  C   UNL     1      -5.306  18.354  -0.048  1.00  0.00     0.031 C 
ATOM     68  C   UNL     1      -7.331  17.150  -1.097  1.00  0.00     0.037 A 
BRANCH  55  69
ATOM     69  C   UNL     1      -7.105  17.736   4.355  1.00  0.00     0.057 A 
ATOM     70  C   UNL     1      -8.106  18.695   4.562  1.00  0.00     0.134 A 
ATOM     71  C   UNL     1      -5.829  18.078   4.853  1.00  0.00     0.134 A 
ATOM     72  F   UNL     1      -9.353  18.495   4.111  1.00  0.00    -0.206 F 
ATOM     73  C   UNL     1      -7.843  19.926   5.172  1.00  0.00     0.040 A 
ATOM     74  C   UNL     1      -5.569  19.276   5.518  1.00  0.00     0.040 A 
ATOM     75  F   UNL     1      -4.741  17.327   4.639  1.00  0.00    -0.206 F 
ATOM     76  C   UNL     1      -6.571  20.220   5.652  1.00  0.00     0.006 A 
ENDBRANCH  55  69
BRANCH  56  77
ATOM     77  C   UNL     1      -1.543  17.436  -2.378  1.00  0.00     0.057 A 
ATOM     78  C   UNL     1      -1.444  18.569  -3.193  1.00  0.00     0.134 A 
ATOM     79  C   UNL     1      -0.355  17.019  -1.749  1.00  0.00     0.134 A 
ATOM     80  F   UNL     1      -2.532  19.071  -3.793  1.00  0.00    -0.206 F 
ATOM     81  C   UNL     1      -0.232  19.251  -3.372  1.00  0.00     0.040 A 
ATOM     82  C   UNL     1       0.862  17.685  -1.924  1.00  0.00     0.040 A 
ATOM     83  F   UNL     1      -0.353  16.002  -0.875  1.00  0.00    -0.206 F 
ATOM     84  C   UNL     1       0.925  18.812  -2.732  1.00  0.00     0.006 A 
ENDBRANCH  56  77
BRANCH  68  85
ATOM     85  C   UNL     1      -7.774  16.448  -2.353  1.00  0.00     0.057 A 
ATOM     86  C   UNL     1      -7.136  15.312  -2.876  1.00  0.00     0.134 A 
ATOM     87  C   UNL     1      -8.970  16.835  -2.964  1.00  0.00     0.134 A 
ATOM     88  F   UNL     1      -6.043  14.804  -2.294  1.00  0.00    -0.206 F 
ATOM     89  C   UNL     1      -7.641  14.622  -3.983  1.00  0.00     0.040 A 
ATOM     90  C   UNL     1      -9.505  16.135  -4.049  1.00  0.00     0.040 A 
ATOM     91  F   UNL     1      -9.670  17.873  -2.480  1.00  0.00    -0.206 F 
ATOM     92  C   UNL     1      -8.834  15.031  -4.570  1.00  0.00     0.006 A 
ENDBRANCH  68  85
ENDBRANCH  42  43
ENDBRANCH  35  37
ENDBRANCH  34  35
ENDBRANCH  33  34
ENDBRANCH  32  33
ENDBRANCH  31  32
ENDBRANCH  30  31
ENDBRANCH  29  30
ENDBRANCH  28  29
ENDBRANCH   1  28
TORSDOF 23
