REMARK SMILES Cc1cc(S(=O)(=O)Nc2ccc(Cl)cc2F)ccc1OCC(=O)OCCOCCOCCOCCOC(=O)c1ccc(-c2c3nc(c(-c4c(F)cccc4F)c4ccc([nH]4)c(-c4c(F)cccc4F)c4nc(c(-c5c(F)cccc5F)c5ccc2[nH]5)C=C4)C=C3)cc1
REMARK SMILES IDX 28 1 27 2 26 3 25 4 24 5 22 6 23 7 21 8 20 9 19 10 1 11 2 12
REMARK SMILES IDX 3 13 4 14 18 15 17 16 5 17 6 18 7 19 8 20 9 22 10 23 15 24
REMARK SMILES IDX 11 25 14 26 16 27 12 28 13 29 29 30 30 31 31 32 32 33 33 34
REMARK SMILES IDX 34 35 35 36 36 37 37 38 38 39 39 40 40 41 92 42 41 43 91 44
REMARK SMILES IDX 42 45 43 46 44 47 85 48 45 49 90 50 84 51 86 52 46 53 89 54
REMARK SMILES IDX 83 55 82 56 47 58 73 59 56 60 72 61 57 62 60 63 71 64 87 65
REMARK SMILES IDX 58 66 59 67 70 69 88 70 61 71 48 72 49 73 54 74 50 75 51 76
REMARK SMILES IDX 53 77 55 78 52 79 74 80 75 81 80 82 76 83 77 84 79 85 81 86
REMARK SMILES IDX 78 87 62 88 63 89 68 90 64 91 65 92 67 93 69 94 66 95
REMARK H PARENT 8 21 86 57 60 68
REMARK Flexibility Score: inf
ROOT
ATOM      1  C   UNL     1       1.933  -0.542   0.529  1.00  0.00     0.188 C 
ENDROOT
BRANCH   1   2
ATOM      2  O   UNL     1       3.268  -0.757   0.936  1.00  0.00    -0.376 OA
BRANCH   2   3
ATOM      3  C   UNL     1       3.918   0.407   1.372  1.00  0.00     0.202 C 
BRANCH   3   4
ATOM      4  C   UNL     1       4.369   1.444   0.366  1.00  0.00     0.261 C 
BRANCH   4   5
ATOM      5  O   UNL     1       3.259   2.005  -0.326  1.00  0.00    -0.461 OA
BRANCH   5   6
ATOM      6  C   UNL     1       3.475   2.256  -1.635  1.00  0.00     0.344 C 
ATOM      7  O   UNL     1       4.542   2.118  -2.221  1.00  0.00    -0.248 OA
BRANCH   6   8
ATOM      8  C   UNL     1       2.209   2.756  -2.310  1.00  0.00     0.351 C 
BRANCH   8   9
ATOM      9  O   UNL     1       0.955   2.395  -1.782  1.00  0.00    -0.482 OA
BRANCH   9  10
ATOM     10  C   UNL     1       0.309   1.211  -1.952  1.00  0.00     0.123 A 
ATOM     11  C   UNL     1       2.050  -0.393  -3.044  1.00  0.00     0.048 C 
ATOM     12  C   UNL     1       0.703  -0.029  -2.481  1.00  0.00    -0.008 A 
ATOM     13  C   UNL     1      -0.198  -1.133  -2.384  1.00  0.00     0.029 A 
ATOM     14  C   UNL     1      -1.429  -1.034  -1.727  1.00  0.00     0.088 A 
ATOM     15  C   UNL     1      -0.938   1.288  -1.308  1.00  0.00     0.048 A 
ATOM     16  C   UNL     1      -1.749   0.169  -1.121  1.00  0.00     0.026 A 
BRANCH  14  17
ATOM     17  S   UNL     1      -2.519  -2.456  -1.750  1.00  0.00     0.262 S 
ATOM     18  O   UNL     1      -3.030  -2.604  -3.105  1.00  0.00    -0.201 OA
ATOM     19  O   UNL     1      -1.798  -3.538  -1.132  1.00  0.00    -0.201 OA
BRANCH  17  20
ATOM     20  N   UNL     1      -3.808  -2.170  -0.710  1.00  0.00    -0.277 N 
ATOM     21  H   UNL     1      -3.990  -2.859  -0.031  1.00  0.00     0.180 HD
BRANCH  20  22
ATOM     22  C   UNL     1      -4.665  -1.028  -0.713  1.00  0.00     0.085 A 
ATOM     23  C   UNL     1      -5.303  -0.735   0.500  1.00  0.00     0.031 A 
ATOM     24  C   UNL     1      -4.737  -0.088  -1.751  1.00  0.00     0.148 A 
ATOM     25  C   UNL     1      -5.851   0.534   0.717  1.00  0.00     0.023 A 
ATOM     26  C   UNL     1      -5.248   1.188  -1.528  1.00  0.00     0.062 A 
ATOM     27  F   UNL     1      -4.156  -0.312  -2.935  1.00  0.00    -0.205 F 
ATOM     28  C   UNL     1      -5.774   1.503  -0.281  1.00  0.00     0.044 A 
ATOM     29  Cl  UNL     1      -6.268   3.115   0.051  1.00  0.00    -0.084 Cl
ENDBRANCH  20  22
ENDBRANCH  17  20
ENDBRANCH  14  17
ENDBRANCH   9  10
ENDBRANCH   8   9
ENDBRANCH   6   8
ENDBRANCH   5   6
ENDBRANCH   4   5
ENDBRANCH   3   4
ENDBRANCH   2   3
ENDBRANCH   1   2
BRANCH   1  30
ATOM     30  C   UNL     1       0.997   0.522   1.159  1.00  0.00     0.188 C 
BRANCH  30  31
ATOM     31  O   UNL     1       0.846   0.588   2.577  1.00  0.00    -0.377 OA
BRANCH  31  32
ATOM     32  C   UNL     1      -0.537   0.581   2.955  1.00  0.00     0.188 C 
BRANCH  32  33
ATOM     33  C   UNL     1      -1.041  -0.838   3.076  1.00  0.00     0.188 C 
BRANCH  33  34
ATOM     34  O   UNL     1      -0.216  -1.716   2.333  1.00  0.00    -0.376 OA
BRANCH  34  35
ATOM     35  C   UNL     1      -0.834  -2.861   1.787  1.00  0.00     0.202 C 
BRANCH  35  36
ATOM     36  C   UNL     1      -1.649  -3.675   2.792  1.00  0.00     0.261 C 
BRANCH  36  37
ATOM     37  O   UNL     1      -0.777  -4.171   3.829  1.00  0.00    -0.460 OA
BRANCH  37  38
ATOM     38  C   UNL     1      -0.809  -3.482   5.005  1.00  0.00     0.338 C 
ATOM     39  O   UNL     1      -1.830  -3.149   5.589  1.00  0.00    -0.246 OA
BRANCH  38  40
ATOM     40  C   UNL     1       0.538  -2.884   5.295  1.00  0.00     0.060 A 
ATOM     41  C   UNL     1       0.671  -1.928   6.321  1.00  0.00     0.016 A 
ATOM     42  C   UNL     1       1.512  -2.948   4.306  1.00  0.00     0.016 A 
ATOM     43  C   UNL     1       1.681  -0.945   6.258  1.00  0.00     0.010 A 
ATOM     44  C   UNL     1       2.409  -1.897   4.183  1.00  0.00     0.010 A 
ATOM     45  C   UNL     1       2.516  -0.873   5.143  1.00  0.00    -0.014 A 
BRANCH  45  46
ATOM     46  C   UNL     1       3.464   0.233   4.822  1.00  0.00     0.031 A 
ATOM     47  C   UNL     1       4.871  -0.121   4.433  1.00  0.00     0.074 A 
ATOM     48  C   UNL     1       2.969   1.460   4.500  1.00  0.00     0.049 A 
ATOM     49  N   UNL     1       5.777   0.705   4.025  1.00  0.00    -0.248 NA
ATOM     50  C   UNL     1       5.355  -1.497   4.392  1.00  0.00     0.031 C 
ATOM     51  C   UNL     1       3.530   2.475   3.591  1.00  0.00     0.029 A 
ATOM     52  N   UNL     1       1.700   1.990   4.760  1.00  0.00    -0.354 N 
ATOM     53  C   UNL     1       6.766  -0.004   3.349  1.00  0.00     0.074 A 
ATOM     54  C   UNL     1       6.483  -1.377   3.686  1.00  0.00     0.031 C 
ATOM     55  C   UNL     1       2.696   3.520   3.452  1.00  0.00     0.029 A 
ATOM     56  C   UNL     1       1.737   3.385   4.519  1.00  0.00     0.049 A 
ATOM     57  H   UNL     1       0.914   1.479   5.059  1.00  0.00     0.167 HD
ATOM     58  C   UNL     1       7.589   0.664   2.468  1.00  0.00     0.037 A 
ATOM     59  C   UNL     1       1.690   4.247   5.579  1.00  0.00     0.037 A 
ATOM     60  C   UNL     1       7.315   2.128   2.511  1.00  0.00     0.049 A 
ATOM     61  C   UNL     1       3.084   4.830   5.815  1.00  0.00     0.074 A 
ATOM     62  C   UNL     1       7.026   3.119   1.585  1.00  0.00     0.029 A 
ATOM     63  N   UNL     1       7.137   2.747   3.757  1.00  0.00    -0.354 N 
ATOM     64  N   UNL     1       4.185   4.222   5.427  1.00  0.00    -0.248 NA
ATOM     65  C   UNL     1       3.366   6.193   6.265  1.00  0.00     0.031 C 
ATOM     66  C   UNL     1       6.505   4.254   2.283  1.00  0.00     0.029 A 
ATOM     67  C   UNL     1       6.565   3.998   3.646  1.00  0.00     0.049 A 
ATOM     68  H   UNL     1       7.392   2.335   4.614  1.00  0.00     0.167 HD
ATOM     69  C   UNL     1       5.228   5.098   5.394  1.00  0.00     0.074 A 
ATOM     70  C   UNL     1       4.686   6.299   6.009  1.00  0.00     0.031 C 
ATOM     71  C   UNL     1       6.446   4.851   4.823  1.00  0.00     0.037 A 
BRANCH  58  72
ATOM     72  C   UNL     1       8.529   0.019   1.410  1.00  0.00     0.057 A 
ATOM     73  C   UNL     1       9.204   0.802   0.441  1.00  0.00     0.134 A 
ATOM     74  C   UNL     1       8.818  -1.356   1.265  1.00  0.00     0.134 A 
ATOM     75  F   UNL     1       9.161   2.139   0.457  1.00  0.00    -0.206 F 
ATOM     76  C   UNL     1      10.006   0.273  -0.593  1.00  0.00     0.040 A 
ATOM     77  C   UNL     1       9.627  -1.900   0.245  1.00  0.00     0.040 A 
ATOM     78  F   UNL     1       8.384  -2.278   2.119  1.00  0.00    -0.206 F 
ATOM     79  C   UNL     1      10.219  -1.088  -0.701  1.00  0.00     0.006 A 
ENDBRANCH  58  72
BRANCH  59  80
ATOM     80  C   UNL     1       0.549   3.847   6.472  1.00  0.00     0.057 A 
ATOM     81  C   UNL     1      -0.730   3.991   5.875  1.00  0.00     0.134 A 
ATOM     82  C   UNL     1       0.680   2.791   7.383  1.00  0.00     0.134 A 
ATOM     83  F   UNL     1      -0.954   4.995   5.010  1.00  0.00    -0.206 F 
ATOM     84  C   UNL     1      -1.720   3.003   5.973  1.00  0.00     0.040 A 
ATOM     85  C   UNL     1      -0.320   1.805   7.504  1.00  0.00     0.040 A 
ATOM     86  F   UNL     1       1.843   2.579   8.015  1.00  0.00    -0.206 F 
ATOM     87  C   UNL     1      -1.489   1.872   6.745  1.00  0.00     0.006 A 
ENDBRANCH  59  80
BRANCH  71  88
ATOM     88  C   UNL     1       7.729   5.392   5.396  1.00  0.00     0.057 A 
ATOM     89  C   UNL     1       7.845   5.753   6.744  1.00  0.00     0.134 A 
ATOM     90  C   UNL     1       8.948   5.293   4.684  1.00  0.00     0.134 A 
ATOM     91  F   UNL     1       6.784   5.771   7.562  1.00  0.00    -0.206 F 
ATOM     92  C   UNL     1       9.077   6.041   7.332  1.00  0.00     0.040 A 
ATOM     93  C   UNL     1      10.188   5.517   5.281  1.00  0.00     0.040 A 
ATOM     94  F   UNL     1       9.002   4.923   3.397  1.00  0.00    -0.206 F 
ATOM     95  C   UNL     1      10.254   5.908   6.607  1.00  0.00     0.006 A 
ENDBRANCH  71  88
ENDBRANCH  45  46
ENDBRANCH  38  40
ENDBRANCH  37  38
ENDBRANCH  36  37
ENDBRANCH  35  36
ENDBRANCH  34  35
ENDBRANCH  33  34
ENDBRANCH  32  33
ENDBRANCH  31  32
ENDBRANCH  30  31
ENDBRANCH   1  30
TORSDOF 25
