REMARK SMILES CCCc1nn2c(=O)cc(CSc3ccccc3C(=O)OCCOCCOCCOCCOC(=O)c3ccc(-c4c5nc(c(-c6c(F)cccc6F)c6ccc([nH]6)c(-c6c(F)cccc6F)c6nc(c(-c7c(F)cccc7F)c7ccc4[nH]7)C=C6)C=C5)cc3)nc2s1
REMARK SMILES IDX 25 1 24 2 23 3 22 4 21 5 19 6 20 7 18 8 13 9 14 10 15 11
REMARK SMILES IDX 17 12 16 13 12 14 11 15 10 16 4 17 5 18 92 19 6 20 91 21
REMARK SMILES IDX 7 22 90 23 8 24 9 25 3 26 2 27 1 28 26 29 27 30 28 31 29 32
REMARK SMILES IDX 30 33 31 34 32 35 33 36 34 37 35 38 36 39 37 40 89 41 38 42
REMARK SMILES IDX 88 43 39 44 40 45 41 46 82 47 42 48 87 49 81 50 83 51 43 52
REMARK SMILES IDX 86 53 80 54 79 55 44 57 70 58 53 59 69 60 54 61 57 62 68 63
REMARK SMILES IDX 84 64 55 65 56 66 67 68 85 69 58 70 45 71 46 72 51 73 47 74
REMARK SMILES IDX 48 75 50 76 52 77 49 78 71 79 72 80 77 81 73 82 74 83 76 84
REMARK SMILES IDX 78 85 75 86 59 87 60 88 65 89 61 90 62 91 64 92 66 93 63 94
REMARK H PARENT 83 56 57 67
REMARK Flexibility Score: inf
ROOT
ATOM      1  C   UNL     1       0.342   2.591  -7.421  1.00  0.00     0.188 C 
ENDROOT
BRANCH   1   2
ATOM      2  O   UNL     1      -0.151   2.078  -8.651  1.00  0.00    -0.376 OA
BRANCH   2   3
ATOM      3  C   UNL     1      -1.561   2.049  -8.873  1.00  0.00     0.202 C 
BRANCH   3   4
ATOM      4  C   UNL     1      -1.916   0.784  -9.694  1.00  0.00     0.261 C 
BRANCH   4   5
ATOM      5  O   UNL     1      -0.901  -0.226  -9.499  1.00  0.00    -0.460 OA
BRANCH   5   6
ATOM      6  C   UNL     1       0.163  -0.058 -10.325  1.00  0.00     0.339 C 
ATOM      7  O   UNL     1       0.113   0.449 -11.439  1.00  0.00    -0.246 OA
BRANCH   6   8
ATOM      8  C   UNL     1       1.450  -0.267  -9.613  1.00  0.00     0.073 A 
ATOM      9  C   UNL     1       1.775  -1.340  -8.766  1.00  0.00     0.022 A 
ATOM     10  C   UNL     1       3.118  -1.430  -8.332  1.00  0.00     0.016 A 
ATOM     11  C   UNL     1       4.073  -0.449  -8.638  1.00  0.00     0.001 A 
ATOM     12  C   UNL     1       2.412   0.742  -9.877  1.00  0.00     0.017 A 
ATOM     13  C   UNL     1       3.710   0.660  -9.384  1.00  0.00     0.001 A 
BRANCH   9  14
ATOM     14  S   UNL     1       0.775  -2.779  -8.418  1.00  0.00    -0.119 SA
BRANCH  14  15
ATOM     15  C   UNL     1      -0.412  -2.412  -7.070  1.00  0.00     0.131 C 
BRANCH  15  16
ATOM     16  C   UNL     1      -0.273  -1.187  -6.198  1.00  0.00     0.060 A 
ATOM     17  C   UNL     1       1.033   1.353  -1.082  1.00  0.00     0.117 A 
ATOM     18  N   UNL     1      -0.130   1.927  -1.983  1.00  0.00    -0.156 NA
ATOM     19  S   UNL     1       2.292  -0.308  -2.062  1.00  0.00    -0.079 S 
ATOM     20  N   UNL     1      -0.141   1.197  -3.805  1.00  0.00    -0.167 N 
ATOM     21  C   UNL     1       0.957  -0.324  -3.888  1.00  0.00     0.215 A 
ATOM     22  C   UNL     1      -1.134   1.679  -5.351  1.00  0.00     0.275 A 
ATOM     23  N   UNL     1       0.794  -1.352  -4.870  1.00  0.00    -0.223 NA
ATOM     24  O   UNL     1      -1.867   2.617  -5.666  1.00  0.00    -0.267 OA
ATOM     25  C   UNL     1      -1.152   0.051  -6.525  1.00  0.00     0.098 A 
BRANCH  17  26
ATOM     26  C   UNL     1       1.581   1.824   0.239  1.00  0.00     0.069 C 
BRANCH  26  27
ATOM     27  C   UNL     1       0.935   1.247   1.491  1.00  0.00     0.004 C 
ATOM     28  C   UNL     1       1.236  -0.228   1.706  1.00  0.00     0.004 C 
ENDBRANCH  26  27
ENDBRANCH  17  26
ENDBRANCH  15  16
ENDBRANCH  14  15
ENDBRANCH   9  14
ENDBRANCH   6   8
ENDBRANCH   5   6
ENDBRANCH   4   5
ENDBRANCH   3   4
ENDBRANCH   2   3
ENDBRANCH   1   2
BRANCH   1  29
ATOM     29  C   UNL     1       0.939   1.514  -6.430  1.00  0.00     0.188 C 
BRANCH  29  30
ATOM     30  O   UNL     1       0.255   0.546  -5.411  1.00  0.00    -0.377 OA
BRANCH  30  31
ATOM     31  C   UNL     1      -1.437   0.025  -4.431  1.00  0.00     0.188 C 
BRANCH  31  32
ATOM     32  C   UNL     1      -2.177   1.505  -3.411  1.00  0.00     0.188 C 
BRANCH  32  33
ATOM     33  O   UNL     1      -1.377   3.027  -3.417  1.00  0.00    -0.376 OA
BRANCH  33  34
ATOM     34  C   UNL     1       0.315   3.237  -3.519  1.00  0.00     0.202 C 
BRANCH  34  35
ATOM     35  C   UNL     1       1.443   1.755  -3.030  1.00  0.00     0.261 C 
BRANCH  35  36
ATOM     36  O   UNL     1       0.271   0.210  -2.301  1.00  0.00    -0.460 OA
BRANCH  36  37
ATOM     37  C   UNL     1      -0.693  -0.314  -1.350  1.00  0.00     0.338 C 
ATOM     38  O   UNL     1      -1.129   0.265  -0.357  1.00  0.00    -0.246 OA
BRANCH  37  39
ATOM     39  C   UNL     1      -1.325  -1.616  -1.610  1.00  0.00     0.060 A 
ATOM     40  C   UNL     1      -2.717  -1.599  -1.827  1.00  0.00     0.016 A 
ATOM     41  C   UNL     1      -0.662  -2.817  -1.387  1.00  0.00     0.016 A 
ATOM     42  C   UNL     1      -3.447  -2.776  -1.848  1.00  0.00     0.010 A 
ATOM     43  C   UNL     1      -1.405  -4.004  -1.376  1.00  0.00     0.010 A 
ATOM     44  C   UNL     1      -2.798  -3.983  -1.584  1.00  0.00    -0.014 A 
BRANCH  44  45
ATOM     45  C   UNL     1      -3.621  -5.192  -1.377  1.00  0.00     0.031 A 
ATOM     46  C   UNL     1      -3.979  -5.599   0.023  1.00  0.00     0.074 A 
ATOM     47  C   UNL     1      -4.089  -5.873  -2.435  1.00  0.00     0.049 A 
ATOM     48  N   UNL     1      -4.651  -6.640   0.437  1.00  0.00    -0.248 NA
ATOM     49  C   UNL     1      -3.518  -4.709   1.101  1.00  0.00     0.031 C 
ATOM     50  C   UNL     1      -3.860  -5.516  -3.834  1.00  0.00     0.029 A 
ATOM     51  N   UNL     1      -4.850  -7.011  -2.494  1.00  0.00    -0.354 N 
ATOM     52  C   UNL     1      -4.685  -6.540   1.822  1.00  0.00     0.074 A 
ATOM     53  C   UNL     1      -3.946  -5.348   2.179  1.00  0.00     0.031 C 
ATOM     54  C   UNL     1      -4.452  -6.432  -4.618  1.00  0.00     0.029 A 
ATOM     55  C   UNL     1      -5.067  -7.454  -3.775  1.00  0.00     0.049 A 
ATOM     56  H   UNL     1      -5.206  -7.465  -1.697  1.00  0.00     0.167 HD
ATOM     57  C   UNL     1      -5.281  -7.369   2.711  1.00  0.00     0.037 A 
ATOM     58  C   UNL     1      -5.670  -8.577  -4.209  1.00  0.00     0.037 A 
ATOM     59  C   UNL     1      -6.003  -8.557   2.337  1.00  0.00     0.049 A 
ATOM     60  C   UNL     1      -6.254  -9.526  -3.199  1.00  0.00     0.074 A 
ATOM     61  C   UNL     1      -6.642  -9.474   3.153  1.00  0.00     0.029 A 
ATOM     62  N   UNL     1      -6.174  -8.997   1.032  1.00  0.00    -0.354 N 
ATOM     63  N   UNL     1      -6.282  -9.428  -1.891  1.00  0.00    -0.248 NA
ATOM     64  C   UNL     1      -6.895 -10.739  -3.724  1.00  0.00     0.031 C 
ATOM     65  C   UNL     1      -7.154 -10.495   2.345  1.00  0.00     0.029 A 
ATOM     66  C   UNL     1      -6.887 -10.184   1.020  1.00  0.00     0.049 A 
ATOM     67  H   UNL     1      -5.837  -8.533   0.231  1.00  0.00     0.167 HD
ATOM     68  C   UNL     1      -6.965 -10.549  -1.437  1.00  0.00     0.074 A 
ATOM     69  C   UNL     1      -7.345 -11.306  -2.613  1.00  0.00     0.031 C 
ATOM     70  C   UNL     1      -7.256 -10.918  -0.165  1.00  0.00     0.037 A 
BRANCH  57  71
ATOM     71  C   UNL     1      -5.134  -7.039   4.169  1.00  0.00     0.057 A 
ATOM     72  C   UNL     1      -5.773  -5.936   4.751  1.00  0.00     0.134 A 
ATOM     73  C   UNL     1      -4.345  -7.841   5.004  1.00  0.00     0.134 A 
ATOM     74  F   UNL     1      -6.530  -5.117   4.006  1.00  0.00    -0.206 F 
ATOM     75  C   UNL     1      -5.609  -5.626   6.103  1.00  0.00     0.040 A 
ATOM     76  C   UNL     1      -4.196  -7.557   6.363  1.00  0.00     0.040 A 
ATOM     77  F   UNL     1      -3.706  -8.914   4.515  1.00  0.00    -0.206 F 
ATOM     78  C   UNL     1      -4.822  -6.442   6.915  1.00  0.00     0.006 A 
ENDBRANCH  57  71
BRANCH  58  79
ATOM     79  C   UNL     1      -5.731  -8.866  -5.664  1.00  0.00     0.057 A 
ATOM     80  C   UNL     1      -6.944  -8.839  -6.360  1.00  0.00     0.134 A 
ATOM     81  C   UNL     1      -4.575  -9.171  -6.394  1.00  0.00     0.134 A 
ATOM     82  F   UNL     1      -8.088  -8.572  -5.713  1.00  0.00    -0.206 F 
ATOM     83  C   UNL     1      -7.009  -9.116  -7.727  1.00  0.00     0.040 A 
ATOM     84  C   UNL     1      -4.621  -9.423  -7.766  1.00  0.00     0.040 A 
ATOM     85  F   UNL     1      -3.380  -9.208  -5.787  1.00  0.00    -0.206 F 
ATOM     86  C   UNL     1      -5.843  -9.402  -8.435  1.00  0.00     0.006 A 
ENDBRANCH  58  79
BRANCH  70  87
ATOM     87  C   UNL     1      -8.057 -12.175   0.017  1.00  0.00     0.057 A 
ATOM     88  C   UNL     1      -7.510 -13.443  -0.209  1.00  0.00     0.134 A 
ATOM     89  C   UNL     1      -9.384 -12.112   0.463  1.00  0.00     0.134 A 
ATOM     90  F   UNL     1      -6.249 -13.572  -0.649  1.00  0.00    -0.206 F 
ATOM     91  C   UNL     1      -8.261 -14.605  -0.021  1.00  0.00     0.040 A 
ATOM     92  C   UNL     1     -10.135 -13.267   0.683  1.00  0.00     0.040 A 
ATOM     93  F   UNL     1      -9.966 -10.928   0.708  1.00  0.00    -0.206 F 
ATOM     94  C   UNL     1      -9.576 -14.518   0.433  1.00  0.00     0.006 A 
ENDBRANCH  70  87
ENDBRANCH  44  45
ENDBRANCH  37  39
ENDBRANCH  36  37
ENDBRANCH  35  36
ENDBRANCH  34  35
ENDBRANCH  33  34
ENDBRANCH  32  33
ENDBRANCH  31  32
ENDBRANCH  30  31
ENDBRANCH  29  30
ENDBRANCH   1  29
TORSDOF 25
