REMARK SMILES COc1ccc(S(=O)(=O)N(Cc2ccccc2)c2ccccc2C(=O)OCCOCCOCCOCCOC(=O)c2ccc(-c3c4nc(c(-c5c(F)cccc5F)c5ccc([nH]5)c(-c5c(F)cccc5F)c5nc(c(-c6c(F)cccc6F)c6ccc3[nH]6)C=C5)C=C4)cc2)cc1
REMARK SMILES IDX 31 1 30 2 29 3 28 4 27 5 26 6 24 7 25 8 23 9 18 10 19 11
REMARK SMILES IDX 20 12 22 13 21 14 10 15 7 16 8 17 9 18 6 19 3 20 4 21 96 22
REMARK SMILES IDX 5 23 95 24 2 25 1 26 11 27 12 28 13 29 17 30 14 31 16 32
REMARK SMILES IDX 15 33 32 34 33 35 34 36 35 37 36 38 37 39 38 40 39 41 40 42
REMARK SMILES IDX 41 43 42 44 94 45 43 46 93 47 44 48 45 49 46 50 87 51 47 52
REMARK SMILES IDX 92 53 86 54 88 55 48 56 91 57 85 58 84 59 49 61 75 62 58 63
REMARK SMILES IDX 74 64 59 65 62 66 73 67 89 68 60 69 61 70 72 72 90 73 63 74
REMARK SMILES IDX 50 75 51 76 56 77 52 78 53 79 55 80 57 81 54 82 76 83 77 84
REMARK SMILES IDX 82 85 78 86 79 87 81 88 83 89 80 90 64 91 65 92 70 93 66 94
REMARK SMILES IDX 67 95 69 96 71 97 68 98
REMARK H PARENT 88 60 62 71
REMARK Flexibility Score: inf
ROOT
ATOM      1  C   UNL     1       2.743  -3.779  -8.130  1.00  0.00     0.188 C 
ENDROOT
BRANCH   1   2
ATOM      2  C   UNL     1       1.542  -4.111  -9.032  1.00  0.00     0.188 C 
BRANCH   2   3
ATOM      3  O   UNL     1       0.311  -3.543  -8.579  1.00  0.00    -0.376 OA
BRANCH   3   4
ATOM      4  C   UNL     1      -0.642  -4.439  -8.016  1.00  0.00     0.202 C 
BRANCH   4   5
ATOM      5  C   UNL     1      -0.411  -4.683  -6.524  1.00  0.00     0.261 C 
BRANCH   5   6
ATOM      6  O   UNL     1       0.876  -5.255  -6.269  1.00  0.00    -0.460 OA
BRANCH   6   7
ATOM      7  C   UNL     1       1.001  -6.569  -6.562  1.00  0.00     0.340 C 
ATOM      8  O   UNL     1       0.123  -7.285  -7.019  1.00  0.00    -0.246 OA
BRANCH   7   9
ATOM      9  C   UNL     1       2.436  -6.944  -6.529  1.00  0.00     0.084 A 
ATOM     10  C   UNL     1       3.417  -6.464  -5.634  1.00  0.00     0.067 A 
ATOM     11  C   UNL     1       4.758  -6.788  -5.966  1.00  0.00     0.028 A 
ATOM     12  C   UNL     1       5.120  -7.551  -7.081  1.00  0.00     0.002 A 
ATOM     13  C   UNL     1       2.813  -7.731  -7.651  1.00  0.00     0.018 A 
ATOM     14  C   UNL     1       4.143  -8.030  -7.927  1.00  0.00     0.001 A 
BRANCH  10  15
ATOM     15  N   UNL     1       3.172  -5.567  -4.477  1.00  0.00    -0.261 N 
BRANCH  15  16
ATOM     16  S   UNL     1       2.044  -6.046  -3.249  1.00  0.00     0.264 S 
ATOM     17  O   UNL     1       2.688  -6.937  -2.308  1.00  0.00    -0.201 OA
ATOM     18  O   UNL     1       0.801  -6.470  -3.857  1.00  0.00    -0.201 OA
BRANCH  16  19
ATOM     19  C   UNL     1       1.671  -4.545  -2.332  1.00  0.00     0.088 A 
ATOM     20  C   UNL     1       1.108  -2.251  -0.822  1.00  0.00     0.118 A 
ATOM     21  C   UNL     1       0.137  -2.795  -1.667  1.00  0.00     0.048 A 
ATOM     22  C   UNL     1       2.334  -2.897  -0.677  1.00  0.00     0.048 A 
ATOM     23  C   UNL     1       0.419  -3.932  -2.439  1.00  0.00     0.026 A 
ATOM     24  C   UNL     1       2.600  -4.061  -1.402  1.00  0.00     0.026 A 
BRANCH  20  25
ATOM     25  O   UNL     1       0.751  -1.138  -0.110  1.00  0.00    -0.497 OA
ATOM     26  C   UNL     1       1.782  -0.153  -0.013  1.00  0.00     0.278 C 
ENDBRANCH  20  25
ENDBRANCH  16  19
ENDBRANCH  15  16
BRANCH  15  27
ATOM     27  C   UNL     1       4.314  -4.688  -4.051  1.00  0.00     0.171 C 
BRANCH  27  28
ATOM     28  C   UNL     1       5.410  -5.238  -3.143  1.00  0.00    -0.027 A 
ATOM     29  C   UNL     1       5.523  -6.590  -2.779  1.00  0.00     0.005 A 
ATOM     30  C   UNL     1       6.412  -4.363  -2.689  1.00  0.00     0.005 A 
ATOM     31  C   UNL     1       6.566  -7.051  -1.974  1.00  0.00     0.000 A 
ATOM     32  C   UNL     1       7.468  -4.825  -1.896  1.00  0.00     0.000 A 
ATOM     33  C   UNL     1       7.542  -6.168  -1.534  1.00  0.00     0.000 A 
ENDBRANCH  27  28
ENDBRANCH  15  27
ENDBRANCH  10  15
ENDBRANCH   7   9
ENDBRANCH   6   7
ENDBRANCH   5   6
ENDBRANCH   4   5
ENDBRANCH   3   4
ENDBRANCH   2   3
ENDBRANCH   1   2
BRANCH   1  34
ATOM     34  O   UNL     1       3.068  -2.404  -7.979  1.00  0.00    -0.377 OA
BRANCH  34  35
ATOM     35  C   UNL     1       2.002  -1.592  -7.510  1.00  0.00     0.188 C 
BRANCH  35  36
ATOM     36  C   UNL     1       1.288  -0.810  -8.624  1.00  0.00     0.188 C 
BRANCH  36  37
ATOM     37  O   UNL     1       1.814  -0.729  -9.940  1.00  0.00    -0.376 OA
BRANCH  37  38
ATOM     38  C   UNL     1       3.201  -0.822 -10.211  1.00  0.00     0.202 C 
BRANCH  38  39
ATOM     39  C   UNL     1       4.254  -0.046  -9.397  1.00  0.00     0.261 C 
BRANCH  39  40
ATOM     40  O   UNL     1       3.826   0.561  -8.177  1.00  0.00    -0.460 OA
BRANCH  40  41
ATOM     41  C   UNL     1       3.234   1.766  -8.297  1.00  0.00     0.338 C 
ATOM     42  O   UNL     1       3.059   2.412  -9.316  1.00  0.00    -0.246 OA
BRANCH  41  43
ATOM     43  C   UNL     1       2.685   2.134  -6.976  1.00  0.00     0.060 A 
ATOM     44  C   UNL     1       1.325   2.454  -6.892  1.00  0.00     0.016 A 
ATOM     45  C   UNL     1       3.496   2.180  -5.837  1.00  0.00     0.016 A 
ATOM     46  C   UNL     1       0.780   2.867  -5.680  1.00  0.00     0.010 A 
ATOM     47  C   UNL     1       2.955   2.622  -4.625  1.00  0.00     0.010 A 
ATOM     48  C   UNL     1       1.604   3.008  -4.556  1.00  0.00    -0.014 A 
BRANCH  48  49
ATOM     49  C   UNL     1       1.095   3.792  -3.407  1.00  0.00     0.031 A 
ATOM     50  C   UNL     1       1.417   5.263  -3.358  1.00  0.00     0.074 A 
ATOM     51  C   UNL     1       0.303   3.240  -2.472  1.00  0.00     0.049 A 
ATOM     52  N   UNL     1       1.045   6.167  -2.489  1.00  0.00    -0.248 NA
ATOM     53  C   UNL     1       2.268   5.786  -4.441  1.00  0.00     0.031 C 
ATOM     54  C   UNL     1      -0.111   1.839  -2.423  1.00  0.00     0.029 A 
ATOM     55  N   UNL     1      -0.292   3.805  -1.373  1.00  0.00    -0.354 N 
ATOM     56  C   UNL     1       1.600   7.362  -2.928  1.00  0.00     0.074 A 
ATOM     57  C   UNL     1       2.374   7.064  -4.112  1.00  0.00     0.031 C 
ATOM     58  C   UNL     1      -0.872   1.648  -1.330  1.00  0.00     0.029 A 
ATOM     59  C   UNL     1      -0.990   2.909  -0.603  1.00  0.00     0.049 A 
ATOM     60  H   UNL     1      -0.224   4.763  -1.157  1.00  0.00     0.167 HD
ATOM     61  C   UNL     1       1.460   8.602  -2.405  1.00  0.00     0.037 A 
ATOM     62  C   UNL     1      -1.634   3.089   0.566  1.00  0.00     0.037 A 
ATOM     63  C   UNL     1       0.684   8.904  -1.233  1.00  0.00     0.049 A 
ATOM     64  C   UNL     1      -1.717   4.464   1.164  1.00  0.00     0.074 A 
ATOM     65  C   UNL     1       0.438  10.137  -0.655  1.00  0.00     0.029 A 
ATOM     66  N   UNL     1       0.034   7.959  -0.456  1.00  0.00    -0.354 N 
ATOM     67  N   UNL     1      -1.209   5.590   0.727  1.00  0.00    -0.248 NA
ATOM     68  C   UNL     1      -2.487   4.591   2.409  1.00  0.00     0.031 C 
ATOM     69  C   UNL     1      -0.323   9.932   0.501  1.00  0.00     0.029 A 
ATOM     70  C   UNL     1      -0.591   8.578   0.614  1.00  0.00     0.049 A 
ATOM     71  H   UNL     1       0.018   6.991  -0.637  1.00  0.00     0.167 HD
ATOM     72  C   UNL     1      -1.616   6.563   1.629  1.00  0.00     0.074 A 
ATOM     73  C   UNL     1      -2.417   5.894   2.634  1.00  0.00     0.031 C 
ATOM     74  C   UNL     1      -1.363   7.895   1.618  1.00  0.00     0.037 A 
BRANCH  61  75
ATOM     75  C   UNL     1       2.168   9.729  -3.096  1.00  0.00     0.057 A 
ATOM     76  C   UNL     1       1.723  10.240  -4.322  1.00  0.00     0.134 A 
ATOM     77  C   UNL     1       3.279  10.341  -2.504  1.00  0.00     0.134 A 
ATOM     78  F   UNL     1       0.674   9.686  -4.950  1.00  0.00    -0.206 F 
ATOM     79  C   UNL     1       2.365  11.314  -4.940  1.00  0.00     0.040 A 
ATOM     80  C   UNL     1       3.916  11.429  -3.101  1.00  0.00     0.040 A 
ATOM     81  F   UNL     1       3.756   9.897  -1.331  1.00  0.00    -0.206 F 
ATOM     82  C   UNL     1       3.460  11.918  -4.324  1.00  0.00     0.006 A 
ENDBRANCH  61  75
BRANCH  62  83
ATOM     83  C   UNL     1      -2.228   1.935   1.277  1.00  0.00     0.057 A 
ATOM     84  C   UNL     1      -3.601   1.673   1.239  1.00  0.00     0.134 A 
ATOM     85  C   UNL     1      -1.428   1.099   2.064  1.00  0.00     0.134 A 
ATOM     86  F   UNL     1      -4.421   2.473   0.544  1.00  0.00    -0.206 F 
ATOM     87  C   UNL     1      -4.158   0.613   1.958  1.00  0.00     0.040 A 
ATOM     88  C   UNL     1      -1.967   0.021   2.765  1.00  0.00     0.040 A 
ATOM     89  F   UNL     1      -0.116   1.344   2.188  1.00  0.00    -0.206 F 
ATOM     90  C   UNL     1      -3.338  -0.222   2.716  1.00  0.00     0.006 A 
ENDBRANCH  62  83
BRANCH  74  91
ATOM     91  C   UNL     1      -1.981   8.709   2.715  1.00  0.00     0.057 A 
ATOM     92  C   UNL     1      -1.516   8.648   4.034  1.00  0.00     0.134 A 
ATOM     93  C   UNL     1      -3.061   9.560   2.446  1.00  0.00     0.134 A 
ATOM     94  F   UNL     1      -0.494   7.840   4.358  1.00  0.00    -0.206 F 
ATOM     95  C   UNL     1      -2.126   9.378   5.055  1.00  0.00     0.040 A 
ATOM     96  C   UNL     1      -3.662  10.315   3.453  1.00  0.00     0.040 A 
ATOM     97  F   UNL     1      -3.548   9.670   1.201  1.00  0.00    -0.206 F 
ATOM     98  C   UNL     1      -3.201  10.216   4.764  1.00  0.00     0.006 A 
ENDBRANCH  74  91
ENDBRANCH  48  49
ENDBRANCH  41  43
ENDBRANCH  40  41
ENDBRANCH  39  40
ENDBRANCH  38  39
ENDBRANCH  37  38
ENDBRANCH  36  37
ENDBRANCH  35  36
ENDBRANCH  34  35
ENDBRANCH   1  34
TORSDOF 26
