REMARK SMILES CN1C(=O)C[C@H](C(=O)Nc2ccc(C(=O)OCCOCCOCCOCCOC(=O)c3ccc(-c4c5nc(c(-c6c(F)cccc6F)c6ccc([nH]6)c(-c6c(F)cccc6F)c6nc(c(-c7c(F)cccc7F)c7ccc4[nH]7)C=C6)C=C5)cc3)cc2)S/C1=[NH+]\c1cccc(C(F)(F)F)c1
REMARK SMILES IDX 21 1 20 2 19 3 18 4 17 5 16 6 14 7 15 8 13 9 10 10 11 11
REMARK SMILES IDX 86 12 12 13 85 14 9 15 7 16 8 17 6 19 1 20 2 21 3 22 88 23
REMARK SMILES IDX 4 24 5 25 87 26 89 27 90 29 91 30 99 31 92 32 94 33 93 34
REMARK SMILES IDX 95 35 96 36 97 37 98 38 22 39 23 40 24 41 25 42 26 43 27 44
REMARK SMILES IDX 28 45 29 46 30 47 31 48 32 49 84 50 33 51 83 52 34 53 35 54
REMARK SMILES IDX 36 55 77 56 37 57 82 58 76 59 78 60 38 61 81 62 75 63 74 64
REMARK SMILES IDX 39 66 65 67 48 68 64 69 49 70 52 71 63 72 79 73 50 74 51 75
REMARK SMILES IDX 62 77 80 78 53 79 40 80 41 81 46 82 42 83 43 84 45 85 47 86
REMARK SMILES IDX 44 87 66 88 67 89 72 90 68 91 69 92 71 93 73 94 70 95 54 96
REMARK SMILES IDX 55 97 60 98 56 99 57 100 59 101 61 102 58 103
REMARK H PARENT 9 18 89 28 78 65 52 76
REMARK Flexibility Score: inf
ROOT
ATOM      1  C   UNL     1      -2.478  10.351  -3.753  1.00  0.00     0.188 C 
ENDROOT
BRANCH   1   2
ATOM      2  C   UNL     1      -1.878  11.533  -2.963  1.00  0.00     0.188 C 
BRANCH   2   3
ATOM      3  O   UNL     1      -1.080  12.392  -3.760  1.00  0.00    -0.376 OA
BRANCH   3   4
ATOM      4  C   UNL     1       0.330  12.360  -3.653  1.00  0.00     0.202 C 
BRANCH   4   5
ATOM      5  C   UNL     1       1.105  11.045  -3.827  1.00  0.00     0.261 C 
BRANCH   5   6
ATOM      6  O   UNL     1       0.497   9.878  -3.274  1.00  0.00    -0.460 OA
BRANCH   6   7
ATOM      7  C   UNL     1       0.541   9.738  -1.934  1.00  0.00     0.338 C 
ATOM      8  O   UNL     1       1.099  10.472  -1.138  1.00  0.00    -0.246 OA
BRANCH   7   9
ATOM      9  C   UNL     1      -0.383   8.641  -1.562  1.00  0.00     0.060 A 
ATOM     10  C   UNL     1      -2.006   6.554  -0.712  1.00  0.00     0.041 A 
ATOM     11  C   UNL     1      -1.988   7.741   0.018  1.00  0.00     0.027 A 
ATOM     12  C   UNL     1      -1.385   6.487  -1.962  1.00  0.00     0.027 A 
ATOM     13  C   UNL     1      -1.150   8.777  -0.395  1.00  0.00     0.018 A 
ATOM     14  C   UNL     1      -0.551   7.520  -2.381  1.00  0.00     0.018 A 
BRANCH  10  15
ATOM     15  N   UNL     1      -2.505   5.405  -0.085  1.00  0.00    -0.325 N 
ATOM     16  C   UNL     1      -1.779   4.258   0.176  1.00  0.00     0.238 C 
ATOM     17  O   UNL     1      -2.304   3.356   0.833  1.00  0.00    -0.273 OA
ATOM     18  H   UNL     1      -3.449   5.415   0.194  1.00  0.00     0.169 HD
BRANCH  16  19
ATOM     19  C   UNL     1      -0.317   4.165  -0.280  1.00  0.00     0.160 C 
ATOM     20  C   UNL     1       0.492  -0.116   0.253  1.00  0.00     0.301 C 
ATOM     21  N   UNL     1       0.245   1.293   0.002  1.00  0.00    -0.194 N 
ATOM     22  C   UNL     1       0.718   2.161   0.981  1.00  0.00     0.311 C 
ATOM     23  C   UNL     1      -0.522   1.633  -1.106  1.00  0.00     0.319 C 
ATOM     24  O   UNL     1       1.257   1.752   2.015  1.00  0.00    -0.247 OA
ATOM     25  C   UNL     1       0.620   3.651   0.782  1.00  0.00     0.153 C 
ATOM     26  S   UNL     1      -0.180   3.200  -1.779  1.00  0.00    -0.024 SA
ATOM     27  N   UNL     1      -1.366   0.779  -1.594  1.00  0.00    -0.235 N 
ATOM     28  H   UNL     1      -1.374  -0.137  -1.234  1.00  0.00     0.313 HD
BRANCH  27  29
ATOM     29  C   UNL     1      -2.267   1.111  -2.614  1.00  0.00     0.126 A 
ATOM     30  C   UNL     1      -3.629   1.161  -2.303  1.00  0.00     0.052 A 
ATOM     31  C   UNL     1      -1.865   1.337  -3.932  1.00  0.00     0.064 A 
ATOM     32  C   UNL     1      -4.577   1.462  -3.282  1.00  0.00     0.005 A 
ATOM     33  C   UNL     1      -2.801   1.683  -4.921  1.00  0.00     0.060 A 
ATOM     34  C   UNL     1      -4.163   1.730  -4.585  1.00  0.00     0.013 A 
BRANCH  33  35
ATOM     35  C   UNL     1      -2.358   2.004  -6.325  1.00  0.00     0.416 C 
ATOM     36  F   UNL     1      -2.762   1.069  -7.227  1.00  0.00    -0.166 F 
ATOM     37  F   UNL     1      -2.859   3.192  -6.767  1.00  0.00    -0.166 F 
ATOM     38  F   UNL     1      -1.006   2.100  -6.462  1.00  0.00    -0.166 F 
ENDBRANCH  33  35
ENDBRANCH  27  29
ENDBRANCH  16  19
ENDBRANCH  10  15
ENDBRANCH   7   9
ENDBRANCH   6   7
ENDBRANCH   5   6
ENDBRANCH   4   5
ENDBRANCH   3   4
ENDBRANCH   2   3
ENDBRANCH   1   2
BRANCH   1  39
ATOM     39  O   UNL     1      -1.876  10.053  -5.003  1.00  0.00    -0.377 OA
BRANCH  39  40
ATOM     40  C   UNL     1      -1.901  11.031  -6.043  1.00  0.00     0.188 C 
BRANCH  40  41
ATOM     41  C   UNL     1      -2.708  12.353  -5.945  1.00  0.00     0.188 C 
BRANCH  41  42
ATOM     42  O   UNL     1      -3.722  12.366  -4.955  1.00  0.00    -0.376 OA
BRANCH  42  43
ATOM     43  C   UNL     1      -5.072  12.311  -5.372  1.00  0.00     0.202 C 
BRANCH  43  44
ATOM     44  C   UNL     1      -5.525  11.029  -6.081  1.00  0.00     0.261 C 
BRANCH  44  45
ATOM     45  O   UNL     1      -4.731  10.617  -7.203  1.00  0.00    -0.460 OA
BRANCH  45  46
ATOM     46  C   UNL     1      -4.733  11.419  -8.287  1.00  0.00     0.338 C 
ATOM     47  O   UNL     1      -5.339  12.469  -8.432  1.00  0.00    -0.246 OA
BRANCH  46  48
ATOM     48  C   UNL     1      -3.721  10.896  -9.226  1.00  0.00     0.060 A 
ATOM     49  C   UNL     1      -2.633  11.703  -9.586  1.00  0.00     0.016 A 
ATOM     50  C   UNL     1      -3.850   9.604  -9.739  1.00  0.00     0.016 A 
ATOM     51  C   UNL     1      -1.688  11.230 -10.498  1.00  0.00     0.010 A 
ATOM     52  C   UNL     1      -2.917   9.141 -10.667  1.00  0.00     0.010 A 
ATOM     53  C   UNL     1      -1.855   9.967 -11.079  1.00  0.00    -0.014 A 
BRANCH  53  54
ATOM     54  C   UNL     1      -1.073   9.592 -12.281  1.00  0.00     0.031 A 
ATOM     55  C   UNL     1      -1.724   9.774 -13.625  1.00  0.00     0.074 A 
ATOM     56  C   UNL     1       0.173   9.096 -12.191  1.00  0.00     0.049 A 
ATOM     57  N   UNL     1      -1.301   9.421 -14.811  1.00  0.00    -0.248 NA
ATOM     58  C   UNL     1      -3.038  10.440 -13.626  1.00  0.00     0.031 C 
ATOM     59  C   UNL     1       0.928   8.919 -10.953  1.00  0.00     0.029 A 
ATOM     60  N   UNL     1       1.015   8.633 -13.171  1.00  0.00    -0.354 N 
ATOM     61  C   UNL     1      -2.302   9.807 -15.694  1.00  0.00     0.074 A 
ATOM     62  C   UNL     1      -3.364  10.394 -14.908  1.00  0.00     0.031 C 
ATOM     63  C   UNL     1       2.117   8.364 -11.246  1.00  0.00     0.029 A 
ATOM     64  C   UNL     1       2.189   8.111 -12.685  1.00  0.00     0.049 A 
ATOM     65  H   UNL     1       0.798   8.672 -14.131  1.00  0.00     0.167 HD
ATOM     66  C   UNL     1      -2.330   9.687 -17.042  1.00  0.00     0.037 A 
ATOM     67  C   UNL     1       3.187   7.474 -13.329  1.00  0.00     0.037 A 
ATOM     68  C   UNL     1      -1.272   9.099 -17.819  1.00  0.00     0.049 A 
ATOM     69  C   UNL     1       3.096   7.277 -14.822  1.00  0.00     0.074 A 
ATOM     70  C   UNL     1      -1.198   8.940 -19.191  1.00  0.00     0.029 A 
ATOM     71  N   UNL     1      -0.107   8.566 -17.288  1.00  0.00    -0.354 N 
ATOM     72  N   UNL     1       2.156   7.659 -15.654  1.00  0.00    -0.248 NA
ATOM     73  C   UNL     1       4.207   6.560 -15.467  1.00  0.00     0.031 C 
ATOM     74  C   UNL     1      -0.015   8.257 -19.485  1.00  0.00     0.029 A 
ATOM     75  C   UNL     1       0.681   8.055 -18.304  1.00  0.00     0.049 A 
ATOM     76  H   UNL     1       0.124   8.553 -16.331  1.00  0.00     0.167 HD
ATOM     77  C   UNL     1       2.583   7.269 -16.919  1.00  0.00     0.074 A 
ATOM     78  C   UNL     1       3.866   6.623 -16.747  1.00  0.00     0.031 C 
ATOM     79  C   UNL     1       1.970   7.437 -18.117  1.00  0.00     0.037 A 
BRANCH  66  80
ATOM     80  C   UNL     1      -3.558  10.171 -17.755  1.00  0.00     0.057 A 
ATOM     81  C   UNL     1      -3.873  11.532 -17.856  1.00  0.00     0.134 A 
ATOM     82  C   UNL     1      -4.425   9.261 -18.375  1.00  0.00     0.134 A 
ATOM     83  F   UNL     1      -3.095  12.456 -17.271  1.00  0.00    -0.206 F 
ATOM     84  C   UNL     1      -5.017  11.969 -18.527  1.00  0.00     0.040 A 
ATOM     85  C   UNL     1      -5.554   9.687 -19.074  1.00  0.00     0.040 A 
ATOM     86  F   UNL     1      -4.182   7.942 -18.318  1.00  0.00    -0.206 F 
ATOM     87  C   UNL     1      -5.856  11.045 -19.146  1.00  0.00     0.006 A 
ENDBRANCH  66  80
BRANCH  67  88
ATOM     88  C   UNL     1       4.354   6.952 -12.572  1.00  0.00     0.057 A 
ATOM     89  C   UNL     1       5.636   7.484 -12.755  1.00  0.00     0.134 A 
ATOM     90  C   UNL     1       4.226   5.883 -11.676  1.00  0.00     0.134 A 
ATOM     91  F   UNL     1       5.831   8.493 -13.618  1.00  0.00    -0.206 F 
ATOM     92  C   UNL     1       6.750   6.959 -12.096  1.00  0.00     0.040 A 
ATOM     93  C   UNL     1       5.325   5.367 -10.988  1.00  0.00     0.040 A 
ATOM     94  F   UNL     1       3.026   5.326 -11.454  1.00  0.00    -0.206 F 
ATOM     95  C   UNL     1       6.594   5.899 -11.205  1.00  0.00     0.006 A 
ENDBRANCH  67  88
BRANCH  79  96
ATOM     96  C   UNL     1       2.703   6.983 -19.348  1.00  0.00     0.057 A 
ATOM     97  C   UNL     1       2.879   5.630 -19.658  1.00  0.00     0.134 A 
ATOM     98  C   UNL     1       3.182   7.925 -20.270  1.00  0.00     0.134 A 
ATOM     99  F   UNL     1       2.453   4.677 -18.815  1.00  0.00    -0.206 F 
ATOM    100  C   UNL     1       3.522   5.229 -20.831  1.00  0.00     0.040 A 
ATOM    101  C   UNL     1       3.798   7.536 -21.460  1.00  0.00     0.040 A 
ATOM    102  F   UNL     1       3.035   9.239 -20.041  1.00  0.00    -0.206 F 
ATOM    103  C   UNL     1       3.974   6.183 -21.741  1.00  0.00     0.006 A 
ENDBRANCH  79  96
ENDBRANCH  53  54
ENDBRANCH  46  48
ENDBRANCH  45  46
ENDBRANCH  44  45
ENDBRANCH  43  44
ENDBRANCH  42  43
ENDBRANCH  41  42
ENDBRANCH  40  41
ENDBRANCH  39  40
ENDBRANCH   1  39
TORSDOF 24
