REMARK SMILES COC(=O)c1ccc(C)c2c1[C@H]1C=CC[C@H]1[C@@H](c1ccc(C(=O)OCCOCCOCCOCCOC(=O)c3ccc(-c4c5nc(c(-c6c(F)cccc6F)c6ccc([nH]6)c(-c6c(F)cccc6F)c6nc(c(-c7c(F)cccc7F)c7ccc4[nH]7)C=C6)C=C5)cc3)cc1)N2
REMARK SMILES IDX 29 1 28 2 27 3 26 4 25 5 24 6 22 7 23 8 21 9 18 10 19 11
REMARK SMILES IDX 94 12 20 13 93 14 17 15 5 16 6 17 11 18 7 19 10 20 12 21
REMARK SMILES IDX 8 22 95 23 13 24 16 25 9 26 14 28 15 29 3 30 4 31 2 32 1 33
REMARK SMILES IDX 30 34 31 35 32 36 33 37 34 38 35 39 36 40 37 41 38 42 39 43
REMARK SMILES IDX 40 44 92 45 41 46 91 47 42 48 43 49 44 50 85 51 45 52 90 53
REMARK SMILES IDX 84 54 86 55 46 56 89 57 83 58 82 59 47 61 73 62 56 63 72 64
REMARK SMILES IDX 57 65 60 66 71 67 87 68 58 69 59 70 70 72 88 73 61 74 48 75
REMARK SMILES IDX 49 76 54 77 50 78 51 79 53 80 55 81 52 82 74 83 75 84 80 85
REMARK SMILES IDX 76 86 77 87 79 88 81 89 78 90 62 91 63 92 68 93 64 94 65 95
REMARK SMILES IDX 67 96 69 97 66 98
REMARK H PARENT 95 27 86 60 60 71
REMARK Flexibility Score: inf
ROOT
ATOM      1  C   UNL     1       5.451   5.145  -2.995  1.00  0.00     0.188 C 
ENDROOT
BRANCH   1   2
ATOM      2  C   UNL     1       4.438   5.324  -4.147  1.00  0.00     0.188 C 
BRANCH   2   3
ATOM      3  O   UNL     1       5.019   5.748  -5.370  1.00  0.00    -0.376 OA
BRANCH   3   4
ATOM      4  C   UNL     1       4.694   7.040  -5.852  1.00  0.00     0.202 C 
BRANCH   4   5
ATOM      5  C   UNL     1       5.191   8.246  -5.038  1.00  0.00     0.261 C 
BRANCH   5   6
ATOM      6  O   UNL     1       4.968   8.171  -3.624  1.00  0.00    -0.460 OA
BRANCH   6   7
ATOM      7  C   UNL     1       3.701   8.383  -3.209  1.00  0.00     0.338 C 
ATOM      8  O   UNL     1       2.748   8.683  -3.908  1.00  0.00    -0.246 OA
BRANCH   7   9
ATOM      9  C   UNL     1       3.597   7.942  -1.800  1.00  0.00     0.060 A 
ATOM     10  C   UNL     1       3.325   6.944   0.837  1.00  0.00    -0.025 A 
ATOM     11  C   UNL     1       2.447   6.561  -0.194  1.00  0.00     0.007 A 
ATOM     12  C   UNL     1       4.387   7.801   0.490  1.00  0.00     0.007 A 
ATOM     13  C   UNL     1       2.556   7.074  -1.484  1.00  0.00     0.016 A 
ATOM     14  C   UNL     1       4.534   8.285  -0.821  1.00  0.00     0.016 A 
BRANCH  10  15
ATOM     15  C   UNL     1       3.107   6.534   2.301  1.00  0.00     0.114 C 
ATOM     16  C   UNL     1       0.293   3.392   1.716  1.00  0.00     0.065 A 
ATOM     17  C   UNL     1      -1.029   3.739   1.427  1.00  0.00     0.016 A 
ATOM     18  C   UNL     1       1.223   4.368   2.141  1.00  0.00    -0.003 A 
ATOM     19  C   UNL     1      -1.448   5.055   1.579  1.00  0.00     0.006 A 
ATOM     20  C   UNL     1       0.782   5.707   2.321  1.00  0.00     0.042 A 
ATOM     21  C   UNL     1       2.677   4.006   2.380  1.00  0.00     0.050 C 
ATOM     22  C   UNL     1      -0.560   6.047   2.030  1.00  0.00    -0.028 A 
ATOM     23  N   UNL     1       1.702   6.696   2.656  1.00  0.00    -0.377 N 
ATOM     24  C   UNL     1       3.457   3.505   1.187  1.00  0.00    -0.023 C 
ATOM     25  C   UNL     1       3.577   5.169   2.839  1.00  0.00     0.031 C 
ATOM     26  C   UNL     1      -1.109   7.450   2.099  1.00  0.00     0.046 C 
ATOM     27  H   UNL     1       1.404   7.505   3.132  1.00  0.00     0.161 HD
ATOM     28  C   UNL     1       4.733   3.914   1.220  1.00  0.00    -0.030 C 
ATOM     29  C   UNL     1       4.994   4.777   2.409  1.00  0.00     0.034 C 
BRANCH  16  30
ATOM     30  C   UNL     1       0.679   1.969   1.578  1.00  0.00     0.338 C 
ATOM     31  O   UNL     1       1.234   1.316   2.444  1.00  0.00    -0.246 OA
BRANCH  30  32
ATOM     32  O   UNL     1       0.370   1.555   0.323  1.00  0.00    -0.465 OA
ATOM     33  C   UNL     1       0.796   0.221   0.040  1.00  0.00     0.282 C 
ENDBRANCH  30  32
ENDBRANCH  16  30
ENDBRANCH  10  15
ENDBRANCH   7   9
ENDBRANCH   6   7
ENDBRANCH   5   6
ENDBRANCH   4   5
ENDBRANCH   3   4
ENDBRANCH   2   3
ENDBRANCH   1   2
BRANCH   1  34
ATOM     34  O   UNL     1       6.765   5.662  -3.148  1.00  0.00    -0.377 OA
BRANCH  34  35
ATOM     35  C   UNL     1       7.489   5.405  -4.348  1.00  0.00     0.188 C 
BRANCH  35  36
ATOM     36  C   UNL     1       7.223   4.140  -5.202  1.00  0.00     0.188 C 
BRANCH  36  37
ATOM     37  O   UNL     1       6.349   3.201  -4.602  1.00  0.00    -0.376 OA
BRANCH  37  38
ATOM     38  C   UNL     1       6.916   1.989  -4.138  1.00  0.00     0.202 C 
BRANCH  38  39
ATOM     39  C   UNL     1       7.955   2.087  -3.013  1.00  0.00     0.261 C 
BRANCH  39  40
ATOM     40  O   UNL     1       9.030   3.017  -3.212  1.00  0.00    -0.460 OA
BRANCH  40  41
ATOM     41  C   UNL     1       9.948   2.728  -4.158  1.00  0.00     0.338 C 
ATOM     42  O   UNL     1       9.976   1.757  -4.896  1.00  0.00    -0.246 OA
BRANCH  41  43
ATOM     43  C   UNL     1      10.842   3.899  -4.261  1.00  0.00     0.060 A 
ATOM     44  C   UNL     1      10.809   4.700  -5.412  1.00  0.00     0.016 A 
ATOM     45  C   UNL     1      11.689   4.219  -3.198  1.00  0.00     0.016 A 
ATOM     46  C   UNL     1      11.631   5.823  -5.503  1.00  0.00     0.010 A 
ATOM     47  C   UNL     1      12.541   5.320  -3.308  1.00  0.00     0.010 A 
ATOM     48  C   UNL     1      12.534   6.109  -4.471  1.00  0.00    -0.014 A 
BRANCH  48  49
ATOM     49  C   UNL     1      13.641   7.063  -4.714  1.00  0.00     0.031 A 
ATOM     50  C   UNL     1      14.920   6.512  -5.281  1.00  0.00     0.074 A 
ATOM     51  C   UNL     1      13.523   8.375  -4.450  1.00  0.00     0.049 A 
ATOM     52  N   UNL     1      16.049   7.118  -5.538  1.00  0.00    -0.248 NA
ATOM     53  C   UNL     1      14.919   5.074  -5.602  1.00  0.00     0.031 C 
ATOM     54  C   UNL     1      12.323   9.037  -3.945  1.00  0.00     0.029 A 
ATOM     55  N   UNL     1      14.445   9.385  -4.565  1.00  0.00    -0.354 N 
ATOM     56  C   UNL     1      16.886   6.141  -6.061  1.00  0.00     0.074 A 
ATOM     57  C   UNL     1      16.152   4.896  -6.046  1.00  0.00     0.031 C 
ATOM     58  C   UNL     1      12.589  10.345  -3.773  1.00  0.00     0.029 A 
ATOM     59  C   UNL     1      13.985  10.602  -4.127  1.00  0.00     0.049 A 
ATOM     60  H   UNL     1      15.351   9.250  -4.927  1.00  0.00     0.167 HD
ATOM     61  C   UNL     1      18.151   6.269  -6.524  1.00  0.00     0.037 A 
ATOM     62  C   UNL     1      14.632  11.778  -4.003  1.00  0.00     0.037 A 
ATOM     63  C   UNL     1      18.897   7.498  -6.497  1.00  0.00     0.049 A 
ATOM     64  C   UNL     1      16.084  11.867  -4.406  1.00  0.00     0.074 A 
ATOM     65  C   UNL     1      20.192   7.733  -6.921  1.00  0.00     0.029 A 
ATOM     66  N   UNL     1      18.415   8.699  -5.996  1.00  0.00    -0.354 N 
ATOM     67  N   UNL     1      16.863  10.947  -4.924  1.00  0.00    -0.248 NA
ATOM     68  C   UNL     1      16.746  13.165  -4.206  1.00  0.00     0.031 C 
ATOM     69  C   UNL     1      20.513   9.062  -6.625  1.00  0.00     0.029 A 
ATOM     70  C   UNL     1      19.397   9.672  -6.075  1.00  0.00     0.049 A 
ATOM     71  H   UNL     1      17.509   8.838  -5.638  1.00  0.00     0.167 HD
ATOM     72  C   UNL     1      18.091  11.562  -5.141  1.00  0.00     0.074 A 
ATOM     73  C   UNL     1      17.948  12.938  -4.715  1.00  0.00     0.031 C 
ATOM     74  C   UNL     1      19.236  11.039  -5.649  1.00  0.00     0.037 A 
BRANCH  61  75
ATOM     75  C   UNL     1      18.808   5.031  -7.060  1.00  0.00     0.057 A 
ATOM     76  C   UNL     1      19.860   4.422  -6.368  1.00  0.00     0.134 A 
ATOM     77  C   UNL     1      18.390   4.434  -8.258  1.00  0.00     0.134 A 
ATOM     78  F   UNL     1      20.309   4.941  -5.215  1.00  0.00    -0.206 F 
ATOM     79  C   UNL     1      20.473   3.262  -6.845  1.00  0.00     0.040 A 
ATOM     80  C   UNL     1      18.974   3.257  -8.729  1.00  0.00     0.040 A 
ATOM     81  F   UNL     1      17.372   4.955  -8.959  1.00  0.00    -0.206 F 
ATOM     82  C   UNL     1      20.023   2.671  -8.024  1.00  0.00     0.006 A 
ENDBRANCH  61  75
BRANCH  62  83
ATOM     83  C   UNL     1      13.937  12.970  -3.450  1.00  0.00     0.057 A 
ATOM     84  C   UNL     1      13.553  13.031  -2.105  1.00  0.00     0.134 A 
ATOM     85  C   UNL     1      13.702  14.104  -4.238  1.00  0.00     0.134 A 
ATOM     86  F   UNL     1      13.753  11.982  -1.294  1.00  0.00    -0.206 F 
ATOM     87  C   UNL     1      12.964  14.175  -1.563  1.00  0.00     0.040 A 
ATOM     88  C   UNL     1      13.141  15.265  -3.702  1.00  0.00     0.040 A 
ATOM     89  F   UNL     1      14.072  14.119  -5.527  1.00  0.00    -0.206 F 
ATOM     90  C   UNL     1      12.768  15.301  -2.360  1.00  0.00     0.006 A 
ENDBRANCH  62  83
BRANCH  74  91
ATOM     91  C   UNL     1      20.405  11.969  -5.810  1.00  0.00     0.057 A 
ATOM     92  C   UNL     1      20.847  12.341  -7.087  1.00  0.00     0.134 A 
ATOM     93  C   UNL     1      21.109  12.479  -4.711  1.00  0.00     0.134 A 
ATOM     94  F   UNL     1      20.228  11.879  -8.184  1.00  0.00    -0.206 F 
ATOM     95  C   UNL     1      21.944  13.186  -7.265  1.00  0.00     0.040 A 
ATOM     96  C   UNL     1      22.187  13.352  -4.876  1.00  0.00     0.040 A 
ATOM     97  F   UNL     1      20.733  12.173  -3.460  1.00  0.00    -0.206 F 
ATOM     98  C   UNL     1      22.610  13.702  -6.156  1.00  0.00     0.006 A 
ENDBRANCH  74  91
ENDBRANCH  48  49
ENDBRANCH  41  43
ENDBRANCH  40  41
ENDBRANCH  39  40
ENDBRANCH  38  39
ENDBRANCH  37  38
ENDBRANCH  36  37
ENDBRANCH  35  36
ENDBRANCH  34  35
ENDBRANCH   1  34
TORSDOF 23
