REMARK SMILES O=C(OCCOCCOCCOCCOC(=O)[C@@H]1CCC[N@@H+]1CC(=O)N1CCSc2ccccc21)c1ccc(-c2c3nc(c(-c4c(F)cccc4F)c4ccc([nH]4)c(-c4c(F)cccc4F)c4nc(c(-c5c(F)cccc5F)c5ccc2[nH]5)C=C4)C=C3)cc1
REMARK SMILES IDX 10 1 9 2 8 3 7 4 6 5 5 6 4 7 3 8 2 9 1 10 36 11 37 12 89 13
REMARK SMILES IDX 38 14 88 15 39 16 40 17 41 18 82 19 42 20 87 21 81 22 83 23
REMARK SMILES IDX 43 24 86 25 80 26 79 27 44 29 70 30 53 31 69 32 54 33 57 34
REMARK SMILES IDX 68 35 84 36 55 37 56 38 67 40 85 41 58 42 45 43 46 44 51 45
REMARK SMILES IDX 47 46 48 47 50 48 52 49 49 50 71 51 72 52 77 53 73 54 74 55
REMARK SMILES IDX 76 56 78 57 75 58 59 59 60 60 65 61 61 62 62 63 64 64 66 65
REMARK SMILES IDX 63 66 11 67 12 68 13 69 14 70 15 71 16 72 17 73 18 74 19 75
REMARK SMILES IDX 22 76 20 77 21 78 23 80 24 81 25 82 26 83 27 84 35 85 28 86
REMARK SMILES IDX 30 87 34 88 29 89 31 90 33 91 32 92
REMARK H PARENT 83 28 57 39 22 79
REMARK Flexibility Score: inf
ROOT
ATOM      1  C   UNL     1       4.364   1.207   2.872  1.00  0.00     0.188 C 
ENDROOT
BRANCH   1   2
ATOM      2  O   UNL     1       2.969   1.439   3.013  1.00  0.00    -0.377 OA
BRANCH   2   3
ATOM      3  C   UNL     1       2.100   0.701   2.167  1.00  0.00     0.188 C 
BRANCH   3   4
ATOM      4  C   UNL     1       2.421   0.800   0.679  1.00  0.00     0.188 C 
BRANCH   4   5
ATOM      5  O   UNL     1       3.733   0.326   0.379  1.00  0.00    -0.376 OA
BRANCH   5   6
ATOM      6  C   UNL     1       4.567   1.204  -0.388  1.00  0.00     0.202 C 
BRANCH   6   7
ATOM      7  C   UNL     1       4.104   1.404  -1.826  1.00  0.00     0.261 C 
BRANCH   7   8
ATOM      8  O   UNL     1       3.997   0.132  -2.469  1.00  0.00    -0.460 OA
BRANCH   8   9
ATOM      9  C   UNL     1       2.815  -0.498  -2.237  1.00  0.00     0.338 C 
ATOM     10  O   UNL     1       1.708  -0.004  -2.319  1.00  0.00    -0.246 OA
BRANCH   9  11
ATOM     11  C   UNL     1       3.102  -1.864  -1.738  1.00  0.00     0.060 A 
ATOM     12  C   UNL     1       2.145  -2.873  -1.859  1.00  0.00     0.016 A 
ATOM     13  C   UNL     1       4.315  -2.117  -1.079  1.00  0.00     0.016 A 
ATOM     14  C   UNL     1       2.451  -4.157  -1.405  1.00  0.00     0.010 A 
ATOM     15  C   UNL     1       4.595  -3.362  -0.566  1.00  0.00     0.010 A 
ATOM     16  C   UNL     1       3.692  -4.399  -0.792  1.00  0.00    -0.014 A 
BRANCH  16  17
ATOM     17  C   UNL     1       4.253  -5.748  -0.653  1.00  0.00     0.031 A 
ATOM     18  C   UNL     1       4.395  -6.394   0.681  1.00  0.00     0.074 A 
ATOM     19  C   UNL     1       4.863  -6.229  -1.753  1.00  0.00     0.049 A 
ATOM     20  N   UNL     1       4.877  -7.573   0.966  1.00  0.00    -0.248 NA
ATOM     21  C   UNL     1       3.980  -5.605   1.853  1.00  0.00     0.031 C 
ATOM     22  C   UNL     1       4.931  -5.530  -3.045  1.00  0.00     0.029 A 
ATOM     23  N   UNL     1       5.583  -7.369  -1.957  1.00  0.00    -0.354 N 
ATOM     24  C   UNL     1       4.785  -7.691   2.345  1.00  0.00     0.074 A 
ATOM     25  C   UNL     1       4.276  -6.433   2.847  1.00  0.00     0.031 C 
ATOM     26  C   UNL     1       5.647  -6.263  -3.907  1.00  0.00     0.029 A 
ATOM     27  C   UNL     1       6.074  -7.479  -3.234  1.00  0.00     0.049 A 
ATOM     28  H   UNL     1       5.735  -8.045  -1.258  1.00  0.00     0.167 HD
ATOM     29  C   UNL     1       5.083  -8.776   3.099  1.00  0.00     0.037 A 
ATOM     30  C   UNL     1       6.770  -8.477  -3.800  1.00  0.00     0.037 A 
ATOM     31  C   UNL     1       5.656  -9.978   2.545  1.00  0.00     0.049 A 
ATOM     32  C   UNL     1       7.044  -9.684  -2.959  1.00  0.00     0.074 A 
ATOM     33  C   UNL     1       5.933 -11.180   3.168  1.00  0.00     0.029 A 
ATOM     34  N   UNL     1       6.072 -10.109   1.223  1.00  0.00    -0.354 N 
ATOM     35  N   UNL     1       6.780  -9.879  -1.688  1.00  0.00    -0.248 NA
ATOM     36  C   UNL     1       7.677 -10.821  -3.631  1.00  0.00     0.031 C 
ATOM     37  C   UNL     1       6.562 -12.018   2.238  1.00  0.00     0.029 A 
ATOM     38  C   UNL     1       6.626 -11.361   1.018  1.00  0.00     0.049 A 
ATOM     39  H   UNL     1       5.985  -9.411   0.533  1.00  0.00     0.167 HD
ATOM     40  C   UNL     1       7.188 -11.172  -1.409  1.00  0.00     0.074 A 
ATOM     41  C   UNL     1       7.699 -11.718  -2.655  1.00  0.00     0.031 C 
ATOM     42  C   UNL     1       7.146 -11.852  -0.236  1.00  0.00     0.037 A 
BRANCH  29  43
ATOM     43  C   UNL     1       4.774  -8.710   4.569  1.00  0.00     0.057 A 
ATOM     44  C   UNL     1       5.787  -8.783   5.534  1.00  0.00     0.134 A 
ATOM     45  C   UNL     1       3.454  -8.610   5.037  1.00  0.00     0.134 A 
ATOM     46  F   UNL     1       7.073  -8.887   5.167  1.00  0.00    -0.206 F 
ATOM     47  C   UNL     1       5.500  -8.756   6.902  1.00  0.00     0.040 A 
ATOM     48  C   UNL     1       3.157  -8.554   6.401  1.00  0.00     0.040 A 
ATOM     49  F   UNL     1       2.430  -8.534   4.173  1.00  0.00    -0.206 F 
ATOM     50  C   UNL     1       4.183  -8.634   7.338  1.00  0.00     0.006 A 
ENDBRANCH  29  43
BRANCH  30  51
ATOM     51  C   UNL     1       7.119  -8.406  -5.239  1.00  0.00     0.057 A 
ATOM     52  C   UNL     1       8.082  -7.514  -5.723  1.00  0.00     0.134 A 
ATOM     53  C   UNL     1       6.436  -9.189  -6.176  1.00  0.00     0.134 A 
ATOM     54  F   UNL     1       8.746  -6.710  -4.879  1.00  0.00    -0.206 F 
ATOM     55  C   UNL     1       8.356  -7.405  -7.088  1.00  0.00     0.040 A 
ATOM     56  C   UNL     1       6.716  -9.108  -7.541  1.00  0.00     0.040 A 
ATOM     57  F   UNL     1       5.494 -10.055  -5.774  1.00  0.00    -0.206 F 
ATOM     58  C   UNL     1       7.676  -8.210  -8.000  1.00  0.00     0.006 A 
ENDBRANCH  30  51
BRANCH  42  59
ATOM     59  C   UNL     1       7.662 -13.259  -0.275  1.00  0.00     0.057 A 
ATOM     60  C   UNL     1       6.781 -14.341  -0.168  1.00  0.00     0.134 A 
ATOM     61  C   UNL     1       9.026 -13.540  -0.426  1.00  0.00     0.134 A 
ATOM     62  F   UNL     1       5.464 -14.137  -0.015  1.00  0.00    -0.206 F 
ATOM     63  C   UNL     1       7.239 -15.657  -0.214  1.00  0.00     0.040 A 
ATOM     64  C   UNL     1       9.491 -14.851  -0.507  1.00  0.00     0.040 A 
ATOM     65  F   UNL     1       9.916 -12.543  -0.554  1.00  0.00    -0.206 F 
ATOM     66  C   UNL     1       8.597 -15.914  -0.395  1.00  0.00     0.006 A 
ENDBRANCH  42  59
ENDBRANCH  16  17
ENDBRANCH   9  11
ENDBRANCH   8   9
ENDBRANCH   7   8
ENDBRANCH   6   7
ENDBRANCH   5   6
ENDBRANCH   4   5
ENDBRANCH   3   4
ENDBRANCH   2   3
ENDBRANCH   1   2
BRANCH   1  67
ATOM     67  C   UNL     1       4.942  -0.206   3.058  1.00  0.00     0.188 C 
BRANCH  67  68
ATOM     68  O   UNL     1       3.972  -1.233   3.187  1.00  0.00    -0.376 OA
BRANCH  68  69
ATOM     69  C   UNL     1       3.778  -1.696   4.517  1.00  0.00     0.202 C 
BRANCH  69  70
ATOM     70  C   UNL     1       3.169  -0.707   5.512  1.00  0.00     0.261 C 
BRANCH  70  71
ATOM     71  O   UNL     1       3.705   0.631   5.534  1.00  0.00    -0.459 OA
BRANCH  71  72
ATOM     72  C   UNL     1       4.841   1.086   6.114  1.00  0.00     0.365 C 
ATOM     73  O   UNL     1       5.679   0.371   6.647  1.00  0.00    -0.245 OA
BRANCH  72  74
ATOM     74  C   UNL     1       5.003   2.618   5.903  1.00  0.00     0.295 C 
ATOM     75  C   UNL     1       5.572   3.526   6.979  1.00  0.00     0.083 C 
ATOM     76  N   UNL     1       3.799   3.352   5.423  1.00  0.00    -0.315 N 
ATOM     77  C   UNL     1       5.316   4.925   6.424  1.00  0.00     0.068 C 
ATOM     78  C   UNL     1       4.177   4.766   5.420  1.00  0.00     0.263 C 
ATOM     79  H   UNL     1       3.575   3.001   4.492  1.00  0.00     0.349 HD
BRANCH  76  80
ATOM     80  C   UNL     1       2.475   3.059   6.038  1.00  0.00     0.364 C 
BRANCH  80  81
ATOM     81  C   UNL     1       2.474   2.946   7.575  1.00  0.00     0.282 C 
ATOM     82  O   UNL     1       2.625   3.944   8.284  1.00  0.00    -0.268 OA
BRANCH  81  83
ATOM     83  N   UNL     1       2.452   1.648   8.117  1.00  0.00    -0.306 N 
ATOM     84  C   UNL     1       3.526   1.326   9.061  1.00  0.00     0.137 C 
ATOM     85  C   UNL     1       1.216   0.935   8.331  1.00  0.00     0.057 A 
ATOM     86  C   UNL     1       3.917  -0.137   9.128  1.00  0.00     0.097 C 
ATOM     87  C   UNL     1       1.175  -0.281   9.062  1.00  0.00     0.031 A 
ATOM     88  C   UNL     1      -0.007   1.488   7.913  1.00  0.00     0.027 A 
ATOM     89  S   UNL     1       2.579  -1.148   9.762  1.00  0.00    -0.122 SA
ATOM     90  C   UNL     1      -0.055  -0.885   9.366  1.00  0.00     0.017 A 
ATOM     91  C   UNL     1      -1.227   0.889   8.256  1.00  0.00     0.002 A 
ATOM     92  C   UNL     1      -1.252  -0.294   8.983  1.00  0.00     0.001 A 
ENDBRANCH  81  83
ENDBRANCH  80  81
ENDBRANCH  76  80
ENDBRANCH  72  74
ENDBRANCH  71  72
ENDBRANCH  70  71
ENDBRANCH  69  70
ENDBRANCH  68  69
ENDBRANCH  67  68
ENDBRANCH   1  67
TORSDOF 23
