REMARK SMILES CCc1c(C)nc(Nc2cc(Cl)ccc2C)nc1OCC(=O)OCCOCCOCCOCCOC(=O)c1ccc(-c2c3nc(c(-c4c(F)cccc4F)c4ccc([nH]4)c(-c4c(F)cccc4F)c4nc(c(-c5c(F)cccc5F)c5ccc2[nH]5)C=C4)C=C3)cc1
REMARK SMILES IDX 28 1 27 2 26 3 25 4 24 5 23 6 21 7 22 8 20 9 19 10 18 11
REMARK SMILES IDX 3 12 4 13 5 14 6 15 17 16 7 17 2 18 1 19 8 20 9 22 10 23
REMARK SMILES IDX 15 24 11 25 14 26 16 27 12 28 13 29 29 30 30 31 31 32 32 33
REMARK SMILES IDX 33 34 34 35 35 36 36 37 37 38 38 39 39 40 91 41 40 42 90 43
REMARK SMILES IDX 41 44 42 45 43 46 84 47 44 48 89 49 83 50 85 51 45 52 88 53
REMARK SMILES IDX 82 54 81 55 46 57 72 58 55 59 71 60 56 61 59 62 70 63 86 64
REMARK SMILES IDX 57 65 58 66 69 68 87 69 60 70 47 71 48 72 53 73 49 74 50 75
REMARK SMILES IDX 52 76 54 77 51 78 73 79 74 80 79 81 75 82 76 83 78 84 80 85
REMARK SMILES IDX 77 86 61 87 62 88 67 89 63 90 64 91 66 92 68 93 65 94
REMARK H PARENT 8 21 85 56 59 67
REMARK Flexibility Score: inf
ROOT
ATOM      1  C   UNL     1       3.368   2.111   1.188  1.00  0.00     0.188 C 
ENDROOT
BRANCH   1   2
ATOM      2  C   UNL     1       2.386   1.187   1.946  1.00  0.00     0.188 C 
BRANCH   2   3
ATOM      3  O   UNL     1       2.848   0.252   2.913  1.00  0.00    -0.376 OA
BRANCH   3   4
ATOM      4  C   UNL     1       4.128  -0.331   2.736  1.00  0.00     0.202 C 
BRANCH   4   5
ATOM      5  C   UNL     1       4.397  -1.089   1.423  1.00  0.00     0.261 C 
BRANCH   5   6
ATOM      6  O   UNL     1       3.884  -0.461   0.224  1.00  0.00    -0.461 OA
BRANCH   6   7
ATOM      7  C   UNL     1       2.799  -1.032  -0.368  1.00  0.00     0.344 C 
ATOM      8  O   UNL     1       2.332  -2.117  -0.038  1.00  0.00    -0.248 OA
BRANCH   7   9
ATOM      9  C   UNL     1       2.229  -0.199  -1.555  1.00  0.00     0.353 C 
BRANCH   9  10
ATOM     10  O   UNL     1       2.174   1.206  -1.595  1.00  0.00    -0.465 OA
BRANCH  10  11
ATOM     11  C   UNL     1       1.206   2.129  -1.389  1.00  0.00     0.222 A 
ATOM     12  C   UNL     1       0.093   2.132  -0.553  1.00  0.00     0.035 A 
ATOM     13  C   UNL     1      -0.386   3.433  -0.270  1.00  0.00     0.050 A 
ATOM     14  C   UNL     1      -1.424   3.740   0.782  1.00  0.00     0.067 C 
ATOM     15  N   UNL     1       0.032   4.549  -0.893  1.00  0.00    -0.218 NA
ATOM     16  N   UNL     1       1.618   3.275  -2.017  1.00  0.00    -0.177 NA
ATOM     17  C   UNL     1       0.994   4.439  -1.794  1.00  0.00     0.230 A 
BRANCH  12  18
ATOM     18  C   UNL     1      -0.659   1.034   0.159  1.00  0.00     0.040 C 
ATOM     19  C   UNL     1      -0.613  -0.420  -0.236  1.00  0.00     0.009 C 
ENDBRANCH  12  18
BRANCH  17  20
ATOM     20  N   UNL     1       1.424   5.593  -2.463  1.00  0.00    -0.324 N 
ATOM     21  H   UNL     1       2.060   5.469  -3.205  1.00  0.00     0.170 HD
BRANCH  20  22
ATOM     22  C   UNL     1       1.032   6.914  -2.174  1.00  0.00     0.045 A 
ATOM     23  C   UNL     1      -0.162   7.425  -2.701  1.00  0.00     0.047 A 
ATOM     24  C   UNL     1       1.800   7.750  -1.342  1.00  0.00    -0.027 A 
ATOM     25  C   UNL     1      -0.607   8.705  -2.354  1.00  0.00     0.043 A 
ATOM     26  C   UNL     1       1.309   9.009  -0.947  1.00  0.00     0.007 A 
ATOM     27  C   UNL     1       3.185   7.383  -0.918  1.00  0.00     0.046 C 
ATOM     28  Cl  UNL     1      -2.040   9.341  -3.065  1.00  0.00    -0.084 Cl
ATOM     29  C   UNL     1       0.102   9.483  -1.446  1.00  0.00     0.021 A 
ENDBRANCH  20  22
ENDBRANCH  17  20
ENDBRANCH  10  11
ENDBRANCH   9  10
ENDBRANCH   7   9
ENDBRANCH   6   7
ENDBRANCH   5   6
ENDBRANCH   4   5
ENDBRANCH   3   4
ENDBRANCH   2   3
ENDBRANCH   1   2
BRANCH   1  30
ATOM     30  O   UNL     1       4.669   2.155   1.748  1.00  0.00    -0.377 OA
BRANCH  30  31
ATOM     31  C   UNL     1       4.971   3.384   2.379  1.00  0.00     0.188 C 
BRANCH  31  32
ATOM     32  C   UNL     1       4.069   3.712   3.583  1.00  0.00     0.188 C 
BRANCH  32  33
ATOM     33  O   UNL     1       2.686   3.648   3.259  1.00  0.00    -0.376 OA
BRANCH  33  34
ATOM     34  C   UNL     1       1.927   4.833   3.109  1.00  0.00     0.202 C 
BRANCH  34  35
ATOM     35  C   UNL     1       2.295   5.825   2.001  1.00  0.00     0.261 C 
BRANCH  35  36
ATOM     36  O   UNL     1       3.693   5.941   1.725  1.00  0.00    -0.460 OA
BRANCH  36  37
ATOM     37  C   UNL     1       4.417   6.834   2.441  1.00  0.00     0.338 C 
ATOM     38  O   UNL     1       4.031   7.564   3.311  1.00  0.00    -0.246 OA
BRANCH  37  39
ATOM     39  C   UNL     1       5.837   6.604   2.070  1.00  0.00     0.060 A 
ATOM     40  C   UNL     1       6.703   6.148   3.067  1.00  0.00     0.016 A 
ATOM     41  C   UNL     1       6.292   6.761   0.755  1.00  0.00     0.016 A 
ATOM     42  C   UNL     1       8.033   5.878   2.757  1.00  0.00     0.010 A 
ATOM     43  C   UNL     1       7.629   6.512   0.446  1.00  0.00     0.010 A 
ATOM     44  C   UNL     1       8.509   6.107   1.459  1.00  0.00    -0.014 A 
BRANCH  44  45
ATOM     45  C   UNL     1       9.969   6.165   1.244  1.00  0.00     0.031 A 
ATOM     46  C   UNL     1      10.635   7.505   1.378  1.00  0.00     0.074 A 
ATOM     47  C   UNL     1      10.682   5.053   1.008  1.00  0.00     0.049 A 
ATOM     48  N   UNL     1      11.903   7.813   1.327  1.00  0.00    -0.248 NA
ATOM     49  C   UNL     1       9.744   8.657   1.609  1.00  0.00     0.031 C 
ATOM     50  C   UNL     1      10.131   3.704   0.883  1.00  0.00     0.029 A 
ATOM     51  N   UNL     1      12.032   4.884   0.842  1.00  0.00    -0.354 N 
ATOM     52  C   UNL     1      11.962   9.186   1.531  1.00  0.00     0.074 A 
ATOM     53  C   UNL     1      10.604   9.661   1.664  1.00  0.00     0.031 C 
ATOM     54  C   UNL     1      11.139   2.842   0.666  1.00  0.00     0.029 A 
ATOM     55  C   UNL     1      12.399   3.581   0.619  1.00  0.00     0.049 A 
ATOM     56  H   UNL     1      12.676   5.628   0.879  1.00  0.00     0.167 HD
ATOM     57  C   UNL     1      13.055   9.977   1.616  1.00  0.00     0.037 A 
ATOM     58  C   UNL     1      13.620   3.057   0.398  1.00  0.00     0.037 A 
ATOM     59  C   UNL     1      14.399   9.493   1.464  1.00  0.00     0.049 A 
ATOM     60  C   UNL     1      14.818   3.971   0.424  1.00  0.00     0.074 A 
ATOM     61  C   UNL     1      15.585  10.199   1.538  1.00  0.00     0.029 A 
ATOM     62  N   UNL     1      14.731   8.173   1.190  1.00  0.00    -0.354 N 
ATOM     63  N   UNL     1      14.871   5.260   0.667  1.00  0.00    -0.248 NA
ATOM     64  C   UNL     1      16.125   3.358   0.152  1.00  0.00     0.031 C 
ATOM     65  C   UNL     1      16.632   9.316   1.253  1.00  0.00     0.029 A 
ATOM     66  C   UNL     1      16.102   8.049   1.060  1.00  0.00     0.049 A 
ATOM     67  H   UNL     1      14.085   7.435   1.100  1.00  0.00     0.167 HD
ATOM     68  C   UNL     1      16.215   5.606   0.607  1.00  0.00     0.074 A 
ATOM     69  C   UNL     1      16.944   4.387   0.317  1.00  0.00     0.031 C 
ATOM     70  C   UNL     1      16.799   6.819   0.776  1.00  0.00     0.037 A 
BRANCH  57  71
ATOM     71  C   UNL     1      12.828  11.443   1.847  1.00  0.00     0.057 A 
ATOM     72  C   UNL     1      12.355  11.938   3.069  1.00  0.00     0.134 A 
ATOM     73  C   UNL     1      13.085  12.371   0.831  1.00  0.00     0.134 A 
ATOM     74  F   UNL     1      12.066  11.100   4.077  1.00  0.00    -0.206 F 
ATOM     75  C   UNL     1      12.121  13.301   3.264  1.00  0.00     0.040 A 
ATOM     76  C   UNL     1      12.882  13.739   1.022  1.00  0.00     0.040 A 
ATOM     77  F   UNL     1      13.536  11.965  -0.366  1.00  0.00    -0.206 F 
ATOM     78  C   UNL     1      12.391  14.206   2.240  1.00  0.00     0.006 A 
ENDBRANCH  57  71
BRANCH  58  79
ATOM     79  C   UNL     1      13.775   1.602   0.140  1.00  0.00     0.057 A 
ATOM     80  C   UNL     1      14.426   0.763   1.053  1.00  0.00     0.134 A 
ATOM     81  C   UNL     1      13.290   1.017  -1.036  1.00  0.00     0.134 A 
ATOM     82  F   UNL     1      14.931   1.266   2.189  1.00  0.00    -0.206 F 
ATOM     83  C   UNL     1      14.606  -0.598   0.798  1.00  0.00     0.040 A 
ATOM     84  C   UNL     1      13.440  -0.347  -1.293  1.00  0.00     0.040 A 
ATOM     85  F   UNL     1      12.656   1.763  -1.953  1.00  0.00    -0.206 F 
ATOM     86  C   UNL     1      14.107  -1.158  -0.377  1.00  0.00     0.006 A 
ENDBRANCH  58  79
BRANCH  70  87
ATOM     87  C   UNL     1      18.296   6.878   0.688  1.00  0.00     0.057 A 
ATOM     88  C   UNL     1      18.972   6.740  -0.530  1.00  0.00     0.134 A 
ATOM     89  C   UNL     1      19.065   7.126   1.832  1.00  0.00     0.134 A 
ATOM     90  F   UNL     1      18.294   6.491  -1.661  1.00  0.00    -0.206 F 
ATOM     91  C   UNL     1      20.363   6.821  -0.603  1.00  0.00     0.040 A 
ATOM     92  C   UNL     1      20.454   7.239   1.767  1.00  0.00     0.040 A 
ATOM     93  F   UNL     1      18.478   7.281   3.029  1.00  0.00    -0.206 F 
ATOM     94  C   UNL     1      21.107   7.080   0.547  1.00  0.00     0.006 A 
ENDBRANCH  70  87
ENDBRANCH  44  45
ENDBRANCH  37  39
ENDBRANCH  36  37
ENDBRANCH  35  36
ENDBRANCH  34  35
ENDBRANCH  33  34
ENDBRANCH  32  33
ENDBRANCH  31  32
ENDBRANCH  30  31
ENDBRANCH   1  30
TORSDOF 25
