REMARK SMILES Cc1ccc2oc(CCCC(=O)OCCOCCOCCOCCOC(=O)c3ccc(-c4c5nc(c(-c6c(F)cccc6F)c6ccc([nH]6)c(-c6c(F)cccc6F)c6nc(c(-c7c(F)cccc7F)c7ccc4[nH]7)C=C6)C=C5)cc3)cc(=O)c2c1
REMARK SMILES IDX 18 1 17 2 16 3 15 4 14 5 13 6 11 7 12 8 10 9 9 10 8 11 7 12
REMARK SMILES IDX 1 13 2 14 3 15 86 16 4 17 85 18 5 19 83 20 6 21 82 22 84 23
REMARK SMILES IDX 19 24 20 25 21 26 22 27 23 28 24 29 25 30 26 31 27 32 28 33
REMARK SMILES IDX 29 34 81 35 30 36 80 37 31 38 32 39 33 40 74 41 34 42 79 43
REMARK SMILES IDX 73 44 75 45 35 46 78 47 72 48 71 49 36 51 62 52 45 53 61 54
REMARK SMILES IDX 46 55 49 56 60 57 76 58 47 59 48 60 59 62 77 63 50 64 37 65
REMARK SMILES IDX 38 66 43 67 39 68 40 69 42 70 44 71 41 72 63 73 64 74 69 75
REMARK SMILES IDX 65 76 66 77 68 78 70 79 67 80 51 81 52 82 57 83 53 84 54 85
REMARK SMILES IDX 56 86 58 87 55 88
REMARK H PARENT 75 50 49 61
REMARK Flexibility Score: inf
ROOT
ATOM      1  C   UNL     1       5.035  -5.077   0.153  1.00  0.00     0.188 C 
ENDROOT
BRANCH   1   2
ATOM      2  C   UNL     1       4.136  -6.296  -0.110  1.00  0.00     0.188 C 
BRANCH   2   3
ATOM      3  O   UNL     1       3.995  -6.606  -1.479  1.00  0.00    -0.376 OA
BRANCH   3   4
ATOM      4  C   UNL     1       2.795  -6.264  -2.148  1.00  0.00     0.202 C 
BRANCH   4   5
ATOM      5  C   UNL     1       2.064  -4.928  -1.910  1.00  0.00     0.261 C 
BRANCH   5   6
ATOM      6  O   UNL     1       2.452  -4.184  -0.746  1.00  0.00    -0.463 OA
BRANCH   6   7
ATOM      7  C   UNL     1       1.583  -4.136   0.284  1.00  0.00     0.305 C 
ATOM      8  O   UNL     1       0.511  -4.734   0.305  1.00  0.00    -0.252 OA
BRANCH   7   9
ATOM      9  C   UNL     1       2.086  -3.361   1.494  1.00  0.00     0.123 C 
BRANCH   9  10
ATOM     10  C   UNL     1       3.211  -2.308   1.442  1.00  0.00     0.020 C 
BRANCH  10  11
ATOM     11  C   UNL     1       3.449  -1.492   0.167  1.00  0.00     0.076 C 
BRANCH  11  12
ATOM     12  C   UNL     1       2.273  -0.618  -0.129  1.00  0.00     0.108 A 
ATOM     13  C   UNL     1      -3.935   1.095   0.056  1.00  0.00     0.044 C 
ATOM     14  C   UNL     1      -2.583   0.459  -0.051  1.00  0.00    -0.050 A 
ATOM     15  C   UNL     1      -2.454  -0.936  -0.116  1.00  0.00     0.007 A 
ATOM     16  C   UNL     1      -1.435   1.266  -0.098  1.00  0.00     0.019 A 
ATOM     17  C   UNL     1      -1.198  -1.520  -0.247  1.00  0.00     0.048 A 
ATOM     18  C   UNL     1      -0.179   0.673  -0.213  1.00  0.00     0.065 A 
ATOM     19  C   UNL     1      -0.069  -0.710  -0.298  1.00  0.00     0.138 A 
ATOM     20  C   UNL     1       1.056   1.475  -0.202  1.00  0.00     0.192 A 
ATOM     21  O   UNL     1       1.134  -1.339  -0.420  1.00  0.00    -0.461 OA
ATOM     22  C   UNL     1       2.316   0.720  -0.066  1.00  0.00     0.095 A 
ATOM     23  O   UNL     1       1.051   2.698  -0.231  1.00  0.00    -0.289 OA
ENDBRANCH  11  12
ENDBRANCH  10  11
ENDBRANCH   9  10
ENDBRANCH   7   9
ENDBRANCH   6   7
ENDBRANCH   5   6
ENDBRANCH   4   5
ENDBRANCH   3   4
ENDBRANCH   2   3
ENDBRANCH   1   2
BRANCH   1  24
ATOM     24  O   UNL     1       5.258  -4.126  -0.879  1.00  0.00    -0.377 OA
BRANCH  24  25
ATOM     25  C   UNL     1       5.735  -4.561  -2.151  1.00  0.00     0.188 C 
BRANCH  25  26
ATOM     26  C   UNL     1       6.582  -5.847  -2.275  1.00  0.00     0.188 C 
BRANCH  26  27
ATOM     27  O   UNL     1       7.043  -6.379  -1.046  1.00  0.00    -0.376 OA
BRANCH  27  28
ATOM     28  C   UNL     1       8.368  -6.060  -0.647  1.00  0.00     0.202 C 
BRANCH  28  29
ATOM     29  C   UNL     1       8.716  -4.575  -0.458  1.00  0.00     0.261 C 
BRANCH  29  30
ATOM     30  O   UNL     1       8.561  -3.733  -1.613  1.00  0.00    -0.460 OA
BRANCH  30  31
ATOM     31  C   UNL     1       9.286  -4.030  -2.710  1.00  0.00     0.338 C 
ATOM     32  O   UNL     1      10.102  -4.930  -2.840  1.00  0.00    -0.246 OA
BRANCH  31  33
ATOM     33  C   UNL     1       8.795  -3.184  -3.813  1.00  0.00     0.060 A 
ATOM     34  C   UNL     1       8.180  -3.788  -4.918  1.00  0.00     0.016 A 
ATOM     35  C   UNL     1       8.945  -1.798  -3.753  1.00  0.00     0.016 A 
ATOM     36  C   UNL     1       7.739  -3.004  -5.985  1.00  0.00     0.010 A 
ATOM     37  C   UNL     1       8.525  -1.017  -4.833  1.00  0.00     0.010 A 
ATOM     38  C   UNL     1       7.950  -1.620  -5.966  1.00  0.00    -0.014 A 
BRANCH  38  39
ATOM     39  C   UNL     1       7.754  -0.826  -7.203  1.00  0.00     0.031 A 
ATOM     40  C   UNL     1       8.960  -0.510  -8.044  1.00  0.00     0.074 A 
ATOM     41  C   UNL     1       6.536  -0.404  -7.581  1.00  0.00     0.049 A 
ATOM     42  N   UNL     1       9.056   0.231  -9.118  1.00  0.00    -0.248 NA
ATOM     43  C   UNL     1      10.232  -1.110  -7.610  1.00  0.00     0.031 C 
ATOM     44  C   UNL     1       5.285  -0.688  -6.881  1.00  0.00     0.029 A 
ATOM     45  N   UNL     1       6.157   0.372  -8.649  1.00  0.00    -0.354 N 
ATOM     46  C   UNL     1      10.397   0.194  -9.480  1.00  0.00     0.074 A 
ATOM     47  C   UNL     1      11.081  -0.617  -8.497  1.00  0.00     0.031 C 
ATOM     48  C   UNL     1       4.277  -0.078  -7.529  1.00  0.00     0.029 A 
ATOM     49  C   UNL     1       4.817   0.669  -8.664  1.00  0.00     0.049 A 
ATOM     50  H   UNL     1       6.787   0.684  -9.339  1.00  0.00     0.167 HD
ATOM     51  C   UNL     1      11.002   0.779 -10.540  1.00  0.00     0.037 A 
ATOM     52  C   UNL     1       4.116   1.478  -9.483  1.00  0.00     0.037 A 
ATOM     53  C   UNL     1      10.318   1.591 -11.512  1.00  0.00     0.049 A 
ATOM     54  C   UNL     1       4.828   2.195 -10.602  1.00  0.00     0.074 A 
ATOM     55  C   UNL     1      10.838   2.215 -12.632  1.00  0.00     0.029 A 
ATOM     56  N   UNL     1       8.967   1.900 -11.472  1.00  0.00    -0.354 N 
ATOM     57  N   UNL     1       6.090   2.137 -10.953  1.00  0.00    -0.248 NA
ATOM     58  C   UNL     1       4.016   3.092 -11.438  1.00  0.00     0.031 C 
ATOM     59  C   UNL     1       9.814   2.954 -13.234  1.00  0.00     0.029 A 
ATOM     60  C   UNL     1       8.642   2.735 -12.528  1.00  0.00     0.049 A 
ATOM     61  H   UNL     1       8.332   1.574 -10.793  1.00  0.00     0.167 HD
ATOM     62  C   UNL     1       6.217   2.964 -12.064  1.00  0.00     0.074 A 
ATOM     63  C   UNL     1       4.900   3.498 -12.338  1.00  0.00     0.031 C 
ATOM     64  C   UNL     1       7.324   3.256 -12.792  1.00  0.00     0.037 A 
BRANCH  51  65
ATOM     65  C   UNL     1      12.485   0.592 -10.681  1.00  0.00     0.057 A 
ATOM     66  C   UNL     1      13.050  -0.643 -11.025  1.00  0.00     0.134 A 
ATOM     67  C   UNL     1      13.358   1.671 -10.493  1.00  0.00     0.134 A 
ATOM     68  F   UNL     1      12.272  -1.722 -11.203  1.00  0.00    -0.206 F 
ATOM     69  C   UNL     1      14.431  -0.804 -11.153  1.00  0.00     0.040 A 
ATOM     70  C   UNL     1      14.738   1.530 -10.648  1.00  0.00     0.040 A 
ATOM     71  F   UNL     1      12.884   2.882 -10.165  1.00  0.00    -0.206 F 
ATOM     72  C   UNL     1      15.279   0.287 -10.971  1.00  0.00     0.006 A 
ENDBRANCH  51  65
BRANCH  52  73
ATOM     73  C   UNL     1       2.660   1.684  -9.264  1.00  0.00     0.057 A 
ATOM     74  C   UNL     1       1.714   1.235 -10.193  1.00  0.00     0.134 A 
ATOM     75  C   UNL     1       2.181   2.364  -8.137  1.00  0.00     0.134 A 
ATOM     76  F   UNL     1       2.110   0.600 -11.306  1.00  0.00    -0.206 F 
ATOM     77  C   UNL     1       0.348   1.471 -10.020  1.00  0.00     0.040 A 
ATOM     78  C   UNL     1       0.817   2.582  -7.937  1.00  0.00     0.040 A 
ATOM     79  F   UNL     1       3.034   2.824  -7.210  1.00  0.00    -0.206 F 
ATOM     80  C   UNL     1      -0.103   2.142  -8.886  1.00  0.00     0.006 A 
ENDBRANCH  52  73
BRANCH  64  81
ATOM     81  C   UNL     1       7.155   4.164 -13.977  1.00  0.00     0.057 A 
ATOM     82  C   UNL     1       6.891   5.532 -13.834  1.00  0.00     0.134 A 
ATOM     83  C   UNL     1       7.305   3.671 -15.280  1.00  0.00     0.134 A 
ATOM     84  F   UNL     1       6.725   6.069 -12.615  1.00  0.00    -0.206 F 
ATOM     85  C   UNL     1       6.757   6.371 -14.942  1.00  0.00     0.040 A 
ATOM     86  C   UNL     1       7.205   4.504 -16.395  1.00  0.00     0.040 A 
ATOM     87  F   UNL     1       7.572   2.373 -15.491  1.00  0.00    -0.206 F 
ATOM     88  C   UNL     1       6.923   5.858 -16.228  1.00  0.00     0.006 A 
ENDBRANCH  64  81
ENDBRANCH  38  39
ENDBRANCH  31  33
ENDBRANCH  30  31
ENDBRANCH  29  30
ENDBRANCH  28  29
ENDBRANCH  27  28
ENDBRANCH  26  27
ENDBRANCH  25  26
ENDBRANCH  24  25
ENDBRANCH   1  24
TORSDOF 23
