REMARK SMILES O=C(OCCOCCOCCOCCOC(=O)c1ccccc1Nc1nc2ccc([N+](=O)[O-])cc2s1)c1ccc(-c2c3nc(c(-c4c(F)cccc4F)c4ccc([nH]4)c(-c4c(F)cccc4F)c4nc(c(-c5c(F)cccc5F)c5ccc2[nH]5)C=C4)C=C3)cc1
REMARK SMILES IDX 10 1 9 2 8 3 7 4 6 5 5 6 4 7 3 8 2 9 1 10 37 11 38 12 90 13
REMARK SMILES IDX 39 14 89 15 40 16 41 17 42 18 83 19 43 20 88 21 82 22 84 23
REMARK SMILES IDX 44 24 87 25 81 26 80 27 45 29 71 30 54 31 70 32 55 33 58 34
REMARK SMILES IDX 69 35 85 36 56 37 57 38 68 40 86 41 59 42 46 43 47 44 52 45
REMARK SMILES IDX 48 46 49 47 51 48 53 49 50 50 72 51 73 52 78 53 74 54 75 55
REMARK SMILES IDX 77 56 79 57 76 58 60 59 61 60 66 61 62 62 63 63 65 64 67 65
REMARK SMILES IDX 64 66 11 67 12 68 13 69 14 70 15 71 16 72 17 73 18 74 19 75
REMARK SMILES IDX 23 76 20 77 22 78 21 79 24 80 25 82 26 83 36 84 27 85 35 86
REMARK SMILES IDX 28 87 34 88 29 89 30 90 31 91 32 92 33 93
REMARK H PARENT 84 28 58 39 24 81
REMARK Flexibility Score: inf
ROOT
ATOM      1  C   UNL     1       3.881  -0.124   3.858  1.00  0.00     0.188 C 
ENDROOT
BRANCH   1   2
ATOM      2  O   UNL     1       2.459  -0.125   3.930  1.00  0.00    -0.377 OA
BRANCH   2   3
ATOM      3  C   UNL     1       1.750  -0.371   2.717  1.00  0.00     0.188 C 
BRANCH   3   4
ATOM      4  C   UNL     1       2.168   0.492   1.526  1.00  0.00     0.188 C 
BRANCH   4   5
ATOM      5  O   UNL     1       3.504   0.177   1.121  1.00  0.00    -0.376 OA
BRANCH   5   6
ATOM      6  C   UNL     1       4.283   1.293   0.693  1.00  0.00     0.202 C 
BRANCH   6   7
ATOM      7  C   UNL     1       4.134   1.613  -0.795  1.00  0.00     0.261 C 
BRANCH   7   8
ATOM      8  O   UNL     1       2.792   1.408  -1.257  1.00  0.00    -0.460 OA
BRANCH   8   9
ATOM      9  C   UNL     1       2.271   0.295  -1.830  1.00  0.00     0.338 C 
ATOM     10  O   UNL     1       1.102   0.336  -2.214  1.00  0.00    -0.246 OA
BRANCH   9  11
ATOM     11  C   UNL     1       3.026  -0.984  -2.047  1.00  0.00     0.060 A 
ATOM     12  C   UNL     1       4.138  -1.413  -1.320  1.00  0.00     0.016 A 
ATOM     13  C   UNL     1       2.513  -1.857  -3.024  1.00  0.00     0.016 A 
ATOM     14  C   UNL     1       4.751  -2.635  -1.570  1.00  0.00     0.010 A 
ATOM     15  C   UNL     1       3.108  -3.099  -3.271  1.00  0.00     0.010 A 
ATOM     16  C   UNL     1       4.243  -3.480  -2.550  1.00  0.00    -0.014 A 
BRANCH  16  17
ATOM     17  C   UNL     1       5.005  -4.696  -2.881  1.00  0.00     0.031 A 
ATOM     18  C   UNL     1       5.879  -4.669  -4.095  1.00  0.00     0.074 A 
ATOM     19  C   UNL     1       4.996  -5.745  -2.038  1.00  0.00     0.049 A 
ATOM     20  N   UNL     1       6.590  -5.626  -4.625  1.00  0.00    -0.248 NA
ATOM     21  C   UNL     1       5.979  -3.379  -4.801  1.00  0.00     0.031 C 
ATOM     22  C   UNL     1       4.272  -5.799  -0.765  1.00  0.00     0.029 A 
ATOM     23  N   UNL     1       5.627  -6.957  -2.116  1.00  0.00    -0.354 N 
ATOM     24  C   UNL     1       7.196  -5.064  -5.741  1.00  0.00     0.074 A 
ATOM     25  C   UNL     1       6.781  -3.682  -5.810  1.00  0.00     0.031 C 
ATOM     26  C   UNL     1       4.501  -6.988  -0.183  1.00  0.00     0.029 A 
ATOM     27  C   UNL     1       5.331  -7.797  -1.070  1.00  0.00     0.049 A 
ATOM     28  H   UNL     1       6.234  -7.203  -2.851  1.00  0.00     0.167 HD
ATOM     29  C   UNL     1       8.015  -5.665  -6.632  1.00  0.00     0.037 A 
ATOM     30  C   UNL     1       5.661  -9.089  -0.887  1.00  0.00     0.037 A 
ATOM     31  C   UNL     1       8.412  -7.042  -6.533  1.00  0.00     0.049 A 
ATOM     32  C   UNL     1       6.490  -9.761  -1.950  1.00  0.00     0.074 A 
ATOM     33  C   UNL     1       9.201  -7.780  -7.394  1.00  0.00     0.029 A 
ATOM     34  N   UNL     1       8.038  -7.887  -5.497  1.00  0.00    -0.354 N 
ATOM     35  N   UNL     1       7.023  -9.244  -3.033  1.00  0.00    -0.248 NA
ATOM     36  C   UNL     1       6.745 -11.198  -1.784  1.00  0.00     0.031 C 
ATOM     37  C   UNL     1       9.266  -9.088  -6.901  1.00  0.00     0.029 A 
ATOM     38  C   UNL     1       8.555  -9.151  -5.711  1.00  0.00     0.049 A 
ATOM     39  H   UNL     1       7.486  -7.626  -4.725  1.00  0.00     0.167 HD
ATOM     40  C   UNL     1       7.680 -10.286  -3.672  1.00  0.00     0.074 A 
ATOM     41  C   UNL     1       7.504 -11.459  -2.838  1.00  0.00     0.031 C 
ATOM     42  C   UNL     1       8.357 -10.286  -4.846  1.00  0.00     0.037 A 
BRANCH  29  43
ATOM     43  C   UNL     1       8.458  -4.857  -7.813  1.00  0.00     0.057 A 
ATOM     44  C   UNL     1       9.430  -3.854  -7.712  1.00  0.00     0.134 A 
ATOM     45  C   UNL     1       7.889  -5.084  -9.072  1.00  0.00     0.134 A 
ATOM     46  F   UNL     1       9.991  -3.566  -6.528  1.00  0.00    -0.206 F 
ATOM     47  C   UNL     1       9.811  -3.096  -8.822  1.00  0.00     0.040 A 
ATOM     48  C   UNL     1       8.276  -4.346 -10.192  1.00  0.00     0.040 A 
ATOM     49  F   UNL     1       6.945  -6.023  -9.233  1.00  0.00    -0.206 F 
ATOM     50  C   UNL     1       9.237  -3.345 -10.067  1.00  0.00     0.006 A 
ENDBRANCH  29  43
BRANCH  30  51
ATOM     51  C   UNL     1       5.147  -9.851   0.283  1.00  0.00     0.057 A 
ATOM     52  C   UNL     1       6.009 -10.395   1.242  1.00  0.00     0.134 A 
ATOM     53  C   UNL     1       3.777 -10.099   0.444  1.00  0.00     0.134 A 
ATOM     54  F   UNL     1       7.334 -10.218   1.137  1.00  0.00    -0.206 F 
ATOM     55  C   UNL     1       5.532 -11.175   2.300  1.00  0.00     0.040 A 
ATOM     56  C   UNL     1       3.283 -10.850   1.512  1.00  0.00     0.040 A 
ATOM     57  F   UNL     1       2.892  -9.613  -0.439  1.00  0.00    -0.206 F 
ATOM     58  C   UNL     1       4.164 -11.402   2.438  1.00  0.00     0.006 A 
ENDBRANCH  30  51
BRANCH  42  59
ATOM     59  C   UNL     1       8.961 -11.586  -5.277  1.00  0.00     0.057 A 
ATOM     60  C   UNL     1       8.174 -12.626  -5.786  1.00  0.00     0.134 A 
ATOM     61  C   UNL     1      10.347 -11.777  -5.233  1.00  0.00     0.134 A 
ATOM     62  F   UNL     1       6.839 -12.504  -5.839  1.00  0.00    -0.206 F 
ATOM     63  C   UNL     1       8.745 -13.820  -6.224  1.00  0.00     0.040 A 
ATOM     64  C   UNL     1      10.932 -12.956  -5.692  1.00  0.00     0.040 A 
ATOM     65  F   UNL     1      11.154 -10.813  -4.764  1.00  0.00    -0.206 F 
ATOM     66  C   UNL     1      10.129 -13.983  -6.185  1.00  0.00     0.006 A 
ENDBRANCH  42  59
ENDBRANCH  16  17
ENDBRANCH   9  11
ENDBRANCH   8   9
ENDBRANCH   7   8
ENDBRANCH   6   7
ENDBRANCH   5   6
ENDBRANCH   4   5
ENDBRANCH   3   4
ENDBRANCH   2   3
ENDBRANCH   1   2
BRANCH   1  67
ATOM     67  C   UNL     1       4.600  -1.394   3.353  1.00  0.00     0.188 C 
BRANCH  67  68
ATOM     68  O   UNL     1       3.748  -2.482   3.015  1.00  0.00    -0.376 OA
BRANCH  68  69
ATOM     69  C   UNL     1       3.743  -3.567   3.939  1.00  0.00     0.202 C 
BRANCH  69  70
ATOM     70  C   UNL     1       2.945  -3.296   5.221  1.00  0.00     0.261 C 
BRANCH  70  71
ATOM     71  O   UNL     1       3.473  -2.243   6.047  1.00  0.00    -0.460 OA
BRANCH  71  72
ATOM     72  C   UNL     1       4.723  -2.386   6.546  1.00  0.00     0.340 C 
ATOM     73  O   UNL     1       5.421  -3.383   6.481  1.00  0.00    -0.246 OA
BRANCH  72  74
ATOM     74  C   UNL     1       5.191  -1.044   6.979  1.00  0.00     0.083 A 
ATOM     75  C   UNL     1       6.475  -0.668   6.536  1.00  0.00     0.018 A 
ATOM     76  C   UNL     1       4.365  -0.135   7.680  1.00  0.00     0.055 A 
ATOM     77  C   UNL     1       6.948   0.622   6.757  1.00  0.00     0.001 A 
ATOM     78  C   UNL     1       4.891   1.150   7.907  1.00  0.00     0.027 A 
ATOM     79  C   UNL     1       6.155   1.530   7.444  1.00  0.00     0.002 A 
BRANCH  76  80
ATOM     80  N   UNL     1       3.106  -0.538   8.185  1.00  0.00    -0.331 N 
ATOM     81  H   UNL     1       2.692  -1.323   7.759  1.00  0.00     0.169 HD
BRANCH  80  82
ATOM     82  C   UNL     1       2.410   0.040   9.189  1.00  0.00     0.188 A 
ATOM     83  N   UNL     1       2.473   1.297   9.555  1.00  0.00    -0.220 NA
ATOM     84  S   UNL     1       1.377  -0.927  10.181  1.00  0.00    -0.096 S 
ATOM     85  C   UNL     1       1.907   1.477  10.791  1.00  0.00     0.084 A 
ATOM     86  C   UNL     1       1.308   0.346  11.341  1.00  0.00     0.063 A 
ATOM     87  C   UNL     1       1.951   2.673  11.532  1.00  0.00     0.037 A 
ATOM     88  C   UNL     1       0.785   0.343  12.644  1.00  0.00     0.107 A 
ATOM     89  C   UNL     1       1.467   2.689  12.841  1.00  0.00     0.088 A 
ATOM     90  C   UNL     1       0.912   1.528  13.391  1.00  0.00     0.270 A 
BRANCH  90  91
ATOM     91  N   UNL     1       0.484   1.537  14.797  1.00  0.00     0.062 N 
ATOM     92  O   UNL     1       0.566   2.607  15.417  1.00  0.00    -0.258 OA
ATOM     93  O   UNL     1       0.082   0.471  15.282  1.00  0.00    -0.258 OA
ENDBRANCH  90  91
ENDBRANCH  80  82
ENDBRANCH  76  80
ENDBRANCH  72  74
ENDBRANCH  71  72
ENDBRANCH  70  71
ENDBRANCH  69  70
ENDBRANCH  68  69
ENDBRANCH  67  68
ENDBRANCH   1  67
TORSDOF 23
