REMARK SMILES C[C@@H](CC(=O)OCCOCCOCCOCCOC(=O)c1ccc(-c2c3nc(c(-c4c(F)cccc4F)c4ccc([nH]4)c(-c4c(F)cccc4F)c4nc(c(-c5c(F)cccc5F)c5ccc2[nH]5)C=C4)C=C3)cc1)NC(=O)[C@@H]1CCCN(C(N)=O)C1
REMARK SMILES IDX 11 1 10 2 9 3 8 4 7 5 6 6 4 7 5 8 3 9 2 10 1 11 75 12 76 13
REMARK SMILES IDX 77 15 78 16 79 17 86 18 80 19 82 20 81 21 83 22 84 23 85 24
REMARK SMILES IDX 12 27 13 28 14 29 15 30 16 31 17 32 18 33 19 34 20 35 21 36
REMARK SMILES IDX 22 37 74 38 23 39 73 40 24 41 25 42 26 43 67 44 27 45 72 46
REMARK SMILES IDX 66 47 68 48 28 49 71 50 65 51 64 52 29 54 55 55 38 56 54 57
REMARK SMILES IDX 39 58 42 59 53 60 69 61 40 62 41 63 52 65 70 66 43 67 30 68
REMARK SMILES IDX 31 69 36 70 32 71 33 72 35 73 37 74 34 75 56 76 57 77 62 78
REMARK SMILES IDX 58 79 59 80 61 81 63 82 60 83 44 84 45 85 50 86 46 87 47 88
REMARK SMILES IDX 49 89 51 90 48 91
REMARK H PARENT 75 14 84 25 84 26 68 53 42 64
REMARK Flexibility Score: inf
ROOT
ATOM      1  C   UNL     1      -1.637  -2.855  -0.452  1.00  0.00     0.188 C 
ENDROOT
BRANCH   1   2
ATOM      2  C   UNL     1      -1.641  -4.369  -0.646  1.00  0.00     0.188 C 
BRANCH   2   3
ATOM      3  O   UNL     1      -1.330  -5.239   0.429  1.00  0.00    -0.376 OA
BRANCH   3   4
ATOM      4  C   UNL     1      -0.306  -4.917   1.361  1.00  0.00     0.202 C 
BRANCH   4   5
ATOM      5  C   UNL     1       1.093  -4.502   0.866  1.00  0.00     0.261 C 
BRANCH   5   6
ATOM      6  O   UNL     1       1.171  -3.194   0.245  1.00  0.00    -0.463 OA
BRANCH   6   7
ATOM      7  C   UNL     1       1.570  -3.141  -1.042  1.00  0.00     0.307 C 
ATOM      8  O   UNL     1       1.907  -4.130  -1.690  1.00  0.00    -0.252 OA
BRANCH   7   9
ATOM      9  C   UNL     1       1.586  -1.761  -1.695  1.00  0.00     0.147 C 
BRANCH   9  10
ATOM     10  C   UNL     1       1.126  -0.437  -1.048  1.00  0.00     0.090 C 
ATOM     11  C   UNL     1       1.506  -0.243   0.414  1.00  0.00     0.031 C 
BRANCH  10  12
ATOM     12  N   UNL     1      -0.300  -0.127  -1.240  1.00  0.00    -0.353 N 
ATOM     13  C   UNL     1      -1.055   0.580  -2.119  1.00  0.00     0.225 C 
ATOM     14  H   UNL     1      -0.856  -0.546  -0.544  1.00  0.00     0.163 HD
ATOM     15  O   UNL     1      -2.268   0.321  -2.088  1.00  0.00    -0.275 OA
BRANCH  13  16
ATOM     16  C   UNL     1      -0.539   1.604  -3.145  1.00  0.00     0.098 C 
ATOM     17  C   UNL     1       0.795   2.303  -2.907  1.00  0.00     0.017 C 
ATOM     18  C   UNL     1      -1.603   2.729  -3.259  1.00  0.00     0.134 C 
ATOM     19  C   UNL     1       0.762   3.083  -1.597  1.00  0.00     0.022 C 
ATOM     20  N   UNL     1      -1.637   3.575  -2.050  1.00  0.00    -0.324 N 
ATOM     21  C   UNL     1      -0.352   4.125  -1.613  1.00  0.00     0.121 C 
BRANCH  20  22
ATOM     22  C   UNL     1      -2.763   3.972  -1.366  1.00  0.00     0.314 C 
ATOM     23  N   UNL     1      -3.962   3.647  -1.891  1.00  0.00    -0.351 N 
ATOM     24  O   UNL     1      -2.743   4.622  -0.323  1.00  0.00    -0.249 OA
ATOM     25  H   UNL     1      -4.010   3.127  -2.725  1.00  0.00     0.161 HD
ATOM     26  H   UNL     1      -4.790   3.930  -1.439  1.00  0.00     0.161 HD
ENDBRANCH  20  22
ENDBRANCH  13  16
ENDBRANCH  10  12
ENDBRANCH   9  10
ENDBRANCH   7   9
ENDBRANCH   6   7
ENDBRANCH   5   6
ENDBRANCH   4   5
ENDBRANCH   3   4
ENDBRANCH   2   3
ENDBRANCH   1   2
BRANCH   1  27
ATOM     27  O   UNL     1      -1.230  -2.382   0.818  1.00  0.00    -0.377 OA
BRANCH  27  28
ATOM     28  C   UNL     1      -2.222  -2.033   1.776  1.00  0.00     0.188 C 
BRANCH  28  29
ATOM     29  C   UNL     1      -3.575  -2.744   1.690  1.00  0.00     0.188 C 
BRANCH  29  30
ATOM     30  O   UNL     1      -4.196  -2.572   0.432  1.00  0.00    -0.376 OA
BRANCH  30  31
ATOM     31  C   UNL     1      -4.996  -1.437   0.142  1.00  0.00     0.202 C 
BRANCH  31  32
ATOM     32  C   UNL     1      -4.670   0.005   0.580  1.00  0.00     0.261 C 
BRANCH  32  33
ATOM     33  O   UNL     1      -4.103   0.229   1.875  1.00  0.00    -0.460 OA
BRANCH  33  34
ATOM     34  C   UNL     1      -4.847  -0.028   2.960  1.00  0.00     0.338 C 
ATOM     35  O   UNL     1      -5.993  -0.459   2.986  1.00  0.00    -0.246 OA
BRANCH  34  36
ATOM     36  C   UNL     1      -3.974   0.123   4.143  1.00  0.00     0.060 A 
ATOM     37  C   UNL     1      -3.784  -0.978   4.986  1.00  0.00     0.016 A 
ATOM     38  C   UNL     1      -3.370   1.350   4.437  1.00  0.00     0.016 A 
ATOM     39  C   UNL     1      -3.049  -0.837   6.163  1.00  0.00     0.010 A 
ATOM     40  C   UNL     1      -2.646   1.494   5.625  1.00  0.00     0.010 A 
ATOM     41  C   UNL     1      -2.526   0.413   6.517  1.00  0.00    -0.014 A 
BRANCH  41  42
ATOM     42  C   UNL     1      -2.055   0.631   7.908  1.00  0.00     0.031 A 
ATOM     43  C   UNL     1      -2.993   1.288   8.887  1.00  0.00     0.074 A 
ATOM     44  C   UNL     1      -0.846   0.205   8.315  1.00  0.00     0.049 A 
ATOM     45  N   UNL     1      -2.809   1.581  10.149  1.00  0.00    -0.248 NA
ATOM     46  C   UNL     1      -4.319   1.662   8.369  1.00  0.00     0.031 C 
ATOM     47  C   UNL     1       0.133  -0.485   7.478  1.00  0.00     0.029 A 
ATOM     48  N   UNL     1      -0.240   0.293   9.543  1.00  0.00    -0.354 N 
ATOM     49  C   UNL     1      -3.991   2.178  10.572  1.00  0.00     0.074 A 
ATOM     50  C   UNL     1      -4.870   2.239   9.426  1.00  0.00     0.031 C 
ATOM     51  C   UNL     1       1.224  -0.753   8.218  1.00  0.00     0.029 A 
ATOM     52  C   UNL     1       1.030  -0.227   9.569  1.00  0.00     0.049 A 
ATOM     53  H   UNL     1      -0.675   0.692  10.332  1.00  0.00     0.167 HD
ATOM     54  C   UNL     1      -4.321   2.624  11.808  1.00  0.00     0.037 A 
ATOM     55  C   UNL     1       1.937  -0.258  10.565  1.00  0.00     0.037 A 
ATOM     56  C   UNL     1      -3.443   2.566  12.947  1.00  0.00     0.049 A 
ATOM     57  C   UNL     1       1.576   0.317  11.911  1.00  0.00     0.074 A 
ATOM     58  C   UNL     1      -3.686   2.983  14.244  1.00  0.00     0.029 A 
ATOM     59  N   UNL     1      -2.149   2.069  12.922  1.00  0.00    -0.354 N 
ATOM     60  N   UNL     1       0.449   0.857  12.308  1.00  0.00    -0.248 NA
ATOM     61  C   UNL     1       2.615   0.271  12.950  1.00  0.00     0.031 C 
ATOM     62  C   UNL     1      -2.518   2.791  14.990  1.00  0.00     0.029 A 
ATOM     63  C   UNL     1      -1.571   2.193  14.175  1.00  0.00     0.049 A 
ATOM     64  H   UNL     1      -1.707   1.685  12.131  1.00  0.00     0.167 HD
ATOM     65  C   UNL     1       0.630   1.181  13.648  1.00  0.00     0.074 A 
ATOM     66  C   UNL     1       1.972   0.764  13.999  1.00  0.00     0.031 C 
ATOM     67  C   UNL     1      -0.236   1.767  14.512  1.00  0.00     0.037 A 
BRANCH  54  68
ATOM     68  C   UNL     1      -5.679   3.243  11.980  1.00  0.00     0.057 A 
ATOM     69  C   UNL     1      -6.856   2.485  11.921  1.00  0.00     0.134 A 
ATOM     70  C   UNL     1      -5.809   4.615  12.230  1.00  0.00     0.134 A 
ATOM     71  F   UNL     1      -6.805   1.168  11.669  1.00  0.00    -0.206 F 
ATOM     72  C   UNL     1      -8.113   3.073  12.077  1.00  0.00     0.040 A 
ATOM     73  C   UNL     1      -7.057   5.209  12.418  1.00  0.00     0.040 A 
ATOM     74  F   UNL     1      -4.723   5.400  12.304  1.00  0.00    -0.206 F 
ATOM     75  C   UNL     1      -8.215   4.439  12.334  1.00  0.00     0.006 A 
ENDBRANCH  54  68
BRANCH  55  76
ATOM     76  C   UNL     1       3.283  -0.844  10.332  1.00  0.00     0.057 A 
ATOM     77  C   UNL     1       3.689  -2.016  10.980  1.00  0.00     0.134 A 
ATOM     78  C   UNL     1       4.208  -0.226   9.482  1.00  0.00     0.134 A 
ATOM     79  F   UNL     1       2.858  -2.642  11.827  1.00  0.00    -0.206 F 
ATOM     80  C   UNL     1       4.971  -2.541  10.809  1.00  0.00     0.040 A 
ATOM     81  C   UNL     1       5.484  -0.755   9.278  1.00  0.00     0.040 A 
ATOM     82  F   UNL     1       3.884   0.900   8.830  1.00  0.00    -0.206 F 
ATOM     83  C   UNL     1       5.871  -1.912   9.951  1.00  0.00     0.006 A 
ENDBRANCH  55  76
BRANCH  67  84
ATOM     84  C   UNL     1       0.221   1.948  15.933  1.00  0.00     0.057 A 
ATOM     85  C   UNL     1       1.216   2.868  16.287  1.00  0.00     0.134 A 
ATOM     86  C   UNL     1      -0.369   1.208  16.968  1.00  0.00     0.134 A 
ATOM     87  F   UNL     1       1.829   3.602  15.345  1.00  0.00    -0.206 F 
ATOM     88  C   UNL     1       1.631   3.022  17.611  1.00  0.00     0.040 A 
ATOM     89  C   UNL     1       0.014   1.377  18.299  1.00  0.00     0.040 A 
ATOM     90  F   UNL     1      -1.337   0.318  16.704  1.00  0.00    -0.206 F 
ATOM     91  C   UNL     1       1.024   2.280  18.622  1.00  0.00     0.006 A 
ENDBRANCH  67  84
ENDBRANCH  41  42
ENDBRANCH  34  36
ENDBRANCH  33  34
ENDBRANCH  32  33
ENDBRANCH  31  32
ENDBRANCH  30  31
ENDBRANCH  29  30
ENDBRANCH  28  29
ENDBRANCH  27  28
ENDBRANCH   1  27
TORSDOF 24
