REMARK SMILES N#CCC[NH+]1CC[NH+]([C@@H](C(=O)OCCOCCOCCOCCOC(=O)c2ccc(-c3c4nc(c(-c5c(F)cccc5F)c5ccc([nH]5)c(-c5c(F)cccc5F)c5nc(c(-c6c(F)cccc6F)c6ccc3[nH]6)C=C5)C=C4)cc2)c2c[nH]c3cc(Cl)ccc23)CC1
REMARK SMILES IDX 17 1 16 2 15 3 14 4 13 5 12 6 10 7 11 8 9 9 8 10 5 11 6 12
REMARK SMILES IDX 92 13 7 15 91 16 4 18 3 19 2 20 1 21 81 22 82 23 90 24 83 25
REMARK SMILES IDX 84 26 89 27 85 29 88 30 86 31 87 32 18 33 19 34 20 35 21 36
REMARK SMILES IDX 22 37 23 38 24 39 25 40 26 41 27 42 28 43 80 44 29 45 79 46
REMARK SMILES IDX 30 47 31 48 32 49 73 50 33 51 78 52 72 53 74 54 34 55 77 56
REMARK SMILES IDX 71 57 70 58 35 60 61 61 44 62 60 63 45 64 48 65 59 66 75 67
REMARK SMILES IDX 46 68 47 69 58 71 76 72 49 73 36 74 37 75 42 76 38 77 39 78
REMARK SMILES IDX 41 79 43 80 40 81 62 82 63 83 68 84 64 85 65 86 67 87 69 88
REMARK SMILES IDX 66 89 50 90 51 91 56 92 52 93 53 94 55 95 57 96 54 97
REMARK H PARENT 5 14 8 17 83 28 74 59 48 70
REMARK Flexibility Score: inf
ROOT
ATOM      1  C   UNL     1       5.242  -4.238  -3.633  1.00  0.00     0.188 C 
ENDROOT
BRANCH   1   2
ATOM      2  C   UNL     1       4.211  -5.220  -4.185  1.00  0.00     0.188 C 
BRANCH   2   3
ATOM      3  O   UNL     1       3.340  -4.676  -5.176  1.00  0.00    -0.376 OA
BRANCH   3   4
ATOM      4  C   UNL     1       2.419  -3.675  -4.740  1.00  0.00     0.202 C 
BRANCH   4   5
ATOM      5  C   UNL     1       1.329  -4.150  -3.764  1.00  0.00     0.261 C 
BRANCH   5   6
ATOM      6  O   UNL     1       1.845  -4.508  -2.459  1.00  0.00    -0.459 OA
BRANCH   6   7
ATOM      7  C   UNL     1       1.757  -5.773  -1.963  1.00  0.00     0.370 C 
ATOM      8  O   UNL     1       1.281  -6.694  -2.624  1.00  0.00    -0.245 OA
BRANCH   7   9
ATOM      9  C   UNL     1       2.283  -5.966  -0.495  1.00  0.00     0.328 C 
BRANCH   9  10
ATOM     10  N   UNL     1       2.050  -4.878   0.569  1.00  0.00    -0.310 N 
ATOM     11  N   UNL     1       3.908  -2.508   0.255  1.00  0.00    -0.325 N 
ATOM     12  C   UNL     1       4.293  -3.704   1.006  1.00  0.00     0.324 C 
ATOM     13  C   UNL     1       2.708  -2.767  -0.544  1.00  0.00     0.324 C 
ATOM     14  H   UNL     1       4.608  -2.311  -0.460  1.00  0.00     0.348 HD
ATOM     15  C   UNL     1       3.111  -4.548   1.546  1.00  0.00     0.325 C 
ATOM     16  C   UNL     1       1.558  -3.578   0.097  1.00  0.00     0.325 C 
ATOM     17  H   UNL     1       1.330  -5.420   1.046  1.00  0.00     0.349 HD
BRANCH  11  18
ATOM     18  C   UNL     1       4.096  -1.237   0.938  1.00  0.00     0.278 C 
BRANCH  18  19
ATOM     19  C   UNL     1       3.737   0.004   0.090  1.00  0.00     0.181 C 
BRANCH  19  20
ATOM     20  C   UNL     1       2.217   0.004   0.090  1.00  0.00     0.068 C 
ATOM     21  N   UNL     1       0.957   0.004   0.090  1.00  0.00    -0.198 NA
ENDBRANCH  19  20
ENDBRANCH  18  19
ENDBRANCH  11  18
ENDBRANCH   9  10
BRANCH   9  22
ATOM     22  C   UNL     1       3.510  -6.884  -0.229  1.00  0.00     0.046 A 
ATOM     23  C   UNL     1       3.543  -7.895   0.728  1.00  0.00     0.094 A 
ATOM     24  C   UNL     1       4.922  -6.832  -0.495  1.00  0.00     0.009 A 
ATOM     25  N   UNL     1       4.550  -7.488   1.571  1.00  0.00    -0.361 N 
ATOM     26  C   UNL     1       5.509  -6.911   0.775  1.00  0.00     0.047 A 
ATOM     27  C   UNL     1       5.818  -6.850  -1.581  1.00  0.00     0.012 A 
ATOM     28  H   UNL     1       4.579  -7.590   2.550  1.00  0.00     0.166 HD
ATOM     29  C   UNL     1       6.831  -6.571   1.054  1.00  0.00     0.047 A 
ATOM     30  C   UNL     1       7.202  -6.708  -1.337  1.00  0.00     0.021 A 
ATOM     31  C   UNL     1       7.678  -6.488  -0.045  1.00  0.00     0.043 A 
ATOM     32  Cl  UNL     1       9.353  -6.190   0.226  1.00  0.00    -0.084 Cl
ENDBRANCH   9  22
ENDBRANCH   7   9
ENDBRANCH   6   7
ENDBRANCH   5   6
ENDBRANCH   4   5
ENDBRANCH   3   4
ENDBRANCH   2   3
ENDBRANCH   1   2
BRANCH   1  33
ATOM     33  O   UNL     1       4.612  -3.139  -3.007  1.00  0.00    -0.377 OA
BRANCH  33  34
ATOM     34  C   UNL     1       5.342  -1.933  -2.860  1.00  0.00     0.188 C 
BRANCH  34  35
ATOM     35  C   UNL     1       6.793  -1.900  -3.330  1.00  0.00     0.188 C 
BRANCH  35  36
ATOM     36  O   UNL     1       7.715  -2.761  -2.668  1.00  0.00    -0.376 OA
BRANCH  36  37
ATOM     37  C   UNL     1       7.529  -3.024  -1.279  1.00  0.00     0.202 C 
BRANCH  37  38
ATOM     38  C   UNL     1       8.013  -1.961  -0.293  1.00  0.00     0.261 C 
BRANCH  38  39
ATOM     39  O   UNL     1       7.263  -0.744  -0.383  1.00  0.00    -0.460 OA
BRANCH  39  40
ATOM     40  C   UNL     1       7.849   0.233  -1.118  1.00  0.00     0.338 C 
ATOM     41  O   UNL     1       8.908   0.210  -1.697  1.00  0.00    -0.246 OA
BRANCH  40  42
ATOM     42  C   UNL     1       6.878   1.331  -1.228  1.00  0.00     0.060 A 
ATOM     43  C   UNL     1       6.422   1.701  -2.498  1.00  0.00     0.016 A 
ATOM     44  C   UNL     1       6.459   2.006  -0.082  1.00  0.00     0.016 A 
ATOM     45  C   UNL     1       5.553   2.775  -2.630  1.00  0.00     0.010 A 
ATOM     46  C   UNL     1       5.593   3.089  -0.214  1.00  0.00     0.010 A 
ATOM     47  C   UNL     1       5.176   3.498  -1.493  1.00  0.00    -0.014 A 
BRANCH  47  48
ATOM     48  C   UNL     1       4.582   4.836  -1.672  1.00  0.00     0.031 A 
ATOM     49  C   UNL     1       5.497   6.020  -1.540  1.00  0.00     0.074 A 
ATOM     50  C   UNL     1       3.287   4.984  -1.991  1.00  0.00     0.049 A 
ATOM     51  N   UNL     1       5.222   7.294  -1.601  1.00  0.00    -0.248 NA
ATOM     52  C   UNL     1       6.920   5.721  -1.294  1.00  0.00     0.031 C 
ATOM     53  C   UNL     1       2.333   3.895  -2.195  1.00  0.00     0.029 A 
ATOM     54  N   UNL     1       2.553   6.121  -2.198  1.00  0.00    -0.354 N 
ATOM     55  C   UNL     1       6.431   7.945  -1.387  1.00  0.00     0.074 A 
ATOM     56  C   UNL     1       7.432   6.932  -1.152  1.00  0.00     0.031 C 
ATOM     57  C   UNL     1       1.131   4.420  -2.491  1.00  0.00     0.029 A 
ATOM     58  C   UNL     1       1.228   5.878  -2.462  1.00  0.00     0.049 A 
ATOM     59  H   UNL     1       2.939   7.026  -2.160  1.00  0.00     0.167 HD
ATOM     60  C   UNL     1       6.682   9.273  -1.402  1.00  0.00     0.037 A 
ATOM     61  C   UNL     1       0.214   6.745  -2.636  1.00  0.00     0.037 A 
ATOM     62  C   UNL     1       5.674  10.267  -1.647  1.00  0.00     0.049 A 
ATOM     63  C   UNL     1       0.505   8.223  -2.574  1.00  0.00     0.074 A 
ATOM     64  C   UNL     1       5.812  11.641  -1.696  1.00  0.00     0.029 A 
ATOM     65  N   UNL     1       4.335   9.986  -1.881  1.00  0.00    -0.354 N 
ATOM     66  N   UNL     1       1.651   8.834  -2.385  1.00  0.00    -0.248 NA
ATOM     67  C   UNL     1      -0.636   9.130  -2.754  1.00  0.00     0.031 C 
ATOM     68  C   UNL     1       4.545  12.195  -1.900  1.00  0.00     0.029 A 
ATOM     69  C   UNL     1       3.629  11.163  -2.047  1.00  0.00     0.049 A 
ATOM     70  H   UNL     1       3.946   9.082  -1.922  1.00  0.00     0.167 HD
ATOM     71  C   UNL     1       1.375  10.194  -2.455  1.00  0.00     0.074 A 
ATOM     72  C   UNL     1      -0.045  10.316  -2.717  1.00  0.00     0.031 C 
ATOM     73  C   UNL     1       2.216  11.250  -2.318  1.00  0.00     0.037 A 
BRANCH  60  74
ATOM     74  C   UNL     1       8.086   9.713  -1.110  1.00  0.00     0.057 A 
ATOM     75  C   UNL     1       9.144   9.475  -1.999  1.00  0.00     0.134 A 
ATOM     76  C   UNL     1       8.385  10.387   0.081  1.00  0.00     0.134 A 
ATOM     77  F   UNL     1       8.933   8.811  -3.146  1.00  0.00    -0.206 F 
ATOM     78  C   UNL     1      10.450   9.868  -1.702  1.00  0.00     0.040 A 
ATOM     79  C   UNL     1       9.681  10.813   0.374  1.00  0.00     0.040 A 
ATOM     80  F   UNL     1       7.421  10.643   0.978  1.00  0.00    -0.206 F 
ATOM     81  C   UNL     1      10.719  10.547  -0.515  1.00  0.00     0.006 A 
ENDBRANCH  60  74
BRANCH  61  82
ATOM     82  C   UNL     1      -1.165   6.246  -2.869  1.00  0.00     0.057 A 
ATOM     83  C   UNL     1      -1.817   6.448  -4.091  1.00  0.00     0.134 A 
ATOM     84  C   UNL     1      -1.873   5.569  -1.868  1.00  0.00     0.134 A 
ATOM     85  F   UNL     1      -1.200   7.106  -5.084  1.00  0.00    -0.206 F 
ATOM     86  C   UNL     1      -3.127   6.015  -4.303  1.00  0.00     0.040 A 
ATOM     87  C   UNL     1      -3.173   5.104  -2.075  1.00  0.00     0.040 A 
ATOM     88  F   UNL     1      -1.307   5.343  -0.673  1.00  0.00    -0.206 F 
ATOM     89  C   UNL     1      -3.807   5.336  -3.294  1.00  0.00     0.006 A 
ENDBRANCH  61  82
BRANCH  73  90
ATOM     90  C   UNL     1       1.633  12.622  -2.496  1.00  0.00     0.057 A 
ATOM     91  C   UNL     1       0.772  13.193  -1.551  1.00  0.00     0.134 A 
ATOM     92  C   UNL     1       1.983  13.401  -3.607  1.00  0.00     0.134 A 
ATOM     93  F   UNL     1       0.391  12.496  -0.470  1.00  0.00    -0.206 F 
ATOM     94  C   UNL     1       0.259  14.480  -1.718  1.00  0.00     0.040 A 
ATOM     95  C   UNL     1       1.503  14.701  -3.768  1.00  0.00     0.040 A 
ATOM     96  F   UNL     1       2.816  12.920  -4.543  1.00  0.00    -0.206 F 
ATOM     97  C   UNL     1       0.632  15.241  -2.825  1.00  0.00     0.006 A 
ENDBRANCH  73  90
ENDBRANCH  47  48
ENDBRANCH  40  42
ENDBRANCH  39  40
ENDBRANCH  38  39
ENDBRANCH  37  38
ENDBRANCH  36  37
ENDBRANCH  35  36
ENDBRANCH  34  35
ENDBRANCH  33  34
ENDBRANCH   1  33
TORSDOF 25
