REMARK SMILES [NH3+][C@@]1(C(=O)OCCOCCOCCOCCOC(=O)c2ccc(-c3c4nc(c(-c5c(F)cccc5F)c5ccc([nH]5)c(-c5c(F)cccc5F)c5nc(c(-c6c(F)cccc6F)c6ccc3[nH]6)C=C5)C=C4)cc2)CCC[C@@H](Oc2ccccc2[N+](=O)[O-])C1
REMARK SMILES IDX 10 1 9 2 8 3 7 4 6 5 5 6 3 7 4 8 2 9 74 10 88 11 75 12 77 13
REMARK SMILES IDX 76 14 1 15 78 19 79 20 80 21 84 22 81 23 83 24 82 25 85 26
REMARK SMILES IDX 86 27 87 28 11 29 12 30 13 31 14 32 15 33 16 34 17 35 18 36
REMARK SMILES IDX 19 37 20 38 21 39 73 40 22 41 72 42 23 43 24 44 25 45 66 46
REMARK SMILES IDX 26 47 71 48 65 49 67 50 27 51 70 52 64 53 63 54 28 56 54 57
REMARK SMILES IDX 37 58 53 59 38 60 41 61 52 62 68 63 39 64 40 65 51 67 69 68
REMARK SMILES IDX 42 69 29 70 30 71 35 72 31 73 32 74 34 75 36 76 33 77 55 78
REMARK SMILES IDX 56 79 61 80 57 81 58 82 60 83 62 84 59 85 43 86 44 87 49 88
REMARK SMILES IDX 45 89 46 90 48 91 50 92 47 93
REMARK H PARENT 1 16 1 17 1 18 67 55 41 66
REMARK Flexibility Score: inf
ROOT
ATOM      1  C   UNL     1      -3.129  -2.233   0.431  1.00  0.00     0.188 C 
ENDROOT
BRANCH   1   2
ATOM      2  C   UNL     1      -3.172  -1.546   1.815  1.00  0.00     0.188 C 
BRANCH   2   3
ATOM      3  O   UNL     1      -4.301  -0.794   2.243  1.00  0.00    -0.376 OA
BRANCH   3   4
ATOM      4  C   UNL     1      -5.060  -0.027   1.324  1.00  0.00     0.202 C 
BRANCH   4   5
ATOM      5  C   UNL     1      -4.378   0.993   0.404  1.00  0.00     0.261 C 
BRANCH   5   6
ATOM      6  O   UNL     1      -3.067   0.644  -0.038  1.00  0.00    -0.459 OA
BRANCH   6   7
ATOM      7  C   UNL     1      -2.002   1.095   0.697  1.00  0.00     0.368 C 
ATOM      8  O   UNL     1      -2.081   1.766   1.715  1.00  0.00    -0.245 OA
BRANCH   7   9
ATOM      9  C   UNL     1      -0.670   0.590   0.048  1.00  0.00     0.196 C 
ATOM     10  C   UNL     1       0.120  -0.401   0.924  1.00  0.00     0.081 C 
ATOM     11  C   UNL     1       0.192   1.835  -0.199  1.00  0.00     0.126 C 
ATOM     12  C   UNL     1       1.452  -0.808   0.282  1.00  0.00     0.011 C 
ATOM     13  C   UNL     1       1.585   1.561  -0.778  1.00  0.00     0.180 C 
ATOM     14  C   UNL     1       2.319   0.391  -0.096  1.00  0.00     0.046 C 
BRANCH   9  15
ATOM     15  N   UNL     1      -0.987  -0.084  -1.226  1.00  0.00    -0.343 N 
ATOM     16  H   UNL     1      -0.125  -0.417  -1.658  1.00  0.00     0.345 HD
ATOM     17  H   UNL     1      -1.449   0.574  -1.853  1.00  0.00     0.345 HD
ATOM     18  H   UNL     1      -1.606  -0.875  -1.048  1.00  0.00     0.345 HD
ENDBRANCH   9  15
BRANCH  13  19
ATOM     19  O   UNL     1       1.705   1.664  -2.216  1.00  0.00    -0.483 OA
BRANCH  19  20
ATOM     20  C   UNL     1       1.087   0.746  -3.011  1.00  0.00     0.197 A 
ATOM     21  C   UNL     1       1.764  -0.447  -3.281  1.00  0.00     0.054 A 
ATOM     22  C   UNL     1      -0.153   0.964  -3.639  1.00  0.00     0.310 A 
ATOM     23  C   UNL     1       1.167  -1.453  -4.049  1.00  0.00     0.004 A 
ATOM     24  C   UNL     1      -0.764  -0.053  -4.400  1.00  0.00     0.090 A 
ATOM     25  C   UNL     1      -0.106  -1.267  -4.587  1.00  0.00     0.007 A 
BRANCH  22  26
ATOM     26  N   UNL     1      -0.920   2.186  -3.413  1.00  0.00     0.066 N 
ATOM     27  O   UNL     1      -2.157   2.080  -3.338  1.00  0.00    -0.258 OA
ATOM     28  O   UNL     1      -0.309   3.261  -3.347  1.00  0.00    -0.258 OA
ENDBRANCH  22  26
ENDBRANCH  19  20
ENDBRANCH  13  19
ENDBRANCH   7   9
ENDBRANCH   6   7
ENDBRANCH   5   6
ENDBRANCH   4   5
ENDBRANCH   3   4
ENDBRANCH   2   3
ENDBRANCH   1   2
BRANCH   1  29
ATOM     29  O   UNL     1      -4.313  -2.106  -0.335  1.00  0.00    -0.377 OA
BRANCH  29  30
ATOM     30  C   UNL     1      -5.175  -3.237  -0.259  1.00  0.00     0.188 C 
BRANCH  30  31
ATOM     31  C   UNL     1      -5.497  -3.754   1.159  1.00  0.00     0.188 C 
BRANCH  31  32
ATOM     32  O   UNL     1      -4.336  -4.033   1.932  1.00  0.00    -0.376 OA
BRANCH  32  33
ATOM     33  C   UNL     1      -3.942  -5.374   2.163  1.00  0.00     0.202 C 
BRANCH  33  34
ATOM     34  C   UNL     1      -3.272  -6.093   0.983  1.00  0.00     0.261 C 
BRANCH  34  35
ATOM     35  O   UNL     1      -4.037  -6.126  -0.228  1.00  0.00    -0.460 OA
BRANCH  35  36
ATOM     36  C   UNL     1      -5.223  -6.769  -0.183  1.00  0.00     0.338 C 
ATOM     37  O   UNL     1      -5.700  -7.376   0.759  1.00  0.00    -0.246 OA
BRANCH  36  38
ATOM     38  C   UNL     1      -5.953  -6.420  -1.417  1.00  0.00     0.060 A 
ATOM     39  C   UNL     1      -7.188  -5.769  -1.305  1.00  0.00     0.016 A 
ATOM     40  C   UNL     1      -5.395  -6.679  -2.672  1.00  0.00     0.016 A 
ATOM     41  C   UNL     1      -7.873  -5.375  -2.452  1.00  0.00     0.010 A 
ATOM     42  C   UNL     1      -6.100  -6.318  -3.820  1.00  0.00     0.010 A 
ATOM     43  C   UNL     1      -7.349  -5.682  -3.713  1.00  0.00    -0.014 A 
BRANCH  43  44
ATOM     44  C   UNL     1      -8.197  -5.515  -4.913  1.00  0.00     0.031 A 
ATOM     45  C   UNL     1      -9.001  -6.695  -5.379  1.00  0.00     0.074 A 
ATOM     46  C   UNL     1      -8.260  -4.342  -5.565  1.00  0.00     0.049 A 
ATOM     47  N   UNL     1      -9.768  -6.814  -6.429  1.00  0.00    -0.248 NA
ATOM     48  C   UNL     1      -8.926  -7.905  -4.543  1.00  0.00     0.031 C 
ATOM     49  C   UNL     1      -7.563  -3.118  -5.178  1.00  0.00     0.029 A 
ATOM     50  N   UNL     1      -8.942  -3.999  -6.705  1.00  0.00    -0.354 N 
ATOM     51  C   UNL     1     -10.265  -8.110  -6.383  1.00  0.00     0.074 A 
ATOM     52  C   UNL     1      -9.694  -8.746  -5.217  1.00  0.00     0.031 C 
ATOM     53  C   UNL     1      -7.837  -2.159  -6.080  1.00  0.00     0.029 A 
ATOM     54  C   UNL     1      -8.698  -2.714  -7.123  1.00  0.00     0.049 A 
ATOM     55  H   UNL     1      -9.547  -4.614  -7.178  1.00  0.00     0.167 HD
ATOM     56  C   UNL     1     -11.124  -8.713  -7.237  1.00  0.00     0.037 A 
ATOM     57  C   UNL     1      -9.103  -2.075  -8.239  1.00  0.00     0.037 A 
ATOM     58  C   UNL     1     -11.679  -8.078  -8.402  1.00  0.00     0.049 A 
ATOM     59  C   UNL     1      -9.987  -2.799  -9.222  1.00  0.00     0.074 A 
ATOM     60  C   UNL     1     -12.574  -8.596  -9.321  1.00  0.00     0.029 A 
ATOM     61  N   UNL     1     -11.378  -6.789  -8.816  1.00  0.00    -0.354 N 
ATOM     62  N   UNL     1     -10.479  -4.013  -9.157  1.00  0.00    -0.248 NA
ATOM     63  C   UNL     1     -10.370  -2.063 -10.436  1.00  0.00     0.031 C 
ATOM     64  C   UNL     1     -12.768  -7.641 -10.324  1.00  0.00     0.029 A 
ATOM     65  C   UNL     1     -12.041  -6.507  -9.998  1.00  0.00     0.049 A 
ATOM     66  H   UNL     1     -10.782  -6.167  -8.340  1.00  0.00     0.167 HD
ATOM     67  C   UNL     1     -11.246  -4.177 -10.305  1.00  0.00     0.074 A 
ATOM     68  C   UNL     1     -11.169  -2.932 -11.039  1.00  0.00     0.031 C 
ATOM     69  C   UNL     1     -11.951  -5.261 -10.716  1.00  0.00     0.037 A 
BRANCH  56  70
ATOM     70  C   UNL     1     -11.483 -10.143  -6.962  1.00  0.00     0.057 A 
ATOM     71  C   UNL     1     -12.305 -10.510  -5.889  1.00  0.00     0.134 A 
ATOM     72  C   UNL     1     -11.019 -11.164  -7.800  1.00  0.00     0.134 A 
ATOM     73  F   UNL     1     -12.765  -9.582  -5.036  1.00  0.00    -0.206 F 
ATOM     74  C   UNL     1     -12.640 -11.844  -5.650  1.00  0.00     0.040 A 
ATOM     75  C   UNL     1     -11.369 -12.498  -7.588  1.00  0.00     0.040 A 
ATOM     76  F   UNL     1     -10.226 -10.882  -8.844  1.00  0.00    -0.206 F 
ATOM     77  C   UNL     1     -12.178 -12.841  -6.506  1.00  0.00     0.006 A 
ENDBRANCH  56  70
BRANCH  57  78
ATOM     78  C   UNL     1      -8.653  -0.685  -8.509  1.00  0.00     0.057 A 
ATOM     79  C   UNL     1      -9.555   0.385  -8.514  1.00  0.00     0.134 A 
ATOM     80  C   UNL     1      -7.313  -0.399  -8.802  1.00  0.00     0.134 A 
ATOM     81  F   UNL     1     -10.856   0.173  -8.267  1.00  0.00    -0.206 F 
ATOM     82  C   UNL     1      -9.146   1.685  -8.819  1.00  0.00     0.040 A 
ATOM     83  C   UNL     1      -6.886   0.900  -9.082  1.00  0.00     0.040 A 
ATOM     84  F   UNL     1      -6.398  -1.380  -8.816  1.00  0.00    -0.206 F 
ATOM     85  C   UNL     1      -7.806   1.946  -9.099  1.00  0.00     0.006 A 
ENDBRANCH  57  78
BRANCH  69  86
ATOM     86  C   UNL     1     -12.714  -5.140 -12.004  1.00  0.00     0.057 A 
ATOM     87  C   UNL     1     -12.068  -5.100 -13.246  1.00  0.00     0.134 A 
ATOM     88  C   UNL     1     -14.115  -5.112 -12.004  1.00  0.00     0.134 A 
ATOM     89  F   UNL     1     -10.728  -5.114 -13.317  1.00  0.00    -0.206 F 
ATOM     90  C   UNL     1     -12.787  -5.012 -14.440  1.00  0.00     0.040 A 
ATOM     91  C   UNL     1     -14.845  -5.054 -13.192  1.00  0.00     0.040 A 
ATOM     92  F   UNL     1     -14.798  -5.160 -10.850  1.00  0.00    -0.206 F 
ATOM     93  C   UNL     1     -14.180  -4.997 -14.415  1.00  0.00     0.006 A 
ENDBRANCH  69  86
ENDBRANCH  43  44
ENDBRANCH  36  38
ENDBRANCH  35  36
ENDBRANCH  34  35
ENDBRANCH  33  34
ENDBRANCH  32  33
ENDBRANCH  31  32
ENDBRANCH  30  31
ENDBRANCH  29  30
ENDBRANCH   1  29
TORSDOF 24
