REMARK SMILES Nn1c(S[C@@H](C(=O)OCCOCCOCCOCCOC(=O)c2ccc(-c3c4nc(c(-c5c(F)cccc5F)c5ccc([nH]5)c(-c5c(F)cccc5F)c5nc(c(-c6c(F)cccc6F)c6ccc3[nH]6)C=C5)C=C4)cc2)c2ccccc2)nc2ccc(Br)cc2c1=O
REMARK SMILES IDX 13 1 12 2 11 3 10 4 9 5 8 6 6 7 7 8 5 9 4 10 3 11 2 12 91 13
REMARK SMILES IDX 83 14 90 15 92 16 84 17 89 18 85 19 87 20 86 21 88 22 1 23
REMARK SMILES IDX 77 26 78 27 82 28 79 29 81 30 80 31 14 32 15 33 16 34 17 35
REMARK SMILES IDX 18 36 19 37 20 38 21 39 22 40 23 41 24 42 76 43 25 44 75 45
REMARK SMILES IDX 26 46 27 47 28 48 69 49 29 50 74 51 68 52 70 53 30 54 73 55
REMARK SMILES IDX 67 56 66 57 31 59 57 60 40 61 56 62 41 63 44 64 55 65 71 66
REMARK SMILES IDX 42 67 43 68 54 70 72 71 45 72 32 73 33 74 38 75 34 76 35 77
REMARK SMILES IDX 37 78 39 79 36 80 58 81 59 82 64 83 60 84 61 85 63 86 65 87
REMARK SMILES IDX 62 88 46 89 47 90 52 91 48 92 49 93 51 94 53 95 50 96
REMARK H PARENT 1 24 1 25 70 58 44 69
REMARK Flexibility Score: inf
ROOT
ATOM      1  C   UNL     1       2.459  -1.880  -0.104  1.00  0.00     0.188 C 
ENDROOT
BRANCH   1   2
ATOM      2  C   UNL     1       2.772  -1.094  -1.385  1.00  0.00     0.188 C 
BRANCH   2   3
ATOM      3  O   UNL     1       4.111  -1.035  -1.842  1.00  0.00    -0.376 OA
BRANCH   3   4
ATOM      4  C   UNL     1       5.145  -0.880  -0.884  1.00  0.00     0.202 C 
BRANCH   4   5
ATOM      5  C   UNL     1       5.145   0.352   0.032  1.00  0.00     0.261 C 
BRANCH   5   6
ATOM      6  O   UNL     1       4.094   0.431   1.025  1.00  0.00    -0.462 OA
BRANCH   6   7
ATOM      7  C   UNL     1       3.130   1.381   0.804  1.00  0.00     0.324 C 
ATOM      8  O   UNL     1       3.098   2.031  -0.239  1.00  0.00    -0.251 OA
BRANCH   7   9
ATOM      9  C   UNL     1       2.219   1.666   2.040  1.00  0.00     0.194 C 
BRANCH   9  10
ATOM     10  S   UNL     1       1.608   0.197   2.883  1.00  0.00    -0.066 SA
BRANCH  10  11
ATOM     11  C   UNL     1       0.165  -0.521   2.189  1.00  0.00     0.191 A 
ATOM     12  N   UNL     1      -0.355  -0.255   0.920  1.00  0.00    -0.202 N 
ATOM     13  C   UNL     1      -1.553  -0.834   0.477  1.00  0.00     0.280 A 
ATOM     14  N   UNL     1      -0.398  -1.381   2.986  1.00  0.00    -0.222 NA
ATOM     15  C   UNL     1      -2.123  -1.885   1.327  1.00  0.00     0.069 A 
ATOM     16  O   UNL     1      -2.091  -0.545  -0.592  1.00  0.00    -0.267 OA
ATOM     17  C   UNL     1      -1.497  -2.128   2.546  1.00  0.00     0.079 A 
ATOM     18  C   UNL     1      -3.158  -2.705   0.855  1.00  0.00     0.031 A 
ATOM     19  C   UNL     1      -1.927  -3.219   3.308  1.00  0.00     0.030 A 
ATOM     20  C   UNL     1      -3.549  -3.804   1.615  1.00  0.00     0.018 A 
ATOM     21  C   UNL     1      -2.941  -4.065   2.841  1.00  0.00     0.018 A 
ATOM     22  Br  UNL     1      -4.854  -4.994   0.941  1.00  0.00    -0.051 Br
BRANCH  12  23
ATOM     23  N   UNL     1       0.313   0.536  -0.049  1.00  0.00    -0.334 N 
ATOM     24  H   UNL     1       1.162   0.980   0.178  1.00  0.00     0.178 HD
ATOM     25  H   UNL     1      -0.072   0.642  -0.949  1.00  0.00     0.178 HD
ENDBRANCH  12  23
ENDBRANCH  10  11
ENDBRANCH   9  10
BRANCH   9  26
ATOM     26  C   UNL     1       1.267   2.853   1.814  1.00  0.00    -0.023 A 
ATOM     27  C   UNL     1      -0.121   2.816   2.008  1.00  0.00     0.005 A 
ATOM     28  C   UNL     1       1.807   4.027   1.250  1.00  0.00     0.005 A 
ATOM     29  C   UNL     1      -0.946   3.777   1.414  1.00  0.00     0.000 A 
ATOM     30  C   UNL     1       0.989   5.001   0.684  1.00  0.00     0.000 A 
ATOM     31  C   UNL     1      -0.390   4.846   0.719  1.00  0.00     0.000 A 
ENDBRANCH   9  26
ENDBRANCH   7   9
ENDBRANCH   6   7
ENDBRANCH   5   6
ENDBRANCH   4   5
ENDBRANCH   3   4
ENDBRANCH   2   3
ENDBRANCH   1   2
BRANCH   1  32
ATOM     32  O   UNL     1       3.209  -3.027   0.230  1.00  0.00    -0.377 OA
BRANCH  32  33
ATOM     33  C   UNL     1       3.461  -3.996  -0.762  1.00  0.00     0.188 C 
BRANCH  33  34
ATOM     34  C   UNL     1       2.412  -4.317  -1.839  1.00  0.00     0.188 C 
BRANCH  34  35
ATOM     35  O   UNL     1       1.176  -3.624  -1.730  1.00  0.00    -0.376 OA
BRANCH  35  36
ATOM     36  C   UNL     1       0.034  -4.411  -1.411  1.00  0.00     0.202 C 
BRANCH  36  37
ATOM     37  C   UNL     1      -0.123  -4.677   0.086  1.00  0.00     0.261 C 
BRANCH  37  38
ATOM     38  O   UNL     1       0.945  -5.415   0.676  1.00  0.00    -0.460 OA
BRANCH  38  39
ATOM     39  C   UNL     1       1.120  -6.682   0.254  1.00  0.00     0.338 C 
ATOM     40  O   UNL     1       0.466  -7.297  -0.569  1.00  0.00    -0.246 OA
BRANCH  39  41
ATOM     41  C   UNL     1       2.399  -7.111   0.832  1.00  0.00     0.060 A 
ATOM     42  C   UNL     1       2.613  -7.000   2.210  1.00  0.00     0.016 A 
ATOM     43  C   UNL     1       3.423  -7.508  -0.034  1.00  0.00     0.016 A 
ATOM     44  C   UNL     1       3.866  -7.301   2.729  1.00  0.00     0.010 A 
ATOM     45  C   UNL     1       4.684  -7.780   0.483  1.00  0.00     0.010 A 
ATOM     46  C   UNL     1       4.900  -7.704   1.868  1.00  0.00    -0.014 A 
BRANCH  46  47
ATOM     47  C   UNL     1       6.122  -8.298   2.437  1.00  0.00     0.031 A 
ATOM     48  C   UNL     1       7.380  -7.518   2.628  1.00  0.00     0.074 A 
ATOM     49  C   UNL     1       6.049  -9.604   2.751  1.00  0.00     0.049 A 
ATOM     50  N   UNL     1       8.513  -7.914   3.147  1.00  0.00    -0.248 NA
ATOM     51  C   UNL     1       7.373  -6.120   2.175  1.00  0.00     0.031 C 
ATOM     52  C   UNL     1       4.858 -10.441   2.572  1.00  0.00     0.029 A 
ATOM     53  N   UNL     1       6.981 -10.454   3.273  1.00  0.00    -0.354 N 
ATOM     54  C   UNL     1       9.354  -6.811   3.109  1.00  0.00     0.074 A 
ATOM     55  C   UNL     1       8.611  -5.741   2.472  1.00  0.00     0.031 C 
ATOM     56  C   UNL     1       5.131 -11.685   2.984  1.00  0.00     0.029 A 
ATOM     57  C   UNL     1       6.515 -11.733   3.435  1.00  0.00     0.049 A 
ATOM     58  H   UNL     1       7.895 -10.176   3.510  1.00  0.00     0.167 HD
ATOM     59  C   UNL     1      10.622  -6.712   3.578  1.00  0.00     0.037 A 
ATOM     60  C   UNL     1       7.141 -12.827   3.898  1.00  0.00     0.037 A 
ATOM     61  C   UNL     1      11.350  -7.809   4.171  1.00  0.00     0.049 A 
ATOM     62  C   UNL     1       8.561 -12.696   4.355  1.00  0.00     0.074 A 
ATOM     63  C   UNL     1      12.629  -7.816   4.700  1.00  0.00     0.029 A 
ATOM     64  N   UNL     1      10.863  -9.104   4.296  1.00  0.00    -0.354 N 
ATOM     65  N   UNL     1       9.325 -11.631   4.382  1.00  0.00    -0.248 NA
ATOM     66  C   UNL     1       9.201 -13.917   4.855  1.00  0.00     0.031 C 
ATOM     67  C   UNL     1      12.933  -9.123   5.099  1.00  0.00     0.029 A 
ATOM     68  C   UNL     1      11.826  -9.924   4.866  1.00  0.00     0.049 A 
ATOM     69  H   UNL     1       9.965  -9.398   4.021  1.00  0.00     0.167 HD
ATOM     70  C   UNL     1      10.532 -12.046   4.922  1.00  0.00     0.074 A 
ATOM     71  C   UNL     1      10.385 -13.457   5.230  1.00  0.00     0.031 C 
ATOM     72  C   UNL     1      11.662 -11.330   5.144  1.00  0.00     0.037 A 
BRANCH  59  73
ATOM     73  C   UNL     1      11.302  -5.377   3.459  1.00  0.00     0.057 A 
ATOM     74  C   UNL     1      12.387  -5.193   2.592  1.00  0.00     0.134 A 
ATOM     75  C   UNL     1      10.909  -4.279   4.237  1.00  0.00     0.134 A 
ATOM     76  F   UNL     1      12.825  -6.203   1.824  1.00  0.00    -0.206 F 
ATOM     77  C   UNL     1      13.052  -3.968   2.501  1.00  0.00     0.040 A 
ATOM     78  C   UNL     1      11.551  -3.042   4.137  1.00  0.00     0.040 A 
ATOM     79  F   UNL     1       9.875  -4.383   5.085  1.00  0.00    -0.206 F 
ATOM     80  C   UNL     1      12.630  -2.886   3.271  1.00  0.00     0.006 A 
ENDBRANCH  59  73
BRANCH  60  81
ATOM     81  C   UNL     1       6.413 -14.114   3.980  1.00  0.00     0.057 A 
ATOM     82  C   UNL     1       6.042 -14.819   2.829  1.00  0.00     0.134 A 
ATOM     83  C   UNL     1       6.056 -14.658   5.217  1.00  0.00     0.134 A 
ATOM     84  F   UNL     1       6.340 -14.337   1.613  1.00  0.00    -0.206 F 
ATOM     85  C   UNL     1       5.339 -16.021   2.905  1.00  0.00     0.040 A 
ATOM     86  C   UNL     1       5.376 -15.873   5.310  1.00  0.00     0.040 A 
ATOM     87  F   UNL     1       6.389 -14.028   6.353  1.00  0.00    -0.206 F 
ATOM     88  C   UNL     1       5.012 -16.555   4.150  1.00  0.00     0.006 A 
ENDBRANCH  60  81
BRANCH  72  89
ATOM     89  C   UNL     1      12.809 -12.076   5.758  1.00  0.00     0.057 A 
ATOM     90  C   UNL     1      13.180 -11.846   7.089  1.00  0.00     0.134 A 
ATOM     91  C   UNL     1      13.529 -13.042   5.042  1.00  0.00     0.134 A 
ATOM     92  F   UNL     1      12.534 -10.934   7.829  1.00  0.00    -0.206 F 
ATOM     93  C   UNL     1      14.221 -12.556   7.687  1.00  0.00     0.040 A 
ATOM     94  C   UNL     1      14.552 -13.779   5.639  1.00  0.00     0.040 A 
ATOM     95  F   UNL     1      13.208 -13.324   3.770  1.00  0.00    -0.206 F 
ATOM     96  C   UNL     1      14.903 -13.534   6.965  1.00  0.00     0.006 A 
ENDBRANCH  72  89
ENDBRANCH  46  47
ENDBRANCH  39  41
ENDBRANCH  38  39
ENDBRANCH  37  38
ENDBRANCH  36  37
ENDBRANCH  35  36
ENDBRANCH  34  35
ENDBRANCH  33  34
ENDBRANCH  32  33
ENDBRANCH   1  32
TORSDOF 24
