REMARK SMILES C[C@](NC(=O)Cc1cccc(F)c1F)(C(=O)OCCOCCOCCOCCOC(=O)c1ccc(-c2c3nc(c(-c4c(F)cccc4F)c4ccc([nH]4)c(-c4c(F)cccc4F)c4nc(c(-c5c(F)cccc5F)c5ccc2[nH]5)C=C4)C=C3)cc1)C1CC1
REMARK SMILES IDX 22 1 21 2 20 3 19 4 18 5 17 6 15 7 16 8 2 9 1 10 86 11 87 12
REMARK SMILES IDX 88 13 3 14 4 15 5 17 6 18 7 19 8 20 13 21 9 22 11 23 14 24
REMARK SMILES IDX 10 25 12 26 23 27 24 28 25 29 26 30 27 31 28 32 29 33 30 34
REMARK SMILES IDX 31 35 32 36 33 37 85 38 34 39 84 40 35 41 36 42 37 43 78 44
REMARK SMILES IDX 38 45 83 46 77 47 79 48 39 49 82 50 76 51 75 52 40 54 66 55
REMARK SMILES IDX 49 56 65 57 50 58 53 59 64 60 80 61 51 62 52 63 63 65 81 66
REMARK SMILES IDX 54 67 41 68 42 69 47 70 43 71 44 72 46 73 48 74 45 75 67 76
REMARK SMILES IDX 68 77 73 78 69 79 70 80 72 81 74 82 71 83 55 84 56 85 61 86
REMARK SMILES IDX 57 87 58 88 60 89 62 90 59 91
REMARK H PARENT 3 16 79 53 53 64
REMARK Flexibility Score: inf
ROOT
ATOM      1  C   UNL     1      -1.569  -1.377  -0.211  1.00  0.00     0.188 C 
ENDROOT
BRANCH   1   2
ATOM      2  C   UNL     1      -2.076  -1.975   1.119  1.00  0.00     0.188 C 
BRANCH   2   3
ATOM      3  O   UNL     1      -3.368  -1.642   1.605  1.00  0.00    -0.376 OA
BRANCH   3   4
ATOM      4  C   UNL     1      -3.786  -0.287   1.558  1.00  0.00     0.202 C 
BRANCH   4   5
ATOM      5  C   UNL     1      -2.838   0.847   1.991  1.00  0.00     0.261 C 
BRANCH   5   6
ATOM      6  O   UNL     1      -1.456   0.748   1.585  1.00  0.00    -0.461 OA
BRANCH   6   7
ATOM      7  C   UNL     1      -0.518   0.679   2.570  1.00  0.00     0.331 C 
ATOM      8  O   UNL     1      -0.791   0.722   3.766  1.00  0.00    -0.249 OA
BRANCH   7   9
ATOM      9  C   UNL     1       0.951   0.394   2.039  1.00  0.00     0.138 C 
ATOM     10  C   UNL     1       1.938   1.297   2.799  1.00  0.00     0.048 C 
BRANCH   9  11
ATOM     11  C   UNL     1       1.295  -1.054   2.516  1.00  0.00     0.026 C 
ATOM     12  C   UNL     1       1.178  -2.349   1.728  1.00  0.00     0.007 C 
ATOM     13  C   UNL     1       2.533  -1.789   2.040  1.00  0.00     0.007 C 
ENDBRANCH   9  11
BRANCH   9  14
ATOM     14  N   UNL     1       1.173   0.484   0.576  1.00  0.00    -0.340 N 
ATOM     15  C   UNL     1       1.173   1.466  -0.359  1.00  0.00     0.225 C 
ATOM     16  H   UNL     1       1.371  -0.397   0.181  1.00  0.00     0.164 HD
ATOM     17  O   UNL     1       1.351   1.100  -1.529  1.00  0.00    -0.275 OA
BRANCH  15  18
ATOM     18  C   UNL     1       1.039   2.943  -0.055  1.00  0.00     0.138 C 
BRANCH  18  19
ATOM     19  C   UNL     1      -0.357   3.434   0.215  1.00  0.00     0.000 A 
ATOM     20  C   UNL     1      -1.302   3.539  -0.819  1.00  0.00     0.007 A 
ATOM     21  C   UNL     1      -0.744   3.810   1.504  1.00  0.00     0.162 A 
ATOM     22  C   UNL     1      -2.601   3.987  -0.552  1.00  0.00     0.004 A 
ATOM     23  C   UNL     1      -2.040   4.237   1.769  1.00  0.00     0.159 A 
ATOM     24  F   UNL     1       0.130   3.731   2.515  1.00  0.00    -0.203 F 
ATOM     25  C   UNL     1      -2.974   4.332   0.747  1.00  0.00     0.042 A 
ATOM     26  F   UNL     1      -2.412   4.509   3.028  1.00  0.00    -0.204 F 
ENDBRANCH  18  19
ENDBRANCH  15  18
ENDBRANCH   9  14
ENDBRANCH   7   9
ENDBRANCH   6   7
ENDBRANCH   5   6
ENDBRANCH   4   5
ENDBRANCH   3   4
ENDBRANCH   2   3
ENDBRANCH   1   2
BRANCH   1  27
ATOM     27  O   UNL     1      -2.386  -0.362  -0.761  1.00  0.00    -0.377 OA
BRANCH  27  28
ATOM     28  C   UNL     1      -3.206  -0.772  -1.844  1.00  0.00     0.188 C 
BRANCH  28  29
ATOM     29  C   UNL     1      -3.976  -2.093  -1.650  1.00  0.00     0.188 C 
BRANCH  29  30
ATOM     30  O   UNL     1      -3.136  -3.197  -1.329  1.00  0.00    -0.376 OA
BRANCH  30  31
ATOM     31  C   UNL     1      -2.746  -4.085  -2.365  1.00  0.00     0.202 C 
BRANCH  31  32
ATOM     32  C   UNL     1      -1.821  -3.545  -3.469  1.00  0.00     0.261 C 
BRANCH  32  33
ATOM     33  O   UNL     1      -2.284  -2.401  -4.203  1.00  0.00    -0.460 OA
BRANCH  33  34
ATOM     34  C   UNL     1      -3.458  -2.493  -4.868  1.00  0.00     0.338 C 
ATOM     35  O   UNL     1      -4.169  -3.467  -4.974  1.00  0.00    -0.246 OA
BRANCH  34  36
ATOM     36  C   UNL     1      -3.833  -1.117  -5.274  1.00  0.00     0.060 A 
ATOM     37  C   UNL     1      -5.007  -0.549  -4.759  1.00  0.00     0.016 A 
ATOM     38  C   UNL     1      -3.009  -0.376  -6.124  1.00  0.00     0.016 A 
ATOM     39  C   UNL     1      -5.357   0.762  -5.089  1.00  0.00     0.010 A 
ATOM     40  C   UNL     1      -3.380   0.923  -6.482  1.00  0.00     0.010 A 
ATOM     41  C   UNL     1      -4.562   1.496  -5.978  1.00  0.00    -0.014 A 
BRANCH  41  42
ATOM     42  C   UNL     1      -5.024   2.807  -6.495  1.00  0.00     0.031 A 
ATOM     43  C   UNL     1      -5.702   2.852  -7.835  1.00  0.00     0.074 A 
ATOM     44  C   UNL     1      -4.822   3.942  -5.801  1.00  0.00     0.049 A 
ATOM     45  N   UNL     1      -6.071   3.887  -8.543  1.00  0.00    -0.248 NA
ATOM     46  C   UNL     1      -6.002   1.554  -8.461  1.00  0.00     0.031 C 
ATOM     47  C   UNL     1      -4.215   4.025  -4.474  1.00  0.00     0.029 A 
ATOM     48  N   UNL     1      -5.083   5.249  -6.134  1.00  0.00    -0.354 N 
ATOM     49  C   UNL     1      -6.628   3.369  -9.705  1.00  0.00     0.074 A 
ATOM     50  C   UNL     1      -6.543   1.928  -9.613  1.00  0.00     0.031 C 
ATOM     51  C   UNL     1      -4.120   5.319  -4.120  1.00  0.00     0.029 A 
ATOM     52  C   UNL     1      -4.618   6.154  -5.211  1.00  0.00     0.049 A 
ATOM     53  H   UNL     1      -5.559   5.511  -6.955  1.00  0.00     0.167 HD
ATOM     54  C   UNL     1      -7.159   4.038 -10.755  1.00  0.00     0.037 A 
ATOM     55  C   UNL     1      -4.557   7.501  -5.262  1.00  0.00     0.037 A 
ATOM     56  C   UNL     1      -7.247   5.471 -10.840  1.00  0.00     0.049 A 
ATOM     57  C   UNL     1      -5.079   8.217  -6.483  1.00  0.00     0.074 A 
ATOM     58  C   UNL     1      -7.810   6.238 -11.845  1.00  0.00     0.029 A 
ATOM     59  N   UNL     1      -6.746   6.352  -9.896  1.00  0.00    -0.354 N 
ATOM     60  N   UNL     1      -5.648   7.721  -7.555  1.00  0.00    -0.248 NA
ATOM     61  C   UNL     1      -4.942   9.682  -6.505  1.00  0.00     0.031 C 
ATOM     62  C   UNL     1      -7.590   7.584 -11.542  1.00  0.00     0.029 A 
ATOM     63  C   UNL     1      -6.946   7.656 -10.318  1.00  0.00     0.049 A 
ATOM     64  H   UNL     1      -6.313   6.091  -9.052  1.00  0.00     0.167 HD
ATOM     65  C   UNL     1      -5.955   8.809  -8.364  1.00  0.00     0.074 A 
ATOM     66  C   UNL     1      -5.534   9.994  -7.649  1.00  0.00     0.031 C 
ATOM     67  C   UNL     1      -6.528   8.827  -9.592  1.00  0.00     0.037 A 
BRANCH  54  68
ATOM     68  C   UNL     1      -7.660   3.237 -11.919  1.00  0.00     0.057 A 
ATOM     69  C   UNL     1      -8.850   2.502 -11.859  1.00  0.00     0.134 A 
ATOM     70  C   UNL     1      -6.984   3.276 -13.146  1.00  0.00     0.134 A 
ATOM     71  F   UNL     1      -9.538   2.414 -10.711  1.00  0.00    -0.206 F 
ATOM     72  C   UNL     1      -9.348   1.831 -12.977  1.00  0.00     0.040 A 
ATOM     73  C   UNL     1      -7.484   2.630 -14.276  1.00  0.00     0.040 A 
ATOM     74  F   UNL     1      -5.839   3.966 -13.270  1.00  0.00    -0.206 F 
ATOM     75  C   UNL     1      -8.670   1.904 -14.194  1.00  0.00     0.006 A 
ENDBRANCH  54  68
BRANCH  55  76
ATOM     76  C   UNL     1      -3.925   8.273  -4.158  1.00  0.00     0.057 A 
ATOM     77  C   UNL     1      -4.663   9.176  -3.384  1.00  0.00     0.134 A 
ATOM     78  C   UNL     1      -2.552   8.179  -3.897  1.00  0.00     0.134 A 
ATOM     79  F   UNL     1      -5.978   9.334  -3.600  1.00  0.00    -0.206 F 
ATOM     80  C   UNL     1      -4.056   9.981  -2.417  1.00  0.00     0.040 A 
ATOM     81  C   UNL     1      -1.937   8.953  -2.910  1.00  0.00     0.040 A 
ATOM     82  F   UNL     1      -1.784   7.335  -4.601  1.00  0.00    -0.206 F 
ATOM     83  C   UNL     1      -2.688   9.868  -2.176  1.00  0.00     0.006 A 
ENDBRANCH  55  76
BRANCH  67  84
ATOM     84  C   UNL     1      -6.757  10.166 -10.232  1.00  0.00     0.057 A 
ATOM     85  C   UNL     1      -5.698  10.940 -10.724  1.00  0.00     0.134 A 
ATOM     86  C   UNL     1      -8.055  10.663 -10.408  1.00  0.00     0.134 A 
ATOM     87  F   UNL     1      -4.429  10.529 -10.577  1.00  0.00    -0.206 F 
ATOM     88  C   UNL     1      -5.921  12.169 -11.348  1.00  0.00     0.040 A 
ATOM     89  C   UNL     1      -8.293  11.874 -11.058  1.00  0.00     0.040 A 
ATOM     90  F   UNL     1      -9.116   9.967  -9.972  1.00  0.00    -0.206 F 
ATOM     91  C   UNL     1      -7.222  12.634 -11.525  1.00  0.00     0.006 A 
ENDBRANCH  67  84
ENDBRANCH  41  42
ENDBRANCH  34  36
ENDBRANCH  33  34
ENDBRANCH  32  33
ENDBRANCH  31  32
ENDBRANCH  30  31
ENDBRANCH  29  30
ENDBRANCH  28  29
ENDBRANCH  27  28
ENDBRANCH   1  27
TORSDOF 24
