REMARK SMILES Cc1ccccc1NC(=O)CSc1nc(C(=O)OCCOCCOCCOCCOC(=O)c2ccc(-c3c4nc(c(-c5c(F)cccc5F)c5ccc([nH]5)c(-c5c(F)cccc5F)c5nc(c(-c6c(F)cccc6F)c6ccc3[nH]6)C=C5)C=C4)cc2)c2ccccc2n1
REMARK SMILES IDX 23 1 22 2 21 3 20 4 19 5 18 6 16 7 17 8 15 9 13 10 14 11
REMARK SMILES IDX 93 12 92 13 87 14 91 15 88 16 90 17 89 18 12 19 11 20 9 21
REMARK SMILES IDX 8 22 10 24 7 25 1 26 2 27 3 28 4 29 6 30 5 31 24 32 25 33
REMARK SMILES IDX 26 34 27 35 28 36 29 37 30 38 31 39 32 40 33 41 34 42 86 43
REMARK SMILES IDX 35 44 85 45 36 46 37 47 38 48 79 49 39 50 84 51 78 52 80 53
REMARK SMILES IDX 40 54 83 55 77 56 76 57 41 59 67 60 50 61 66 62 51 63 54 64
REMARK SMILES IDX 65 65 81 66 52 67 53 68 64 70 82 71 55 72 42 73 43 74 48 75
REMARK SMILES IDX 44 76 45 77 47 78 49 79 46 80 68 81 69 82 74 83 70 84 71 85
REMARK SMILES IDX 73 86 75 87 72 88 56 89 57 90 62 91 58 92 59 93 61 94 63 95
REMARK SMILES IDX 60 96
REMARK H PARENT 8 23 80 58 54 69
REMARK Flexibility Score: inf
ROOT
ATOM      1  C   UNL     1      -3.980   4.877  -4.888  1.00  0.00     0.188 C 
ENDROOT
BRANCH   1   2
ATOM      2  C   UNL     1      -3.845   5.163  -3.388  1.00  0.00     0.188 C 
BRANCH   2   3
ATOM      3  O   UNL     1      -4.223   6.459  -2.936  1.00  0.00    -0.376 OA
BRANCH   3   4
ATOM      4  C   UNL     1      -3.231   7.481  -3.054  1.00  0.00     0.202 C 
BRANCH   4   5
ATOM      5  C   UNL     1      -1.885   7.146  -2.420  1.00  0.00     0.261 C 
BRANCH   5   6
ATOM      6  O   UNL     1      -1.133   6.325  -3.335  1.00  0.00    -0.458 OA
BRANCH   6   7
ATOM      7  C   UNL     1      -0.107   5.670  -2.754  1.00  0.00     0.357 C 
ATOM      8  O   UNL     1       0.408   5.940  -1.682  1.00  0.00    -0.244 OA
BRANCH   7   9
ATOM      9  C   UNL     1      -0.038   4.297  -3.290  1.00  0.00     0.160 A 
ATOM     10  C   UNL     1      -0.674   2.299  -2.501  1.00  0.00     0.189 A 
ATOM     11  N   UNL     1      -0.126   3.460  -2.253  1.00  0.00    -0.215 NA
ATOM     12  N   UNL     1      -0.671   1.727  -3.707  1.00  0.00    -0.222 NA
ATOM     13  C   UNL     1      -0.303   2.498  -4.742  1.00  0.00     0.076 A 
ATOM     14  C   UNL     1      -0.118   3.876  -4.611  1.00  0.00     0.034 A 
ATOM     15  C   UNL     1      -0.192   1.939  -6.010  1.00  0.00     0.029 A 
ATOM     16  C   UNL     1      -0.040   4.681  -5.766  1.00  0.00     0.013 A 
ATOM     17  C   UNL     1      -0.009   2.727  -7.150  1.00  0.00     0.002 A 
ATOM     18  C   UNL     1       0.013   4.109  -7.032  1.00  0.00     0.001 A 
BRANCH  10  19
ATOM     19  S   UNL     1      -1.996   1.940  -1.375  1.00  0.00    -0.076 SA
BRANCH  19  20
ATOM     20  C   UNL     1      -1.609   3.141  -0.013  1.00  0.00     0.178 C 
BRANCH  20  21
ATOM     21  C   UNL     1      -0.187   3.117   0.561  1.00  0.00     0.234 C 
ATOM     22  N   UNL     1       0.555   1.978   0.705  1.00  0.00    -0.325 N 
ATOM     23  H   UNL     1       1.515   2.124   0.869  1.00  0.00     0.169 HD
ATOM     24  O   UNL     1       0.334   4.167   0.961  1.00  0.00    -0.274 OA
BRANCH  22  25
ATOM     25  C   UNL     1       0.162   0.633   0.657  1.00  0.00     0.044 A 
ATOM     26  C   UNL     1       2.500  -0.108  -0.117  1.00  0.00     0.046 C 
ATOM     27  C   UNL     1       1.045  -0.348   0.179  1.00  0.00    -0.027 A 
ATOM     28  C   UNL     1       0.546  -1.646  -0.035  1.00  0.00     0.005 A 
ATOM     29  C   UNL     1      -0.787  -1.963   0.232  1.00  0.00     0.000 A 
ATOM     30  C   UNL     1      -1.129   0.263   1.055  1.00  0.00     0.026 A 
ATOM     31  C   UNL     1      -1.620  -1.013   0.802  1.00  0.00     0.002 A 
ENDBRANCH  22  25
ENDBRANCH  20  21
ENDBRANCH  19  20
ENDBRANCH  10  19
ENDBRANCH   7   9
ENDBRANCH   6   7
ENDBRANCH   5   6
ENDBRANCH   4   5
ENDBRANCH   3   4
ENDBRANCH   2   3
ENDBRANCH   1   2
BRANCH   1  32
ATOM     32  O   UNL     1      -3.134   5.616  -5.755  1.00  0.00    -0.377 OA
BRANCH  32  33
ATOM     33  C   UNL     1      -3.686   6.670  -6.548  1.00  0.00     0.188 C 
BRANCH  33  34
ATOM     34  C   UNL     1      -5.203   6.756  -6.736  1.00  0.00     0.188 C 
BRANCH  34  35
ATOM     35  O   UNL     1      -5.787   7.235  -5.526  1.00  0.00    -0.376 OA
BRANCH  35  36
ATOM     36  C   UNL     1      -7.125   6.814  -5.269  1.00  0.00     0.202 C 
BRANCH  36  37
ATOM     37  C   UNL     1      -8.154   7.326  -6.287  1.00  0.00     0.261 C 
BRANCH  37  38
ATOM     38  O   UNL     1      -8.235   8.763  -6.220  1.00  0.00    -0.460 OA
BRANCH  38  39
ATOM     39  C   UNL     1      -7.575   9.422  -7.207  1.00  0.00     0.338 C 
ATOM     40  O   UNL     1      -7.699   9.210  -8.406  1.00  0.00    -0.246 OA
BRANCH  39  41
ATOM     41  C   UNL     1      -6.474  10.233  -6.620  1.00  0.00     0.060 A 
ATOM     42  C   UNL     1      -5.488  10.784  -7.457  1.00  0.00     0.016 A 
ATOM     43  C   UNL     1      -6.246  10.150  -5.251  1.00  0.00     0.016 A 
ATOM     44  C   UNL     1      -4.215  11.085  -6.945  1.00  0.00     0.010 A 
ATOM     45  C   UNL     1      -4.964  10.344  -4.781  1.00  0.00     0.010 A 
ATOM     46  C   UNL     1      -3.920  10.778  -5.616  1.00  0.00    -0.014 A 
BRANCH  46  47
ATOM     47  C   UNL     1      -2.570  10.651  -5.029  1.00  0.00     0.031 A 
ATOM     48  C   UNL     1      -2.323  11.082  -3.604  1.00  0.00     0.074 A 
ATOM     49  C   UNL     1      -1.680   9.807  -5.611  1.00  0.00     0.049 A 
ATOM     50  N   UNL     1      -1.274  10.780  -2.916  1.00  0.00    -0.248 NA
ATOM     51  C   UNL     1      -3.250  11.898  -2.817  1.00  0.00     0.031 C 
ATOM     52  C   UNL     1      -0.707   8.992  -4.891  1.00  0.00     0.029 A 
ATOM     53  N   UNL     1      -1.466   9.419  -6.928  1.00  0.00    -0.354 N 
ATOM     54  C   UNL     1      -1.519  11.024  -1.585  1.00  0.00     0.074 A 
ATOM     55  C   UNL     1      -2.720  11.816  -1.589  1.00  0.00     0.031 C 
ATOM     56  C   UNL     1       0.036   8.273  -5.733  1.00  0.00     0.029 A 
ATOM     57  C   UNL     1      -0.207   8.810  -7.038  1.00  0.00     0.049 A 
ATOM     58  H   UNL     1      -2.100   9.551  -7.670  1.00  0.00     0.167 HD
ATOM     59  C   UNL     1      -0.735  10.417  -0.644  1.00  0.00     0.037 A 
ATOM     60  C   UNL     1       0.824   9.352  -7.751  1.00  0.00     0.037 A 
ATOM     61  C   UNL     1       0.473   9.814  -1.238  1.00  0.00     0.049 A 
ATOM     62  C   UNL     1       1.992   9.759  -6.864  1.00  0.00     0.074 A 
ATOM     63  C   UNL     1       1.101   8.591  -1.115  1.00  0.00     0.029 A 
ATOM     64  N   UNL     1       1.192  10.498  -2.225  1.00  0.00    -0.354 N 
ATOM     65  N   UNL     1       1.841  10.096  -5.602  1.00  0.00    -0.248 NA
ATOM     66  C   UNL     1       3.401   9.658  -7.233  1.00  0.00     0.031 C 
ATOM     67  C   UNL     1       2.091   8.484  -2.134  1.00  0.00     0.029 A 
ATOM     68  C   UNL     1       2.175   9.708  -2.778  1.00  0.00     0.049 A 
ATOM     69  H   UNL     1       1.016  11.430  -2.492  1.00  0.00     0.167 HD
ATOM     70  C   UNL     1       3.061  10.136  -4.979  1.00  0.00     0.074 A 
ATOM     71  C   UNL     1       4.009   9.906  -6.055  1.00  0.00     0.031 C 
ATOM     72  C   UNL     1       3.216  10.273  -3.625  1.00  0.00     0.037 A 
BRANCH  59  73
ATOM     73  C   UNL     1      -1.127  10.193   0.822  1.00  0.00     0.057 A 
ATOM     74  C   UNL     1      -0.201   9.671   1.754  1.00  0.00     0.134 A 
ATOM     75  C   UNL     1      -2.426  10.346   1.353  1.00  0.00     0.134 A 
ATOM     76  F   UNL     1       1.088   9.492   1.436  1.00  0.00    -0.206 F 
ATOM     77  C   UNL     1      -0.542   9.304   3.068  1.00  0.00     0.040 A 
ATOM     78  C   UNL     1      -2.762  10.054   2.688  1.00  0.00     0.040 A 
ATOM     79  F   UNL     1      -3.464  10.732   0.603  1.00  0.00    -0.206 F 
ATOM     80  C   UNL     1      -1.825   9.510   3.548  1.00  0.00     0.006 A 
ENDBRANCH  59  73
BRANCH  60  81
ATOM     81  C   UNL     1       0.392   9.773  -9.110  1.00  0.00     0.057 A 
ATOM     82  C   UNL     1       0.054   8.688  -9.946  1.00  0.00     0.134 A 
ATOM     83  C   UNL     1      -0.371  10.941  -9.254  1.00  0.00     0.134 A 
ATOM     84  F   UNL     1       0.773   7.555  -9.890  1.00  0.00    -0.206 F 
ATOM     85  C   UNL     1      -1.149   8.659 -10.655  1.00  0.00     0.040 A 
ATOM     86  C   UNL     1      -1.572  10.927  -9.980  1.00  0.00     0.040 A 
ATOM     87  F   UNL     1      -0.089  12.030  -8.526  1.00  0.00    -0.206 F 
ATOM     88  C   UNL     1      -1.997   9.762 -10.621  1.00  0.00     0.006 A 
ENDBRANCH  60  81
BRANCH  72  89
ATOM     89  C   UNL     1       4.408  10.891  -2.911  1.00  0.00     0.057 A 
ATOM     90  C   UNL     1       5.401  11.642  -3.551  1.00  0.00     0.134 A 
ATOM     91  C   UNL     1       4.458  10.948  -1.490  1.00  0.00     0.134 A 
ATOM     92  F   UNL     1       5.451  11.759  -4.883  1.00  0.00    -0.206 F 
ATOM     93  C   UNL     1       6.366  12.374  -2.845  1.00  0.00     0.040 A 
ATOM     94  C   UNL     1       5.389  11.707  -0.779  1.00  0.00     0.040 A 
ATOM     95  F   UNL     1       3.575  10.316  -0.706  1.00  0.00    -0.206 F 
ATOM     96  C   UNL     1       6.352  12.426  -1.457  1.00  0.00     0.006 A 
ENDBRANCH  72  89
ENDBRANCH  46  47
ENDBRANCH  39  41
ENDBRANCH  38  39
ENDBRANCH  37  38
ENDBRANCH  36  37
ENDBRANCH  35  36
ENDBRANCH  34  35
ENDBRANCH  33  34
ENDBRANCH  32  33
ENDBRANCH   1  32
TORSDOF 24
