REMARK SMILES C[C@@H](C[N@H+](C)[C@H]1CSCC(C)(C)C1)C(=O)OCCOCCOCCOCCOC(=O)c1ccc(-c2c3nc(c(-c4c(F)cccc4F)c4ccc([nH]4)c(-c4c(F)cccc4F)c4nc(c(-c5c(F)cccc5F)c5ccc2[nH]5)C=C4)C=C3)cc1
REMARK SMILES IDX 21 1 20 2 19 3 18 4 17 5 16 6 14 7 15 8 2 9 1 10 3 11 4 12
REMARK SMILES IDX 5 13 6 15 7 16 13 17 8 18 10 19 9 20 11 21 12 22 22 23 23 24
REMARK SMILES IDX 24 25 25 26 26 27 27 28 28 29 29 30 30 31 31 32 32 33 84 34
REMARK SMILES IDX 33 35 83 36 34 37 35 38 36 39 77 40 37 41 82 42 76 43 78 44
REMARK SMILES IDX 38 45 81 46 75 47 74 48 39 50 65 51 48 52 64 53 49 54 52 55
REMARK SMILES IDX 63 56 79 57 50 58 51 59 62 61 80 62 53 63 40 64 41 65 46 66
REMARK SMILES IDX 42 67 43 68 45 69 47 70 44 71 66 72 67 73 72 74 68 75 69 76
REMARK SMILES IDX 71 77 73 78 70 79 54 80 55 81 60 82 56 83 57 84 59 85 61 86
REMARK SMILES IDX 58 87
REMARK H PARENT 4 14 78 49 52 60
REMARK Flexibility Score: inf
ROOT
ATOM      1  C   UNL     1       1.165  -6.987   2.578  1.00  0.00     0.188 C 
ENDROOT
BRANCH   1   2
ATOM      2  C   UNL     1       0.717  -7.915   1.438  1.00  0.00     0.188 C 
BRANCH   2   3
ATOM      3  O   UNL     1       1.708  -8.192   0.467  1.00  0.00    -0.376 OA
BRANCH   3   4
ATOM      4  C   UNL     1       1.649  -7.394  -0.703  1.00  0.00     0.202 C 
BRANCH   4   5
ATOM      5  C   UNL     1       2.103  -5.942  -0.572  1.00  0.00     0.261 C 
BRANCH   5   6
ATOM      6  O   UNL     1       1.385  -4.939   0.207  1.00  0.00    -0.463 OA
BRANCH   6   7
ATOM      7  C   UNL     1       0.041  -4.846   0.348  1.00  0.00     0.314 C 
ATOM      8  O   UNL     1      -0.762  -5.550  -0.254  1.00  0.00    -0.252 OA
BRANCH   7   9
ATOM      9  C   UNL     1      -0.399  -3.679   1.262  1.00  0.00     0.151 C 
ATOM     10  C   UNL     1       0.552  -3.310   2.399  1.00  0.00     0.026 C 
BRANCH   9  11
ATOM     11  C   UNL     1      -0.968  -2.414   0.541  1.00  0.00     0.277 C 
BRANCH  11  12
ATOM     12  N   UNL     1      -0.067  -1.285   0.169  1.00  0.00    -0.334 N 
ATOM     13  C   UNL     1      -0.822  -0.021   0.161  1.00  0.00     0.333 C 
ATOM     14  H   UNL     1       0.642  -1.332   0.900  1.00  0.00     0.348 HD
BRANCH  12  15
ATOM     15  C   UNL     1       0.735  -1.379  -1.100  1.00  0.00     0.194 C 
ATOM     16  C   UNL     1       2.217  -1.175  -0.714  1.00  0.00     0.134 C 
ATOM     17  C   UNL     1       0.412  -2.624  -1.929  1.00  0.00     0.073 C 
ATOM     18  S   UNL     1       3.410  -1.524  -2.044  1.00  0.00    -0.155 SA
ATOM     19  C   UNL     1       1.359  -3.168  -3.004  1.00  0.00    -0.021 C 
ATOM     20  C   UNL     1       2.806  -3.185  -2.462  1.00  0.00     0.076 C 
ATOM     21  C   UNL     1       1.284  -2.378  -4.312  1.00  0.00     0.012 C 
ATOM     22  C   UNL     1       0.819  -4.588  -3.359  1.00  0.00     0.012 C 
ENDBRANCH  12  15
ENDBRANCH  11  12
ENDBRANCH   9  11
ENDBRANCH   7   9
ENDBRANCH   6   7
ENDBRANCH   5   6
ENDBRANCH   4   5
ENDBRANCH   3   4
ENDBRANCH   2   3
ENDBRANCH   1   2
BRANCH   1  23
ATOM     23  O   UNL     1       2.143  -6.024   2.236  1.00  0.00    -0.377 OA
BRANCH  23  24
ATOM     24  C   UNL     1       3.528  -6.314   2.359  1.00  0.00     0.188 C 
BRANCH  24  25
ATOM     25  C   UNL     1       4.021  -7.726   2.033  1.00  0.00     0.188 C 
BRANCH  25  26
ATOM     26  O   UNL     1       3.351  -8.753   2.729  1.00  0.00    -0.376 OA
BRANCH  26  27
ATOM     27  C   UNL     1       3.555  -8.978   4.111  1.00  0.00     0.202 C 
BRANCH  27  28
ATOM     28  C   UNL     1       4.102  -7.927   5.098  1.00  0.00     0.261 C 
BRANCH  28  29
ATOM     29  O   UNL     1       5.139  -7.027   4.679  1.00  0.00    -0.460 OA
BRANCH  29  30
ATOM     30  C   UNL     1       6.296  -7.526   4.197  1.00  0.00     0.338 C 
ATOM     31  O   UNL     1       6.632  -8.687   4.169  1.00  0.00    -0.246 OA
BRANCH  30  32
ATOM     32  C   UNL     1       6.995  -6.412   3.494  1.00  0.00     0.060 A 
ATOM     33  C   UNL     1       7.448  -6.627   2.183  1.00  0.00     0.016 A 
ATOM     34  C   UNL     1       7.241  -5.189   4.126  1.00  0.00     0.016 A 
ATOM     35  C   UNL     1       8.232  -5.669   1.541  1.00  0.00     0.010 A 
ATOM     36  C   UNL     1       8.059  -4.243   3.499  1.00  0.00     0.010 A 
ATOM     37  C   UNL     1       8.620  -4.520   2.237  1.00  0.00    -0.014 A 
BRANCH  37  38
ATOM     38  C   UNL     1       9.880  -3.848   1.829  1.00  0.00     0.031 A 
ATOM     39  C   UNL     1      11.150  -4.309   2.503  1.00  0.00     0.074 A 
ATOM     40  C   UNL     1       9.929  -2.921   0.859  1.00  0.00     0.049 A 
ATOM     41  N   UNL     1      12.378  -3.880   2.366  1.00  0.00    -0.248 NA
ATOM     42  C   UNL     1      11.007  -5.408   3.474  1.00  0.00     0.031 C 
ATOM     43  C   UNL     1       8.791  -2.445   0.078  1.00  0.00     0.029 A 
ATOM     44  N   UNL     1      10.998  -2.213   0.369  1.00  0.00    -0.354 N 
ATOM     45  C   UNL     1      13.141  -4.639   3.246  1.00  0.00     0.074 A 
ATOM     46  C   UNL     1      12.240  -5.532   3.935  1.00  0.00     0.031 C 
ATOM     47  C   UNL     1       9.223  -1.514  -0.792  1.00  0.00     0.029 A 
ATOM     48  C   UNL     1      10.659  -1.308  -0.605  1.00  0.00     0.049 A 
ATOM     49  H   UNL     1      11.921  -2.343   0.686  1.00  0.00     0.167 HD
ATOM     50  C   UNL     1      14.477  -4.604   3.461  1.00  0.00     0.037 A 
ATOM     51  C   UNL     1      11.424  -0.407  -1.253  1.00  0.00     0.037 A 
ATOM     52  C   UNL     1      15.375  -3.719   2.770  1.00  0.00     0.049 A 
ATOM     53  C   UNL     1      12.899  -0.328  -0.942  1.00  0.00     0.074 A 
ATOM     54  C   UNL     1      16.747  -3.608   2.901  1.00  0.00     0.029 A 
ATOM     55  N   UNL     1      14.983  -2.786   1.822  1.00  0.00    -0.354 N 
ATOM     56  N   UNL     1      13.615  -1.051  -0.114  1.00  0.00    -0.248 NA
ATOM     57  C   UNL     1      13.672   0.692  -1.665  1.00  0.00     0.031 C 
ATOM     58  C   UNL     1      17.178  -2.562   2.079  1.00  0.00     0.029 A 
ATOM     59  C   UNL     1      16.085  -2.074   1.379  1.00  0.00     0.049 A 
ATOM     60  H   UNL     1      14.059  -2.649   1.511  1.00  0.00     0.167 HD
ATOM     61  C   UNL     1      14.926  -0.607  -0.253  1.00  0.00     0.074 A 
ATOM     62  C   UNL     1      14.905   0.446  -1.246  1.00  0.00     0.031 C 
ATOM     63  C   UNL     1      16.049  -1.039   0.376  1.00  0.00     0.037 A 
BRANCH  50  64
ATOM     64  C   UNL     1      15.028  -5.513   4.524  1.00  0.00     0.057 A 
ATOM     65  C   UNL     1      15.051  -6.907   4.383  1.00  0.00     0.134 A 
ATOM     66  C   UNL     1      15.533  -4.978   5.716  1.00  0.00     0.134 A 
ATOM     67  F   UNL     1      14.563  -7.488   3.276  1.00  0.00    -0.206 F 
ATOM     68  C   UNL     1      15.522  -7.737   5.403  1.00  0.00     0.040 A 
ATOM     69  C   UNL     1      16.039  -5.795   6.728  1.00  0.00     0.040 A 
ATOM     70  F   UNL     1      15.541  -3.652   5.919  1.00  0.00    -0.206 F 
ATOM     71  C   UNL     1      16.024  -7.180   6.577  1.00  0.00     0.006 A 
ENDBRANCH  50  64
BRANCH  51  72
ATOM     72  C   UNL     1      10.819   0.494  -2.268  1.00  0.00     0.057 A 
ATOM     73  C   UNL     1      11.148   0.383  -3.624  1.00  0.00     0.134 A 
ATOM     74  C   UNL     1       9.921   1.506  -1.905  1.00  0.00     0.134 A 
ATOM     75  F   UNL     1      12.024  -0.547  -4.032  1.00  0.00    -0.206 F 
ATOM     76  C   UNL     1      10.620   1.253  -4.580  1.00  0.00     0.040 A 
ATOM     77  C   UNL     1       9.364   2.365  -2.854  1.00  0.00     0.040 A 
ATOM     78  F   UNL     1       9.569   1.671  -0.622  1.00  0.00    -0.206 F 
ATOM     79  C   UNL     1       9.720   2.245  -4.196  1.00  0.00     0.006 A 
ENDBRANCH  51  72
BRANCH  63  80
ATOM     80  C   UNL     1      17.357  -0.427  -0.042  1.00  0.00     0.057 A 
ATOM     81  C   UNL     1      17.693   0.901   0.248  1.00  0.00     0.134 A 
ATOM     82  C   UNL     1      18.311  -1.199  -0.720  1.00  0.00     0.134 A 
ATOM     83  F   UNL     1      16.825   1.699   0.889  1.00  0.00    -0.206 F 
ATOM     84  C   UNL     1      18.913   1.450  -0.155  1.00  0.00     0.040 A 
ATOM     85  C   UNL     1      19.547  -0.672  -1.096  1.00  0.00     0.040 A 
ATOM     86  F   UNL     1      18.063  -2.484  -1.016  1.00  0.00    -0.206 F 
ATOM     87  C   UNL     1      19.846   0.660  -0.824  1.00  0.00     0.006 A 
ENDBRANCH  63  80
ENDBRANCH  37  38
ENDBRANCH  30  32
ENDBRANCH  29  30
ENDBRANCH  28  29
ENDBRANCH  27  28
ENDBRANCH  26  27
ENDBRANCH  25  26
ENDBRANCH  24  25
ENDBRANCH  23  24
ENDBRANCH   1  23
TORSDOF 23
