REMARK SMILES Cc1ccccc1C(=O)Nc1cc(C(=O)OCCOCCOCCOCCOC(=O)c2ccc(-c3c4nc(c(-c5c(F)cccc5F)c5ccc([nH]5)c(-c5c(F)cccc5F)c5nc(c(-c6c(F)cccc6F)c6ccc3[nH]6)C=C5)C=C4)cc2)ccc1N1CC[NH+](CC(=O)Nc2ccc(F)cc2)CC1
REMARK SMILES IDX 21 1 20 2 19 3 18 4 17 5 16 6 14 7 15 8 13 9 11 10 12 11
REMARK SMILES IDX 87 12 86 13 85 14 10 15 8 16 9 17 7 19 1 20 2 21 3 22 4 23
REMARK SMILES IDX 6 24 5 25 88 26 89 27 104 28 90 29 103 30 91 31 92 33 93 34
REMARK SMILES IDX 94 35 95 36 96 38 97 39 102 40 98 41 101 42 99 43 100 44
REMARK SMILES IDX 22 45 23 46 24 47 25 48 26 49 27 50 28 51 29 52 30 53 31 54
REMARK SMILES IDX 32 55 84 56 33 57 83 58 34 59 35 60 36 61 77 62 37 63 82 64
REMARK SMILES IDX 76 65 78 66 38 67 81 68 75 69 74 70 39 72 65 73 48 74 64 75
REMARK SMILES IDX 49 76 52 77 63 78 79 79 50 80 51 81 62 83 80 84 53 85 40 86
REMARK SMILES IDX 41 87 46 88 42 89 43 90 45 91 47 92 44 93 66 94 67 95 72 96
REMARK SMILES IDX 68 97 69 98 71 99 73 100 70 101 54 102 55 103 60 104 56 105
REMARK SMILES IDX 57 106 59 107 61 108 58 109
REMARK H PARENT 10 18 91 32 95 37 78 71 52 82
REMARK Flexibility Score: inf
ROOT
ATOM      1  C   UNL     1       5.636  -0.351  -2.992  1.00  0.00     0.188 C 
ENDROOT
BRANCH   1   2
ATOM      2  C   UNL     1       6.022  -1.554  -2.142  1.00  0.00     0.188 C 
BRANCH   2   3
ATOM      3  O   UNL     1       6.151  -2.860  -2.692  1.00  0.00    -0.376 OA
BRANCH   3   4
ATOM      4  C   UNL     1       4.939  -3.625  -2.673  1.00  0.00     0.202 C 
BRANCH   4   5
ATOM      5  C   UNL     1       4.361  -4.021  -1.298  1.00  0.00     0.261 C 
BRANCH   5   6
ATOM      6  O   UNL     1       3.843  -2.908  -0.569  1.00  0.00    -0.460 OA
BRANCH   6   7
ATOM      7  C   UNL     1       4.448  -2.651   0.604  1.00  0.00     0.338 C 
ATOM      8  O   UNL     1       5.067  -3.413   1.308  1.00  0.00    -0.246 OA
BRANCH   7   9
ATOM      9  C   UNL     1       4.558  -1.176   0.660  1.00  0.00     0.062 A 
ATOM     10  C   UNL     1       3.832   1.071   0.178  1.00  0.00     0.065 A 
ATOM     11  C   UNL     1       3.613  -0.295   0.105  1.00  0.00     0.044 A 
ATOM     12  C   UNL     1       5.114   1.563   0.611  1.00  0.00     0.061 A 
ATOM     13  C   UNL     1       6.103   0.621   0.947  1.00  0.00     0.029 A 
ATOM     14  C   UNL     1       5.804  -0.720   1.063  1.00  0.00     0.018 A 
BRANCH  10  15
ATOM     15  N   UNL     1       2.819   1.995  -0.138  1.00  0.00    -0.320 N 
ATOM     16  C   UNL     1       1.467   2.125   0.135  1.00  0.00     0.255 C 
ATOM     17  O   UNL     1       1.033   3.275  -0.056  1.00  0.00    -0.269 OA
ATOM     18  H   UNL     1       3.155   2.736  -0.692  1.00  0.00     0.170 HD
BRANCH  16  19
ATOM     19  C   UNL     1       0.466   1.116   0.640  1.00  0.00     0.043 A 
ATOM     20  C   UNL     1       1.815  -0.339   2.318  1.00  0.00     0.045 C 
ATOM     21  C   UNL     1       0.626  -0.004   1.473  1.00  0.00    -0.038 A 
ATOM     22  C   UNL     1      -0.461  -0.892   1.664  1.00  0.00     0.004 A 
ATOM     23  C   UNL     1      -1.742  -0.591   1.227  1.00  0.00     0.000 A 
ATOM     24  C   UNL     1      -0.870   1.427   0.265  1.00  0.00     0.014 A 
ATOM     25  C   UNL     1      -1.960   0.607   0.577  1.00  0.00     0.001 A 
ENDBRANCH  16  19
ENDBRANCH  10  15
BRANCH  12  26
ATOM     26  N   UNL     1       5.363   2.943   0.887  1.00  0.00    -0.359 N 
ATOM     27  C   UNL     1       6.747   3.312   1.349  1.00  0.00     0.178 C 
ATOM     28  C   UNL     1       4.343   3.483   1.794  1.00  0.00     0.178 C 
ATOM     29  C   UNL     1       6.874   4.742   1.942  1.00  0.00     0.284 C 
ATOM     30  C   UNL     1       4.542   4.988   1.987  1.00  0.00     0.284 C 
ATOM     31  N   UNL     1       5.749   5.250   2.739  1.00  0.00    -0.324 N 
ATOM     32  H   UNL     1       5.971   6.238   2.858  1.00  0.00     0.348 HD
BRANCH  31  33
ATOM     33  C   UNL     1       5.609   4.950   4.187  1.00  0.00     0.364 C 
BRANCH  33  34
ATOM     34  C   UNL     1       5.221   3.551   4.702  1.00  0.00     0.279 C 
ATOM     35  O   UNL     1       6.143   2.747   4.933  1.00  0.00    -0.268 OA
ATOM     36  N   UNL     1       3.978   3.091   5.069  1.00  0.00    -0.321 N 
ATOM     37  H   UNL     1       4.098   2.355   5.712  1.00  0.00     0.170 HD
BRANCH  36  38
ATOM     38  C   UNL     1       2.580   3.282   4.865  1.00  0.00     0.041 A 
ATOM     39  C   UNL     1       1.733   2.521   5.695  1.00  0.00     0.029 A 
ATOM     40  C   UNL     1       1.935   4.006   3.867  1.00  0.00     0.029 A 
ATOM     41  C   UNL     1       0.334   2.506   5.535  1.00  0.00     0.041 A 
ATOM     42  C   UNL     1       0.543   3.963   3.659  1.00  0.00     0.041 A 
ATOM     43  C   UNL     1      -0.251   3.224   4.508  1.00  0.00     0.123 A 
ATOM     44  F   UNL     1      -1.579   3.202   4.334  1.00  0.00    -0.207 F 
ENDBRANCH  36  38
ENDBRANCH  33  34
ENDBRANCH  31  33
ENDBRANCH  12  26
ENDBRANCH   7   9
ENDBRANCH   6   7
ENDBRANCH   5   6
ENDBRANCH   4   5
ENDBRANCH   3   4
ENDBRANCH   2   3
ENDBRANCH   1   2
BRANCH   1  45
ATOM     45  O   UNL     1       4.269  -0.463  -3.381  1.00  0.00    -0.377 OA
BRANCH  45  46
ATOM     46  C   UNL     1       4.029  -0.031  -4.704  1.00  0.00     0.188 C 
BRANCH  46  47
ATOM     47  C   UNL     1       4.592  -0.963  -5.776  1.00  0.00     0.188 C 
BRANCH  47  48
ATOM     48  O   UNL     1       5.663  -1.818  -5.406  1.00  0.00    -0.376 OA
BRANCH  48  49
ATOM     49  C   UNL     1       6.983  -1.594  -5.895  1.00  0.00     0.202 C 
BRANCH  49  50
ATOM     50  C   UNL     1       7.119  -1.251  -7.383  1.00  0.00     0.261 C 
BRANCH  50  51
ATOM     51  O   UNL     1       6.630  -2.346  -8.182  1.00  0.00    -0.460 OA
BRANCH  51  52
ATOM     52  C   UNL     1       5.379  -2.196  -8.695  1.00  0.00     0.338 C 
ATOM     53  O   UNL     1       4.971  -1.204  -9.279  1.00  0.00    -0.246 OA
BRANCH  52  54
ATOM     54  C   UNL     1       4.478  -3.261  -8.152  1.00  0.00     0.060 A 
ATOM     55  C   UNL     1       3.083  -3.121  -8.287  1.00  0.00     0.016 A 
ATOM     56  C   UNL     1       4.987  -4.103  -7.171  1.00  0.00     0.016 A 
ATOM     57  C   UNL     1       2.217  -3.637  -7.304  1.00  0.00     0.010 A 
ATOM     58  C   UNL     1       4.142  -4.496  -6.153  1.00  0.00     0.010 A 
ATOM     59  C   UNL     1       2.759  -4.225  -6.162  1.00  0.00    -0.014 A 
BRANCH  59  60
ATOM     60  C   UNL     1       2.082  -4.378  -4.844  1.00  0.00     0.031 A 
ATOM     61  C   UNL     1       2.376  -5.626  -4.040  1.00  0.00     0.074 A 
ATOM     62  C   UNL     1       1.608  -3.242  -4.260  1.00  0.00     0.049 A 
ATOM     63  N   UNL     1       2.083  -5.837  -2.801  1.00  0.00    -0.248 NA
ATOM     64  C   UNL     1       3.053  -6.792  -4.622  1.00  0.00     0.031 C 
ATOM     65  C   UNL     1       1.694  -2.837  -2.861  1.00  0.00     0.029 A 
ATOM     66  N   UNL     1       0.937  -2.160  -4.825  1.00  0.00    -0.354 N 
ATOM     67  C   UNL     1       2.791  -6.955  -2.352  1.00  0.00     0.074 A 
ATOM     68  C   UNL     1       3.321  -7.545  -3.549  1.00  0.00     0.031 C 
ATOM     69  C   UNL     1       1.034  -1.700  -2.629  1.00  0.00     0.029 A 
ATOM     70  C   UNL     1       0.271  -1.446  -3.805  1.00  0.00     0.049 A 
ATOM     71  H   UNL     1       0.929  -1.930  -5.782  1.00  0.00     0.167 HD
ATOM     72  C   UNL     1       2.934  -7.173  -1.002  1.00  0.00     0.037 A 
ATOM     73  C   UNL     1      -1.090  -1.405  -3.758  1.00  0.00     0.037 A 
ATOM     74  C   UNL     1       2.029  -6.287  -0.247  1.00  0.00     0.049 A 
ATOM     75  C   UNL     1      -1.679  -2.304  -2.667  1.00  0.00     0.074 A 
ATOM     76  C   UNL     1       2.183  -5.365   0.773  1.00  0.00     0.029 A 
ATOM     77  N   UNL     1       0.710  -6.146  -0.682  1.00  0.00    -0.354 N 
ATOM     78  N   UNL     1      -1.015  -3.290  -2.094  1.00  0.00    -0.248 NA
ATOM     79  C   UNL     1      -2.992  -2.119  -2.052  1.00  0.00     0.031 C 
ATOM     80  C   UNL     1       1.008  -4.562   0.819  1.00  0.00     0.029 A 
ATOM     81  C   UNL     1       0.092  -5.069  -0.090  1.00  0.00     0.049 A 
ATOM     82  H   UNL     1       0.275  -6.744  -1.332  1.00  0.00     0.167 HD
ATOM     83  C   UNL     1      -1.756  -3.843  -1.078  1.00  0.00     0.074 A 
ATOM     84  C   UNL     1      -2.984  -3.067  -1.096  1.00  0.00     0.031 C 
ATOM     85  C   UNL     1      -1.340  -4.871  -0.269  1.00  0.00     0.037 A 
BRANCH  72  86
ATOM     86  C   UNL     1       4.008  -8.039  -0.304  1.00  0.00     0.057 A 
ATOM     87  C   UNL     1       4.044  -8.155   1.109  1.00  0.00     0.134 A 
ATOM     88  C   UNL     1       5.093  -8.692  -0.929  1.00  0.00     0.134 A 
ATOM     89  F   UNL     1       3.078  -7.642   1.881  1.00  0.00    -0.206 F 
ATOM     90  C   UNL     1       5.072  -8.807   1.821  1.00  0.00     0.040 A 
ATOM     91  C   UNL     1       6.097  -9.397  -0.229  1.00  0.00     0.040 A 
ATOM     92  F   UNL     1       5.281  -8.662  -2.250  1.00  0.00    -0.206 F 
ATOM     93  C   UNL     1       6.102  -9.442   1.153  1.00  0.00     0.006 A 
ENDBRANCH  72  86
BRANCH  73  94
ATOM     94  C   UNL     1      -1.584  -0.785  -5.036  1.00  0.00     0.057 A 
ATOM     95  C   UNL     1      -1.151   0.560  -5.169  1.00  0.00     0.134 A 
ATOM     96  C   UNL     1      -1.517  -1.563  -6.204  1.00  0.00     0.134 A 
ATOM     97  F   UNL     1      -1.231   1.391  -4.116  1.00  0.00    -0.206 F 
ATOM     98  C   UNL     1      -0.364   0.977  -6.254  1.00  0.00     0.040 A 
ATOM     99  C   UNL     1      -0.754  -1.140  -7.311  1.00  0.00     0.040 A 
ATOM    100  F   UNL     1      -1.935  -2.837  -6.189  1.00  0.00    -0.206 F 
ATOM    101  C   UNL     1      -0.109   0.098  -7.301  1.00  0.00     0.006 A 
ENDBRANCH  73  94
BRANCH  85 102
ATOM    102  C   UNL     1      -2.249  -5.820   0.509  1.00  0.00     0.057 A 
ATOM    103  C   UNL     1      -3.612  -5.994   0.240  1.00  0.00     0.134 A 
ATOM    104  C   UNL     1      -1.718  -6.758   1.438  1.00  0.00     0.134 A 
ATOM    105  F   UNL     1      -4.239  -5.296  -0.715  1.00  0.00    -0.206 F 
ATOM    106  C   UNL     1      -4.398  -6.954   0.892  1.00  0.00     0.040 A 
ATOM    107  C   UNL     1      -2.477  -7.764   2.041  1.00  0.00     0.040 A 
ATOM    108  F   UNL     1      -0.423  -6.781   1.782  1.00  0.00    -0.206 F 
ATOM    109  C   UNL     1      -3.832  -7.851   1.786  1.00  0.00     0.006 A 
ENDBRANCH  85 102
ENDBRANCH  59  60
ENDBRANCH  52  54
ENDBRANCH  51  52
ENDBRANCH  50  51
ENDBRANCH  49  50
ENDBRANCH  48  49
ENDBRANCH  47  48
ENDBRANCH  46  47
ENDBRANCH  45  46
ENDBRANCH   1  45
TORSDOF 26
