REMARK SMILES COc1ccccc1[C@@H]1C[N@@H+](Cc2cc3c(cc2C)OCO3)C[C@H]1C(=O)OCCOCCOCCOCCOC(=O)c1ccc(-c2c3nc(c(-c4c(F)cccc4F)c4ccc([nH]4)c(-c4c(F)cccc4F)c4nc(c(-c5c(F)cccc5F)c5ccc2[nH]5)C=C4)C=C3)cc1
REMARK SMILES IDX 33 1 32 2 31 3 30 4 29 5 28 6 27 7 25 8 26 9 24 10 9 11
REMARK SMILES IDX 10 12 11 13 23 14 8 16 3 17 4 18 5 19 7 20 6 21 2 22 1 23
REMARK SMILES IDX 12 24 13 25 14 26 18 27 15 28 17 29 19 30 16 31 22 32 20 33
REMARK SMILES IDX 21 34 34 35 35 36 36 37 37 38 38 39 39 40 40 41 41 42 42 43
REMARK SMILES IDX 43 44 95 45 44 46 94 47 45 48 46 49 47 50 88 51 48 52 93 53
REMARK SMILES IDX 87 54 89 55 49 56 92 57 86 58 85 59 50 61 76 62 59 63 75 64
REMARK SMILES IDX 60 65 63 66 74 67 90 68 61 69 62 70 73 72 91 73 64 74 51 75
REMARK SMILES IDX 52 76 57 77 53 78 54 79 56 80 58 81 55 82 77 83 78 84 83 85
REMARK SMILES IDX 79 86 80 87 82 88 84 89 81 90 65 91 66 92 71 93 67 94 68 95
REMARK SMILES IDX 70 96 72 97 69 98
REMARK H PARENT 11 15 89 60 63 71
REMARK Flexibility Score: inf
ROOT
ATOM      1  O   UNL     1       2.893   0.449  -5.018  1.00  0.00    -0.377 OA
ENDROOT
BRANCH   1   2
ATOM      2  C   UNL     1       2.056   0.980  -4.016  1.00  0.00     0.188 C 
BRANCH   2   3
ATOM      3  C   UNL     1       1.412   2.367  -4.062  1.00  0.00     0.188 C 
BRANCH   3   4
ATOM      4  O   UNL     1       2.160   3.445  -4.578  1.00  0.00    -0.376 OA
BRANCH   4   5
ATOM      5  C   UNL     1       3.209   4.067  -3.861  1.00  0.00     0.202 C 
BRANCH   5   6
ATOM      6  C   UNL     1       3.588   3.721  -2.414  1.00  0.00     0.261 C 
BRANCH   6   7
ATOM      7  O   UNL     1       3.562   2.327  -2.043  1.00  0.00    -0.463 OA
BRANCH   7   8
ATOM      8  C   UNL     1       3.077   2.082  -0.801  1.00  0.00     0.315 C 
ATOM      9  O   UNL     1       2.760   2.992  -0.031  1.00  0.00    -0.252 OA
BRANCH   8  10
ATOM     10  C   UNL     1       2.847   0.636  -0.361  1.00  0.00     0.167 C 
ATOM     11  C   UNL     1       3.107  -0.691  -1.105  1.00  0.00     0.098 C 
ATOM     12  C   UNL     1       3.639  -1.634  -0.015  1.00  0.00     0.272 C 
ATOM     13  N   UNL     1       4.317  -0.792   0.965  1.00  0.00    -0.330 N 
ATOM     14  C   UNL     1       3.570   0.465   0.987  1.00  0.00     0.278 C 
ATOM     15  H   UNL     1       4.298  -1.224   1.889  1.00  0.00     0.348 HD
BRANCH  11  16
ATOM     16  C   UNL     1       1.997  -1.438  -1.863  1.00  0.00     0.004 A 
ATOM     17  C   UNL     1       0.648  -1.615  -1.496  1.00  0.00     0.122 A 
ATOM     18  C   UNL     1      -0.256  -2.236  -2.384  1.00  0.00     0.047 A 
ATOM     19  C   UNL     1       0.183  -2.808  -3.578  1.00  0.00     0.004 A 
ATOM     20  C   UNL     1       2.422  -2.110  -3.038  1.00  0.00     0.008 A 
ATOM     21  C   UNL     1       1.537  -2.800  -3.871  1.00  0.00     0.001 A 
BRANCH  17  22
ATOM     22  O   UNL     1       0.221  -1.622  -0.191  1.00  0.00    -0.496 OA
ATOM     23  C   UNL     1      -0.156  -0.389   0.394  1.00  0.00     0.278 C 
ENDBRANCH  17  22
ENDBRANCH  11  16
BRANCH  13  24
ATOM     24  C   UNL     1       5.773  -0.681   0.805  1.00  0.00     0.299 C 
BRANCH  24  25
ATOM     25  C   UNL     1       6.289  -0.125  -0.509  1.00  0.00     0.013 A 
ATOM     26  C   UNL     1       6.622  -1.059  -1.512  1.00  0.00     0.060 A 
ATOM     27  C   UNL     1       6.431   1.267  -0.782  1.00  0.00    -0.038 A 
ATOM     28  C   UNL     1       6.993  -0.587  -2.745  1.00  0.00     0.166 A 
ATOM     29  C   UNL     1       6.709   1.700  -2.090  1.00  0.00     0.054 A 
ATOM     30  C   UNL     1       6.353   2.342   0.266  1.00  0.00     0.045 C 
ATOM     31  C   UNL     1       6.998   0.753  -3.036  1.00  0.00     0.166 A 
ATOM     32  O   UNL     1       7.420  -1.343  -3.788  1.00  0.00    -0.454 OA
ATOM     33  O   UNL     1       7.403   1.006  -4.306  1.00  0.00    -0.454 OA
ATOM     34  C   UNL     1       7.922  -0.298  -4.635  1.00  0.00     0.468 C 
ENDBRANCH  24  25
ENDBRANCH  13  24
ENDBRANCH   8  10
ENDBRANCH   7   8
ENDBRANCH   6   7
ENDBRANCH   5   6
ENDBRANCH   4   5
ENDBRANCH   3   4
ENDBRANCH   2   3
ENDBRANCH   1   2
BRANCH   1  35
ATOM     35  C   UNL     1       3.726   1.323  -5.735  1.00  0.00     0.188 C 
BRANCH  35  36
ATOM     36  C   UNL     1       3.065   1.864  -7.009  1.00  0.00     0.188 C 
BRANCH  36  37
ATOM     37  O   UNL     1       1.818   1.361  -7.472  1.00  0.00    -0.376 OA
BRANCH  37  38
ATOM     38  C   UNL     1       1.378   0.046  -7.178  1.00  0.00     0.202 C 
BRANCH  38  39
ATOM     39  C   UNL     1       2.266  -1.194  -7.398  1.00  0.00     0.261 C 
BRANCH  39  40
ATOM     40  O   UNL     1       3.687  -1.029  -7.376  1.00  0.00    -0.460 OA
BRANCH  40  41
ATOM     41  C   UNL     1       4.255  -0.746  -8.569  1.00  0.00     0.338 C 
ATOM     42  O   UNL     1       3.700  -0.592  -9.637  1.00  0.00    -0.246 OA
BRANCH  41  43
ATOM     43  C   UNL     1       5.707  -0.558  -8.371  1.00  0.00     0.060 A 
ATOM     44  C   UNL     1       6.269   0.695  -8.644  1.00  0.00     0.016 A 
ATOM     45  C   UNL     1       6.520  -1.632  -8.003  1.00  0.00     0.016 A 
ATOM     46  C   UNL     1       7.652   0.878  -8.578  1.00  0.00     0.010 A 
ATOM     47  C   UNL     1       7.908  -1.456  -7.968  1.00  0.00     0.010 A 
ATOM     48  C   UNL     1       8.484  -0.204  -8.276  1.00  0.00    -0.014 A 
BRANCH  48  49
ATOM     49  C   UNL     1       9.953  -0.095  -8.466  1.00  0.00     0.031 A 
ATOM     50  C   UNL     1      10.542  -0.720  -9.700  1.00  0.00     0.074 A 
ATOM     51  C   UNL     1      10.752   0.539  -7.587  1.00  0.00     0.049 A 
ATOM     52  N   UNL     1      11.792  -0.799 -10.072  1.00  0.00    -0.248 NA
ATOM     53  C   UNL     1       9.590  -1.317 -10.653  1.00  0.00     0.031 C 
ATOM     54  C   UNL     1      10.308   1.282  -6.411  1.00  0.00     0.029 A 
ATOM     55  N   UNL     1      12.122   0.633  -7.533  1.00  0.00    -0.354 N 
ATOM     56  C   UNL     1      11.773  -1.432 -11.307  1.00  0.00     0.074 A 
ATOM     57  C   UNL     1      10.399  -1.772 -11.597  1.00  0.00     0.031 C 
ATOM     58  C   UNL     1      11.380   1.665  -5.696  1.00  0.00     0.029 A 
ATOM     59  C   UNL     1      12.591   1.231  -6.386  1.00  0.00     0.049 A 
ATOM     60  H   UNL     1      12.713   0.302  -8.247  1.00  0.00     0.167 HD
ATOM     61  C   UNL     1      12.808  -1.682 -12.140  1.00  0.00     0.037 A 
ATOM     62  C   UNL     1      13.852   1.409  -5.946  1.00  0.00     0.037 A 
ATOM     63  C   UNL     1      14.175  -1.345 -11.850  1.00  0.00     0.049 A 
ATOM     64  C   UNL     1      14.998   1.005  -6.838  1.00  0.00     0.074 A 
ATOM     65  C   UNL     1      15.292  -1.530 -12.644  1.00  0.00     0.029 A 
ATOM     66  N   UNL     1      14.611  -0.772 -10.666  1.00  0.00    -0.354 N 
ATOM     67  N   UNL     1      14.963   0.469  -8.034  1.00  0.00    -0.248 NA
ATOM     68  C   UNL     1      16.356   1.270  -6.340  1.00  0.00     0.031 C 
ATOM     69  C   UNL     1      16.414  -1.131 -11.914  1.00  0.00     0.029 A 
ATOM     70  C   UNL     1      15.989  -0.634 -10.692  1.00  0.00     0.049 A 
ATOM     71  H   UNL     1      14.030  -0.502  -9.919  1.00  0.00     0.167 HD
ATOM     72  C   UNL     1      16.285   0.389  -8.454  1.00  0.00     0.074 A 
ATOM     73  C   UNL     1      17.096   0.932  -7.385  1.00  0.00     0.031 C 
ATOM     74  C   UNL     1      16.782  -0.079  -9.625  1.00  0.00     0.037 A 
BRANCH  61  75
ATOM     75  C   UNL     1      12.504  -2.366 -13.438  1.00  0.00     0.057 A 
ATOM     76  C   UNL     1      11.838  -1.712 -14.482  1.00  0.00     0.134 A 
ATOM     77  C   UNL     1      12.925  -3.683 -13.661  1.00  0.00     0.134 A 
ATOM     78  F   UNL     1      11.390  -0.457 -14.324  1.00  0.00    -0.206 F 
ATOM     79  C   UNL     1      11.593  -2.348 -15.701  1.00  0.00     0.040 A 
ATOM     80  C   UNL     1      12.710  -4.319 -14.883  1.00  0.00     0.040 A 
ATOM     81  F   UNL     1      13.565  -4.365 -12.699  1.00  0.00    -0.206 F 
ATOM     82  C   UNL     1      12.040  -3.651 -15.907  1.00  0.00     0.006 A 
ENDBRANCH  61  75
BRANCH  62  83
ATOM     83  C   UNL     1      14.118   2.017  -4.614  1.00  0.00     0.057 A 
ATOM     84  C   UNL     1      14.724   3.274  -4.494  1.00  0.00     0.134 A 
ATOM     85  C   UNL     1      13.837   1.326  -3.429  1.00  0.00     0.134 A 
ATOM     86  F   UNL     1      15.037   3.979  -5.591  1.00  0.00    -0.206 F 
ATOM     87  C   UNL     1      15.076   3.803  -3.250  1.00  0.00     0.040 A 
ATOM     88  C   UNL     1      14.161   1.854  -2.177  1.00  0.00     0.040 A 
ATOM     89  F   UNL     1      13.254   0.118  -3.471  1.00  0.00    -0.206 F 
ATOM     90  C   UNL     1      14.795   3.092  -2.086  1.00  0.00     0.006 A 
ENDBRANCH  62  83
BRANCH  74  91
ATOM     91  C   UNL     1      18.265   0.021  -9.837  1.00  0.00     0.057 A 
ATOM     92  C   UNL     1      19.173  -0.772  -9.126  1.00  0.00     0.134 A 
ATOM     93  C   UNL     1      18.786   0.893 -10.803  1.00  0.00     0.134 A 
ATOM     94  F   UNL     1      18.741  -1.620  -8.180  1.00  0.00    -0.206 F 
ATOM     95  C   UNL     1      20.548  -0.680  -9.346  1.00  0.00     0.040 A 
ATOM     96  C   UNL     1      20.155   0.969 -11.056  1.00  0.00     0.040 A 
ATOM     97  F   UNL     1      17.970   1.673 -11.529  1.00  0.00    -0.206 F 
ATOM     98  C   UNL     1      21.042   0.186 -10.320  1.00  0.00     0.006 A 
ENDBRANCH  74  91
ENDBRANCH  48  49
ENDBRANCH  41  43
ENDBRANCH  40  41
ENDBRANCH  39  40
ENDBRANCH  38  39
ENDBRANCH  37  38
ENDBRANCH  36  37
ENDBRANCH  35  36
ENDBRANCH   1  35
TORSDOF 24
