REMARK SMILES CC(=O)Nc1cnc(N2CC=C(c3ccccc3C)CC2)c(C(=O)OCCOCCOCCOCCOC(=O)c2ccc(-c3c4nc(c(-c5c(F)cccc5F)c5ccc([nH]5)c(-c5c(F)cccc5F)c5nc(c(-c6c(F)cccc6F)c6ccc3[nH]6)C=C5)C=C4)cc2)c1
REMARK SMILES IDX 31 1 30 2 29 3 28 4 27 5 26 6 25 7 23 8 24 9 22 10 5 11 6 12
REMARK SMILES IDX 94 13 7 14 8 15 4 16 1 17 2 18 3 19 9 21 10 22 21 23 11 24
REMARK SMILES IDX 20 25 12 26 13 27 14 28 18 29 15 30 17 31 19 32 16 33 32 34
REMARK SMILES IDX 33 35 34 36 35 37 36 38 37 39 38 40 39 41 40 42 41 43 93 44
REMARK SMILES IDX 42 45 92 46 43 47 44 48 45 49 86 50 46 51 91 52 85 53 87 54
REMARK SMILES IDX 47 55 90 56 84 57 83 58 48 60 74 61 57 62 73 63 58 64 61 65
REMARK SMILES IDX 72 66 88 67 59 68 60 69 71 71 89 72 62 73 49 74 50 75 55 76
REMARK SMILES IDX 51 77 52 78 54 79 56 80 53 81 75 82 76 83 81 84 77 85 78 86
REMARK SMILES IDX 80 87 82 88 79 89 63 90 64 91 69 92 65 93 66 94 68 95 70 96
REMARK SMILES IDX 67 97
REMARK H PARENT 4 20 87 59 61 70
REMARK Flexibility Score: inf
ROOT
ATOM      1  O   UNL     1       5.400   1.121  -2.377  1.00  0.00    -0.377 OA
ENDROOT
BRANCH   1   2
ATOM      2  C   UNL     1       5.270   2.329  -3.081  1.00  0.00     0.188 C 
BRANCH   2   3
ATOM      3  C   UNL     1       5.503   3.651  -2.360  1.00  0.00     0.188 C 
BRANCH   3   4
ATOM      4  O   UNL     1       6.584   4.029  -1.526  1.00  0.00    -0.376 OA
BRANCH   4   5
ATOM      5  C   UNL     1       6.524   3.623  -0.170  1.00  0.00     0.202 C 
BRANCH   5   6
ATOM      6  C   UNL     1       5.438   4.131   0.768  1.00  0.00     0.261 C 
BRANCH   6   7
ATOM      7  O   UNL     1       4.167   3.725   0.305  1.00  0.00    -0.460 OA
BRANCH   7   8
ATOM      8  C   UNL     1       3.202   4.639   0.548  1.00  0.00     0.342 C 
ATOM      9  O   UNL     1       3.213   5.539   1.332  1.00  0.00    -0.246 OA
BRANCH   8  10
ATOM     10  C   UNL     1       2.285   4.471  -0.578  1.00  0.00     0.104 A 
ATOM     11  C   UNL     1       1.094   2.901  -1.965  1.00  0.00     0.060 A 
ATOM     12  C   UNL     1       1.017   3.954  -2.874  1.00  0.00     0.139 A 
ATOM     13  C   UNL     1       1.764   3.179  -0.794  1.00  0.00     0.047 A 
ATOM     14  N   UNL     1       1.548   5.204  -2.698  1.00  0.00    -0.236 NA
ATOM     15  C   UNL     1       2.201   5.483  -1.546  1.00  0.00     0.143 A 
BRANCH  11  16
ATOM     16  N   UNL     1       0.589   1.634  -2.315  1.00  0.00    -0.325 N 
ATOM     17  C   UNL     1       0.283   0.555  -0.075  1.00  0.00     0.114 C 
ATOM     18  C   UNL     1       0.306   0.516  -1.579  1.00  0.00     0.221 C 
ATOM     19  O   UNL     1       0.001  -0.518  -2.179  1.00  0.00    -0.275 OA
ATOM     20  H   UNL     1       0.403   1.533  -3.276  1.00  0.00     0.169 HD
ENDBRANCH  11  16
BRANCH  15  21
ATOM     21  N   UNL     1       2.990   6.647  -1.539  1.00  0.00    -0.352 N 
ATOM     22  C   UNL     1       2.711   7.693  -0.562  1.00  0.00     0.146 C 
ATOM     23  C   UNL     1       4.383   6.360  -1.853  1.00  0.00     0.123 C 
ATOM     24  C   UNL     1       3.826   8.707  -0.480  1.00  0.00    -0.002 C 
ATOM     25  C   UNL     1       5.299   7.532  -2.086  1.00  0.00     0.057 C 
ATOM     26  C   UNL     1       4.969   8.671  -1.188  1.00  0.00    -0.041 C 
BRANCH  26  27
ATOM     27  C   UNL     1       5.874   9.829  -1.221  1.00  0.00    -0.020 A 
ATOM     28  C   UNL     1       6.570  10.203  -0.062  1.00  0.00     0.008 A 
ATOM     29  C   UNL     1       6.000  10.605  -2.395  1.00  0.00    -0.044 A 
ATOM     30  C   UNL     1       7.353  11.358  -0.052  1.00  0.00     0.001 A 
ATOM     31  C   UNL     1       6.798  11.755  -2.369  1.00  0.00     0.004 A 
ATOM     32  C   UNL     1       5.341  10.228  -3.697  1.00  0.00     0.045 C 
ATOM     33  C   UNL     1       7.454  12.139  -1.201  1.00  0.00     0.000 A 
ENDBRANCH  26  27
ENDBRANCH  15  21
ENDBRANCH   8  10
ENDBRANCH   7   8
ENDBRANCH   6   7
ENDBRANCH   5   6
ENDBRANCH   4   5
ENDBRANCH   3   4
ENDBRANCH   2   3
ENDBRANCH   1   2
BRANCH   1  34
ATOM     34  C   UNL     1       6.713   0.589  -2.299  1.00  0.00     0.188 C 
BRANCH  34  35
ATOM     35  C   UNL     1       7.722   0.950  -3.377  1.00  0.00     0.188 C 
BRANCH  35  36
ATOM     36  O   UNL     1       8.121   2.307  -3.200  1.00  0.00    -0.376 OA
BRANCH  36  37
ATOM     37  C   UNL     1       8.707   2.933  -4.336  1.00  0.00     0.202 C 
BRANCH  37  38
ATOM     38  C   UNL     1       9.927   2.177  -4.880  1.00  0.00     0.261 C 
BRANCH  38  39
ATOM     39  O   UNL     1      10.937   2.097  -3.849  1.00  0.00    -0.460 OA
BRANCH  39  40
ATOM     40  C   UNL     1      11.089   0.885  -3.243  1.00  0.00     0.338 C 
ATOM     41  O   UNL     1      11.124  -0.193  -3.816  1.00  0.00    -0.246 OA
BRANCH  40  42
ATOM     42  C   UNL     1      10.855   1.017  -1.769  1.00  0.00     0.060 A 
ATOM     43  C   UNL     1      10.701  -0.123  -0.956  1.00  0.00     0.016 A 
ATOM     44  C   UNL     1      10.417   2.236  -1.291  1.00  0.00     0.016 A 
ATOM     45  C   UNL     1       9.918  -0.072   0.221  1.00  0.00     0.010 A 
ATOM     46  C   UNL     1       9.581   2.247  -0.191  1.00  0.00     0.010 A 
ATOM     47  C   UNL     1       9.245   1.098   0.553  1.00  0.00    -0.014 A 
BRANCH  47  48
ATOM     48  C   UNL     1       8.088   1.238   1.506  1.00  0.00     0.031 A 
ATOM     49  C   UNL     1       8.095   2.443   2.428  1.00  0.00     0.074 A 
ATOM     50  C   UNL     1       6.936   0.553   1.224  1.00  0.00     0.049 A 
ATOM     51  N   UNL     1       7.124   2.848   3.175  1.00  0.00    -0.248 NA
ATOM     52  C   UNL     1       9.249   3.342   2.550  1.00  0.00     0.031 C 
ATOM     53  C   UNL     1       5.525   0.982   1.331  1.00  0.00     0.029 A 
ATOM     54  N   UNL     1       6.774  -0.686   0.623  1.00  0.00    -0.354 N 
ATOM     55  C   UNL     1       7.372   4.165   3.583  1.00  0.00     0.074 A 
ATOM     56  C   UNL     1       8.743   4.388   3.213  1.00  0.00     0.031 C 
ATOM     57  C   UNL     1       4.676   0.036   0.908  1.00  0.00     0.029 A 
ATOM     58  C   UNL     1       5.453  -1.150   0.771  1.00  0.00     0.049 A 
ATOM     59  H   UNL     1       7.487  -1.177   0.155  1.00  0.00     0.167 HD
ATOM     60  C   UNL     1       6.337   4.938   4.064  1.00  0.00     0.037 A 
ATOM     61  C   UNL     1       5.208  -2.253   1.534  1.00  0.00     0.037 A 
ATOM     62  C   UNL     1       5.134   4.097   4.258  1.00  0.00     0.049 A 
ATOM     63  C   UNL     1       4.704  -1.814   2.918  1.00  0.00     0.074 A 
ATOM     64  C   UNL     1       3.812   4.172   3.864  1.00  0.00     0.029 A 
ATOM     65  N   UNL     1       5.261   2.829   4.832  1.00  0.00    -0.354 N 
ATOM     66  N   UNL     1       4.996  -0.653   3.476  1.00  0.00    -0.248 NA
ATOM     67  C   UNL     1       3.631  -2.502   3.645  1.00  0.00     0.031 C 
ATOM     68  C   UNL     1       3.249   2.868   3.931  1.00  0.00     0.029 A 
ATOM     69  C   UNL     1       4.165   2.038   4.561  1.00  0.00     0.049 A 
ATOM     70  H   UNL     1       6.036   2.537   5.363  1.00  0.00     0.167 HD
ATOM     71  C   UNL     1       4.139  -0.409   4.521  1.00  0.00     0.074 A 
ATOM     72  C   UNL     1       3.329  -1.611   4.609  1.00  0.00     0.031 C 
ATOM     73  C   UNL     1       4.006   0.758   5.224  1.00  0.00     0.037 A 
BRANCH  60  74
ATOM     74  C   UNL     1       6.285   6.492   4.170  1.00  0.00     0.057 A 
ATOM     75  C   UNL     1       5.111   7.158   4.608  1.00  0.00     0.134 A 
ATOM     76  C   UNL     1       7.295   7.402   3.785  1.00  0.00     0.134 A 
ATOM     77  F   UNL     1       4.069   6.487   5.115  1.00  0.00    -0.206 F 
ATOM     78  C   UNL     1       4.934   8.560   4.589  1.00  0.00     0.040 A 
ATOM     79  C   UNL     1       7.151   8.810   3.816  1.00  0.00     0.040 A 
ATOM     80  F   UNL     1       8.488   7.005   3.343  1.00  0.00    -0.206 F 
ATOM     81  C   UNL     1       5.959   9.397   4.194  1.00  0.00     0.006 A 
ENDBRANCH  60  74
BRANCH  61  82
ATOM     82  C   UNL     1       6.078  -3.353   0.979  1.00  0.00     0.057 A 
ATOM     83  C   UNL     1       5.746  -3.651  -0.374  1.00  0.00     0.134 A 
ATOM     84  C   UNL     1       7.447  -3.380   1.287  1.00  0.00     0.134 A 
ATOM     85  F   UNL     1       4.456  -3.663  -0.752  1.00  0.00    -0.206 F 
ATOM     86  C   UNL     1       6.703  -3.611  -1.400  1.00  0.00     0.040 A 
ATOM     87  C   UNL     1       8.417  -3.393   0.262  1.00  0.00     0.040 A 
ATOM     88  F   UNL     1       7.866  -3.113   2.532  1.00  0.00    -0.206 F 
ATOM     89  C   UNL     1       8.042  -3.421  -1.084  1.00  0.00     0.006 A 
ENDBRANCH  61  82
BRANCH  73  90
ATOM     90  C   UNL     1       3.650   0.796   6.696  1.00  0.00     0.057 A 
ATOM     91  C   UNL     1       3.891  -0.293   7.543  1.00  0.00     0.134 A 
ATOM     92  C   UNL     1       3.304   2.003   7.355  1.00  0.00     0.134 A 
ATOM     93  F   UNL     1       4.336  -1.465   7.069  1.00  0.00    -0.206 F 
ATOM     94  C   UNL     1       3.749  -0.209   8.931  1.00  0.00     0.040 A 
ATOM     95  C   UNL     1       3.216   2.111   8.743  1.00  0.00     0.040 A 
ATOM     96  F   UNL     1       3.079   3.147   6.694  1.00  0.00    -0.206 F 
ATOM     97  C   UNL     1       3.425   0.998   9.537  1.00  0.00     0.006 A 
ENDBRANCH  73  90
ENDBRANCH  47  48
ENDBRANCH  40  42
ENDBRANCH  39  40
ENDBRANCH  38  39
ENDBRANCH  37  38
ENDBRANCH  36  37
ENDBRANCH  35  36
ENDBRANCH  34  35
ENDBRANCH   1  34
TORSDOF 23
