REMARK SMILES O=C(CCCN1C(=O)C(=O)/C(=C(/[O-])c2ccc(Cl)cc2)[C@@H]1c1ccccc1[N+](=O)[O-])OCCOCCOCCOCCOC(=O)c1ccc(-c2c3nc(c(-c4c(F)cccc4F)c4ccc([nH]4)c(-c4c(F)cccc4F)c4nc(c(-c5c(F)cccc5F)c5ccc2[nH]5)C=C4)C=C3)cc1
REMARK SMILES IDX 35 1 34 2 33 3 32 4 31 5 2 6 1 7 3 8 4 9 5 10 6 11 7 12
REMARK SMILES IDX 21 13 8 14 9 15 11 16 10 17 12 18 13 19 22 20 23 21 27 22
REMARK SMILES IDX 24 23 26 24 25 25 28 26 29 27 30 28 14 29 15 30 20 31 16 32
REMARK SMILES IDX 19 33 17 34 18 35 36 36 37 37 38 38 39 39 40 40 41 41 42 42
REMARK SMILES IDX 43 43 44 44 45 45 46 46 47 47 99 48 48 49 98 50 49 51 50 52
REMARK SMILES IDX 51 53 92 54 52 55 97 56 91 57 93 58 53 59 96 60 90 61 89 62
REMARK SMILES IDX 54 64 80 65 63 66 79 67 64 68 67 69 78 70 94 71 65 72 66 73
REMARK SMILES IDX 77 75 95 76 68 77 55 78 56 79 61 80 57 81 58 82 60 83 62 84
REMARK SMILES IDX 59 85 81 86 82 87 87 88 83 89 84 90 86 91 88 92 85 93 69 94
REMARK SMILES IDX 70 95 75 96 71 97 72 98 74 99 76 100 73 101
REMARK H PARENT 93 63 67 74
REMARK Flexibility Score: inf
ROOT
ATOM      1  C   UNL     1       2.537   0.462  -2.333  1.00  0.00     0.188 C 
ENDROOT
BRANCH   1   2
ATOM      2  O   UNL     1       3.277   0.197  -1.128  1.00  0.00    -0.376 OA
BRANCH   2   3
ATOM      3  C   UNL     1       3.194   1.264  -0.175  1.00  0.00     0.202 C 
BRANCH   3   4
ATOM      4  C   UNL     1       3.325   0.770   1.276  1.00  0.00     0.261 C 
BRANCH   4   5
ATOM      5  O   UNL     1       2.396   1.303   2.181  1.00  0.00    -0.463 OA
BRANCH   5   6
ATOM      6  C   UNL     1       2.939   2.316   2.904  1.00  0.00     0.305 C 
ATOM      7  O   UNL     1       2.531   2.583   4.026  1.00  0.00    -0.252 OA
BRANCH   6   8
ATOM      8  C   UNL     1       3.936   3.188   2.135  1.00  0.00     0.124 C 
BRANCH   8   9
ATOM      9  C   UNL     1       5.426   2.820   1.742  1.00  0.00     0.033 C 
BRANCH   9  10
ATOM     10  C   UNL     1       6.170   1.356   1.688  1.00  0.00     0.121 C 
BRANCH  10  11
ATOM     11  N   UNL     1       5.940   0.562   0.399  1.00  0.00    -0.324 N 
ATOM     12  C   UNL     1       6.546   1.216  -0.685  1.00  0.00     0.295 C 
ATOM     13  C   UNL     1       5.791  -0.993   0.084  1.00  0.00     0.157 C 
ATOM     14  O   UNL     1       7.179   2.257  -0.699  1.00  0.00    -0.265 OA
ATOM     15  C   UNL     1       6.419   0.346  -1.886  1.00  0.00     0.248 C 
ATOM     16  C   UNL     1       6.476  -1.045  -1.393  1.00  0.00     0.025 C 
ATOM     17  O   UNL     1       6.296   0.791  -3.010  1.00  0.00    -0.283 OA
ATOM     18  C   UNL     1       7.279  -1.908  -2.077  1.00  0.00    -0.092 C 
ATOM     19  O   UNL     1       7.599  -3.127  -1.507  1.00  0.00    -0.872 OA
BRANCH  13  20
ATOM     20  C   UNL     1       4.494  -2.130   0.259  1.00  0.00     0.057 A 
ATOM     21  C   UNL     1       5.067  -3.426   0.176  1.00  0.00     0.013 A 
ATOM     22  C   UNL     1       3.002  -2.264   0.276  1.00  0.00     0.275 A 
ATOM     23  C   UNL     1       4.323  -4.623   0.044  1.00  0.00     0.001 A 
ATOM     24  C   UNL     1       2.299  -3.498   0.059  1.00  0.00     0.086 A 
ATOM     25  C   UNL     1       2.958  -4.680  -0.042  1.00  0.00     0.007 A 
BRANCH  22  26
ATOM     26  N   UNL     1       1.927  -1.466   0.932  1.00  0.00     0.063 N 
ATOM     27  O   UNL     1       1.195  -0.745   0.243  1.00  0.00    -0.258 OA
ATOM     28  O   UNL     1       1.728  -1.706   2.134  1.00  0.00    -0.258 OA
ENDBRANCH  22  26
ENDBRANCH  13  20
BRANCH  18  29
ATOM     29  C   UNL     1       7.853  -1.736  -3.482  1.00  0.00    -0.033 A 
ATOM     30  C   UNL     1       8.525  -0.596  -3.947  1.00  0.00     0.009 A 
ATOM     31  C   UNL     1       7.628  -2.733  -4.450  1.00  0.00     0.009 A 
ATOM     32  C   UNL     1       8.721  -0.367  -5.328  1.00  0.00     0.021 A 
ATOM     33  C   UNL     1       7.773  -2.503  -5.829  1.00  0.00     0.021 A 
ATOM     34  C   UNL     1       8.281  -1.294  -6.266  1.00  0.00     0.041 A 
ATOM     35  Cl  UNL     1       8.363  -0.950  -7.949  1.00  0.00    -0.084 Cl
ENDBRANCH  18  29
ENDBRANCH  10  11
ENDBRANCH   9  10
ENDBRANCH   8   9
ENDBRANCH   6   8
ENDBRANCH   5   6
ENDBRANCH   4   5
ENDBRANCH   3   4
ENDBRANCH   2   3
ENDBRANCH   1   2
BRANCH   1  36
ATOM     36  C   UNL     1       1.579  -0.681  -2.717  1.00  0.00     0.188 C 
BRANCH  36  37
ATOM     37  O   UNL     1       2.074  -1.964  -3.078  1.00  0.00    -0.377 OA
BRANCH  37  38
ATOM     38  C   UNL     1       3.464  -2.178  -3.100  1.00  0.00     0.188 C 
BRANCH  38  39
ATOM     39  C   UNL     1       4.244  -1.698  -4.326  1.00  0.00     0.188 C 
BRANCH  39  40
ATOM     40  O   UNL     1       3.556  -1.057  -5.379  1.00  0.00    -0.376 OA
BRANCH  40  41
ATOM     41  C   UNL     1       2.413  -1.699  -5.918  1.00  0.00     0.202 C 
BRANCH  41  42
ATOM     42  C   UNL     1       2.494  -3.187  -6.292  1.00  0.00     0.261 C 
BRANCH  42  43
ATOM     43  O   UNL     1       2.810  -4.088  -5.202  1.00  0.00    -0.460 OA
BRANCH  43  44
ATOM     44  C   UNL     1       3.851  -4.927  -5.423  1.00  0.00     0.338 C 
ATOM     45  O   UNL     1       4.541  -4.984  -6.430  1.00  0.00    -0.246 OA
BRANCH  44  46
ATOM     46  C   UNL     1       4.210  -5.743  -4.237  1.00  0.00     0.060 A 
ATOM     47  C   UNL     1       5.296  -5.321  -3.471  1.00  0.00     0.016 A 
ATOM     48  C   UNL     1       3.727  -7.032  -4.055  1.00  0.00     0.016 A 
ATOM     49  C   UNL     1       6.013  -6.202  -2.657  1.00  0.00     0.010 A 
ATOM     50  C   UNL     1       4.391  -7.901  -3.162  1.00  0.00     0.010 A 
ATOM     51  C   UNL     1       5.588  -7.520  -2.509  1.00  0.00    -0.014 A 
BRANCH  51  52
ATOM     52  C   UNL     1       6.456  -8.540  -1.831  1.00  0.00     0.031 A 
ATOM     53  C   UNL     1       7.031  -9.658  -2.658  1.00  0.00     0.074 A 
ATOM     54  C   UNL     1       6.807  -8.488  -0.528  1.00  0.00     0.049 A 
ATOM     55  N   UNL     1       7.664 -10.733  -2.268  1.00  0.00    -0.248 NA
ATOM     56  C   UNL     1       6.920  -9.517  -4.118  1.00  0.00     0.031 C 
ATOM     57  C   UNL     1       6.580  -7.364   0.357  1.00  0.00     0.029 A 
ATOM     58  N   UNL     1       7.418  -9.402   0.297  1.00  0.00    -0.354 N 
ATOM     59  C   UNL     1       8.021 -11.400  -3.430  1.00  0.00     0.074 A 
ATOM     60  C   UNL     1       7.506 -10.627  -4.540  1.00  0.00     0.031 C 
ATOM     61  C   UNL     1       6.856  -7.693   1.625  1.00  0.00     0.029 A 
ATOM     62  C   UNL     1       7.389  -9.043   1.630  1.00  0.00     0.049 A 
ATOM     63  H   UNL     1       7.834 -10.232  -0.030  1.00  0.00     0.167 HD
ATOM     64  C   UNL     1       8.732 -12.544  -3.559  1.00  0.00     0.037 A 
ATOM     65  C   UNL     1       7.767  -9.705   2.739  1.00  0.00     0.037 A 
ATOM     66  C   UNL     1       9.264 -13.303  -2.458  1.00  0.00     0.049 A 
ATOM     67  C   UNL     1       8.429 -11.039   2.580  1.00  0.00     0.074 A 
ATOM     68  C   UNL     1       9.964 -14.496  -2.495  1.00  0.00     0.029 A 
ATOM     69  N   UNL     1       9.165 -12.940  -1.124  1.00  0.00    -0.354 N 
ATOM     70  N   UNL     1       8.712 -11.686   1.477  1.00  0.00    -0.248 NA
ATOM     71  C   UNL     1       8.855 -11.720   3.809  1.00  0.00     0.031 C 
ATOM     72  C   UNL     1      10.248 -14.879  -1.181  1.00  0.00     0.029 A 
ATOM     73  C   UNL     1       9.771 -13.899  -0.327  1.00  0.00     0.049 A 
ATOM     74  H   UNL     1       8.728 -12.123  -0.791  1.00  0.00     0.167 HD
ATOM     75  C   UNL     1       9.376 -12.835   1.875  1.00  0.00     0.074 A 
ATOM     76  C   UNL     1       9.473 -12.784   3.319  1.00  0.00     0.031 C 
ATOM     77  C   UNL     1       9.859 -13.842   1.109  1.00  0.00     0.037 A 
BRANCH  64  78
ATOM     78  C   UNL     1       8.942 -13.062  -4.949  1.00  0.00     0.057 A 
ATOM     79  C   UNL     1       9.837 -12.458  -5.841  1.00  0.00     0.134 A 
ATOM     80  C   UNL     1       8.253 -14.199  -5.390  1.00  0.00     0.134 A 
ATOM     81  F   UNL     1      10.508 -11.352  -5.486  1.00  0.00    -0.206 F 
ATOM     82  C   UNL     1      10.029 -12.960  -7.129  1.00  0.00     0.040 A 
ATOM     83  C   UNL     1       8.456 -14.724  -6.666  1.00  0.00     0.040 A 
ATOM     84  F   UNL     1       7.379 -14.820  -4.584  1.00  0.00    -0.206 F 
ATOM     85  C   UNL     1       9.344 -14.102  -7.541  1.00  0.00     0.006 A 
ENDBRANCH  64  78
BRANCH  65  86
ATOM     86  C   UNL     1       7.537  -9.128   4.090  1.00  0.00     0.057 A 
ATOM     87  C   UNL     1       8.598  -8.730   4.912  1.00  0.00     0.134 A 
ATOM     88  C   UNL     1       6.242  -9.018   4.614  1.00  0.00     0.134 A 
ATOM     89  F   UNL     1       9.861  -8.820   4.472  1.00  0.00    -0.206 F 
ATOM     90  C   UNL     1       8.385  -8.286   6.219  1.00  0.00     0.040 A 
ATOM     91  C   UNL     1       6.013  -8.551   5.910  1.00  0.00     0.040 A 
ATOM     92  F   UNL     1       5.180  -9.371   3.876  1.00  0.00    -0.206 F 
ATOM     93  C   UNL     1       7.088  -8.197   6.722  1.00  0.00     0.006 A 
ENDBRANCH  65  86
BRANCH  77  94
ATOM     94  C   UNL     1      10.556 -14.959   1.827  1.00  0.00     0.057 A 
ATOM     95  C   UNL     1       9.856 -15.869   2.630  1.00  0.00     0.134 A 
ATOM     96  C   UNL     1      11.941 -15.127   1.711  1.00  0.00     0.134 A 
ATOM     97  F   UNL     1       8.530 -15.749   2.796  1.00  0.00    -0.206 F 
ATOM     98  C   UNL     1      10.514 -16.887   3.319  1.00  0.00     0.040 A 
ATOM     99  C   UNL     1      12.606 -16.160   2.371  1.00  0.00     0.040 A 
ATOM    100  F   UNL     1      12.669 -14.292   0.954  1.00  0.00    -0.206 F 
ATOM    101  C   UNL     1      11.893 -17.038   3.185  1.00  0.00     0.006 A 
ENDBRANCH  77  94
ENDBRANCH  51  52
ENDBRANCH  44  46
ENDBRANCH  43  44
ENDBRANCH  42  43
ENDBRANCH  41  42
ENDBRANCH  40  41
ENDBRANCH  39  40
ENDBRANCH  38  39
ENDBRANCH  37  38
ENDBRANCH  36  37
ENDBRANCH   1  36
TORSDOF 26
