REMARK SMILES Nc1ccc(SCc2ccc(C(=O)OCCOCCOCCOCCOC(=O)c3ccc(-c4c5nc(c(-c6c(F)cccc6F)c6ccc([nH]6)c(-c6c(F)cccc6F)c6nc(c(-c7c(F)cccc7F)c7ccc4[nH]7)C=C6)C=C5)cc3)o2)cc1
REMARK SMILES IDX 19 1 18 2 17 3 16 4 15 5 14 6 12 7 13 8 11 9 8 10 9 11 83 12
REMARK SMILES IDX 10 13 7 14 6 15 5 16 2 17 3 18 85 19 4 20 84 21 1 22 20 25
REMARK SMILES IDX 21 26 22 27 23 28 24 29 25 30 26 31 27 32 28 33 29 34 30 35
REMARK SMILES IDX 82 36 31 37 81 38 32 39 33 40 34 41 75 42 35 43 80 44 74 45
REMARK SMILES IDX 76 46 36 47 79 48 73 49 72 50 37 52 63 53 46 54 62 55 47 56
REMARK SMILES IDX 50 57 61 58 77 59 48 60 49 61 60 63 78 64 51 65 38 66 39 67
REMARK SMILES IDX 44 68 40 69 41 70 43 71 45 72 42 73 64 74 65 75 70 76 66 77
REMARK SMILES IDX 67 78 69 79 71 80 68 81 52 82 53 83 58 84 54 85 55 86 57 87
REMARK SMILES IDX 59 88 56 89
REMARK H PARENT 1 23 1 24 76 51 50 62
REMARK Flexibility Score: inf
ROOT
ATOM      1  C   UNL     1      -4.158   2.073   5.423  1.00  0.00     0.188 C 
ENDROOT
BRANCH   1   2
ATOM      2  C   UNL     1      -2.920   1.212   5.710  1.00  0.00     0.188 C 
BRANCH   2   3
ATOM      3  O   UNL     1      -2.147   1.674   6.820  1.00  0.00    -0.376 OA
BRANCH   3   4
ATOM      4  C   UNL     1      -0.839   2.136   6.501  1.00  0.00     0.202 C 
BRANCH   4   5
ATOM      5  C   UNL     1      -0.803   3.620   6.112  1.00  0.00     0.261 C 
BRANCH   5   6
ATOM      6  O   UNL     1      -1.564   3.948   4.941  1.00  0.00    -0.457 OA
BRANCH   6   7
ATOM      7  C   UNL     1      -1.170   3.370   3.775  1.00  0.00     0.374 C 
ATOM      8  O   UNL     1      -0.138   2.724   3.637  1.00  0.00    -0.242 OA
BRANCH   7   9
ATOM      9  C   UNL     1      -2.215   3.543   2.797  1.00  0.00     0.211 A 
ATOM     10  C   UNL     1      -3.517   2.854   1.146  1.00  0.00     0.115 A 
ATOM     11  C   UNL     1      -4.009   4.079   1.552  1.00  0.00     0.047 A 
ATOM     12  O   UNL     1      -2.417   2.542   1.890  1.00  0.00    -0.453 OA
ATOM     13  C   UNL     1      -3.183   4.514   2.618  1.00  0.00     0.058 A 
BRANCH  10  14
ATOM     14  C   UNL     1      -3.938   1.913   0.066  1.00  0.00     0.150 C 
BRANCH  14  15
ATOM     15  S   UNL     1      -3.478   0.164   0.291  1.00  0.00    -0.118 SA
BRANCH  15  16
ATOM     16  C   UNL     1      -1.708   0.118   0.014  1.00  0.00     0.008 A 
ATOM     17  C   UNL     1       1.109  -0.118  -0.162  1.00  0.00     0.031 A 
ATOM     18  C   UNL     1       0.314  -1.243   0.049  1.00  0.00     0.026 A 
ATOM     19  C   UNL     1       0.480   1.104  -0.384  1.00  0.00     0.026 A 
ATOM     20  C   UNL     1      -1.078  -1.124   0.157  1.00  0.00     0.017 A 
ATOM     21  C   UNL     1      -0.912   1.221  -0.302  1.00  0.00     0.017 A 
BRANCH  17  22
ATOM     22  N   UNL     1       2.485  -0.233  -0.289  1.00  0.00    -0.399 N 
ATOM     23  H   UNL     1       2.924  -1.099  -0.131  1.00  0.00     0.156 HD
ATOM     24  H   UNL     1       3.023   0.553  -0.538  1.00  0.00     0.156 HD
ENDBRANCH  17  22
ENDBRANCH  15  16
ENDBRANCH  14  15
ENDBRANCH  10  14
ENDBRANCH   7   9
ENDBRANCH   6   7
ENDBRANCH   5   6
ENDBRANCH   4   5
ENDBRANCH   3   4
ENDBRANCH   2   3
ENDBRANCH   1   2
BRANCH   1  25
ATOM     25  O   UNL     1      -4.282   3.250   6.201  1.00  0.00    -0.377 OA
BRANCH  25  26
ATOM     26  C   UNL     1      -4.547   3.130   7.597  1.00  0.00     0.188 C 
BRANCH  26  27
ATOM     27  C   UNL     1      -4.744   1.764   8.289  1.00  0.00     0.188 C 
BRANCH  27  28
ATOM     28  O   UNL     1      -5.460   0.802   7.521  1.00  0.00    -0.376 OA
BRANCH  28  29
ATOM     29  C   UNL     1      -6.787   0.516   7.946  1.00  0.00     0.202 C 
BRANCH  29  30
ATOM     30  C   UNL     1      -7.804   1.553   7.462  1.00  0.00     0.261 C 
BRANCH  30  31
ATOM     31  O   UNL     1      -7.650   2.848   8.062  1.00  0.00    -0.460 OA
BRANCH  31  32
ATOM     32  C   UNL     1      -7.811   2.914   9.401  1.00  0.00     0.338 C 
ATOM     33  O   UNL     1      -8.133   2.014  10.156  1.00  0.00    -0.246 OA
BRANCH  32  34
ATOM     34  C   UNL     1      -7.370   4.247   9.846  1.00  0.00     0.060 A 
ATOM     35  C   UNL     1      -6.401   4.330  10.852  1.00  0.00     0.016 A 
ATOM     36  C   UNL     1      -7.924   5.401   9.287  1.00  0.00     0.016 A 
ATOM     37  C   UNL     1      -6.014   5.579  11.336  1.00  0.00     0.010 A 
ATOM     38  C   UNL     1      -7.547   6.649   9.781  1.00  0.00     0.010 A 
ATOM     39  C   UNL     1      -6.618   6.740  10.831  1.00  0.00    -0.014 A 
BRANCH  39  40
ATOM     40  C   UNL     1      -6.427   8.031  11.527  1.00  0.00     0.031 A 
ATOM     41  C   UNL     1      -7.420   8.425  12.584  1.00  0.00     0.074 A 
ATOM     42  C   UNL     1      -5.398   8.840  11.225  1.00  0.00     0.049 A 
ATOM     43  N   UNL     1      -7.473   9.512  13.309  1.00  0.00    -0.248 NA
ATOM     44  C   UNL     1      -8.502   7.464  12.855  1.00  0.00     0.031 C 
ATOM     45  C   UNL     1      -4.364   8.561  10.231  1.00  0.00     0.029 A 
ATOM     46  N   UNL     1      -5.065  10.073  11.725  1.00  0.00    -0.354 N 
ATOM     47  C   UNL     1      -8.587   9.363  14.125  1.00  0.00     0.074 A 
ATOM     48  C   UNL     1      -9.200   8.098  13.784  1.00  0.00     0.031 C 
ATOM     49  C   UNL     1      -3.515   9.603  10.184  1.00  0.00     0.029 A 
ATOM     50  C   UNL     1      -3.959  10.626  11.131  1.00  0.00     0.049 A 
ATOM     51  H   UNL     1      -5.572  10.518  12.442  1.00  0.00     0.167 HD
ATOM     52  C   UNL     1      -9.053  10.200  15.080  1.00  0.00     0.037 A 
ATOM     53  C   UNL     1      -3.384  11.828  11.323  1.00  0.00     0.037 A 
ATOM     54  C   UNL     1      -8.455  11.465  15.411  1.00  0.00     0.049 A 
ATOM     55  C   UNL     1      -3.959  12.772  12.345  1.00  0.00     0.074 A 
ATOM     56  C   UNL     1      -8.840  12.375  16.378  1.00  0.00     0.029 A 
ATOM     57  N   UNL     1      -7.350  12.002  14.770  1.00  0.00    -0.354 N 
ATOM     58  N   UNL     1      -4.985  12.602  13.144  1.00  0.00    -0.248 NA
ATOM     59  C   UNL     1      -3.294  14.075  12.492  1.00  0.00     0.031 C 
ATOM     60  C   UNL     1      -7.989  13.483  16.297  1.00  0.00     0.029 A 
ATOM     61  C   UNL     1      -7.053  13.244  15.303  1.00  0.00     0.049 A 
ATOM     62  H   UNL     1      -6.850  11.565  14.043  1.00  0.00     0.167 HD
ATOM     63  C   UNL     1      -5.075  13.764  13.902  1.00  0.00     0.074 A 
ATOM     64  C   UNL     1      -3.993  14.627  13.475  1.00  0.00     0.031 C 
ATOM     65  C   UNL     1      -5.971  14.088  14.866  1.00  0.00     0.037 A 
BRANCH  52  66
ATOM     66  C   UNL     1     -10.284   9.773  15.819  1.00  0.00     0.057 A 
ATOM     67  C   UNL     1     -10.245   8.760  16.785  1.00  0.00     0.134 A 
ATOM     68  C   UNL     1     -11.517  10.384  15.566  1.00  0.00     0.134 A 
ATOM     69  F   UNL     1      -9.096   8.123  17.057  1.00  0.00    -0.206 F 
ATOM     70  C   UNL     1     -11.397   8.355  17.461  1.00  0.00     0.040 A 
ATOM     71  C   UNL     1     -12.672  10.002  16.250  1.00  0.00     0.040 A 
ATOM     72  F   UNL     1     -11.620  11.359  14.650  1.00  0.00    -0.206 F 
ATOM     73  C   UNL     1     -12.614   8.981  17.198  1.00  0.00     0.006 A 
ENDBRANCH  52  66
BRANCH  53  74
ATOM     74  C   UNL     1      -2.196  12.219  10.526  1.00  0.00     0.057 A 
ATOM     75  C   UNL     1      -0.928  12.303  11.112  1.00  0.00     0.134 A 
ATOM     76  C   UNL     1      -2.305  12.542   9.169  1.00  0.00     0.134 A 
ATOM     77  F   UNL     1      -0.767  12.030  12.415  1.00  0.00    -0.206 F 
ATOM     78  C   UNL     1       0.189  12.710  10.380  1.00  0.00     0.040 A 
ATOM     79  C   UNL     1      -1.193  12.931   8.420  1.00  0.00     0.040 A 
ATOM     80  F   UNL     1      -3.494  12.482   8.552  1.00  0.00    -0.206 F 
ATOM     81  C   UNL     1       0.058  13.021   9.028  1.00  0.00     0.006 A 
ENDBRANCH  53  74
BRANCH  65  82
ATOM     82  C   UNL     1      -5.808  15.418  15.537  1.00  0.00     0.057 A 
ATOM     83  C   UNL     1      -6.160  16.613  14.898  1.00  0.00     0.134 A 
ATOM     84  C   UNL     1      -5.334  15.500  16.852  1.00  0.00     0.134 A 
ATOM     85  F   UNL     1      -6.609  16.601  13.634  1.00  0.00    -0.206 F 
ATOM     86  C   UNL     1      -6.030  17.846  15.539  1.00  0.00     0.040 A 
ATOM     87  C   UNL     1      -5.220  16.725  17.511  1.00  0.00     0.040 A 
ATOM     88  F   UNL     1      -4.987  14.391  17.522  1.00  0.00    -0.206 F 
ATOM     89  C   UNL     1      -5.565  17.903  16.852  1.00  0.00     0.006 A 
ENDBRANCH  65  82
ENDBRANCH  39  40
ENDBRANCH  32  34
ENDBRANCH  31  32
ENDBRANCH  30  31
ENDBRANCH  29  30
ENDBRANCH  28  29
ENDBRANCH  27  28
ENDBRANCH  26  27
ENDBRANCH  25  26
ENDBRANCH   1  25
TORSDOF 24
