REMARK SMILES CNC(=O)CCCn1cc(C(=O)OCCOCCOCCOCCOC(=O)c2ccc(-c3c4nc(c(-c5c(F)cccc5F)c5ccc([nH]5)c(-c5c(F)cccc5F)c5nc(c(-c6c(F)cccc6F)c6ccc3[nH]6)C=C5)C=C4)cc2)cc1Br
REMARK SMILES IDX 18 1 17 2 16 3 15 4 14 5 13 6 11 7 12 8 10 9 8 10 9 11 83 12
REMARK SMILES IDX 82 13 84 14 7 15 6 16 5 17 3 18 1 19 2 20 4 22 19 23 20 24
REMARK SMILES IDX 21 25 22 26 23 27 24 28 25 29 26 30 27 31 28 32 29 33 81 34
REMARK SMILES IDX 30 35 80 36 31 37 32 38 33 39 74 40 34 41 79 42 73 43 75 44
REMARK SMILES IDX 35 45 78 46 72 47 71 48 36 50 62 51 45 52 61 53 46 54 49 55
REMARK SMILES IDX 60 56 76 57 47 58 48 59 59 61 77 62 50 63 37 64 38 65 43 66
REMARK SMILES IDX 39 67 40 68 42 69 44 70 41 71 63 72 64 73 69 74 65 75 66 76
REMARK SMILES IDX 68 77 70 78 67 79 51 80 52 81 57 82 53 83 54 84 56 85 58 86
REMARK SMILES IDX 55 87
REMARK H PARENT 2 21 75 49 49 60
REMARK Flexibility Score: inf
ROOT
ATOM      1  C   UNL     1      -0.192  -4.143  -0.066  1.00  0.00     0.188 C 
ENDROOT
BRANCH   1   2
ATOM      2  C   UNL     1      -0.838  -5.062  -1.130  1.00  0.00     0.188 C 
BRANCH   2   3
ATOM      3  O   UNL     1      -0.269  -6.353  -1.209  1.00  0.00    -0.376 OA
BRANCH   3   4
ATOM      4  C   UNL     1       0.460  -6.747  -2.347  1.00  0.00     0.202 C 
BRANCH   4   5
ATOM      5  C   UNL     1       1.772  -5.996  -2.609  1.00  0.00     0.261 C 
BRANCH   5   6
ATOM      6  O   UNL     1       1.680  -4.563  -2.580  1.00  0.00    -0.460 OA
BRANCH   6   7
ATOM      7  C   UNL     1       0.958  -4.004  -3.582  1.00  0.00     0.339 C 
ATOM      8  O   UNL     1       0.474  -4.643  -4.523  1.00  0.00    -0.246 OA
BRANCH   7   9
ATOM      9  C   UNL     1       0.652  -2.600  -3.354  1.00  0.00     0.078 A 
ATOM     10  N   UNL     1       0.771  -0.412  -2.788  1.00  0.00    -0.341 N 
ATOM     11  C   UNL     1       1.429  -1.637  -2.728  1.00  0.00     0.102 A 
ATOM     12  C   UNL     1      -0.435  -0.614  -3.410  1.00  0.00     0.085 A 
ATOM     13  C   UNL     1      -0.553  -1.947  -3.720  1.00  0.00     0.051 A 
ATOM     14  Br  UNL     1      -1.769   0.608  -3.887  1.00  0.00    -0.031 Br
BRANCH  10  15
ATOM     15  C   UNL     1       1.426   0.814  -2.354  1.00  0.00     0.123 C 
BRANCH  15  16
ATOM     16  C   UNL     1       0.619   2.073  -2.023  1.00  0.00     0.032 C 
BRANCH  16  17
ATOM     17  C   UNL     1      -0.450   1.931  -0.940  1.00  0.00     0.102 C 
BRANCH  17  18
ATOM     18  C   UNL     1       0.086   2.190   0.449  1.00  0.00     0.219 C 
ATOM     19  C   UNL     1       0.669  -0.244   0.882  1.00  0.00     0.142 C 
ATOM     20  N   UNL     1       0.569   1.162   1.196  1.00  0.00    -0.359 N 
ATOM     21  H   UNL     1       0.900   1.414   2.088  1.00  0.00     0.163 HD
ATOM     22  O   UNL     1       0.115   3.328   0.918  1.00  0.00    -0.275 OA
ENDBRANCH  17  18
ENDBRANCH  16  17
ENDBRANCH  15  16
ENDBRANCH  10  15
ENDBRANCH   7   9
ENDBRANCH   6   7
ENDBRANCH   5   6
ENDBRANCH   4   5
ENDBRANCH   3   4
ENDBRANCH   2   3
ENDBRANCH   1   2
BRANCH   1  23
ATOM     23  O   UNL     1       0.674  -4.609   0.967  1.00  0.00    -0.377 OA
BRANCH  23  24
ATOM     24  C   UNL     1       0.931  -5.996   1.124  1.00  0.00     0.188 C 
BRANCH  24  25
ATOM     25  C   UNL     1      -0.259  -6.934   1.440  1.00  0.00     0.188 C 
BRANCH  25  26
ATOM     26  O   UNL     1      -1.546  -6.440   1.121  1.00  0.00    -0.376 OA
BRANCH  26  27
ATOM     27  C   UNL     1      -2.388  -5.728   2.004  1.00  0.00     0.202 C 
BRANCH  27  28
ATOM     28  C   UNL     1      -1.881  -4.773   3.075  1.00  0.00     0.261 C 
BRANCH  28  29
ATOM     29  O   UNL     1      -0.560  -5.003   3.494  1.00  0.00    -0.460 OA
BRANCH  29  30
ATOM     30  C   UNL     1      -0.406  -6.058   4.297  1.00  0.00     0.338 C 
ATOM     31  O   UNL     1      -1.229  -6.941   4.550  1.00  0.00    -0.246 OA
BRANCH  30  32
ATOM     32  C   UNL     1       0.885  -5.923   4.951  1.00  0.00     0.060 A 
ATOM     33  C   UNL     1       1.308  -7.013   5.711  1.00  0.00     0.016 A 
ATOM     34  C   UNL     1       1.345  -4.614   5.159  1.00  0.00     0.016 A 
ATOM     35  C   UNL     1       1.961  -6.742   6.883  1.00  0.00     0.010 A 
ATOM     36  C   UNL     1       1.942  -4.340   6.353  1.00  0.00     0.010 A 
ATOM     37  C   UNL     1       2.154  -5.401   7.230  1.00  0.00    -0.014 A 
BRANCH  37  38
ATOM     38  C   UNL     1       2.718  -5.107   8.522  1.00  0.00     0.031 A 
ATOM     39  C   UNL     1       4.178  -5.329   8.525  1.00  0.00     0.074 A 
ATOM     40  C   UNL     1       1.962  -4.557   9.491  1.00  0.00     0.049 A 
ATOM     41  N   UNL     1       4.845  -6.190   9.214  1.00  0.00    -0.248 NA
ATOM     42  C   UNL     1       4.970  -4.666   7.467  1.00  0.00     0.031 C 
ATOM     43  C   UNL     1       0.580  -4.075   9.383  1.00  0.00     0.029 A 
ATOM     44  N   UNL     1       2.313  -4.187  10.749  1.00  0.00    -0.354 N 
ATOM     45  C   UNL     1       6.172  -5.983   8.854  1.00  0.00     0.074 A 
ATOM     46  C   UNL     1       6.158  -5.245   7.625  1.00  0.00     0.031 C 
ATOM     47  C   UNL     1       0.305  -3.273  10.437  1.00  0.00     0.029 A 
ATOM     48  C   UNL     1       1.442  -3.276  11.339  1.00  0.00     0.049 A 
ATOM     49  H   UNL     1       3.114  -4.534  11.205  1.00  0.00     0.167 HD
ATOM     50  C   UNL     1       7.154  -6.109   9.784  1.00  0.00     0.037 A 
ATOM     51  C   UNL     1       1.718  -2.512  12.427  1.00  0.00     0.037 A 
ATOM     52  C   UNL     1       6.718  -6.951  10.872  1.00  0.00     0.049 A 
ATOM     53  C   UNL     1       2.908  -3.106  13.093  1.00  0.00     0.074 A 
ATOM     54  C   UNL     1       6.241  -8.245  10.962  1.00  0.00     0.029 A 
ATOM     55  N   UNL     1       6.366  -6.336  12.047  1.00  0.00    -0.354 N 
ATOM     56  N   UNL     1       2.903  -4.255  13.709  1.00  0.00    -0.248 NA
ATOM     57  C   UNL     1       4.218  -2.637  12.663  1.00  0.00     0.031 C 
ATOM     58  C   UNL     1       5.243  -8.205  11.979  1.00  0.00     0.029 A 
ATOM     59  C   UNL     1       5.212  -6.913  12.505  1.00  0.00     0.049 A 
ATOM     60  H   UNL     1       6.858  -5.605  12.486  1.00  0.00     0.167 HD
ATOM     61  C   UNL     1       4.106  -4.851  13.355  1.00  0.00     0.074 A 
ATOM     62  C   UNL     1       4.909  -3.774  12.779  1.00  0.00     0.031 C 
ATOM     63  C   UNL     1       4.222  -6.210  13.288  1.00  0.00     0.037 A 
BRANCH  50  64
ATOM     64  C   UNL     1       8.280  -5.108   9.922  1.00  0.00     0.057 A 
ATOM     65  C   UNL     1       9.274  -5.353  10.883  1.00  0.00     0.134 A 
ATOM     66  C   UNL     1       8.278  -3.797   9.391  1.00  0.00     0.134 A 
ATOM     67  F   UNL     1       9.380  -6.555  11.469  1.00  0.00    -0.206 F 
ATOM     68  C   UNL     1      10.130  -4.350  11.349  1.00  0.00     0.040 A 
ATOM     69  C   UNL     1       9.164  -2.804   9.812  1.00  0.00     0.040 A 
ATOM     70  F   UNL     1       7.372  -3.361   8.510  1.00  0.00    -0.206 F 
ATOM     71  C   UNL     1      10.070  -3.067  10.822  1.00  0.00     0.006 A 
ENDBRANCH  50  64
BRANCH  51  72
ATOM     72  C   UNL     1       1.270  -1.130  12.724  1.00  0.00     0.057 A 
ATOM     73  C   UNL     1       1.428  -0.584  14.007  1.00  0.00     0.134 A 
ATOM     74  C   UNL     1       0.938  -0.219  11.706  1.00  0.00     0.134 A 
ATOM     75  F   UNL     1       1.787  -1.363  15.038  1.00  0.00    -0.206 F 
ATOM     76  C   UNL     1       1.289   0.788  14.257  1.00  0.00     0.040 A 
ATOM     77  C   UNL     1       0.786   1.151  11.944  1.00  0.00     0.040 A 
ATOM     78  F   UNL     1       0.839  -0.609  10.427  1.00  0.00    -0.206 F 
ATOM     79  C   UNL     1       0.978   1.663  13.221  1.00  0.00     0.006 A 
ENDBRANCH  51  72
BRANCH  63  80
ATOM     80  C   UNL     1       3.121  -7.038  13.892  1.00  0.00     0.057 A 
ATOM     81  C   UNL     1       1.786  -7.030  13.458  1.00  0.00     0.134 A 
ATOM     82  C   UNL     1       3.463  -7.983  14.866  1.00  0.00     0.134 A 
ATOM     83  F   UNL     1       1.385  -6.232  12.459  1.00  0.00    -0.206 F 
ATOM     84  C   UNL     1       0.829  -7.890  14.008  1.00  0.00     0.040 A 
ATOM     85  C   UNL     1       2.527  -8.872  15.394  1.00  0.00     0.040 A 
ATOM     86  F   UNL     1       4.733  -8.087  15.289  1.00  0.00    -0.206 F 
ATOM     87  C   UNL     1       1.201  -8.819  14.975  1.00  0.00     0.006 A 
ENDBRANCH  63  80
ENDBRANCH  37  38
ENDBRANCH  30  32
ENDBRANCH  29  30
ENDBRANCH  28  29
ENDBRANCH  27  28
ENDBRANCH  26  27
ENDBRANCH  25  26
ENDBRANCH  24  25
ENDBRANCH  23  24
ENDBRANCH   1  23
TORSDOF 24
