REMARK SMILES Cc1ccc(C(=O)[C@@H]2CCC[C@H]2C(=O)OCCOCCOCCOCCOC(=O)c2ccc(-c3c4nc(c(-c5c(F)cccc5F)c5ccc([nH]5)c(-c5c(F)cccc5F)c5nc(c(-c6c(F)cccc6F)c6ccc3[nH]6)C=C5)C=C4)cc2)c(C)c1
REMARK SMILES IDX 21 1 20 2 19 3 18 4 17 5 16 6 15 7 13 8 14 9 12 10 8 11 9 12
REMARK SMILES IDX 10 13 11 14 6 15 7 16 5 17 1 18 2 19 3 20 86 21 4 22 84 23
REMARK SMILES IDX 85 24 22 25 23 26 24 27 25 28 26 29 27 30 28 31 29 32 30 33
REMARK SMILES IDX 31 34 83 35 32 36 82 37 33 38 34 39 35 40 76 41 36 42 81 43
REMARK SMILES IDX 75 44 77 45 37 46 80 47 74 48 73 49 38 51 64 52 47 53 63 54
REMARK SMILES IDX 48 55 51 56 62 57 78 58 49 59 50 60 61 62 79 63 52 64 39 65
REMARK SMILES IDX 40 66 45 67 41 68 42 69 44 70 46 71 43 72 65 73 66 74 71 75
REMARK SMILES IDX 67 76 68 77 70 78 72 79 69 80 53 81 54 82 59 83 55 84 56 85
REMARK SMILES IDX 58 86 60 87 57 88
REMARK H PARENT 77 50 51 61
REMARK Flexibility Score: inf
ROOT
ATOM      1  O   UNL     1      -4.151  -0.854  -1.802  1.00  0.00    -0.377 OA
ENDROOT
BRANCH   1   2
ATOM      2  C   UNL     1      -2.839  -1.134  -2.244  1.00  0.00     0.188 C 
BRANCH   2   3
ATOM      3  C   UNL     1      -2.369  -1.064  -3.693  1.00  0.00     0.188 C 
BRANCH   3   4
ATOM      4  O   UNL     1      -3.376  -1.384  -4.616  1.00  0.00    -0.376 OA
BRANCH   4   5
ATOM      5  C   UNL     1      -3.525  -2.684  -5.132  1.00  0.00     0.202 C 
BRANCH   5   6
ATOM      6  C   UNL     1      -3.458  -3.975  -4.287  1.00  0.00     0.261 C 
BRANCH   6   7
ATOM      7  O   UNL     1      -3.055  -3.921  -2.906  1.00  0.00    -0.463 OA
BRANCH   7   8
ATOM      8  C   UNL     1      -1.746  -4.183  -2.658  1.00  0.00     0.309 C 
ATOM      9  O   UNL     1      -0.920  -4.370  -3.548  1.00  0.00    -0.252 OA
BRANCH   8  10
ATOM     10  C   UNL     1      -1.351  -4.314  -1.178  1.00  0.00     0.110 C 
ATOM     11  C   UNL     1      -2.149  -3.717   0.004  1.00  0.00     0.075 C 
ATOM     12  C   UNL     1      -1.847  -4.671   1.176  1.00  0.00     0.013 C 
ATOM     13  C   UNL     1      -1.496  -6.021   0.592  1.00  0.00     0.002 C 
ATOM     14  C   UNL     1      -1.388  -5.827  -0.906  1.00  0.00     0.016 C 
BRANCH  11  15
ATOM     15  C   UNL     1      -1.945  -2.309   0.641  1.00  0.00     0.167 C 
ATOM     16  O   UNL     1      -2.805  -1.908   1.434  1.00  0.00    -0.294 OA
BRANCH  15  17
ATOM     17  C   UNL     1      -0.725  -1.442   0.465  1.00  0.00     0.021 A 
ATOM     18  C   UNL     1       2.833   0.983  -0.086  1.00  0.00     0.044 C 
ATOM     19  C   UNL     1       1.613   0.133   0.115  1.00  0.00    -0.051 A 
ATOM     20  C   UNL     1       1.683  -1.258   0.106  1.00  0.00     0.004 A 
ATOM     21  C   UNL     1       0.377   0.737   0.345  1.00  0.00     0.007 A 
ATOM     22  C   UNL     1       0.533  -2.033   0.302  1.00  0.00     0.012 A 
ATOM     23  C   UNL     1      -0.794  -0.026   0.537  1.00  0.00    -0.040 A 
ATOM     24  C   UNL     1      -2.033   0.764   0.879  1.00  0.00     0.045 C 
ENDBRANCH  15  17
ENDBRANCH  11  15
ENDBRANCH   8  10
ENDBRANCH   7   8
ENDBRANCH   6   7
ENDBRANCH   5   6
ENDBRANCH   4   5
ENDBRANCH   3   4
ENDBRANCH   2   3
ENDBRANCH   1   2
BRANCH   1  25
ATOM     25  C   UNL     1      -5.208  -0.758  -2.726  1.00  0.00     0.188 C 
BRANCH  25  26
ATOM     26  C   UNL     1      -5.241   0.533  -3.566  1.00  0.00     0.188 C 
BRANCH  26  27
ATOM     27  O   UNL     1      -4.473   1.683  -3.224  1.00  0.00    -0.376 OA
BRANCH  27  28
ATOM     28  C   UNL     1      -4.102   1.951  -1.885  1.00  0.00     0.202 C 
BRANCH  28  29
ATOM     29  C   UNL     1      -5.174   2.259  -0.839  1.00  0.00     0.261 C 
BRANCH  29  30
ATOM     30  O   UNL     1      -6.300   1.381  -0.862  1.00  0.00    -0.460 OA
BRANCH  30  31
ATOM     31  C   UNL     1      -7.371   1.871  -1.517  1.00  0.00     0.338 C 
ATOM     32  O   UNL     1      -7.488   2.967  -2.054  1.00  0.00    -0.246 OA
BRANCH  31  33
ATOM     33  C   UNL     1      -8.380   0.815  -1.643  1.00  0.00     0.060 A 
ATOM     34  C   UNL     1      -8.847   0.515  -2.928  1.00  0.00     0.016 A 
ATOM     35  C   UNL     1      -8.895   0.168  -0.516  1.00  0.00     0.016 A 
ATOM     36  C   UNL     1      -9.868  -0.406  -3.093  1.00  0.00     0.010 A 
ATOM     37  C   UNL     1      -9.945  -0.733  -0.679  1.00  0.00     0.010 A 
ATOM     38  C   UNL     1     -10.458  -0.982  -1.963  1.00  0.00    -0.014 A 
BRANCH  38  39
ATOM     39  C   UNL     1     -11.768  -1.637  -2.128  1.00  0.00     0.031 A 
ATOM     40  C   UNL     1     -12.998  -0.812  -1.885  1.00  0.00     0.074 A 
ATOM     41  C   UNL     1     -11.844  -2.905  -2.561  1.00  0.00     0.049 A 
ATOM     42  N   UNL     1     -14.256  -1.152  -1.966  1.00  0.00    -0.248 NA
ATOM     43  C   UNL     1     -12.776   0.594  -1.500  1.00  0.00     0.031 C 
ATOM     44  C   UNL     1     -10.701  -3.755  -2.889  1.00  0.00     0.029 A 
ATOM     45  N   UNL     1     -12.937  -3.691  -2.804  1.00  0.00    -0.354 N 
ATOM     46  C   UNL     1     -14.973  -0.007  -1.641  1.00  0.00     0.074 A 
ATOM     47  C   UNL     1     -14.014   1.026  -1.324  1.00  0.00     0.031 C 
ATOM     48  C   UNL     1     -11.156  -4.954  -3.290  1.00  0.00     0.029 A 
ATOM     49  C   UNL     1     -12.614  -4.961  -3.210  1.00  0.00     0.049 A 
ATOM     50  H   UNL     1     -13.863  -3.377  -2.698  1.00  0.00     0.167 HD
ATOM     51  C   UNL     1     -16.314   0.165  -1.619  1.00  0.00     0.037 A 
ATOM     52  C   UNL     1     -13.418  -6.009  -3.465  1.00  0.00     0.037 A 
ATOM     53  C   UNL     1     -17.250  -0.884  -1.925  1.00  0.00     0.049 A 
ATOM     54  C   UNL     1     -14.907  -5.822  -3.334  1.00  0.00     0.074 A 
ATOM     55  C   UNL     1     -18.631  -0.837  -1.927  1.00  0.00     0.029 A 
ATOM     56  N   UNL     1     -16.889  -2.179  -2.274  1.00  0.00    -0.354 N 
ATOM     57  N   UNL     1     -15.583  -4.738  -3.032  1.00  0.00    -0.248 NA
ATOM     58  C   UNL     1     -15.744  -7.003  -3.581  1.00  0.00     0.031 C 
ATOM     59  C   UNL     1     -19.106  -2.120  -2.220  1.00  0.00     0.029 A 
ATOM     60  C   UNL     1     -18.022  -2.949  -2.467  1.00  0.00     0.049 A 
ATOM     61  H   UNL     1     -15.964  -2.501  -2.371  1.00  0.00     0.167 HD
ATOM     62  C   UNL     1     -16.924  -5.096  -3.084  1.00  0.00     0.074 A 
ATOM     63  C   UNL     1     -16.963  -6.496  -3.461  1.00  0.00     0.031 C 
ATOM     64  C   UNL     1     -18.026  -4.340  -2.848  1.00  0.00     0.037 A 
BRANCH  51  65
ATOM     65  C   UNL     1     -16.831   1.514  -1.211  1.00  0.00     0.057 A 
ATOM     66  C   UNL     1     -16.662   2.652  -2.013  1.00  0.00     0.134 A 
ATOM     67  C   UNL     1     -17.501   1.681   0.007  1.00  0.00     0.134 A 
ATOM     68  F   UNL     1     -16.011   2.568  -3.183  1.00  0.00    -0.206 F 
ATOM     69  C   UNL     1     -17.113   3.909  -1.604  1.00  0.00     0.040 A 
ATOM     70  C   UNL     1     -17.984   2.927   0.413  1.00  0.00     0.040 A 
ATOM     71  F   UNL     1     -17.697   0.637   0.826  1.00  0.00    -0.206 F 
ATOM     72  C   UNL     1     -17.781   4.047  -0.390  1.00  0.00     0.006 A 
ENDBRANCH  51  65
BRANCH  52  73
ATOM     73  C   UNL     1     -12.838  -7.317  -3.859  1.00  0.00     0.057 A 
ATOM     74  C   UNL     1     -13.042  -7.846  -5.138  1.00  0.00     0.134 A 
ATOM     75  C   UNL     1     -12.072  -8.076  -2.964  1.00  0.00     0.134 A 
ATOM     76  F   UNL     1     -13.780  -7.177  -6.035  1.00  0.00    -0.206 F 
ATOM     77  C   UNL     1     -12.524  -9.089  -5.507  1.00  0.00     0.040 A 
ATOM     78  C   UNL     1     -11.524  -9.306  -3.328  1.00  0.00     0.040 A 
ATOM     79  F   UNL     1     -11.834  -7.624  -1.723  1.00  0.00    -0.206 F 
ATOM     80  C   UNL     1     -11.757  -9.820  -4.602  1.00  0.00     0.006 A 
ENDBRANCH  52  73
BRANCH  64  81
ATOM     81  C   UNL     1     -19.360  -5.002  -3.033  1.00  0.00     0.057 A 
ATOM     82  C   UNL     1     -19.836  -5.978  -2.148  1.00  0.00     0.134 A 
ATOM     83  C   UNL     1     -20.197  -4.625  -4.092  1.00  0.00     0.134 A 
ATOM     84  F   UNL     1     -19.079  -6.392  -1.121  1.00  0.00    -0.206 F 
ATOM     85  C   UNL     1     -21.085  -6.575  -2.326  1.00  0.00     0.040 A 
ATOM     86  C   UNL     1     -21.461  -5.191  -4.260  1.00  0.00     0.040 A 
ATOM     87  F   UNL     1     -19.807  -3.687  -4.968  1.00  0.00    -0.206 F 
ATOM     88  C   UNL     1     -21.904  -6.175  -3.381  1.00  0.00     0.006 A 
ENDBRANCH  64  81
ENDBRANCH  38  39
ENDBRANCH  31  33
ENDBRANCH  30  31
ENDBRANCH  29  30
ENDBRANCH  28  29
ENDBRANCH  27  28
ENDBRANCH  26  27
ENDBRANCH  25  26
ENDBRANCH   1  25
TORSDOF 22
