REMARK SMILES O=C(OCCOCCOCCOCCOC(=O)[C@@H]1CCCC[C@H]1C(=O)Nc1cccc(-c2nnc(-c3ccccc3)o2)c1)c1ccc(-c2c3nc(c(-c4c(F)cccc4F)c4ccc([nH]4)c(-c4c(F)cccc4F)c4nc(c(-c5c(F)cccc5F)c5ccc2[nH]5)C=C4)C=C3)cc1
REMARK SMILES IDX 10 1 9 2 8 3 7 4 6 5 5 6 4 7 3 8 2 9 1 10 44 11 45 12 97 13
REMARK SMILES IDX 46 14 96 15 47 16 48 17 49 18 90 19 50 20 95 21 89 22 91 23
REMARK SMILES IDX 51 24 94 25 88 26 87 27 52 29 78 30 61 31 77 32 62 33 65 34
REMARK SMILES IDX 76 35 92 36 63 37 64 38 75 40 93 41 66 42 53 43 54 44 59 45
REMARK SMILES IDX 55 46 56 47 58 48 60 49 57 50 79 51 80 52 85 53 81 54 82 55
REMARK SMILES IDX 84 56 86 57 83 58 67 59 68 60 73 61 69 62 70 63 72 64 74 65
REMARK SMILES IDX 71 66 11 67 12 68 13 69 14 70 15 71 16 72 17 73 18 74 19 75
REMARK SMILES IDX 23 76 20 77 22 78 21 79 24 80 25 81 26 82 27 84 28 85 43 86
REMARK SMILES IDX 29 87 31 88 30 89 32 90 33 91 42 92 34 93 35 94 36 95 37 96
REMARK SMILES IDX 41 97 38 98 40 99 39 100
REMARK H PARENT 91 28 65 39 26 83
REMARK Flexibility Score: inf
ROOT
ATOM      1  C   UNL     1       4.926  -1.823  -2.694  1.00  0.00     0.188 C 
ENDROOT
BRANCH   1   2
ATOM      2  O   UNL     1       3.914  -2.767  -2.388  1.00  0.00    -0.377 OA
BRANCH   2   3
ATOM      3  C   UNL     1       2.643  -2.414  -1.839  1.00  0.00     0.188 C 
BRANCH   3   4
ATOM      4  C   UNL     1       2.580  -1.374  -0.737  1.00  0.00     0.188 C 
BRANCH   4   5
ATOM      5  O   UNL     1       3.878  -1.022  -0.300  1.00  0.00    -0.376 OA
BRANCH   5   6
ATOM      6  C   UNL     1       4.250  -1.403   1.006  1.00  0.00     0.202 C 
BRANCH   6   7
ATOM      7  C   UNL     1       4.200  -0.186   1.927  1.00  0.00     0.261 C 
BRANCH   7   8
ATOM      8  O   UNL     1       2.858   0.328   2.015  1.00  0.00    -0.460 OA
BRANCH   8   9
ATOM      9  C   UNL     1       2.216   1.124   1.130  1.00  0.00     0.338 C 
ATOM     10  O   UNL     1       0.982   1.150   1.145  1.00  0.00    -0.246 OA
BRANCH   9  11
ATOM     11  C   UNL     1       2.906   2.066   0.196  1.00  0.00     0.060 A 
ATOM     12  C   UNL     1       4.090   1.812  -0.506  1.00  0.00     0.016 A 
ATOM     13  C   UNL     1       2.240   3.278  -0.054  1.00  0.00     0.016 A 
ATOM     14  C   UNL     1       4.609   2.721  -1.416  1.00  0.00     0.010 A 
ATOM     15  C   UNL     1       2.768   4.216  -0.941  1.00  0.00     0.010 A 
ATOM     16  C   UNL     1       3.971   3.940  -1.601  1.00  0.00    -0.014 A 
BRANCH  16  17
ATOM     17  C   UNL     1       4.723   5.010  -2.267  1.00  0.00     0.031 A 
ATOM     18  C   UNL     1       5.444   5.974  -1.381  1.00  0.00     0.074 A 
ATOM     19  C   UNL     1       4.829   5.044  -3.603  1.00  0.00     0.049 A 
ATOM     20  N   UNL     1       6.046   7.090  -1.679  1.00  0.00    -0.248 NA
ATOM     21  C   UNL     1       5.492   5.624   0.051  1.00  0.00     0.031 C 
ATOM     22  C   UNL     1       4.289   4.041  -4.521  1.00  0.00     0.029 A 
ATOM     23  N   UNL     1       5.433   5.961  -4.417  1.00  0.00    -0.354 N 
ATOM     24  C   UNL     1       6.499   7.598  -0.468  1.00  0.00     0.074 A 
ATOM     25  C   UNL     1       6.112   6.670   0.567  1.00  0.00     0.031 C 
ATOM     26  C   UNL     1       4.567   4.414  -5.782  1.00  0.00     0.029 A 
ATOM     27  C   UNL     1       5.240   5.708  -5.752  1.00  0.00     0.049 A 
ATOM     28  H   UNL     1       5.953   6.726  -4.080  1.00  0.00     0.167 HD
ATOM     29  C   UNL     1       7.163   8.756  -0.253  1.00  0.00     0.037 A 
ATOM     30  C   UNL     1       5.531   6.481  -6.814  1.00  0.00     0.037 A 
ATOM     31  C   UNL     1       7.516   9.649  -1.321  1.00  0.00     0.049 A 
ATOM     32  C   UNL     1       6.181   7.814  -6.553  1.00  0.00     0.074 A 
ATOM     33  C   UNL     1       8.132  10.883  -1.256  1.00  0.00     0.029 A 
ATOM     34  N   UNL     1       7.268   9.388  -2.665  1.00  0.00    -0.354 N 
ATOM     35  N   UNL     1       6.538   8.346  -5.405  1.00  0.00    -0.248 NA
ATOM     36  C   UNL     1       6.456   8.659  -7.719  1.00  0.00     0.031 C 
ATOM     37  C   UNL     1       8.210  11.389  -2.558  1.00  0.00     0.029 A 
ATOM     38  C   UNL     1       7.704  10.443  -3.441  1.00  0.00     0.049 A 
ATOM     39  H   UNL     1       6.844   8.570  -3.012  1.00  0.00     0.167 HD
ATOM     40  C   UNL     1       7.106   9.575  -5.710  1.00  0.00     0.074 A 
ATOM     41  C   UNL     1       7.046   9.705  -7.155  1.00  0.00     0.031 C 
ATOM     42  C   UNL     1       7.635  10.510  -4.881  1.00  0.00     0.037 A 
BRANCH  29  43
ATOM     43  C   UNL     1       7.432   9.128   1.175  1.00  0.00     0.057 A 
ATOM     44  C   UNL     1       8.328   8.416   1.985  1.00  0.00     0.134 A 
ATOM     45  C   UNL     1       6.712  10.168   1.777  1.00  0.00     0.134 A 
ATOM     46  F   UNL     1       9.025   7.384   1.484  1.00  0.00    -0.206 F 
ATOM     47  C   UNL     1       8.464   8.695   3.348  1.00  0.00     0.040 A 
ATOM     48  C   UNL     1       6.861  10.476   3.130  1.00  0.00     0.040 A 
ATOM     49  F   UNL     1       5.829  10.886   1.066  1.00  0.00    -0.206 F 
ATOM     50  C   UNL     1       7.729   9.729   3.923  1.00  0.00     0.006 A 
ENDBRANCH  29  43
BRANCH  30  51
ATOM     51  C   UNL     1       5.162   6.035  -8.182  1.00  0.00     0.057 A 
ATOM     52  C   UNL     1       6.134   5.705  -9.131  1.00  0.00     0.134 A 
ATOM     53  C   UNL     1       3.820   5.897  -8.565  1.00  0.00     0.134 A 
ATOM     54  F   UNL     1       7.436   5.831  -8.835  1.00  0.00    -0.206 F 
ATOM     55  C   UNL     1       5.789   5.261 -10.410  1.00  0.00     0.040 A 
ATOM     56  C   UNL     1       3.460   5.429  -9.831  1.00  0.00     0.040 A 
ATOM     57  F   UNL     1       2.835   6.194  -7.704  1.00  0.00    -0.206 F 
ATOM     58  C   UNL     1       4.448   5.113 -10.760  1.00  0.00     0.006 A 
ENDBRANCH  30  51
BRANCH  42  59
ATOM     59  C   UNL     1       8.242  11.721  -5.522  1.00  0.00     0.057 A 
ATOM     60  C   UNL     1       7.458  12.743  -6.069  1.00  0.00     0.134 A 
ATOM     61  C   UNL     1       9.631  11.898  -5.506  1.00  0.00     0.134 A 
ATOM     62  F   UNL     1       6.123  12.624  -6.121  1.00  0.00    -0.206 F 
ATOM     63  C   UNL     1       8.040  13.898  -6.590  1.00  0.00     0.040 A 
ATOM     64  C   UNL     1      10.221  13.060  -5.997  1.00  0.00     0.040 A 
ATOM     65  F   UNL     1      10.432  10.957  -4.983  1.00  0.00    -0.206 F 
ATOM     66  C   UNL     1       9.424  14.064  -6.544  1.00  0.00     0.006 A 
ENDBRANCH  42  59
ENDBRANCH  16  17
ENDBRANCH   9  11
ENDBRANCH   8   9
ENDBRANCH   7   8
ENDBRANCH   6   7
ENDBRANCH   5   6
ENDBRANCH   4   5
ENDBRANCH   3   4
ENDBRANCH   2   3
ENDBRANCH   1   2
BRANCH   1  67
ATOM     67  C   UNL     1       5.196  -1.631  -4.184  1.00  0.00     0.188 C 
BRANCH  67  68
ATOM     68  O   UNL     1       4.217  -0.902  -4.902  1.00  0.00    -0.376 OA
BRANCH  68  69
ATOM     69  C   UNL     1       2.914  -1.464  -5.015  1.00  0.00     0.202 C 
BRANCH  69  70
ATOM     70  C   UNL     1       2.759  -2.960  -5.400  1.00  0.00     0.261 C 
BRANCH  70  71
ATOM     71  O   UNL     1       3.022  -3.955  -4.359  1.00  0.00    -0.463 OA
BRANCH  71  72
ATOM     72  C   UNL     1       4.133  -4.718  -4.514  1.00  0.00     0.309 C 
ATOM     73  O   UNL     1       4.844  -4.647  -5.521  1.00  0.00    -0.252 OA
BRANCH  72  74
ATOM     74  C   UNL     1       4.471  -5.783  -3.448  1.00  0.00     0.111 C 
ATOM     75  C   UNL     1       4.149  -7.118  -4.154  1.00  0.00     0.016 C 
ATOM     76  C   UNL     1       4.033  -5.756  -1.956  1.00  0.00     0.093 C 
ATOM     77  C   UNL     1       4.636  -8.312  -3.356  1.00  0.00     0.001 C 
ATOM     78  C   UNL     1       4.207  -7.122  -1.228  1.00  0.00     0.014 C 
ATOM     79  C   UNL     1       3.888  -8.357  -2.043  1.00  0.00     0.001 C 
BRANCH  76  80
ATOM     80  C   UNL     1       4.608  -4.793  -0.869  1.00  0.00     0.228 C 
ATOM     81  O   UNL     1       3.804  -4.353  -0.021  1.00  0.00    -0.274 OA
ATOM     82  N   UNL     1       5.907  -4.581  -0.504  1.00  0.00    -0.326 N 
ATOM     83  H   UNL     1       6.005  -3.922   0.221  1.00  0.00     0.169 HD
BRANCH  82  84
ATOM     84  C   UNL     1       7.123  -5.103  -0.942  1.00  0.00     0.041 A 
ATOM     85  C   UNL     1       8.010  -5.595   0.020  1.00  0.00     0.026 A 
ATOM     86  C   UNL     1       7.475  -5.173  -2.276  1.00  0.00     0.040 A 
ATOM     87  C   UNL     1       9.128  -6.334  -0.371  1.00  0.00     0.003 A 
ATOM     88  C   UNL     1       8.511  -6.018  -2.686  1.00  0.00     0.041 A 
ATOM     89  C   UNL     1       9.340  -6.601  -1.723  1.00  0.00     0.014 A 
BRANCH  88  90
ATOM     90  C   UNL     1       8.557  -6.446  -4.069  1.00  0.00     0.248 A 
ATOM     91  N   UNL     1       8.362  -7.655  -4.552  1.00  0.00    -0.107 NA
ATOM     92  O   UNL     1       8.634  -5.482  -5.038  1.00  0.00    -0.416 OA
ATOM     93  N   UNL     1       8.265  -7.514  -5.917  1.00  0.00    -0.107 NA
ATOM     94  C   UNL     1       8.452  -6.235  -6.172  1.00  0.00     0.248 A 
BRANCH  94  95
ATOM     95  C   UNL     1       8.538  -5.556  -7.450  1.00  0.00     0.039 A 
ATOM     96  C   UNL     1       7.608  -5.835  -8.460  1.00  0.00     0.014 A 
ATOM     97  C   UNL     1       9.602  -4.686  -7.724  1.00  0.00     0.014 A 
ATOM     98  C   UNL     1       7.749  -5.267  -9.728  1.00  0.00     0.001 A 
ATOM     99  C   UNL     1       9.751  -4.131  -8.996  1.00  0.00     0.001 A 
ATOM    100  C   UNL     1       8.827  -4.425  -9.998  1.00  0.00     0.000 A 
ENDBRANCH  94  95
ENDBRANCH  88  90
ENDBRANCH  82  84
ENDBRANCH  76  80
ENDBRANCH  72  74
ENDBRANCH  71  72
ENDBRANCH  70  71
ENDBRANCH  69  70
ENDBRANCH  68  69
ENDBRANCH  67  68
ENDBRANCH   1  67
TORSDOF 24
