REMARK SMILES COCc1nc2ccccc2n1CC(=O)OCCOCCOCCOCCOC(=O)c1ccc(-c2c3nc(c(-c4c(F)cccc4F)c4ccc([nH]4)c(-c4c(F)cccc4F)c4nc(c(-c5c(F)cccc5F)c5ccc2[nH]5)C=C4)C=C3)cc1
REMARK SMILES IDX 21 1 20 2 19 3 18 4 17 5 16 6 14 7 15 8 13 9 12 10 4 11 5 12
REMARK SMILES IDX 6 13 11 14 7 15 10 16 8 17 9 18 3 19 2 20 1 21 22 22 23 23
REMARK SMILES IDX 24 24 25 25 26 26 27 27 28 28 29 29 30 30 31 31 32 32 84 33
REMARK SMILES IDX 33 34 83 35 34 36 35 37 36 38 77 39 37 40 82 41 76 42 78 43
REMARK SMILES IDX 38 44 81 45 75 46 74 47 39 49 65 50 48 51 64 52 49 53 52 54
REMARK SMILES IDX 63 55 79 56 50 57 51 58 62 60 80 61 53 62 40 63 41 64 46 65
REMARK SMILES IDX 42 66 43 67 45 68 47 69 44 70 66 71 67 72 72 73 68 74 69 75
REMARK SMILES IDX 71 76 73 77 70 78 54 79 55 80 60 81 56 82 57 83 59 84 61 85
REMARK SMILES IDX 58 86
REMARK H PARENT 78 48 52 59
REMARK Flexibility Score: inf
ROOT
ATOM      1  C   UNL     1       1.757   3.113   2.451  1.00  0.00     0.188 C 
ENDROOT
BRANCH   1   2
ATOM      2  C   UNL     1       1.141   4.474   2.127  1.00  0.00     0.188 C 
BRANCH   2   3
ATOM      3  O   UNL     1       1.086   5.497   3.127  1.00  0.00    -0.376 OA
BRANCH   3   4
ATOM      4  C   UNL     1       2.029   5.460   4.192  1.00  0.00     0.202 C 
BRANCH   4   5
ATOM      5  C   UNL     1       1.560   4.606   5.397  1.00  0.00     0.261 C 
BRANCH   5   6
ATOM      6  O   UNL     1       0.819   3.397   5.052  1.00  0.00    -0.462 OA
BRANCH   6   7
ATOM      7  C   UNL     1      -0.528   3.503   4.969  1.00  0.00     0.326 C 
ATOM      8  O   UNL     1      -1.145   4.498   5.349  1.00  0.00    -0.250 OA
BRANCH   7   9
ATOM      9  C   UNL     1      -1.281   2.362   4.294  1.00  0.00     0.246 C 
BRANCH   9  10
ATOM     10  N   UNL     1      -0.636   1.088   3.944  1.00  0.00    -0.315 N 
ATOM     11  C   UNL     1      -0.423   0.560   2.661  1.00  0.00     0.136 A 
ATOM     12  N   UNL     1       0.104  -0.648   2.750  1.00  0.00    -0.231 NA
ATOM     13  C   UNL     1      -0.002  -1.016   4.055  1.00  0.00     0.089 A 
ATOM     14  C   UNL     1      -0.458   0.041   4.837  1.00  0.00     0.069 A 
ATOM     15  C   UNL     1       0.235  -2.272   4.629  1.00  0.00     0.030 A 
ATOM     16  C   UNL     1      -0.692  -0.106   6.210  1.00  0.00     0.028 A 
ATOM     17  C   UNL     1      -0.031  -2.447   5.988  1.00  0.00     0.002 A 
ATOM     18  C   UNL     1      -0.486  -1.379   6.762  1.00  0.00     0.002 A 
BRANCH  11  19
ATOM     19  C   UNL     1      -0.674   1.252   1.347  1.00  0.00     0.235 C 
BRANCH  19  20
ATOM     20  O   UNL     1      -1.194   0.332   0.379  1.00  0.00    -0.377 OA
ATOM     21  C   UNL     1      -0.173  -0.399  -0.300  1.00  0.00     0.195 C 
ENDBRANCH  19  20
ENDBRANCH  11  19
ENDBRANCH   9  10
ENDBRANCH   7   9
ENDBRANCH   6   7
ENDBRANCH   5   6
ENDBRANCH   4   5
ENDBRANCH   3   4
ENDBRANCH   2   3
ENDBRANCH   1   2
BRANCH   1  22
ATOM     22  O   UNL     1       2.882   3.193   3.276  1.00  0.00    -0.377 OA
BRANCH  22  23
ATOM     23  C   UNL     1       4.104   2.882   2.672  1.00  0.00     0.188 C 
BRANCH  23  24
ATOM     24  C   UNL     1       4.397   3.547   1.328  1.00  0.00     0.188 C 
BRANCH  24  25
ATOM     25  O   UNL     1       3.546   3.071   0.290  1.00  0.00    -0.376 OA
BRANCH  25  26
ATOM     26  C   UNL     1       4.057   2.017  -0.527  1.00  0.00     0.202 C 
BRANCH  26  27
ATOM     27  C   UNL     1       4.233   0.621   0.107  1.00  0.00     0.261 C 
BRANCH  27  28
ATOM     28  O   UNL     1       5.127   0.569   1.231  1.00  0.00    -0.460 OA
BRANCH  28  29
ATOM     29  C   UNL     1       6.467   0.679   1.040  1.00  0.00     0.338 C 
ATOM     30  O   UNL     1       7.061   0.584   0.000  1.00  0.00    -0.246 OA
BRANCH  29  31
ATOM     31  C   UNL     1       6.969   1.348   2.279  1.00  0.00     0.060 A 
ATOM     32  C   UNL     1       6.538   0.972   3.559  1.00  0.00     0.016 A 
ATOM     33  C   UNL     1       7.592   2.588   2.077  1.00  0.00     0.016 A 
ATOM     34  C   UNL     1       6.610   1.900   4.601  1.00  0.00     0.010 A 
ATOM     35  C   UNL     1       7.614   3.530   3.103  1.00  0.00     0.010 A 
ATOM     36  C   UNL     1       7.078   3.207   4.354  1.00  0.00    -0.014 A 
BRANCH  36  37
ATOM     37  C   UNL     1       7.227   4.141   5.482  1.00  0.00     0.031 A 
ATOM     38  C   UNL     1       8.266   3.654   6.421  1.00  0.00     0.074 A 
ATOM     39  C   UNL     1       6.660   5.364   5.612  1.00  0.00     0.049 A 
ATOM     40  N   UNL     1       8.151   3.436   7.687  1.00  0.00    -0.248 NA
ATOM     41  C   UNL     1       9.540   3.191   5.837  1.00  0.00     0.031 C 
ATOM     42  C   UNL     1       5.761   6.024   4.668  1.00  0.00     0.029 A 
ATOM     43  N   UNL     1       6.836   6.333   6.574  1.00  0.00    -0.354 N 
ATOM     44  C   UNL     1       9.409   3.005   8.091  1.00  0.00     0.074 A 
ATOM     45  C   UNL     1      10.148   2.679   6.903  1.00  0.00     0.031 C 
ATOM     46  C   UNL     1       5.632   7.329   4.992  1.00  0.00     0.029 A 
ATOM     47  C   UNL     1       6.408   7.608   6.188  1.00  0.00     0.049 A 
ATOM     48  H   UNL     1       7.229   6.146   7.457  1.00  0.00     0.167 HD
ATOM     49  C   UNL     1       9.857   3.254   9.346  1.00  0.00     0.037 A 
ATOM     50  C   UNL     1       6.709   8.816   6.744  1.00  0.00     0.037 A 
ATOM     51  C   UNL     1       8.774   3.468  10.268  1.00  0.00     0.049 A 
ATOM     52  C   UNL     1       7.196   8.568   8.121  1.00  0.00     0.074 A 
ATOM     53  C   UNL     1       7.675   2.727  10.658  1.00  0.00     0.029 A 
ATOM     54  N   UNL     1       8.539   4.748  10.702  1.00  0.00    -0.354 N 
ATOM     55  N   UNL     1       6.428   8.203   9.105  1.00  0.00    -0.248 NA
ATOM     56  C   UNL     1       8.616   8.307   8.307  1.00  0.00     0.031 C 
ATOM     57  C   UNL     1       6.647   3.679  10.907  1.00  0.00     0.029 A 
ATOM     58  C   UNL     1       7.184   4.949  10.701  1.00  0.00     0.049 A 
ATOM     59  H   UNL     1       9.223   5.405  10.967  1.00  0.00     0.167 HD
ATOM     60  C   UNL     1       7.175   7.255   9.785  1.00  0.00     0.074 A 
ATOM     61  C   UNL     1       8.546   7.440   9.320  1.00  0.00     0.031 C 
ATOM     62  C   UNL     1       6.562   6.222  10.431  1.00  0.00     0.037 A 
BRANCH  49  63
ATOM     63  C   UNL     1      11.265   3.721   9.603  1.00  0.00     0.057 A 
ATOM     64  C   UNL     1      12.062   4.396   8.650  1.00  0.00     0.134 A 
ATOM     65  C   UNL     1      11.734   3.772  10.922  1.00  0.00     0.134 A 
ATOM     66  F   UNL     1      11.701   4.528   7.367  1.00  0.00    -0.206 F 
ATOM     67  C   UNL     1      13.233   5.074   8.985  1.00  0.00     0.040 A 
ATOM     68  C   UNL     1      12.874   4.500  11.278  1.00  0.00     0.040 A 
ATOM     69  F   UNL     1      11.046   3.192  11.917  1.00  0.00    -0.206 F 
ATOM     70  C   UNL     1      13.625   5.157  10.309  1.00  0.00     0.006 A 
ENDBRANCH  49  63
BRANCH  50  71
ATOM     71  C   UNL     1       6.792  10.169   6.119  1.00  0.00     0.057 A 
ATOM     72  C   UNL     1       7.006  10.341   4.739  1.00  0.00     0.134 A 
ATOM     73  C   UNL     1       6.909  11.341   6.890  1.00  0.00     0.134 A 
ATOM     74  F   UNL     1       7.009   9.297   3.900  1.00  0.00    -0.206 F 
ATOM     75  C   UNL     1       7.315  11.580   4.163  1.00  0.00     0.040 A 
ATOM     76  C   UNL     1       7.233  12.589   6.327  1.00  0.00     0.040 A 
ATOM     77  F   UNL     1       6.773  11.301   8.223  1.00  0.00    -0.206 F 
ATOM     78  C   UNL     1       7.445  12.709   4.959  1.00  0.00     0.006 A 
ENDBRANCH  50  71
BRANCH  62  79
ATOM     79  C   UNL     1       5.078   6.318  10.650  1.00  0.00     0.057 A 
ATOM     80  C   UNL     1       4.591   6.241  11.959  1.00  0.00     0.134 A 
ATOM     81  C   UNL     1       4.127   6.354   9.617  1.00  0.00     0.134 A 
ATOM     82  F   UNL     1       5.442   6.150  12.993  1.00  0.00    -0.206 F 
ATOM     83  C   UNL     1       3.223   6.211  12.236  1.00  0.00     0.040 A 
ATOM     84  C   UNL     1       2.754   6.360   9.884  1.00  0.00     0.040 A 
ATOM     85  F   UNL     1       4.496   6.332   8.329  1.00  0.00    -0.206 F 
ATOM     86  C   UNL     1       2.299   6.282  11.197  1.00  0.00     0.006 A 
ENDBRANCH  62  79
ENDBRANCH  36  37
ENDBRANCH  29  31
ENDBRANCH  28  29
ENDBRANCH  27  28
ENDBRANCH  26  27
ENDBRANCH  25  26
ENDBRANCH  24  25
ENDBRANCH  23  24
ENDBRANCH  22  23
ENDBRANCH   1  22
TORSDOF 23
