REMARK SMILES O=C(OCCOCCOCCOCCOC(=O)[C@H]1[C@@H](C(=O)NNC(=O)c2ccccc2Cl)[C@H]2C=C[C@@H]1C2)c1ccc(-c2c3nc(c(-c4c(F)cccc4F)c4ccc([nH]4)c(-c4c(F)cccc4F)c4nc(c(-c5c(F)cccc5F)c5ccc2[nH]5)C=C4)C=C3)cc1
REMARK SMILES IDX 10 1 9 2 8 3 7 4 6 5 5 6 4 7 3 8 2 9 1 10 38 11 39 12 91 13
REMARK SMILES IDX 40 14 90 15 41 16 42 17 43 18 84 19 44 20 89 21 83 22 85 23
REMARK SMILES IDX 45 24 88 25 82 26 81 27 46 29 72 30 55 31 71 32 56 33 59 34
REMARK SMILES IDX 70 35 86 36 57 37 58 38 69 40 87 41 60 42 47 43 48 44 53 45
REMARK SMILES IDX 49 46 50 47 52 48 54 49 51 50 73 51 74 52 79 53 75 54 76 55
REMARK SMILES IDX 78 56 80 57 77 58 61 59 62 60 67 61 63 62 64 63 66 64 68 65
REMARK SMILES IDX 65 66 11 67 12 68 13 69 14 70 15 71 16 72 17 73 18 74 19 75
REMARK SMILES IDX 36 76 33 77 35 78 37 79 34 80 20 81 21 82 22 83 23 85 24 86
REMARK SMILES IDX 25 88 26 89 27 90 31 91 28 92 30 93 32 94 29 95
REMARK H PARENT 85 28 59 39 22 84 23 87
REMARK Flexibility Score: inf
ROOT
ATOM      1  C   UNL     1       4.920  -3.934   0.957  1.00  0.00     0.188 C 
ENDROOT
BRANCH   1   2
ATOM      2  O   UNL     1       5.046  -2.522   0.853  1.00  0.00    -0.377 OA
BRANCH   2   3
ATOM      3  C   UNL     1       5.443  -1.855   2.043  1.00  0.00     0.188 C 
BRANCH   3   4
ATOM      4  C   UNL     1       4.655  -2.275   3.281  1.00  0.00     0.188 C 
BRANCH   4   5
ATOM      5  O   UNL     1       5.032  -3.587   3.710  1.00  0.00    -0.376 OA
BRANCH   5   6
ATOM      6  C   UNL     1       3.970  -4.455   4.109  1.00  0.00     0.202 C 
BRANCH   6   7
ATOM      7  C   UNL     1       3.422  -4.200   5.510  1.00  0.00     0.261 C 
BRANCH   7   8
ATOM      8  O   UNL     1       3.481  -2.824   5.899  1.00  0.00    -0.460 OA
BRANCH   8   9
ATOM      9  C   UNL     1       4.524  -2.135   6.420  1.00  0.00     0.338 C 
ATOM     10  O   UNL     1       4.331  -0.953   6.708  1.00  0.00    -0.246 OA
BRANCH   9  11
ATOM     11  C   UNL     1       5.911  -2.678   6.631  1.00  0.00     0.060 A 
ATOM     12  C   UNL     1       6.422  -3.886   6.145  1.00  0.00     0.016 A 
ATOM     13  C   UNL     1       6.789  -1.853   7.358  1.00  0.00     0.016 A 
ATOM     14  C   UNL     1       7.737  -4.273   6.358  1.00  0.00     0.010 A 
ATOM     15  C   UNL     1       8.098  -2.251   7.629  1.00  0.00     0.010 A 
ATOM     16  C   UNL     1       8.554  -3.483   7.152  1.00  0.00    -0.014 A 
BRANCH  16  17
ATOM     17  C   UNL     1       9.736  -4.119   7.742  1.00  0.00     0.031 A 
ATOM     18  C   UNL     1       9.560  -4.707   9.107  1.00  0.00     0.074 A 
ATOM     19  C   UNL     1      10.870  -4.255   7.041  1.00  0.00     0.049 A 
ATOM     20  N   UNL     1      10.450  -5.153   9.945  1.00  0.00    -0.248 NA
ATOM     21  C   UNL     1       8.170  -4.806   9.592  1.00  0.00     0.031 C 
ATOM     22  C   UNL     1      11.048  -3.869   5.642  1.00  0.00     0.029 A 
ATOM     23  N   UNL     1      12.085  -4.753   7.417  1.00  0.00    -0.354 N 
ATOM     24  C   UNL     1       9.736  -5.527  11.075  1.00  0.00     0.074 A 
ATOM     25  C   UNL     1       8.339  -5.279  10.813  1.00  0.00     0.031 C 
ATOM     26  C   UNL     1      12.320  -4.116   5.285  1.00  0.00     0.029 A 
ATOM     27  C   UNL     1      13.049  -4.601   6.453  1.00  0.00     0.049 A 
ATOM     28  H   UNL     1      12.251  -5.178   8.290  1.00  0.00     0.167 HD
ATOM     29  C   UNL     1      10.225  -6.005  12.240  1.00  0.00     0.037 A 
ATOM     30  C   UNL     1      14.380  -4.768   6.551  1.00  0.00     0.037 A 
ATOM     31  C   UNL     1      11.630  -6.219  12.445  1.00  0.00     0.049 A 
ATOM     32  C   UNL     1      14.930  -5.205   7.883  1.00  0.00     0.074 A 
ATOM     33  C   UNL     1      12.293  -6.630  13.582  1.00  0.00     0.029 A 
ATOM     34  N   UNL     1      12.592  -6.021  11.459  1.00  0.00    -0.354 N 
ATOM     35  N   UNL     1      14.279  -5.471   8.994  1.00  0.00    -0.248 NA
ATOM     36  C   UNL     1      16.385  -5.347   7.989  1.00  0.00     0.031 C 
ATOM     37  C   UNL     1      13.664  -6.633  13.297  1.00  0.00     0.029 A 
ATOM     38  C   UNL     1      13.849  -6.283  11.964  1.00  0.00     0.049 A 
ATOM     39  H   UNL     1      12.403  -5.735  10.536  1.00  0.00     0.167 HD
ATOM     40  C   UNL     1      15.239  -5.833   9.927  1.00  0.00     0.074 A 
ATOM     41  C   UNL     1      16.520  -5.753   9.246  1.00  0.00     0.031 C 
ATOM     42  C   UNL     1      15.086  -6.202  11.224  1.00  0.00     0.037 A 
BRANCH  29  43
ATOM     43  C   UNL     1       9.244  -6.189  13.361  1.00  0.00     0.057 A 
ATOM     44  C   UNL     1       8.242  -7.169  13.336  1.00  0.00     0.134 A 
ATOM     45  C   UNL     1       9.236  -5.291  14.436  1.00  0.00     0.134 A 
ATOM     46  F   UNL     1       8.165  -8.038  12.316  1.00  0.00    -0.206 F 
ATOM     47  C   UNL     1       7.241  -7.218  14.311  1.00  0.00     0.040 A 
ATOM     48  C   UNL     1       8.259  -5.348  15.432  1.00  0.00     0.040 A 
ATOM     49  F   UNL     1      10.157  -4.320  14.520  1.00  0.00    -0.206 F 
ATOM     50  C   UNL     1       7.248  -6.304  15.363  1.00  0.00     0.006 A 
ENDBRANCH  29  43
BRANCH  30  51
ATOM     51  C   UNL     1      15.248  -4.446   5.391  1.00  0.00     0.057 A 
ATOM     52  C   UNL     1      15.935  -5.441   4.689  1.00  0.00     0.134 A 
ATOM     53  C   UNL     1      15.368  -3.131   4.918  1.00  0.00     0.134 A 
ATOM     54  F   UNL     1      15.877  -6.718   5.096  1.00  0.00    -0.206 F 
ATOM     55  C   UNL     1      16.702  -5.144   3.558  1.00  0.00     0.040 A 
ATOM     56  C   UNL     1      16.109  -2.822   3.776  1.00  0.00     0.040 A 
ATOM     57  F   UNL     1      14.734  -2.127   5.542  1.00  0.00    -0.206 F 
ATOM     58  C   UNL     1      16.781  -3.832   3.092  1.00  0.00     0.006 A 
ENDBRANCH  30  51
BRANCH  42  59
ATOM     59  C   UNL     1      16.323  -6.599  11.968  1.00  0.00     0.057 A 
ATOM     60  C   UNL     1      17.228  -5.651  12.454  1.00  0.00     0.134 A 
ATOM     61  C   UNL     1      16.538  -7.944  12.296  1.00  0.00     0.134 A 
ATOM     62  F   UNL     1      17.075  -4.351  12.163  1.00  0.00    -0.206 F 
ATOM     63  C   UNL     1      18.311  -6.029  13.247  1.00  0.00     0.040 A 
ATOM     64  C   UNL     1      17.601  -8.330  13.109  1.00  0.00     0.040 A 
ATOM     65  F   UNL     1      15.693  -8.894  11.867  1.00  0.00    -0.206 F 
ATOM     66  C   UNL     1      18.491  -7.370  13.587  1.00  0.00     0.006 A 
ENDBRANCH  42  59
ENDBRANCH  16  17
ENDBRANCH   9  11
ENDBRANCH   8   9
ENDBRANCH   7   8
ENDBRANCH   6   7
ENDBRANCH   5   6
ENDBRANCH   4   5
ENDBRANCH   3   4
ENDBRANCH   2   3
ENDBRANCH   1   2
BRANCH   1  67
ATOM     67  C   UNL     1       6.170  -4.761   1.363  1.00  0.00     0.188 C 
BRANCH  67  68
ATOM     68  O   UNL     1       7.344  -3.975   1.487  1.00  0.00    -0.376 OA
BRANCH  68  69
ATOM     69  C   UNL     1       8.171  -3.933   0.329  1.00  0.00     0.202 C 
BRANCH  69  70
ATOM     70  C   UNL     1       7.505  -3.605  -1.022  1.00  0.00     0.261 C 
BRANCH  70  71
ATOM     71  O   UNL     1       6.310  -4.384  -1.264  1.00  0.00    -0.463 OA
BRANCH  71  72
ATOM     72  C   UNL     1       6.285  -5.335  -2.203  1.00  0.00     0.310 C 
ATOM     73  O   UNL     1       7.173  -5.490  -3.038  1.00  0.00    -0.252 OA
BRANCH  72  74
ATOM     74  C   UNL     1       5.012  -6.196  -2.217  1.00  0.00     0.119 C 
ATOM     75  C   UNL     1       5.359  -7.706  -2.385  1.00  0.00     0.102 C 
ATOM     76  C   UNL     1       3.827  -6.273  -1.201  1.00  0.00     0.027 C 
ATOM     77  C   UNL     1       4.199  -8.440  -1.664  1.00  0.00     0.025 C 
ATOM     78  C   UNL     1       4.120  -6.999   0.101  1.00  0.00    -0.027 C 
ATOM     79  C   UNL     1       3.048  -7.443  -1.849  1.00  0.00     0.017 C 
ATOM     80  C   UNL     1       4.343  -8.290  -0.176  1.00  0.00    -0.027 C 
BRANCH  75  81
ATOM     81  C   UNL     1       6.730  -8.063  -1.827  1.00  0.00     0.242 C 
ATOM     82  O   UNL     1       7.263  -7.474  -0.887  1.00  0.00    -0.273 OA
ATOM     83  N   UNL     1       7.396  -9.087  -2.431  1.00  0.00    -0.267 N 
ATOM     84  H   UNL     1       8.379  -9.107  -2.372  1.00  0.00     0.191 HD
BRANCH  83  85
ATOM     85  N   UNL     1       6.755 -10.104  -3.125  1.00  0.00    -0.263 N 
ATOM     86  C   UNL     1       7.290 -11.366  -3.307  1.00  0.00     0.271 C 
ATOM     87  H   UNL     1       5.869  -9.916  -3.510  1.00  0.00     0.191 HD
ATOM     88  O   UNL     1       6.671 -12.244  -3.865  1.00  0.00    -0.267 OA
BRANCH  86  89
ATOM     89  C   UNL     1       8.701 -11.573  -2.919  1.00  0.00     0.060 A 
ATOM     90  C   UNL     1       9.608 -11.711  -3.977  1.00  0.00     0.015 A 
ATOM     91  C   UNL     1       9.148 -11.557  -1.595  1.00  0.00     0.053 A 
ATOM     92  C   UNL     1      10.972 -11.794  -3.711  1.00  0.00     0.001 A 
ATOM     93  C   UNL     1      10.520 -11.619  -1.338  1.00  0.00     0.021 A 
ATOM     94  Cl  UNL     1       8.075 -11.425  -0.249  1.00  0.00    -0.083 Cl
ATOM     95  C   UNL     1      11.428 -11.734  -2.394  1.00  0.00     0.002 A 
ENDBRANCH  86  89
ENDBRANCH  83  85
ENDBRANCH  75  81
ENDBRANCH  72  74
ENDBRANCH  71  72
ENDBRANCH  70  71
ENDBRANCH  69  70
ENDBRANCH  68  69
ENDBRANCH  67  68
ENDBRANCH   1  67
TORSDOF 23
