REMARK SMILES CC(=O)N1CCN(C(=O)c2ccc(=O)n(CCC(=O)OCCOCCOCCOCCOC(=O)c3ccc(-c4c5nc(c(-c6c(F)cccc6F)c6ccc([nH]6)c(-c6c(F)cccc6F)c6nc(c(-c7c(F)cccc7F)c7ccc4[nH]7)C=C6)C=C5)cc3)n2)CC1
REMARK SMILES IDX 25 1 24 2 23 3 22 4 21 5 20 6 18 7 19 8 17 9 16 10 15 11
REMARK SMILES IDX 10 12 11 13 89 14 12 15 13 16 14 17 8 18 1 19 2 20 3 21 4 22
REMARK SMILES IDX 5 23 91 24 6 25 90 26 7 27 9 28 26 29 27 30 28 31 29 32
REMARK SMILES IDX 30 33 31 34 32 35 33 36 34 37 35 38 36 39 88 40 37 41 87 42
REMARK SMILES IDX 38 43 39 44 40 45 81 46 41 47 86 48 80 49 82 50 42 51 85 52
REMARK SMILES IDX 79 53 78 54 43 56 69 57 52 58 68 59 53 60 56 61 67 62 83 63
REMARK SMILES IDX 54 64 55 65 66 67 84 68 57 69 44 70 45 71 50 72 46 73 47 74
REMARK SMILES IDX 49 75 51 76 48 77 70 78 71 79 76 80 72 81 73 82 75 83 77 84
REMARK SMILES IDX 74 85 58 86 59 87 64 88 60 89 61 90 63 91 65 92 62 93
REMARK H PARENT 82 55 56 66
REMARK Flexibility Score: inf
ROOT
ATOM      1  C   UNL     1       8.458   5.713   3.607  1.00  0.00     0.188 C 
ENDROOT
BRANCH   1   2
ATOM      2  C   UNL     1       9.424   6.803   4.080  1.00  0.00     0.188 C 
BRANCH   2   3
ATOM      3  O   UNL     1       9.576   7.019   5.463  1.00  0.00    -0.376 OA
BRANCH   3   4
ATOM      4  C   UNL     1       8.720   7.831   6.247  1.00  0.00     0.202 C 
BRANCH   4   5
ATOM      5  C   UNL     1       7.618   8.766   5.728  1.00  0.00     0.261 C 
BRANCH   5   6
ATOM      6  O   UNL     1       6.857   8.323   4.602  1.00  0.00    -0.463 OA
BRANCH   6   7
ATOM      7  C   UNL     1       6.943   9.050   3.474  1.00  0.00     0.307 C 
ATOM      8  O   UNL     1       7.716   9.992   3.325  1.00  0.00    -0.252 OA
BRANCH   7   9
ATOM      9  C   UNL     1       5.944   8.671   2.404  1.00  0.00     0.146 C 
BRANCH   9  10
ATOM     10  C   UNL     1       5.387   7.254   2.249  1.00  0.00     0.160 C 
BRANCH  10  11
ATOM     11  N   UNL     1       4.375   6.777   3.209  1.00  0.00    -0.229 N 
ATOM     12  C   UNL     1       2.223   6.016   3.421  1.00  0.00     0.149 A 
ATOM     13  C   UNL     1       2.360   5.729   4.854  1.00  0.00     0.042 A 
ATOM     14  N   UNL     1       3.124   6.544   2.651  1.00  0.00    -0.164 NA
ATOM     15  C   UNL     1       3.584   5.880   5.344  1.00  0.00     0.076 A 
ATOM     16  C   UNL     1       4.697   6.283   4.471  1.00  0.00     0.266 A 
ATOM     17  O   UNL     1       5.812   6.130   4.945  1.00  0.00    -0.268 OA
BRANCH  12  18
ATOM     18  C   UNL     1       0.894   5.630   2.830  1.00  0.00     0.274 C 
ATOM     19  C   UNL     1       1.172   0.098  -0.184  1.00  0.00     0.114 C 
ATOM     20  C   UNL     1       0.308   1.305  -0.434  1.00  0.00     0.219 C 
ATOM     21  O   UNL     1      -0.739   1.187  -1.071  1.00  0.00    -0.275 OA
ATOM     22  N   UNL     1       0.691   2.498   0.148  1.00  0.00    -0.339 N 
ATOM     23  C   UNL     1      -0.292   3.585   0.232  1.00  0.00     0.141 C 
ATOM     24  C   UNL     1       1.999   2.811   0.746  1.00  0.00     0.141 C 
ATOM     25  C   UNL     1      -0.494   3.962   1.702  1.00  0.00     0.141 C 
ATOM     26  C   UNL     1       1.858   3.350   2.187  1.00  0.00     0.141 C 
ATOM     27  N   UNL     1       0.786   4.357   2.292  1.00  0.00    -0.334 N 
ATOM     28  O   UNL     1      -0.011   6.451   2.913  1.00  0.00    -0.267 OA
ENDBRANCH  12  18
ENDBRANCH  10  11
ENDBRANCH   9  10
ENDBRANCH   7   9
ENDBRANCH   6   7
ENDBRANCH   5   6
ENDBRANCH   4   5
ENDBRANCH   3   4
ENDBRANCH   2   3
ENDBRANCH   1   2
BRANCH   1  29
ATOM     29  O   UNL     1       8.325   4.484   4.284  1.00  0.00    -0.377 OA
BRANCH  29  30
ATOM     30  C   UNL     1       8.149   4.498   5.685  1.00  0.00     0.188 C 
BRANCH  30  31
ATOM     31  C   UNL     1       9.414   4.098   6.461  1.00  0.00     0.188 C 
BRANCH  31  32
ATOM     32  O   UNL     1      10.371   3.175   5.940  1.00  0.00    -0.376 OA
BRANCH  32  33
ATOM     33  C   UNL     1      10.313   2.779   4.581  1.00  0.00     0.202 C 
BRANCH  33  34
ATOM     34  C   UNL     1       9.292   1.671   4.256  1.00  0.00     0.261 C 
BRANCH  34  35
ATOM     35  O   UNL     1       8.093   1.656   5.049  1.00  0.00    -0.460 OA
BRANCH  35  36
ATOM     36  C   UNL     1       8.187   1.070   6.264  1.00  0.00     0.338 C 
ATOM     37  O   UNL     1       9.154   0.495   6.745  1.00  0.00    -0.246 OA
BRANCH  36  38
ATOM     38  C   UNL     1       6.930   1.308   7.006  1.00  0.00     0.060 A 
ATOM     39  C   UNL     1       5.696   0.941   6.461  1.00  0.00     0.016 A 
ATOM     40  C   UNL     1       6.991   1.885   8.281  1.00  0.00     0.016 A 
ATOM     41  C   UNL     1       4.529   1.120   7.210  1.00  0.00     0.010 A 
ATOM     42  C   UNL     1       5.822   2.081   9.021  1.00  0.00     0.010 A 
ATOM     43  C   UNL     1       4.586   1.670   8.505  1.00  0.00    -0.014 A 
BRANCH  43  44
ATOM     44  C   UNL     1       3.394   1.620   9.389  1.00  0.00     0.031 A 
ATOM     45  C   UNL     1       2.579   2.835   9.710  1.00  0.00     0.074 A 
ATOM     46  C   UNL     1       3.078   0.434   9.943  1.00  0.00     0.049 A 
ATOM     47  N   UNL     1       1.465   2.920  10.394  1.00  0.00    -0.248 NA
ATOM     48  C   UNL     1       3.078   4.121   9.207  1.00  0.00     0.031 C 
ATOM     49  C   UNL     1       3.833  -0.806   9.752  1.00  0.00     0.029 A 
ATOM     50  N   UNL     1       2.049   0.074  10.773  1.00  0.00    -0.354 N 
ATOM     51  C   UNL     1       1.112   4.262  10.388  1.00  0.00     0.074 A 
ATOM     52  C   UNL     1       2.159   4.962   9.668  1.00  0.00     0.031 C 
ATOM     53  C   UNL     1       3.226  -1.797  10.421  1.00  0.00     0.029 A 
ATOM     54  C   UNL     1       2.059  -1.258  11.110  1.00  0.00     0.049 A 
ATOM     55  H   UNL     1       1.368   0.708  11.097  1.00  0.00     0.167 HD
ATOM     56  C   UNL     1       0.014   4.850  10.925  1.00  0.00     0.037 A 
ATOM     57  C   UNL     1       1.221  -1.967  11.888  1.00  0.00     0.037 A 
ATOM     58  C   UNL     1      -0.993   4.152  11.691  1.00  0.00     0.049 A 
ATOM     59  C   UNL     1       0.044  -1.277  12.516  1.00  0.00     0.074 A 
ATOM     60  C   UNL     1      -2.161   4.653  12.243  1.00  0.00     0.029 A 
ATOM     61  N   UNL     1      -0.934   2.811  12.046  1.00  0.00    -0.354 N 
ATOM     62  N   UNL     1      -0.341  -0.029  12.408  1.00  0.00    -0.248 NA
ATOM     63  C   UNL     1      -0.822  -2.102  13.370  1.00  0.00     0.031 C 
ATOM     64  C   UNL     1      -2.773   3.634  12.983  1.00  0.00     0.029 A 
ATOM     65  C   UNL     1      -2.024   2.478  12.838  1.00  0.00     0.049 A 
ATOM     66  H   UNL     1      -0.222   2.187  11.776  1.00  0.00     0.167 HD
ATOM     67  C   UNL     1      -1.506   0.076  13.157  1.00  0.00     0.074 A 
ATOM     68  C   UNL     1      -1.776  -1.242  13.693  1.00  0.00     0.031 C 
ATOM     69  C   UNL     1      -2.281   1.166  13.380  1.00  0.00     0.037 A 
BRANCH  56  70
ATOM     70  C   UNL     1      -0.154   6.329  10.712  1.00  0.00     0.057 A 
ATOM     71  C   UNL     1      -0.091   7.226  11.787  1.00  0.00     0.134 A 
ATOM     72  C   UNL     1      -0.423   6.865   9.444  1.00  0.00     0.134 A 
ATOM     73  F   UNL     1       0.152   6.784  13.030  1.00  0.00    -0.206 F 
ATOM     74  C   UNL     1      -0.286   8.597  11.610  1.00  0.00     0.040 A 
ATOM     75  C   UNL     1      -0.594   8.238   9.250  1.00  0.00     0.040 A 
ATOM     76  F   UNL     1      -0.486   6.066   8.368  1.00  0.00    -0.206 F 
ATOM     77  C   UNL     1      -0.531   9.107  10.337  1.00  0.00     0.006 A 
ENDBRANCH  56  70
BRANCH  57  78
ATOM     78  C   UNL     1       1.451  -3.418  12.101  1.00  0.00     0.057 A 
ATOM     79  C   UNL     1       2.545  -3.884  12.839  1.00  0.00     0.134 A 
ATOM     80  C   UNL     1       0.566  -4.372  11.586  1.00  0.00     0.134 A 
ATOM     81  F   UNL     1       3.436  -3.021  13.349  1.00  0.00    -0.206 F 
ATOM     82  C   UNL     1       2.750  -5.246  13.059  1.00  0.00     0.040 A 
ATOM     83  C   UNL     1       0.742  -5.735  11.824  1.00  0.00     0.040 A 
ATOM     84  F   UNL     1      -0.508  -3.985  10.881  1.00  0.00    -0.206 F 
ATOM     85  C   UNL     1       1.840  -6.176  12.560  1.00  0.00     0.006 A 
ENDBRANCH  57  78
BRANCH  69  86
ATOM     86  C   UNL     1      -3.512   0.965  14.221  1.00  0.00     0.057 A 
ATOM     87  C   UNL     1      -4.788   1.052  13.650  1.00  0.00     0.134 A 
ATOM     88  C   UNL     1      -3.439   0.680  15.592  1.00  0.00     0.134 A 
ATOM     89  F   UNL     1      -4.934   1.328  12.345  1.00  0.00    -0.206 F 
ATOM     90  C   UNL     1      -5.944   0.861  14.409  1.00  0.00     0.040 A 
ATOM     91  C   UNL     1      -4.587   0.453  16.354  1.00  0.00     0.040 A 
ATOM     92  F   UNL     1      -2.249   0.565  16.200  1.00  0.00    -0.206 F 
ATOM     93  C   UNL     1      -5.845   0.549  15.763  1.00  0.00     0.006 A 
ENDBRANCH  69  86
ENDBRANCH  43  44
ENDBRANCH  36  38
ENDBRANCH  35  36
ENDBRANCH  34  35
ENDBRANCH  33  34
ENDBRANCH  32  33
ENDBRANCH  31  32
ENDBRANCH  30  31
ENDBRANCH  29  30
ENDBRANCH   1  29
TORSDOF 23
