REMARK SMILES COc1ccc(Br)cc1CNc1ccc(N2CCOCC2)c(C(=O)OCCOCCOCCOCCOC(=O)c2ccc(-c3c4nc(c(-c5c(F)cccc5F)c5ccc([nH]5)c(-c5c(F)cccc5F)c5nc(c(-c6c(F)cccc6F)c6ccc3[nH]6)C=C5)C=C4)cc2)c1
REMARK SMILES IDX 30 1 29 2 28 3 27 4 26 5 25 6 23 7 24 8 22 9 12 10 13 11
REMARK SMILES IDX 94 12 14 13 15 14 11 15 10 17 9 18 3 19 4 20 5 21 8 22 6 23
REMARK SMILES IDX 7 24 2 25 1 26 16 27 17 28 21 29 18 30 20 31 19 32 31 33
REMARK SMILES IDX 32 34 33 35 34 36 35 37 36 38 37 39 38 40 39 41 40 42 41 43
REMARK SMILES IDX 93 44 42 45 92 46 43 47 44 48 45 49 86 50 46 51 91 52 85 53
REMARK SMILES IDX 87 54 47 55 90 56 84 57 83 58 48 60 74 61 57 62 73 63 58 64
REMARK SMILES IDX 61 65 72 66 88 67 59 68 60 69 71 71 89 72 62 73 49 74 50 75
REMARK SMILES IDX 55 76 51 77 52 78 54 79 56 80 53 81 75 82 76 83 81 84 77 85
REMARK SMILES IDX 78 86 80 87 82 88 79 89 63 90 64 91 69 92 65 93 66 94 68 95
REMARK SMILES IDX 70 96 67 97
REMARK H PARENT 11 16 87 59 61 70
REMARK Flexibility Score: inf
ROOT
ATOM      1  C   UNL     1      -7.448  -3.064  -0.491  1.00  0.00     0.188 C 
ENDROOT
BRANCH   1   2
ATOM      2  C   UNL     1      -8.275  -4.363  -0.428  1.00  0.00     0.188 C 
BRANCH   2   3
ATOM      3  O   UNL     1      -8.332  -4.973   0.859  1.00  0.00    -0.376 OA
BRANCH   3   4
ATOM      4  C   UNL     1      -7.763  -6.277   0.929  1.00  0.00     0.202 C 
BRANCH   4   5
ATOM      5  C   UNL     1      -6.251  -6.217   1.142  1.00  0.00     0.261 C 
BRANCH   5   6
ATOM      6  O   UNL     1      -5.567  -5.551   0.071  1.00  0.00    -0.460 OA
BRANCH   6   7
ATOM      7  C   UNL     1      -5.487  -6.194  -1.123  1.00  0.00     0.340 C 
ATOM      8  O   UNL     1      -5.853  -7.335  -1.344  1.00  0.00    -0.246 OA
BRANCH   7   9
ATOM      9  C   UNL     1      -4.969  -5.205  -2.110  1.00  0.00     0.085 A 
ATOM     10  C   UNL     1      -3.390  -3.381  -2.511  1.00  0.00     0.035 A 
ATOM     11  C   UNL     1      -4.003  -3.198  -3.756  1.00  0.00     0.028 A 
ATOM     12  C   UNL     1      -3.888  -4.399  -1.704  1.00  0.00     0.043 A 
ATOM     13  C   UNL     1      -5.082  -3.992  -4.171  1.00  0.00     0.029 A 
ATOM     14  C   UNL     1      -5.592  -5.008  -3.356  1.00  0.00     0.052 A 
BRANCH  10  15
ATOM     15  N   UNL     1      -2.326  -2.583  -2.158  1.00  0.00    -0.381 N 
ATOM     16  H   UNL     1      -2.147  -1.802  -2.729  1.00  0.00     0.160 HD
BRANCH  15  17
ATOM     17  C   UNL     1      -1.440  -2.783  -1.020  1.00  0.00     0.152 C 
BRANCH  17  18
ATOM     18  C   UNL     1      -0.015  -2.914  -1.507  1.00  0.00     0.014 A 
ATOM     19  C   UNL     1       1.035  -2.205  -0.907  1.00  0.00     0.123 A 
ATOM     20  C   UNL     1       2.352  -2.379  -1.348  1.00  0.00     0.048 A 
ATOM     21  C   UNL     1       2.629  -3.246  -2.407  1.00  0.00     0.019 A 
ATOM     22  C   UNL     1       0.284  -3.805  -2.555  1.00  0.00     0.025 A 
ATOM     23  C   UNL     1       1.593  -3.957  -3.005  1.00  0.00     0.018 A 
ATOM     24  Br  UNL     1       1.963  -5.147  -4.426  1.00  0.00    -0.051 Br
BRANCH  19  25
ATOM     25  O   UNL     1       0.750  -1.413   0.174  1.00  0.00    -0.496 OA
ATOM     26  C   UNL     1       1.181  -0.065  -0.006  1.00  0.00     0.278 C 
ENDBRANCH  19  25
ENDBRANCH  17  18
ENDBRANCH  15  17
ENDBRANCH  10  15
BRANCH  14  27
ATOM     27  N   UNL     1      -6.671  -5.758  -3.764  1.00  0.00    -0.366 N 
ATOM     28  C   UNL     1      -8.009  -5.186  -3.927  1.00  0.00     0.145 C 
ATOM     29  C   UNL     1      -6.434  -6.965  -4.564  1.00  0.00     0.145 C 
ATOM     30  C   UNL     1      -9.030  -6.286  -3.577  1.00  0.00     0.181 C 
ATOM     31  C   UNL     1      -7.537  -7.993  -4.254  1.00  0.00     0.181 C 
ATOM     32  O   UNL     1      -8.856  -7.435  -4.428  1.00  0.00    -0.378 OA
ENDBRANCH  14  27
ENDBRANCH   7   9
ENDBRANCH   6   7
ENDBRANCH   5   6
ENDBRANCH   4   5
ENDBRANCH   3   4
ENDBRANCH   2   3
ENDBRANCH   1   2
BRANCH   1  33
ATOM     33  O   UNL     1      -7.512  -2.081   0.535  1.00  0.00    -0.377 OA
BRANCH  33  34
ATOM     34  C   UNL     1      -8.365  -2.313   1.640  1.00  0.00     0.188 C 
BRANCH  34  35
ATOM     35  C   UNL     1      -9.866  -2.350   1.306  1.00  0.00     0.188 C 
BRANCH  35  36
ATOM     36  O   UNL     1     -10.152  -2.084  -0.068  1.00  0.00    -0.376 OA
BRANCH  36  37
ATOM     37  C   UNL     1     -10.645  -0.782  -0.363  1.00  0.00     0.202 C 
BRANCH  37  38
ATOM     38  C   UNL     1      -9.597   0.337  -0.305  1.00  0.00     0.261 C 
BRANCH  38  39
ATOM     39  O   UNL     1      -9.033   0.582   0.993  1.00  0.00    -0.460 OA
BRANCH  39  40
ATOM     40  C   UNL     1      -9.877   0.915   1.992  1.00  0.00     0.338 C 
ATOM     41  O   UNL     1     -11.076   1.109   1.921  1.00  0.00    -0.246 OA
BRANCH  40  42
ATOM     42  C   UNL     1      -9.121   0.812   3.255  1.00  0.00     0.060 A 
ATOM     43  C   UNL     1      -9.614  -0.023   4.267  1.00  0.00     0.016 A 
ATOM     44  C   UNL     1      -7.913   1.495   3.419  1.00  0.00     0.016 A 
ATOM     45  C   UNL     1      -8.911  -0.149   5.464  1.00  0.00     0.010 A 
ATOM     46  C   UNL     1      -7.224   1.390   4.628  1.00  0.00     0.010 A 
ATOM     47  C   UNL     1      -7.741   0.595   5.665  1.00  0.00    -0.014 A 
BRANCH  47  48
ATOM     48  C   UNL     1      -7.205   0.742   7.037  1.00  0.00     0.031 A 
ATOM     49  C   UNL     1      -7.715   1.890   7.863  1.00  0.00     0.074 A 
ATOM     50  C   UNL     1      -6.307  -0.120   7.545  1.00  0.00     0.049 A 
ATOM     51  N   UNL     1      -7.407   2.238   9.085  1.00  0.00    -0.248 NA
ATOM     52  C   UNL     1      -8.710   2.764   7.218  1.00  0.00     0.031 C 
ATOM     53  C   UNL     1      -5.757  -1.281   6.851  1.00  0.00     0.029 A 
ATOM     54  N   UNL     1      -5.698  -0.138   8.774  1.00  0.00    -0.354 N 
ATOM     55  C   UNL     1      -8.174   3.364   9.355  1.00  0.00     0.074 A 
ATOM     56  C   UNL     1      -8.934   3.663   8.163  1.00  0.00     0.031 C 
ATOM     57  C   UNL     1      -4.879  -1.897   7.665  1.00  0.00     0.029 A 
ATOM     58  C   UNL     1      -4.795  -1.161   8.926  1.00  0.00     0.049 A 
ATOM     59  H   UNL     1      -5.891   0.520   9.481  1.00  0.00     0.167 HD
ATOM     60  C   UNL     1      -8.246   4.081  10.500  1.00  0.00     0.037 A 
ATOM     61  C   UNL     1      -3.988  -1.455   9.963  1.00  0.00     0.037 A 
ATOM     62  C   UNL     1      -7.477   3.797  11.679  1.00  0.00     0.049 A 
ATOM     63  C   UNL     1      -4.038  -0.601  11.205  1.00  0.00     0.074 A 
ATOM     64  C   UNL     1      -7.481   4.461  12.892  1.00  0.00     0.029 A 
ATOM     65  N   UNL     1      -6.556   2.767  11.786  1.00  0.00    -0.354 N 
ATOM     66  N   UNL     1      -4.793   0.439  11.466  1.00  0.00    -0.248 NA
ATOM     67  C   UNL     1      -3.125  -0.967  12.298  1.00  0.00     0.031 C 
ATOM     68  C   UNL     1      -6.529   3.857  13.721  1.00  0.00     0.029 A 
ATOM     69  C   UNL     1      -5.968   2.789  13.038  1.00  0.00     0.049 A 
ATOM     70  H   UNL     1      -6.350   2.117  11.076  1.00  0.00     0.167 HD
ATOM     71  C   UNL     1      -4.470   0.831  12.760  1.00  0.00     0.074 A 
ATOM     72  C   UNL     1      -3.457  -0.088  13.234  1.00  0.00     0.031 C 
ATOM     73  C   UNL     1      -4.968   1.857  13.493  1.00  0.00     0.037 A 
BRANCH  60  74
ATOM     74  C   UNL     1      -9.177   5.256  10.509  1.00  0.00     0.057 A 
ATOM     75  C   UNL     1     -10.568   5.093  10.542  1.00  0.00     0.134 A 
ATOM     76  C   UNL     1      -8.676   6.563  10.487  1.00  0.00     0.134 A 
ATOM     77  F   UNL     1     -11.110   3.866  10.541  1.00  0.00    -0.206 F 
ATOM     78  C   UNL     1     -11.430   6.191  10.531  1.00  0.00     0.040 A 
ATOM     79  C   UNL     1      -9.527   7.668  10.499  1.00  0.00     0.040 A 
ATOM     80  F   UNL     1      -7.354   6.786  10.450  1.00  0.00    -0.206 F 
ATOM     81  C   UNL     1     -10.909   7.484  10.516  1.00  0.00     0.006 A 
ENDBRANCH  60  74
BRANCH  61  82
ATOM     82  C   UNL     1      -3.056  -2.608   9.882  1.00  0.00     0.057 A 
ATOM     83  C   UNL     1      -3.248  -3.753  10.663  1.00  0.00     0.134 A 
ATOM     84  C   UNL     1      -1.931  -2.576   9.050  1.00  0.00     0.134 A 
ATOM     85  F   UNL     1      -4.293  -3.832  11.501  1.00  0.00    -0.206 F 
ATOM     86  C   UNL     1      -2.347  -4.819  10.633  1.00  0.00     0.040 A 
ATOM     87  C   UNL     1      -1.034  -3.644   8.992  1.00  0.00     0.040 A 
ATOM     88  F   UNL     1      -1.688  -1.505   8.280  1.00  0.00    -0.206 F 
ATOM     89  C   UNL     1      -1.237  -4.767   9.791  1.00  0.00     0.006 A 
ENDBRANCH  61  82
BRANCH  73  90
ATOM     90  C   UNL     1      -4.455   2.018  14.894  1.00  0.00     0.057 A 
ATOM     91  C   UNL     1      -3.170   2.505  15.160  1.00  0.00     0.134 A 
ATOM     92  C   UNL     1      -5.277   1.723  15.990  1.00  0.00     0.134 A 
ATOM     93  F   UNL     1      -2.331   2.797  14.155  1.00  0.00    -0.206 F 
ATOM     94  C   UNL     1      -2.712   2.673  16.468  1.00  0.00     0.040 A 
ATOM     95  C   UNL     1      -4.839   1.910  17.301  1.00  0.00     0.040 A 
ATOM     96  F   UNL     1      -6.523   1.263  15.803  1.00  0.00    -0.206 F 
ATOM     97  C   UNL     1      -3.550   2.381  17.543  1.00  0.00     0.006 A 
ENDBRANCH  73  90
ENDBRANCH  47  48
ENDBRANCH  40  42
ENDBRANCH  39  40
ENDBRANCH  38  39
ENDBRANCH  37  38
ENDBRANCH  36  37
ENDBRANCH  35  36
ENDBRANCH  34  35
ENDBRANCH  33  34
ENDBRANCH   1  33
TORSDOF 25
