REMARK SMILES O=C(OCCOCCOCCOCCOC(=O)[C@@H](Cc1ccccc1)NC(=O)c1ccccc1[N+](=O)[O-])c1ccc(-c2c3nc(c(-c4c(F)cccc4F)c4ccc([nH]4)c(-c4c(F)cccc4F)c4nc(c(-c5c(F)cccc5F)c5ccc2[nH]5)C=C4)C=C3)cc1
REMARK SMILES IDX 10 1 9 2 8 3 7 4 6 5 5 6 4 7 3 8 2 9 1 10 38 11 39 12 91 13
REMARK SMILES IDX 40 14 90 15 41 16 42 17 43 18 84 19 44 20 89 21 83 22 85 23
REMARK SMILES IDX 45 24 88 25 82 26 81 27 46 29 72 30 55 31 71 32 56 33 59 34
REMARK SMILES IDX 70 35 86 36 57 37 58 38 69 40 87 41 60 42 47 43 48 44 53 45
REMARK SMILES IDX 49 46 50 47 52 48 54 49 51 50 73 51 74 52 79 53 75 54 76 55
REMARK SMILES IDX 78 56 80 57 77 58 61 59 62 60 67 61 63 62 64 63 66 64 68 65
REMARK SMILES IDX 65 66 11 67 12 68 13 69 14 70 15 71 16 72 17 73 18 74 19 75
REMARK SMILES IDX 20 76 21 77 25 78 22 79 24 80 23 81 26 82 27 83 28 85 29 86
REMARK SMILES IDX 30 87 34 88 31 89 33 90 32 91 35 92 36 93 37 94
REMARK H PARENT 85 28 59 39 26 84
REMARK Flexibility Score: inf
ROOT
ATOM      1  C   UNL     1       4.815  -1.089   3.215  1.00  0.00     0.188 C 
ENDROOT
BRANCH   1   2
ATOM      2  O   UNL     1       3.458  -0.837   3.553  1.00  0.00    -0.377 OA
BRANCH   2   3
ATOM      3  C   UNL     1       2.461  -0.763   2.541  1.00  0.00     0.188 C 
BRANCH   3   4
ATOM      4  C   UNL     1       2.742   0.272   1.469  1.00  0.00     0.188 C 
BRANCH   4   5
ATOM      5  O   UNL     1       3.988  -0.066   0.900  1.00  0.00    -0.376 OA
BRANCH   5   6
ATOM      6  C   UNL     1       4.810   0.926   0.330  1.00  0.00     0.202 C 
BRANCH   6   7
ATOM      7  C   UNL     1       4.157   1.846  -0.687  1.00  0.00     0.261 C 
BRANCH   7   8
ATOM      8  O   UNL     1       2.793   1.548  -1.058  1.00  0.00    -0.460 OA
BRANCH   8   9
ATOM      9  C   UNL     1       2.245   0.632  -1.881  1.00  0.00     0.338 C 
ATOM     10  O   UNL     1       1.053   0.748  -2.192  1.00  0.00    -0.246 OA
BRANCH   9  11
ATOM     11  C   UNL     1       2.980  -0.524  -2.444  1.00  0.00     0.060 A 
ATOM     12  C   UNL     1       3.888  -1.280  -1.718  1.00  0.00     0.016 A 
ATOM     13  C   UNL     1       2.612  -1.004  -3.707  1.00  0.00     0.016 A 
ATOM     14  C   UNL     1       4.558  -2.359  -2.245  1.00  0.00     0.010 A 
ATOM     15  C   UNL     1       3.189  -2.173  -4.216  1.00  0.00     0.010 A 
ATOM     16  C   UNL     1       4.185  -2.835  -3.486  1.00  0.00    -0.014 A 
BRANCH  16  17
ATOM     17  C   UNL     1       4.946  -3.975  -4.005  1.00  0.00     0.031 A 
ATOM     18  C   UNL     1       5.893  -3.708  -5.124  1.00  0.00     0.074 A 
ATOM     19  C   UNL     1       4.894  -5.160  -3.367  1.00  0.00     0.049 A 
ATOM     20  N   UNL     1       6.568  -4.551  -5.850  1.00  0.00    -0.248 NA
ATOM     21  C   UNL     1       6.124  -2.291  -5.466  1.00  0.00     0.031 C 
ATOM     22  C   UNL     1       4.136  -5.434  -2.138  1.00  0.00     0.029 A 
ATOM     23  N   UNL     1       5.509  -6.349  -3.644  1.00  0.00    -0.354 N 
ATOM     24  C   UNL     1       7.247  -3.774  -6.777  1.00  0.00     0.074 A 
ATOM     25  C   UNL     1       6.936  -2.391  -6.506  1.00  0.00     0.031 C 
ATOM     26  C   UNL     1       4.334  -6.710  -1.772  1.00  0.00     0.029 A 
ATOM     27  C   UNL     1       5.138  -7.364  -2.793  1.00  0.00     0.049 A 
ATOM     28  H   UNL     1       6.153  -6.467  -4.379  1.00  0.00     0.167 HD
ATOM     29  C   UNL     1       8.034  -4.208  -7.782  1.00  0.00     0.037 A 
ATOM     30  C   UNL     1       5.365  -8.685  -2.893  1.00  0.00     0.037 A 
ATOM     31  C   UNL     1       8.322  -5.599  -7.990  1.00  0.00     0.049 A 
ATOM     32  C   UNL     1       6.144  -9.153  -4.093  1.00  0.00     0.074 A 
ATOM     33  C   UNL     1       9.063  -6.190  -8.992  1.00  0.00     0.029 A 
ATOM     34  N   UNL     1       7.865  -6.617  -7.161  1.00  0.00    -0.354 N 
ATOM     35  N   UNL     1       6.727  -8.436  -5.028  1.00  0.00    -0.248 NA
ATOM     36  C   UNL     1       6.269 -10.602  -4.280  1.00  0.00     0.031 C 
ATOM     37  C   UNL     1       9.006  -7.574  -8.801  1.00  0.00     0.029 A 
ATOM     38  C   UNL     1       8.275  -7.841  -7.650  1.00  0.00     0.049 A 
ATOM     39  H   UNL     1       7.329  -6.485  -6.346  1.00  0.00     0.167 HD
ATOM     40  C   UNL     1       7.291  -9.344  -5.910  1.00  0.00     0.074 A 
ATOM     41  C   UNL     1       7.008 -10.664  -5.378  1.00  0.00     0.031 C 
ATOM     42  C   UNL     1       7.969  -9.121  -7.063  1.00  0.00     0.037 A 
BRANCH  29  43
ATOM     43  C   UNL     1       8.522  -3.190  -8.763  1.00  0.00     0.057 A 
ATOM     44  C   UNL     1       9.534  -2.271  -8.462  1.00  0.00     0.134 A 
ATOM     45  C   UNL     1       7.939  -3.118 -10.035  1.00  0.00     0.134 A 
ATOM     46  F   UNL     1      10.103  -2.259  -7.247  1.00  0.00    -0.206 F 
ATOM     47  C   UNL     1       9.944  -1.310  -9.390  1.00  0.00     0.040 A 
ATOM     48  C   UNL     1       8.354  -2.178 -10.978  1.00  0.00     0.040 A 
ATOM     49  F   UNL     1       6.949  -3.956 -10.378  1.00  0.00    -0.206 F 
ATOM     50  C   UNL     1       9.358  -1.268 -10.655  1.00  0.00     0.006 A 
ENDBRANCH  29  43
BRANCH  30  51
ATOM     51  C   UNL     1       4.753  -9.648  -1.937  1.00  0.00     0.057 A 
ATOM     52  C   UNL     1       5.537 -10.502  -1.153  1.00  0.00     0.134 A 
ATOM     53  C   UNL     1       3.361  -9.780  -1.825  1.00  0.00     0.134 A 
ATOM     54  F   UNL     1       6.875 -10.443  -1.221  1.00  0.00    -0.206 F 
ATOM     55  C   UNL     1       4.963 -11.469  -0.321  1.00  0.00     0.040 A 
ATOM     56  C   UNL     1       2.774 -10.718  -0.973  1.00  0.00     0.040 A 
ATOM     57  F   UNL     1       2.543  -8.998  -2.545  1.00  0.00    -0.206 F 
ATOM     58  C   UNL     1       3.577 -11.577  -0.229  1.00  0.00     0.006 A 
ENDBRANCH  30  51
BRANCH  42  59
ATOM     59  C   UNL     1       8.455 -10.330  -7.797  1.00  0.00     0.057 A 
ATOM     60  C   UNL     1       7.580 -11.148  -8.518  1.00  0.00     0.134 A 
ATOM     61  C   UNL     1       9.822 -10.629  -7.840  1.00  0.00     0.134 A 
ATOM     62  F   UNL     1       6.258 -10.916  -8.498  1.00  0.00    -0.206 F 
ATOM     63  C   UNL     1       8.048 -12.236  -9.253  1.00  0.00     0.040 A 
ATOM     64  C   UNL     1      10.305 -11.695  -8.596  1.00  0.00     0.040 A 
ATOM     65  F   UNL     1      10.707  -9.871  -7.175  1.00  0.00    -0.206 F 
ATOM     66  C   UNL     1       9.415 -12.503  -9.302  1.00  0.00     0.006 A 
ENDBRANCH  42  59
ENDBRANCH  16  17
ENDBRANCH   9  11
ENDBRANCH   8   9
ENDBRANCH   7   8
ENDBRANCH   6   7
ENDBRANCH   5   6
ENDBRANCH   4   5
ENDBRANCH   3   4
ENDBRANCH   2   3
ENDBRANCH   1   2
BRANCH   1  67
ATOM     67  C   UNL     1       5.218  -2.479   2.704  1.00  0.00     0.188 C 
BRANCH  67  68
ATOM     68  O   UNL     1       4.268  -3.147   1.901  1.00  0.00    -0.376 OA
BRANCH  68  69
ATOM     69  C   UNL     1       3.355  -4.051   2.524  1.00  0.00     0.202 C 
BRANCH  69  70
ATOM     70  C   UNL     1       3.276  -4.241   4.054  1.00  0.00     0.261 C 
BRANCH  70  71
ATOM     71  O   UNL     1       3.289  -3.024   4.829  1.00  0.00    -0.462 OA
BRANCH  71  72
ATOM     72  C   UNL     1       4.104  -3.007   5.913  1.00  0.00     0.329 C 
ATOM     73  O   UNL     1       4.728  -4.002   6.288  1.00  0.00    -0.250 OA
BRANCH  72  74
ATOM     74  C   UNL     1       4.367  -1.624   6.568  1.00  0.00     0.197 C 
BRANCH  74  75
ATOM     75  C   UNL     1       3.600  -0.304   6.340  1.00  0.00     0.072 C 
BRANCH  75  76
ATOM     76  C   UNL     1       2.120  -0.162   6.103  1.00  0.00    -0.045 A 
ATOM     77  C   UNL     1       1.669   1.107   5.677  1.00  0.00     0.004 A 
ATOM     78  C   UNL     1       1.187  -1.184   6.251  1.00  0.00     0.004 A 
ATOM     79  C   UNL     1       0.330   1.337   5.372  1.00  0.00     0.000 A 
ATOM     80  C   UNL     1      -0.157  -0.956   5.933  1.00  0.00     0.000 A 
ATOM     81  C   UNL     1      -0.584   0.298   5.493  1.00  0.00     0.000 A 
ENDBRANCH  75  76
ENDBRANCH  74  75
BRANCH  74  82
ATOM     82  N   UNL     1       4.550  -1.804   8.019  1.00  0.00    -0.338 N 
ATOM     83  C   UNL     1       5.687  -1.895   8.763  1.00  0.00     0.258 C 
ATOM     84  H   UNL     1       3.713  -1.869   8.535  1.00  0.00     0.164 HD
ATOM     85  O   UNL     1       5.593  -2.132   9.978  1.00  0.00    -0.269 OA
BRANCH  83  86
ATOM     86  C   UNL     1       7.045  -1.801   8.188  1.00  0.00     0.117 A 
ATOM     87  C   UNL     1       7.886  -2.901   8.418  1.00  0.00     0.021 A 
ATOM     88  C   UNL     1       7.591  -0.685   7.546  1.00  0.00     0.282 A 
ATOM     89  C   UNL     1       9.222  -2.886   8.004  1.00  0.00     0.001 A 
ATOM     90  C   UNL     1       8.927  -0.668   7.106  1.00  0.00     0.086 A 
ATOM     91  C   UNL     1       9.743  -1.772   7.346  1.00  0.00     0.007 A 
BRANCH  88  92
ATOM     92  N   UNL     1       6.816   0.514   7.323  1.00  0.00     0.063 N 
ATOM     93  O   UNL     1       6.771   0.932   6.155  1.00  0.00    -0.258 OA
ATOM     94  O   UNL     1       6.266   1.039   8.294  1.00  0.00    -0.258 OA
ENDBRANCH  88  92
ENDBRANCH  83  86
ENDBRANCH  74  82
ENDBRANCH  72  74
ENDBRANCH  71  72
ENDBRANCH  70  71
ENDBRANCH  69  70
ENDBRANCH  68  69
ENDBRANCH  67  68
ENDBRANCH   1  67
TORSDOF 25
