REMARK SMILES O=C(OCCOCCOCCOCCOC(=O)c1ccc(-c2c3nc(c(-c4c(F)cccc4F)c4ccc([nH]4)c(-c4c(F)cccc4F)c4nc(c(-c5c(F)cccc5F)c5ccc2[nH]5)C=C4)C=C3)cc1)C1=Cc2cc(Cl)cc(C#Cc3ccccc3)c2O[C@@H]1C(F)(F)F
REMARK SMILES IDX 9 1 8 2 7 3 6 4 5 5 4 6 3 7 2 8 1 9 72 10 73 11 90 12 74 13
REMARK SMILES IDX 89 14 75 15 88 16 76 17 79 18 77 19 78 20 91 21 92 22 93 23
REMARK SMILES IDX 94 24 80 25 81 26 82 27 83 28 87 29 84 30 86 31 85 32 10 33
REMARK SMILES IDX 11 34 12 35 13 36 14 37 15 38 16 39 17 40 18 41 19 42 71 43
REMARK SMILES IDX 20 44 70 45 21 46 22 47 23 48 64 49 24 50 69 51 63 52 65 53
REMARK SMILES IDX 25 54 68 55 62 56 61 57 26 59 52 60 35 61 51 62 36 63 39 64
REMARK SMILES IDX 50 65 66 66 37 67 38 68 49 70 67 71 40 72 27 73 28 74 33 75
REMARK SMILES IDX 29 76 30 77 32 78 34 79 31 80 53 81 54 82 59 83 55 84 56 85
REMARK SMILES IDX 58 86 60 87 57 88 41 89 42 90 47 91 43 92 44 93 46 94 48 95
REMARK SMILES IDX 45 96
REMARK H PARENT 65 58 39 69
REMARK Flexibility Score: inf
ROOT
ATOM      1  O   UNL     1       1.796   3.562  -2.811  1.00  0.00    -0.377 OA
ENDROOT
BRANCH   1   2
ATOM      2  C   UNL     1       0.791   2.620  -2.451  1.00  0.00     0.188 C 
BRANCH   2   3
ATOM      3  C   UNL     1       0.975   2.143  -1.015  1.00  0.00     0.188 C 
BRANCH   3   4
ATOM      4  O   UNL     1       2.177   1.428  -0.831  1.00  0.00    -0.376 OA
BRANCH   4   5
ATOM      5  C   UNL     1       2.334   0.214  -1.540  1.00  0.00     0.202 C 
BRANCH   5   6
ATOM      6  C   UNL     1       2.079  -1.074  -0.756  1.00  0.00     0.261 C 
BRANCH   6   7
ATOM      7  O   UNL     1       1.842  -0.848   0.644  1.00  0.00    -0.460 OA
BRANCH   7   8
ATOM      8  C   UNL     1       2.657  -1.506   1.511  1.00  0.00     0.338 C 
ATOM      9  O   UNL     1       2.327  -2.544   2.064  1.00  0.00    -0.246 OA
BRANCH   8  10
ATOM     10  C   UNL     1       3.919  -0.772   1.835  1.00  0.00     0.087 C 
ATOM     11  C   UNL     1       5.027  -1.534   1.895  1.00  0.00     0.027 C 
ATOM     12  C   UNL     1       4.042   0.595   1.237  1.00  0.00     0.316 C 
ATOM     13  C   UNL     1       5.933  -1.380   0.739  1.00  0.00     0.020 A 
ATOM     14  O   UNL     1       4.787   0.582  -0.024  1.00  0.00    -0.474 OA
ATOM     15  C   UNL     1       7.042  -2.211   0.601  1.00  0.00     0.032 A 
ATOM     16  C   UNL     1       5.563  -0.525  -0.315  1.00  0.00     0.143 A 
ATOM     17  C   UNL     1       7.707  -2.257  -0.620  1.00  0.00     0.043 A 
ATOM     18  C   UNL     1       6.057  -0.781  -1.622  1.00  0.00     0.069 A 
ATOM     19  Cl  UNL     1       9.136  -3.201  -0.774  1.00  0.00    -0.084 Cl
ATOM     20  C   UNL     1       7.179  -1.611  -1.741  1.00  0.00     0.041 A 
BRANCH  12  21
ATOM     21  C   UNL     1       4.394   1.654   2.293  1.00  0.00     0.430 C 
ATOM     22  F   UNL     1       4.173   2.909   1.841  1.00  0.00    -0.167 F 
ATOM     23  F   UNL     1       3.588   1.500   3.384  1.00  0.00    -0.167 F 
ATOM     24  F   UNL     1       5.666   1.578   2.731  1.00  0.00    -0.167 F 
ENDBRANCH  12  21
BRANCH  18  25
ATOM     25  C   UNL     1       5.345  -0.487  -2.875  1.00  0.00    -0.058 C 
ATOM     26  C   UNL     1       4.718  -0.424  -3.908  1.00  0.00    -0.062 C 
BRANCH  26  27
ATOM     27  C   UNL     1       3.949  -0.322  -5.152  1.00  0.00     0.025 A 
ATOM     28  C   UNL     1       3.680   0.934  -5.693  1.00  0.00     0.017 A 
ATOM     29  C   UNL     1       3.533  -1.423  -5.902  1.00  0.00     0.017 A 
ATOM     30  C   UNL     1       3.032   1.117  -6.923  1.00  0.00     0.001 A 
ATOM     31  C   UNL     1       2.969  -1.245  -7.185  1.00  0.00     0.001 A 
ATOM     32  C   UNL     1       2.727   0.021  -7.704  1.00  0.00     0.000 A 
ENDBRANCH  26  27
ENDBRANCH  18  25
ENDBRANCH   8  10
ENDBRANCH   7   8
ENDBRANCH   6   7
ENDBRANCH   5   6
ENDBRANCH   4   5
ENDBRANCH   3   4
ENDBRANCH   2   3
ENDBRANCH   1   2
BRANCH   1  33
ATOM     33  C   UNL     1       3.053   3.007  -3.178  1.00  0.00     0.188 C 
BRANCH  33  34
ATOM     34  C   UNL     1       4.256   3.360  -2.281  1.00  0.00     0.188 C 
BRANCH  34  35
ATOM     35  O   UNL     1       4.546   4.712  -1.942  1.00  0.00    -0.376 OA
BRANCH  35  36
ATOM     36  C   UNL     1       3.560   5.684  -2.222  1.00  0.00     0.202 C 
BRANCH  36  37
ATOM     37  C   UNL     1       3.558   6.184  -3.681  1.00  0.00     0.261 C 
BRANCH  37  38
ATOM     38  O   UNL     1       4.106   5.288  -4.683  1.00  0.00    -0.460 OA
BRANCH  38  39
ATOM     39  C   UNL     1       5.457   5.184  -4.793  1.00  0.00     0.338 C 
ATOM     40  O   UNL     1       6.288   5.849  -4.201  1.00  0.00    -0.246 OA
BRANCH  39  41
ATOM     41  C   UNL     1       5.803   4.041  -5.700  1.00  0.00     0.060 A 
ATOM     42  C   UNL     1       6.716   3.054  -5.290  1.00  0.00     0.016 A 
ATOM     43  C   UNL     1       5.229   3.920  -6.964  1.00  0.00     0.016 A 
ATOM     44  C   UNL     1       7.041   1.946  -6.120  1.00  0.00     0.010 A 
ATOM     45  C   UNL     1       5.557   2.817  -7.784  1.00  0.00     0.010 A 
ATOM     46  C   UNL     1       6.470   1.800  -7.390  1.00  0.00    -0.014 A 
BRANCH  46  47
ATOM     47  C   UNL     1       6.828   0.719  -8.402  1.00  0.00     0.031 A 
ATOM     48  C   UNL     1       7.285   1.181  -9.768  1.00  0.00     0.074 A 
ATOM     49  C   UNL     1       6.720  -0.625  -8.239  1.00  0.00     0.049 A 
ATOM     50  N   UNL     1       7.356   0.529 -10.902  1.00  0.00    -0.248 NA
ATOM     51  C   UNL     1       7.723   2.584  -9.856  1.00  0.00     0.031 C 
ATOM     52  C   UNL     1       6.491  -1.340  -6.993  1.00  0.00     0.029 A 
ATOM     53  N   UNL     1       6.723  -1.648  -9.182  1.00  0.00    -0.354 N 
ATOM     54  C   UNL     1       7.830   1.444 -11.831  1.00  0.00     0.074 A 
ATOM     55  C   UNL     1       7.933   2.719 -11.155  1.00  0.00     0.031 C 
ATOM     56  C   UNL     1       6.215  -2.635  -7.253  1.00  0.00     0.029 A 
ATOM     57  C   UNL     1       6.261  -2.859  -8.693  1.00  0.00     0.049 A 
ATOM     58  H   UNL     1       7.024  -1.523 -10.111  1.00  0.00     0.167 HD
ATOM     59  C   UNL     1       8.216   1.244 -13.112  1.00  0.00     0.037 A 
ATOM     60  C   UNL     1       5.887  -4.001  -9.317  1.00  0.00     0.037 A 
ATOM     61  C   UNL     1       8.221  -0.027 -13.783  1.00  0.00     0.049 A 
ATOM     62  C   UNL     1       6.140  -4.164 -10.796  1.00  0.00     0.074 A 
ATOM     63  C   UNL     1       8.721  -0.330 -15.038  1.00  0.00     0.029 A 
ATOM     64  N   UNL     1       7.708  -1.200 -13.262  1.00  0.00    -0.354 N 
ATOM     65  N   UNL     1       6.657  -3.308 -11.640  1.00  0.00    -0.248 NA
ATOM     66  C   UNL     1       5.826  -5.474 -11.395  1.00  0.00     0.031 C 
ATOM     67  C   UNL     1       8.453  -1.674 -15.304  1.00  0.00     0.029 A 
ATOM     68  C   UNL     1       7.834  -2.219 -14.192  1.00  0.00     0.049 A 
ATOM     69  H   UNL     1       7.312  -1.297 -12.366  1.00  0.00     0.167 HD
ATOM     70  C   UNL     1       6.815  -4.002 -12.835  1.00  0.00     0.074 A 
ATOM     71  C   UNL     1       6.308  -5.338 -12.622  1.00  0.00     0.031 C 
ATOM     72  C   UNL     1       7.367  -3.565 -13.991  1.00  0.00     0.037 A 
BRANCH  59  73
ATOM     73  C   UNL     1       8.708   2.436 -13.876  1.00  0.00     0.057 A 
ATOM     74  C   UNL     1       9.931   3.051 -13.578  1.00  0.00     0.134 A 
ATOM     75  C   UNL     1       7.967   2.946 -14.948  1.00  0.00     0.134 A 
ATOM     76  F   UNL     1      10.681   2.613 -12.555  1.00  0.00    -0.206 F 
ATOM     77  C   UNL     1      10.384   4.154 -14.299  1.00  0.00     0.040 A 
ATOM     78  C   UNL     1       8.427   4.027 -15.698  1.00  0.00     0.040 A 
ATOM     79  F   UNL     1       6.793   2.393 -15.290  1.00  0.00    -0.206 F 
ATOM     80  C   UNL     1       9.634   4.640 -15.368  1.00  0.00     0.006 A 
ENDBRANCH  59  73
BRANCH  60  81
ATOM     81  C   UNL     1       5.215  -5.125  -8.593  1.00  0.00     0.057 A 
ATOM     82  C   UNL     1       5.872  -6.330  -8.320  1.00  0.00     0.134 A 
ATOM     83  C   UNL     1       3.841  -5.086  -8.322  1.00  0.00     0.134 A 
ATOM     84  F   UNL     1       7.167  -6.476  -8.636  1.00  0.00    -0.206 F 
ATOM     85  C   UNL     1       5.190  -7.445  -7.816  1.00  0.00     0.040 A 
ATOM     86  C   UNL     1       3.154  -6.175  -7.776  1.00  0.00     0.040 A 
ATOM     87  F   UNL     1       3.118  -4.013  -8.664  1.00  0.00    -0.206 F 
ATOM     88  C   UNL     1       3.828  -7.367  -7.533  1.00  0.00     0.006 A 
ENDBRANCH  60  81
BRANCH  72  89
ATOM     89  C   UNL     1       7.539  -4.545 -15.115  1.00  0.00     0.057 A 
ATOM     90  C   UNL     1       6.457  -5.019 -15.864  1.00  0.00     0.134 A 
ATOM     91  C   UNL     1       8.822  -4.957 -15.504  1.00  0.00     0.134 A 
ATOM     92  F   UNL     1       5.201  -4.678 -15.536  1.00  0.00    -0.206 F 
ATOM     93  C   UNL     1       6.642  -5.869 -16.956  1.00  0.00     0.040 A 
ATOM     94  C   UNL     1       9.023  -5.782 -16.611  1.00  0.00     0.040 A 
ATOM     95  F   UNL     1       9.905  -4.537 -14.832  1.00  0.00    -0.206 F 
ATOM     96  C   UNL     1       7.930  -6.242 -17.340  1.00  0.00     0.006 A 
ENDBRANCH  72  89
ENDBRANCH  46  47
ENDBRANCH  39  41
ENDBRANCH  38  39
ENDBRANCH  37  38
ENDBRANCH  36  37
ENDBRANCH  35  36
ENDBRANCH  34  35
ENDBRANCH  33  34
ENDBRANCH   1  33
TORSDOF 23
