REMARK SMILES C[C@@H]1CN(C(=O)Nc2ccc(O)c(C(=O)OCCOCCOCCOCCOC(=O)c3ccc(-c4c5nc(c(-c6c(F)cccc6F)c6ccc([nH]6)c(-c6c(F)cccc6F)c6nc(c(-c7c(F)cccc7F)c7ccc4[nH]7)C=C6)C=C5)cc3)c2)C[C@H]1C
REMARK SMILES IDX 23 1 22 2 21 3 20 4 19 5 18 6 17 7 16 8 14 9 15 10 13 11
REMARK SMILES IDX 8 12 9 13 85 14 10 15 11 16 7 17 1 18 2 19 3 20 87 21 4 22
REMARK SMILES IDX 86 23 88 24 5 25 6 26 12 28 24 30 25 31 26 32 27 33 28 34
REMARK SMILES IDX 29 35 30 36 31 37 32 38 84 39 33 40 83 41 34 42 35 43 36 44
REMARK SMILES IDX 77 45 37 46 82 47 76 48 78 49 38 50 81 51 75 52 74 53 39 55
REMARK SMILES IDX 65 56 48 57 64 58 49 59 52 60 63 61 79 62 50 63 51 64 62 66
REMARK SMILES IDX 80 67 53 68 40 69 41 70 46 71 42 72 43 73 45 74 47 75 44 76
REMARK SMILES IDX 66 77 67 78 72 79 68 80 69 81 71 82 73 83 70 84 54 85 55 86
REMARK SMILES IDX 60 87 56 88 57 89 59 90 61 91 58 92
REMARK H PARENT 7 27 12 29 78 54 52 65
REMARK Flexibility Score: inf
ROOT
ATOM      1  C   UNL     1      -8.041   3.548   1.361  1.00  0.00     0.188 C 
ENDROOT
BRANCH   1   2
ATOM      2  O   UNL     1      -7.120   2.755   0.618  1.00  0.00    -0.377 OA
BRANCH   2   3
ATOM      3  C   UNL     1      -6.998   1.368   0.911  1.00  0.00     0.188 C 
BRANCH   3   4
ATOM      4  C   UNL     1      -6.959   0.878   2.378  1.00  0.00     0.188 C 
BRANCH   4   5
ATOM      5  O   UNL     1      -7.332   1.864   3.324  1.00  0.00    -0.376 OA
BRANCH   5   6
ATOM      6  C   UNL     1      -6.371   2.357   4.237  1.00  0.00     0.202 C 
BRANCH   6   7
ATOM      7  C   UNL     1      -5.084   3.001   3.703  1.00  0.00     0.261 C 
BRANCH   7   8
ATOM      8  O   UNL     1      -4.585   2.436   2.492  1.00  0.00    -0.460 OA
BRANCH   8   9
ATOM      9  C   UNL     1      -3.728   1.397   2.587  1.00  0.00     0.342 C 
ATOM     10  O   UNL     1      -3.330   0.871   3.611  1.00  0.00    -0.246 OA
BRANCH   9  11
ATOM     11  C   UNL     1      -3.577   0.817   1.232  1.00  0.00     0.103 A 
ATOM     12  C   UNL     1      -3.607  -1.162  -0.142  1.00  0.00     0.044 A 
ATOM     13  C   UNL     1      -3.557  -0.373  -1.294  1.00  0.00     0.030 A 
ATOM     14  C   UNL     1      -3.701  -0.575   1.117  1.00  0.00     0.045 A 
ATOM     15  C   UNL     1      -3.442   1.014  -1.182  1.00  0.00     0.049 A 
ATOM     16  C   UNL     1      -3.409   1.602   0.082  1.00  0.00     0.130 A 
BRANCH  12  17
ATOM     17  N   UNL     1      -3.445  -2.544  -0.225  1.00  0.00    -0.308 N 
ATOM     18  C   UNL     1       1.331  -0.042   0.127  1.00  0.00     0.010 C 
ATOM     19  C   UNL     1       0.769  -1.178  -0.716  1.00  0.00     0.010 C 
ATOM     20  C   UNL     1      -0.743  -1.261  -0.578  1.00  0.00     0.125 C 
ATOM     21  C   UNL     1       1.220  -2.579  -0.299  1.00  0.00     0.010 C 
ATOM     22  N   UNL     1      -1.107  -2.661  -0.710  1.00  0.00    -0.324 N 
ATOM     23  C   UNL     1       0.096  -3.469  -0.845  1.00  0.00     0.125 C 
ATOM     24  C   UNL     1       2.588  -2.935  -0.853  1.00  0.00     0.010 C 
ATOM     25  C   UNL     1      -2.332  -3.265  -0.563  1.00  0.00     0.321 C 
ATOM     26  O   UNL     1      -2.458  -4.491  -0.626  1.00  0.00    -0.248 OA
ATOM     27  H   UNL     1      -4.244  -3.077  -0.009  1.00  0.00     0.171 HD
ENDBRANCH  12  17
BRANCH  16  28
ATOM     28  O   UNL     1      -3.190   2.946   0.187  1.00  0.00    -0.507 OA
ATOM     29  H   UNL     1      -3.079   3.464  -0.586  1.00  0.00     0.293 HD
ENDBRANCH  16  28
ENDBRANCH   9  11
ENDBRANCH   8   9
ENDBRANCH   7   8
ENDBRANCH   6   7
ENDBRANCH   5   6
ENDBRANCH   4   5
ENDBRANCH   3   4
ENDBRANCH   2   3
ENDBRANCH   1   2
BRANCH   1  30
ATOM     30  C   UNL     1      -9.373   2.944   1.870  1.00  0.00     0.188 C 
BRANCH  30  31
ATOM     31  O   UNL     1      -9.589   1.593   1.499  1.00  0.00    -0.376 OA
BRANCH  31  32
ATOM     32  C   UNL     1     -10.541   1.332   0.483  1.00  0.00     0.202 C 
BRANCH  32  33
ATOM     33  C   UNL     1     -10.290   1.941  -0.904  1.00  0.00     0.261 C 
BRANCH  33  34
ATOM     34  O   UNL     1     -10.039   3.354  -0.945  1.00  0.00    -0.460 OA
BRANCH  34  35
ATOM     35  C   UNL     1     -11.053   4.175  -0.603  1.00  0.00     0.338 C 
ATOM     36  O   UNL     1     -12.181   3.857  -0.262  1.00  0.00    -0.246 OA
BRANCH  35  37
ATOM     37  C   UNL     1     -10.508   5.545  -0.534  1.00  0.00     0.060 A 
ATOM     38  C   UNL     1     -10.522   6.231   0.688  1.00  0.00     0.016 A 
ATOM     39  C   UNL     1      -9.974   6.144  -1.677  1.00  0.00     0.016 A 
ATOM     40  C   UNL     1     -10.028   7.533   0.764  1.00  0.00     0.010 A 
ATOM     41  C   UNL     1      -9.502   7.457  -1.606  1.00  0.00     0.010 A 
ATOM     42  C   UNL     1      -9.559   8.168  -0.393  1.00  0.00    -0.014 A 
BRANCH  42  43
ATOM     43  C   UNL     1      -9.332   9.632  -0.391  1.00  0.00     0.031 A 
ATOM     44  C   UNL     1     -10.426  10.518  -0.919  1.00  0.00     0.074 A 
ATOM     45  C   UNL     1      -8.191  10.169   0.075  1.00  0.00     0.049 A 
ATOM     46  N   UNL     1     -10.439  11.814  -1.094  1.00  0.00    -0.248 NA
ATOM     47  C   UNL     1     -11.676   9.845  -1.309  1.00  0.00     0.031 C 
ATOM     48  C   UNL     1      -7.078   9.423   0.657  1.00  0.00     0.029 A 
ATOM     49  N   UNL     1      -7.781  11.479   0.119  1.00  0.00    -0.354 N 
ATOM     50  C   UNL     1     -11.690  12.109  -1.622  1.00  0.00     0.074 A 
ATOM     51  C   UNL     1     -12.396  10.855  -1.770  1.00  0.00     0.031 C 
ATOM     52  C   UNL     1      -6.101  10.287   0.986  1.00  0.00     0.029 A 
ATOM     53  C   UNL     1      -6.506  11.639   0.603  1.00  0.00     0.049 A 
ATOM     54  H   UNL     1      -8.346  12.231  -0.170  1.00  0.00     0.167 HD
ATOM     55  C   UNL     1     -12.207  13.317  -1.947  1.00  0.00     0.037 A 
ATOM     56  C   UNL     1      -5.747  12.749   0.698  1.00  0.00     0.037 A 
ATOM     57  C   UNL     1     -11.499  14.561  -1.803  1.00  0.00     0.049 A 
ATOM     58  C   UNL     1      -6.312  14.073   0.248  1.00  0.00     0.074 A 
ATOM     59  C   UNL     1     -11.939  15.840  -2.092  1.00  0.00     0.029 A 
ATOM     60  N   UNL     1     -10.197  14.679  -1.339  1.00  0.00    -0.354 N 
ATOM     61  N   UNL     1      -7.502  14.347  -0.231  1.00  0.00    -0.248 NA
ATOM     62  C   UNL     1      -5.427  15.242   0.352  1.00  0.00     0.031 C 
ATOM     63  C   UNL     1     -10.883  16.727  -1.860  1.00  0.00     0.029 A 
ATOM     64  C   UNL     1      -9.807  16.008  -1.363  1.00  0.00     0.049 A 
ATOM     65  H   UNL     1      -9.634  13.930  -1.038  1.00  0.00     0.167 HD
ATOM     66  C   UNL     1      -7.520  15.721  -0.450  1.00  0.00     0.074 A 
ATOM     67  C   UNL     1      -6.226  16.224  -0.041  1.00  0.00     0.031 C 
ATOM     68  C   UNL     1      -8.518  16.496  -0.943  1.00  0.00     0.037 A 
BRANCH  55  69
ATOM     69  C   UNL     1     -13.592  13.342  -2.524  1.00  0.00     0.057 A 
ATOM     70  C   UNL     1     -14.725  13.047  -1.754  1.00  0.00     0.134 A 
ATOM     71  C   UNL     1     -13.797  13.690  -3.866  1.00  0.00     0.134 A 
ATOM     72  F   UNL     1     -14.599  12.689  -0.468  1.00  0.00    -0.206 F 
ATOM     73  C   UNL     1     -16.008  13.071  -2.304  1.00  0.00     0.040 A 
ATOM     74  C   UNL     1     -15.077  13.748  -4.419  1.00  0.00     0.040 A 
ATOM     75  F   UNL     1     -12.757  13.987  -4.660  1.00  0.00    -0.206 F 
ATOM     76  C   UNL     1     -16.187  13.430  -3.639  1.00  0.00     0.006 A 
ENDBRANCH  55  69
BRANCH  56  77
ATOM     77  C   UNL     1      -4.358  12.663   1.221  1.00  0.00     0.057 A 
ATOM     78  C   UNL     1      -3.999  13.266   2.433  1.00  0.00     0.134 A 
ATOM     79  C   UNL     1      -3.348  12.009   0.505  1.00  0.00     0.134 A 
ATOM     80  F   UNL     1      -4.915  13.931   3.153  1.00  0.00    -0.206 F 
ATOM     81  C   UNL     1      -2.684  13.240   2.903  1.00  0.00     0.040 A 
ATOM     82  C   UNL     1      -2.035  11.950   0.978  1.00  0.00     0.040 A 
ATOM     83  F   UNL     1      -3.623  11.412  -0.664  1.00  0.00    -0.206 F 
ATOM     84  C   UNL     1      -1.699  12.575   2.176  1.00  0.00     0.006 A 
ENDBRANCH  56  77
BRANCH  68  85
ATOM     85  C   UNL     1      -8.271  17.976  -1.024  1.00  0.00     0.057 A 
ATOM     86  C   UNL     1      -7.382  18.534  -1.952  1.00  0.00     0.134 A 
ATOM     87  C   UNL     1      -8.972  18.860  -0.191  1.00  0.00     0.134 A 
ATOM     88  F   UNL     1      -6.672  17.746  -2.773  1.00  0.00    -0.206 F 
ATOM     89  C   UNL     1      -7.179  19.914  -2.029  1.00  0.00     0.040 A 
ATOM     90  C   UNL     1      -8.801  20.242  -0.281  1.00  0.00     0.040 A 
ATOM     91  F   UNL     1      -9.848  18.395   0.712  1.00  0.00    -0.206 F 
ATOM     92  C   UNL     1      -7.896  20.772  -1.197  1.00  0.00     0.006 A 
ENDBRANCH  68  85
ENDBRANCH  42  43
ENDBRANCH  35  37
ENDBRANCH  34  35
ENDBRANCH  33  34
ENDBRANCH  32  33
ENDBRANCH  31  32
ENDBRANCH  30  31
ENDBRANCH   1  30
TORSDOF 22
