REMARK SMILES C=CCN(CC(=O)OCCOCCOCCOCCOC(=O)c1ccc(-c2c3nc(c(-c4c(F)cccc4F)c4ccc([nH]4)c(-c4c(F)cccc4F)c4nc(c(-c5c(F)cccc5F)c5ccc2[nH]5)C=C4)C=C3)cc1)c1nccn(C)c1=O
REMARK SMILES IDX 13 1 12 2 11 3 10 4 9 5 8 6 6 7 7 8 5 9 4 10 3 11 2 12 1 13
REMARK SMILES IDX 77 14 78 15 83 16 79 17 81 18 84 19 80 20 82 21 14 22 15 23
REMARK SMILES IDX 16 24 17 25 18 26 19 27 20 28 21 29 22 30 23 31 24 32 76 33
REMARK SMILES IDX 25 34 75 35 26 36 27 37 28 38 69 39 29 40 74 41 68 42 70 43
REMARK SMILES IDX 30 44 73 45 67 46 66 47 31 49 57 50 40 51 56 52 41 53 44 54
REMARK SMILES IDX 55 55 71 56 42 57 43 58 54 60 72 61 45 62 32 63 33 64 38 65
REMARK SMILES IDX 34 66 35 67 37 68 39 69 36 70 58 71 59 72 64 73 60 74 61 75
REMARK SMILES IDX 63 76 65 77 62 78 46 79 47 80 52 81 48 82 49 83 51 84 53 85
REMARK SMILES IDX 50 86
REMARK H PARENT 70 48 44 59
REMARK Flexibility Score: inf
ROOT
ATOM      1  C   UNL     1      -4.192   4.081   1.444  1.00  0.00     0.188 C 
ENDROOT
BRANCH   1   2
ATOM      2  C   UNL     1      -4.949   4.984   0.467  1.00  0.00     0.188 C 
BRANCH   2   3
ATOM      3  O   UNL     1      -6.324   4.718   0.253  1.00  0.00    -0.376 OA
BRANCH   3   4
ATOM      4  C   UNL     1      -6.673   3.380  -0.109  1.00  0.00     0.202 C 
BRANCH   4   5
ATOM      5  C   UNL     1      -5.829   2.664  -1.202  1.00  0.00     0.261 C 
BRANCH   5   6
ATOM      6  O   UNL     1      -4.413   2.441  -0.890  1.00  0.00    -0.462 OA
BRANCH   6   7
ATOM      7  C   UNL     1      -3.486   2.920  -1.757  1.00  0.00     0.325 C 
ATOM      8  O   UNL     1      -3.794   3.393  -2.853  1.00  0.00    -0.250 OA
BRANCH   7   9
ATOM      9  C   UNL     1      -2.013   2.997  -1.279  1.00  0.00     0.241 C 
BRANCH   9  10
ATOM     10  N   UNL     1      -1.525   2.235  -0.093  1.00  0.00    -0.337 N 
BRANCH  10  11
ATOM     11  C   UNL     1      -1.384   0.785  -0.323  1.00  0.00     0.146 C 
BRANCH  11  12
ATOM     12  C   UNL     1       0.031   0.449  -0.729  1.00  0.00    -0.014 C 
ATOM     13  C   UNL     1       0.875  -0.328  -0.033  1.00  0.00     0.006 C 
ENDBRANCH  11  12
ENDBRANCH  10  11
BRANCH  10  14
ATOM     14  C   UNL     1      -0.546   2.852   0.735  1.00  0.00     0.196 A 
ATOM     15  N   UNL     1       0.686   3.015   0.313  1.00  0.00    -0.233 NA
ATOM     16  C   UNL     1      -0.919   3.368   2.169  1.00  0.00     0.293 A 
ATOM     17  C   UNL     1       1.596   3.575   1.170  1.00  0.00     0.131 A 
ATOM     18  N   UNL     1      -0.006   4.257   2.734  1.00  0.00    -0.314 N 
ATOM     19  O   UNL     1      -1.939   2.997   2.721  1.00  0.00    -0.265 OA
ATOM     20  C   UNL     1       1.288   4.231   2.290  1.00  0.00     0.109 A 
ATOM     21  C   UNL     1      -0.350   5.147   3.827  1.00  0.00     0.153 C 
ENDBRANCH  10  14
ENDBRANCH   9  10
ENDBRANCH   7   9
ENDBRANCH   6   7
ENDBRANCH   5   6
ENDBRANCH   4   5
ENDBRANCH   3   4
ENDBRANCH   2   3
ENDBRANCH   1   2
BRANCH   1  22
ATOM     22  O   UNL     1      -4.733   2.782   1.579  1.00  0.00    -0.377 OA
BRANCH  22  23
ATOM     23  C   UNL     1      -4.820   2.216   2.873  1.00  0.00     0.188 C 
BRANCH  23  24
ATOM     24  C   UNL     1      -5.688   3.006   3.847  1.00  0.00     0.188 C 
BRANCH  24  25
ATOM     25  O   UNL     1      -5.263   4.262   4.340  1.00  0.00    -0.376 OA
BRANCH  25  26
ATOM     26  C   UNL     1      -3.999   4.526   4.925  1.00  0.00     0.202 C 
BRANCH  26  27
ATOM     27  C   UNL     1      -3.051   3.499   5.555  1.00  0.00     0.261 C 
BRANCH  27  28
ATOM     28  O   UNL     1      -3.538   2.186   5.650  1.00  0.00    -0.460 OA
BRANCH  28  29
ATOM     29  C   UNL     1      -4.242   1.935   6.756  1.00  0.00     0.338 C 
ATOM     30  O   UNL     1      -4.520   2.680   7.683  1.00  0.00    -0.246 OA
BRANCH  29  31
ATOM     31  C   UNL     1      -4.771   0.605   6.522  1.00  0.00     0.060 A 
ATOM     32  C   UNL     1      -6.157   0.485   6.436  1.00  0.00     0.016 A 
ATOM     33  C   UNL     1      -3.900  -0.474   6.311  1.00  0.00     0.016 A 
ATOM     34  C   UNL     1      -6.697  -0.758   6.211  1.00  0.00     0.010 A 
ATOM     35  C   UNL     1      -4.443  -1.729   6.110  1.00  0.00     0.010 A 
ATOM     36  C   UNL     1      -5.838  -1.863   6.133  1.00  0.00    -0.014 A 
BRANCH  36  37
ATOM     37  C   UNL     1      -6.436  -3.168   6.412  1.00  0.00     0.031 A 
ATOM     38  C   UNL     1      -6.401  -3.635   7.835  1.00  0.00     0.074 A 
ATOM     39  C   UNL     1      -7.087  -3.811   5.436  1.00  0.00     0.049 A 
ATOM     40  N   UNL     1      -6.912  -4.710   8.365  1.00  0.00    -0.248 NA
ATOM     41  C   UNL     1      -5.696  -2.767   8.799  1.00  0.00     0.031 C 
ATOM     42  C   UNL     1      -7.199  -3.350   4.051  1.00  0.00     0.029 A 
ATOM     43  N   UNL     1      -7.794  -4.974   5.471  1.00  0.00    -0.354 N 
ATOM     44  C   UNL     1      -6.586  -4.648   9.714  1.00  0.00     0.074 A 
ATOM     45  C   UNL     1      -5.799  -3.458   9.921  1.00  0.00     0.031 C 
ATOM     46  C   UNL     1      -7.941  -4.232   3.363  1.00  0.00     0.029 A 
ATOM     47  C   UNL     1      -8.320  -5.323   4.256  1.00  0.00     0.049 A 
ATOM     48  H   UNL     1      -7.914  -5.511   6.287  1.00  0.00     0.167 HD
ATOM     49  C   UNL     1      -6.933  -5.515  10.690  1.00  0.00     0.037 A 
ATOM     50  C   UNL     1      -9.016  -6.422   3.923  1.00  0.00     0.037 A 
ATOM     51  C   UNL     1      -7.717  -6.690  10.433  1.00  0.00     0.049 A 
ATOM     52  C   UNL     1      -9.330  -7.407   5.015  1.00  0.00     0.074 A 
ATOM     53  C   UNL     1      -8.134  -7.663  11.318  1.00  0.00     0.029 A 
ATOM     54  N   UNL     1      -8.197  -7.047   9.178  1.00  0.00    -0.354 N 
ATOM     55  N   UNL     1      -9.021  -7.353   6.291  1.00  0.00    -0.248 NA
ATOM     56  C   UNL     1     -10.094  -8.595   4.628  1.00  0.00     0.031 C 
ATOM     57  C   UNL     1      -8.817  -8.641  10.587  1.00  0.00     0.029 A 
ATOM     58  C   UNL     1      -8.887  -8.241   9.259  1.00  0.00     0.049 A 
ATOM     59  H   UNL     1      -8.065  -6.526   8.353  1.00  0.00     0.167 HD
ATOM     60  C   UNL     1      -9.579  -8.484   6.868  1.00  0.00     0.074 A 
ATOM     61  C   UNL     1     -10.255  -9.196   5.798  1.00  0.00     0.031 C 
ATOM     62  C   UNL     1      -9.546  -8.904   8.159  1.00  0.00     0.037 A 
BRANCH  49  63
ATOM     63  C   UNL     1      -6.421  -5.240  12.074  1.00  0.00     0.057 A 
ATOM     64  C   UNL     1      -6.861  -4.147  12.835  1.00  0.00     0.134 A 
ATOM     65  C   UNL     1      -5.454  -6.074  12.649  1.00  0.00     0.134 A 
ATOM     66  F   UNL     1      -7.764  -3.289  12.335  1.00  0.00    -0.206 F 
ATOM     67  C   UNL     1      -6.338  -3.880  14.102  1.00  0.00     0.040 A 
ATOM     68  C   UNL     1      -4.947  -5.835  13.927  1.00  0.00     0.040 A 
ATOM     69  F   UNL     1      -4.979  -7.131  11.974  1.00  0.00    -0.206 F 
ATOM     70  C   UNL     1      -5.383  -4.730  14.655  1.00  0.00     0.006 A 
ENDBRANCH  49  63
BRANCH  50  71
ATOM     71  C   UNL     1      -9.442  -6.629   2.518  1.00  0.00     0.057 A 
ATOM     72  C   UNL     1     -10.790  -6.596   2.151  1.00  0.00     0.134 A 
ATOM     73  C   UNL     1      -8.502  -6.840   1.501  1.00  0.00     0.134 A 
ATOM     74  F   UNL     1     -11.739  -6.402   3.079  1.00  0.00    -0.206 F 
ATOM     75  C   UNL     1     -11.192  -6.784   0.827  1.00  0.00     0.040 A 
ATOM     76  C   UNL     1      -8.886  -7.002   0.170  1.00  0.00     0.040 A 
ATOM     77  F   UNL     1      -7.191  -6.867   1.784  1.00  0.00    -0.206 F 
ATOM     78  C   UNL     1     -10.237  -6.982  -0.169  1.00  0.00     0.006 A 
ENDBRANCH  50  71
BRANCH  62  79
ATOM     79  C   UNL     1     -10.300 -10.159   8.477  1.00  0.00     0.057 A 
ATOM     80  C   UNL     1      -9.862 -11.418   8.049  1.00  0.00     0.134 A 
ATOM     81  C   UNL     1     -11.461 -10.104   9.258  1.00  0.00     0.134 A 
ATOM     82  F   UNL     1      -8.762 -11.534   7.289  1.00  0.00    -0.206 F 
ATOM     83  C   UNL     1     -10.572 -12.577   8.359  1.00  0.00     0.040 A 
ATOM     84  C   UNL     1     -12.159 -11.259   9.605  1.00  0.00     0.040 A 
ATOM     85  F   UNL     1     -11.923  -8.929   9.712  1.00  0.00    -0.206 F 
ATOM     86  C   UNL     1     -11.720 -12.499   9.146  1.00  0.00     0.006 A 
ENDBRANCH  62  79
ENDBRANCH  36  37
ENDBRANCH  29  31
ENDBRANCH  28  29
ENDBRANCH  27  28
ENDBRANCH  26  27
ENDBRANCH  25  26
ENDBRANCH  24  25
ENDBRANCH  23  24
ENDBRANCH  22  23
ENDBRANCH   1  22
TORSDOF 24
