REMARK SMILES Cn1c(SCC(=O)Nc2ccc(C(=O)OCCOCCOCCOCCOC(=O)c3ccc(-c4c5nc(c(-c6c(F)cccc6F)c6ccc([nH]6)c(-c6c(F)cccc6F)c6nc(c(-c7c(F)cccc7F)c7ccc4[nH]7)C=C6)C=C5)cc3)cc2)nc2ccccc2c1=O
REMARK SMILES IDX 20 1 19 2 18 3 17 4 16 5 15 6 13 7 14 8 12 9 9 10 10 11
REMARK SMILES IDX 85 12 11 13 84 14 8 15 6 16 7 17 5 19 4 20 3 21 1 22 2 23
REMARK SMILES IDX 93 24 86 25 92 26 94 27 87 28 91 29 88 30 90 31 89 32 21 33
REMARK SMILES IDX 22 34 23 35 24 36 25 37 26 38 27 39 28 40 29 41 30 42 31 43
REMARK SMILES IDX 83 44 32 45 82 46 33 47 34 48 35 49 76 50 36 51 81 52 75 53
REMARK SMILES IDX 77 54 37 55 80 56 74 57 73 58 38 60 64 61 47 62 63 63 48 64
REMARK SMILES IDX 51 65 62 66 78 67 49 68 50 69 61 71 79 72 52 73 39 74 40 75
REMARK SMILES IDX 45 76 41 77 42 78 44 79 46 80 43 81 65 82 66 83 71 84 67 85
REMARK SMILES IDX 68 86 70 87 72 88 69 89 53 90 54 91 59 92 55 93 56 94 58 95
REMARK SMILES IDX 60 96 57 97
REMARK H PARENT 8 18 77 59 51 70
REMARK Flexibility Score: inf
ROOT
ATOM      1  C   UNL     1      -3.846   3.948  -5.040  1.00  0.00     0.188 C 
ENDROOT
BRANCH   1   2
ATOM      2  C   UNL     1      -4.223   2.935  -6.134  1.00  0.00     0.188 C 
BRANCH   2   3
ATOM      3  O   UNL     1      -5.289   3.359  -6.979  1.00  0.00    -0.376 OA
BRANCH   3   4
ATOM      4  C   UNL     1      -6.485   2.593  -6.906  1.00  0.00     0.202 C 
BRANCH   4   5
ATOM      5  C   UNL     1      -7.362   2.913  -5.689  1.00  0.00     0.261 C 
BRANCH   5   6
ATOM      6  O   UNL     1      -6.715   2.691  -4.427  1.00  0.00    -0.460 OA
BRANCH   6   7
ATOM      7  C   UNL     1      -6.446   1.406  -4.103  1.00  0.00     0.338 C 
ATOM      8  O   UNL     1      -6.780   0.412  -4.721  1.00  0.00    -0.246 OA
BRANCH   7   9
ATOM      9  C   UNL     1      -5.462   1.420  -2.996  1.00  0.00     0.060 A 
ATOM     10  C   UNL     1      -3.411   1.569  -1.102  1.00  0.00     0.041 A 
ATOM     11  C   UNL     1      -3.328   0.650  -2.150  1.00  0.00     0.027 A 
ATOM     12  C   UNL     1      -4.543   2.382  -0.977  1.00  0.00     0.027 A 
ATOM     13  C   UNL     1      -4.361   0.561  -3.085  1.00  0.00     0.018 A 
ATOM     14  C   UNL     1      -5.555   2.332  -1.939  1.00  0.00     0.018 A 
BRANCH  10  15
ATOM     15  N   UNL     1      -2.430   1.651  -0.109  1.00  0.00    -0.325 N 
ATOM     16  C   UNL     1      -1.078   1.454  -0.193  1.00  0.00     0.234 C 
ATOM     17  O   UNL     1      -0.453   1.279   0.854  1.00  0.00    -0.274 OA
ATOM     18  H   UNL     1      -2.762   1.887   0.787  1.00  0.00     0.169 HD
BRANCH  16  19
ATOM     19  C   UNL     1      -0.368   1.726  -1.501  1.00  0.00     0.178 C 
BRANCH  19  20
ATOM     20  S   UNL     1       0.500   0.417  -2.352  1.00  0.00    -0.078 SA
BRANCH  20  21
ATOM     21  C   UNL     1       0.433  -1.041  -1.400  1.00  0.00     0.171 A 
ATOM     22  C   UNL     1       1.985  -0.135   0.372  1.00  0.00     0.156 C 
ATOM     23  N   UNL     1       1.163  -1.172  -0.234  1.00  0.00    -0.290 N 
ATOM     24  C   UNL     1       1.177  -2.386   0.454  1.00  0.00     0.261 A 
ATOM     25  N   UNL     1      -0.203  -2.016  -1.970  1.00  0.00    -0.224 NA
ATOM     26  C   UNL     1       0.609  -3.546  -0.249  1.00  0.00     0.066 A 
ATOM     27  O   UNL     1       1.676  -2.546   1.565  1.00  0.00    -0.269 OA
ATOM     28  C   UNL     1      -0.053  -3.307  -1.447  1.00  0.00     0.079 A 
ATOM     29  C   UNL     1       0.834  -4.849   0.215  1.00  0.00     0.016 A 
ATOM     30  C   UNL     1      -0.479  -4.405  -2.201  1.00  0.00     0.029 A 
ATOM     31  C   UNL     1       0.416  -5.935  -0.552  1.00  0.00     0.001 A 
ATOM     32  C   UNL     1      -0.238  -5.713  -1.763  1.00  0.00     0.002 A 
ENDBRANCH  20  21
ENDBRANCH  19  20
ENDBRANCH  16  19
ENDBRANCH  10  15
ENDBRANCH   7   9
ENDBRANCH   6   7
ENDBRANCH   5   6
ENDBRANCH   4   5
ENDBRANCH   3   4
ENDBRANCH   2   3
ENDBRANCH   1   2
BRANCH   1  33
ATOM     33  O   UNL     1      -4.716   5.048  -4.842  1.00  0.00    -0.377 OA
BRANCH  33  34
ATOM     34  C   UNL     1      -4.988   5.926  -5.931  1.00  0.00     0.188 C 
BRANCH  34  35
ATOM     35  C   UNL     1      -4.119   5.960  -7.208  1.00  0.00     0.188 C 
BRANCH  35  36
ATOM     36  O   UNL     1      -2.792   5.477  -7.043  1.00  0.00    -0.376 OA
BRANCH  36  37
ATOM     37  C   UNL     1      -1.755   6.440  -7.173  1.00  0.00     0.202 C 
BRANCH  37  38
ATOM     38  C   UNL     1      -1.570   7.296  -5.917  1.00  0.00     0.261 C 
BRANCH  38  39
ATOM     39  O   UNL     1      -2.708   8.096  -5.561  1.00  0.00    -0.460 OA
BRANCH  39  40
ATOM     40  C   UNL     1      -3.112   9.035  -6.446  1.00  0.00     0.338 C 
ATOM     41  O   UNL     1      -2.602   9.312  -7.516  1.00  0.00    -0.246 OA
BRANCH  40  42
ATOM     42  C   UNL     1      -4.411   9.553  -5.971  1.00  0.00     0.060 A 
ATOM     43  C   UNL     1      -4.552   9.985  -4.650  1.00  0.00     0.016 A 
ATOM     44  C   UNL     1      -5.505   9.566  -6.845  1.00  0.00     0.016 A 
ATOM     45  C   UNL     1      -5.786  10.459  -4.210  1.00  0.00     0.010 A 
ATOM     46  C   UNL     1      -6.744  10.036  -6.400  1.00  0.00     0.010 A 
ATOM     47  C   UNL     1      -6.883  10.509  -5.087  1.00  0.00    -0.014 A 
BRANCH  47  48
ATOM     48  C   UNL     1      -8.101  11.244  -4.675  1.00  0.00     0.031 A 
ATOM     49  C   UNL     1      -9.331  10.550  -4.180  1.00  0.00     0.074 A 
ATOM     50  C   UNL     1      -8.066  12.588  -4.749  1.00  0.00     0.049 A 
ATOM     51  N   UNL     1     -10.419  11.075  -3.672  1.00  0.00    -0.248 NA
ATOM     52  C   UNL     1      -9.352   9.085  -4.274  1.00  0.00     0.031 C 
ATOM     53  C   UNL     1      -6.934  13.368  -5.255  1.00  0.00     0.029 A 
ATOM     54  N   UNL     1      -8.993  13.531  -4.396  1.00  0.00    -0.354 N 
ATOM     55  C   UNL     1     -11.248  10.006  -3.361  1.00  0.00     0.074 A 
ATOM     56  C   UNL     1     -10.554   8.805  -3.784  1.00  0.00     0.031 C 
ATOM     57  C   UNL     1      -7.226  14.674  -5.158  1.00  0.00     0.029 A 
ATOM     58  C   UNL     1      -8.566  14.819  -4.600  1.00  0.00     0.049 A 
ATOM     59  H   UNL     1      -9.880  13.307  -4.030  1.00  0.00     0.167 HD
ATOM     60  C   UNL     1     -12.466  10.031  -2.765  1.00  0.00     0.037 A 
ATOM     61  C   UNL     1      -9.182  15.989  -4.357  1.00  0.00     0.037 A 
ATOM     62  C   UNL     1     -13.161  11.235  -2.374  1.00  0.00     0.049 A 
ATOM     63  C   UNL     1     -10.545  15.984  -3.731  1.00  0.00     0.074 A 
ATOM     64  C   UNL     1     -14.373  11.359  -1.715  1.00  0.00     0.029 A 
ATOM     65  N   UNL     1     -12.717  12.525  -2.629  1.00  0.00    -0.354 N 
ATOM     66  N   UNL     1     -11.274  14.967  -3.343  1.00  0.00    -0.248 NA
ATOM     67  C   UNL     1     -11.165  17.295  -3.499  1.00  0.00     0.031 C 
ATOM     68  C   UNL     1     -14.687  12.721  -1.619  1.00  0.00     0.029 A 
ATOM     69  C   UNL     1     -13.648  13.449  -2.173  1.00  0.00     0.049 A 
ATOM     70  H   UNL     1     -11.867  12.752  -3.069  1.00  0.00     0.167 HD
ATOM     71  C   UNL     1     -12.430  15.513  -2.804  1.00  0.00     0.074 A 
ATOM     72  C   UNL     1     -12.292  16.953  -2.892  1.00  0.00     0.031 C 
ATOM     73  C   UNL     1     -13.510  14.879  -2.284  1.00  0.00     0.037 A 
BRANCH  60  74
ATOM     74  C   UNL     1     -13.133   8.712  -2.498  1.00  0.00     0.057 A 
ATOM     75  C   UNL     1     -14.288   8.334  -3.196  1.00  0.00     0.134 A 
ATOM     76  C   UNL     1     -12.662   7.836  -1.511  1.00  0.00     0.134 A 
ATOM     77  F   UNL     1     -14.801   9.130  -4.146  1.00  0.00    -0.206 F 
ATOM     78  C   UNL     1     -14.948   7.134  -2.922  1.00  0.00     0.040 A 
ATOM     79  C   UNL     1     -13.300   6.622  -1.244  1.00  0.00     0.040 A 
ATOM     80  F   UNL     1     -11.559   8.135  -0.807  1.00  0.00    -0.206 F 
ATOM     81  C   UNL     1     -14.450   6.271  -1.948  1.00  0.00     0.006 A 
ENDBRANCH  60  74
BRANCH  61  82
ATOM     82  C   UNL     1      -8.498  17.263  -4.682  1.00  0.00     0.057 A 
ATOM     83  C   UNL     1      -8.297  17.662  -6.009  1.00  0.00     0.134 A 
ATOM     84  C   UNL     1      -8.036  18.113  -3.672  1.00  0.00     0.134 A 
ATOM     85  F   UNL     1      -8.709  16.884  -7.020  1.00  0.00    -0.206 F 
ATOM     86  C   UNL     1      -7.658  18.862  -6.319  1.00  0.00     0.040 A 
ATOM     87  C   UNL     1      -7.418  19.328  -3.968  1.00  0.00     0.040 A 
ATOM     88  F   UNL     1      -8.214  17.788  -2.383  1.00  0.00    -0.206 F 
ATOM     89  C   UNL     1      -7.224  19.703  -5.296  1.00  0.00     0.006 A 
ENDBRANCH  61  82
BRANCH  73  90
ATOM     90  C   UNL     1     -14.617  15.752  -1.766  1.00  0.00     0.057 A 
ATOM     91  C   UNL     1     -14.855  15.868  -0.391  1.00  0.00     0.134 A 
ATOM     92  C   UNL     1     -15.439  16.491  -2.628  1.00  0.00     0.134 A 
ATOM     93  F   UNL     1     -14.110  15.185   0.491  1.00  0.00    -0.206 F 
ATOM     94  C   UNL     1     -15.866  16.692   0.108  1.00  0.00     0.040 A 
ATOM     95  C   UNL     1     -16.433  17.341  -2.140  1.00  0.00     0.040 A 
ATOM     96  F   UNL     1     -15.251  16.440  -3.956  1.00  0.00    -0.206 F 
ATOM     97  C   UNL     1     -16.651  17.440  -0.767  1.00  0.00     0.006 A 
ENDBRANCH  73  90
ENDBRANCH  47  48
ENDBRANCH  40  42
ENDBRANCH  39  40
ENDBRANCH  38  39
ENDBRANCH  37  38
ENDBRANCH  36  37
ENDBRANCH  35  36
ENDBRANCH  34  35
ENDBRANCH  33  34
ENDBRANCH   1  33
TORSDOF 24
