REMARK SMILES CCn1ccc([C@@H](C)NC(=O)[C@H](C)n2ccc(C(=O)OCCOCCOCCOCCOC(=O)c3ccc(-c4c5nc(c(-c6c(F)cccc6F)c6ccc([nH]6)c(-c6c(F)cccc6F)c6nc(c(-c7c(F)cccc7F)c7ccc4[nH]7)C=C6)C=C5)cc3)n2)n1
REMARK SMILES IDX 24 1 23 2 22 3 21 4 20 5 18 6 19 7 17 8 14 9 15 10 89 11
REMARK SMILES IDX 16 12 12 13 13 14 10 15 9 16 11 18 7 19 8 20 6 21 3 22 4 23
REMARK SMILES IDX 90 24 5 25 2 26 1 27 25 28 26 29 27 30 28 31 29 32 30 33
REMARK SMILES IDX 31 34 32 35 33 36 34 37 35 38 36 39 88 40 37 41 87 42 38 43
REMARK SMILES IDX 39 44 40 45 81 46 41 47 86 48 80 49 82 50 42 51 85 52 79 53
REMARK SMILES IDX 78 54 43 56 69 57 52 58 68 59 53 60 56 61 67 62 83 63 54 64
REMARK SMILES IDX 55 65 66 67 84 68 57 69 44 70 45 71 50 72 46 73 47 74 49 75
REMARK SMILES IDX 51 76 48 77 70 78 71 79 76 80 72 81 73 82 75 83 77 84 74 85
REMARK SMILES IDX 58 86 59 87 64 88 60 89 61 90 63 91 65 92 62 93
REMARK H PARENT 9 17 82 55 56 66
REMARK Flexibility Score: inf
ROOT
ATOM      1  C   UNL     1       4.753   5.744  -8.613  1.00  0.00     0.188 C 
ENDROOT
BRANCH   1   2
ATOM      2  O   UNL     1       4.260   6.966  -9.136  1.00  0.00    -0.376 OA
BRANCH   2   3
ATOM      3  C   UNL     1       2.985   7.430  -8.750  1.00  0.00     0.202 C 
BRANCH   3   4
ATOM      4  C   UNL     1       2.883   7.962  -7.315  1.00  0.00     0.261 C 
BRANCH   4   5
ATOM      5  O   UNL     1       3.377   7.080  -6.300  1.00  0.00    -0.458 OA
BRANCH   5   6
ATOM      6  C   UNL     1       2.700   5.912  -6.117  1.00  0.00     0.358 C 
ATOM      7  O   UNL     1       1.658   5.624  -6.700  1.00  0.00    -0.244 OA
BRANCH   6   8
ATOM      8  C   UNL     1       3.470   4.951  -5.316  1.00  0.00     0.170 A 
ATOM      9  N   UNL     1       4.745   4.134  -3.811  1.00  0.00    -0.260 N 
ATOM     10  C   UNL     1       4.496   3.091  -4.663  1.00  0.00     0.110 A 
ATOM     11  N   UNL     1       4.247   5.303  -4.273  1.00  0.00    -0.165 NA
ATOM     12  C   UNL     1       3.608   3.566  -5.595  1.00  0.00     0.057 A 
BRANCH   9  13
ATOM     13  C   UNL     1       5.517   4.087  -2.567  1.00  0.00     0.193 C 
ATOM     14  C   UNL     1       5.206   5.254  -1.621  1.00  0.00     0.044 C 
BRANCH  13  15
ATOM     15  C   UNL     1       5.220   2.784  -1.827  1.00  0.00     0.245 C 
ATOM     16  N   UNL     1       6.122   1.765  -1.782  1.00  0.00    -0.346 N 
ATOM     17  H   UNL     1       5.780   0.936  -1.376  1.00  0.00     0.164 HD
ATOM     18  O   UNL     1       4.131   2.582  -1.280  1.00  0.00    -0.273 OA
BRANCH  16  19
ATOM     19  C   UNL     1       7.509   1.688  -2.232  1.00  0.00     0.130 C 
ATOM     20  C   UNL     1       7.664   0.601  -3.293  1.00  0.00     0.038 C 
BRANCH  19  21
ATOM     21  C   UNL     1       8.374   1.424  -1.028  1.00  0.00     0.084 A 
ATOM     22  N   UNL     1       9.880   1.758   0.433  1.00  0.00    -0.273 N 
ATOM     23  C   UNL     1       9.350   0.540   0.755  1.00  0.00     0.109 A 
ATOM     24  N   UNL     1       9.292   2.322  -0.640  1.00  0.00    -0.176 NA
ATOM     25  C   UNL     1       8.370   0.292  -0.174  1.00  0.00     0.047 A 
BRANCH  22  26
ATOM     26  C   UNL     1      10.963   2.414   1.142  1.00  0.00     0.141 C 
ATOM     27  C   UNL     1      11.523   3.662   0.476  1.00  0.00     0.029 C 
ENDBRANCH  22  26
ENDBRANCH  19  21
ENDBRANCH  16  19
ENDBRANCH  13  15
ENDBRANCH   9  13
ENDBRANCH   6   8
ENDBRANCH   5   6
ENDBRANCH   4   5
ENDBRANCH   3   4
ENDBRANCH   2   3
ENDBRANCH   1   2
BRANCH   1  28
ATOM     28  C   UNL     1       5.990   5.905  -7.697  1.00  0.00     0.188 C 
BRANCH  28  29
ATOM     29  O   UNL     1       6.985   6.902  -7.929  1.00  0.00    -0.377 OA
BRANCH  29  30
ATOM     30  C   UNL     1       6.640   8.031  -8.713  1.00  0.00     0.188 C 
BRANCH  30  31
ATOM     31  C   UNL     1       6.691   7.784 -10.239  1.00  0.00     0.188 C 
BRANCH  31  32
ATOM     32  O   UNL     1       6.510   6.445 -10.667  1.00  0.00    -0.376 OA
BRANCH  32  33
ATOM     33  C   UNL     1       7.515   5.452 -10.774  1.00  0.00     0.202 C 
BRANCH  33  34
ATOM     34  C   UNL     1       8.839   5.392 -10.015  1.00  0.00     0.261 C 
BRANCH  34  35
ATOM     35  O   UNL     1       9.199   6.556  -9.325  1.00  0.00    -0.460 OA
BRANCH  35  36
ATOM     36  C   UNL     1       9.649   7.548 -10.094  1.00  0.00     0.338 C 
ATOM     37  O   UNL     1       9.752   7.554 -11.319  1.00  0.00    -0.246 OA
BRANCH  36  38
ATOM     38  C   UNL     1      10.100   8.621  -9.208  1.00  0.00     0.060 A 
ATOM     39  C   UNL     1      10.679   9.703  -9.860  1.00  0.00     0.016 A 
ATOM     40  C   UNL     1      10.355   8.311  -7.860  1.00  0.00     0.016 A 
ATOM     41  C   UNL     1      11.810  10.218  -9.294  1.00  0.00     0.010 A 
ATOM     42  C   UNL     1      11.492   8.819  -7.299  1.00  0.00     0.010 A 
ATOM     43  C   UNL     1      12.262   9.661  -8.089  1.00  0.00    -0.014 A 
BRANCH  43  44
ATOM     44  C   UNL     1      13.594  10.017  -7.679  1.00  0.00     0.031 A 
ATOM     45  C   UNL     1      13.645  11.392  -7.176  1.00  0.00     0.074 A 
ATOM     46  C   UNL     1      14.627   9.162  -7.760  1.00  0.00     0.049 A 
ATOM     47  N   UNL     1      14.122  12.423  -7.782  1.00  0.00    -0.248 NA
ATOM     48  C   UNL     1      12.881  11.693  -5.956  1.00  0.00     0.031 C 
ATOM     49  C   UNL     1      14.571   7.711  -7.974  1.00  0.00     0.029 A 
ATOM     50  N   UNL     1      15.954   9.400  -7.569  1.00  0.00    -0.354 N 
ATOM     51  C   UNL     1      13.961  13.461  -6.877  1.00  0.00     0.074 A 
ATOM     52  C   UNL     1      12.997  13.020  -5.905  1.00  0.00     0.031 C 
ATOM     53  C   UNL     1      15.773   7.173  -7.666  1.00  0.00     0.029 A 
ATOM     54  C   UNL     1      16.709   8.250  -7.393  1.00  0.00     0.049 A 
ATOM     55  H   UNL     1      16.342  10.305  -7.557  1.00  0.00     0.167 HD
ATOM     56  C   UNL     1      14.914  14.423  -6.794  1.00  0.00     0.037 A 
ATOM     57  C   UNL     1      17.998   8.202  -6.985  1.00  0.00     0.037 A 
ATOM     58  C   UNL     1      15.768  14.421  -7.955  1.00  0.00     0.049 A 
ATOM     59  C   UNL     1      18.622   9.517  -7.266  1.00  0.00     0.074 A 
ATOM     60  C   UNL     1      15.717  14.899  -9.245  1.00  0.00     0.029 A 
ATOM     61  N   UNL     1      16.766  13.484  -7.907  1.00  0.00    -0.354 N 
ATOM     62  N   UNL     1      18.828   9.970  -8.472  1.00  0.00    -0.248 NA
ATOM     63  C   UNL     1      18.713  10.514  -6.203  1.00  0.00     0.031 C 
ATOM     64  C   UNL     1      16.673  14.150  -9.995  1.00  0.00     0.029 A 
ATOM     65  C   UNL     1      17.296  13.240  -9.146  1.00  0.00     0.049 A 
ATOM     66  H   UNL     1      17.066  13.039  -7.082  1.00  0.00     0.167 HD
ATOM     67  C   UNL     1      18.656  11.335  -8.359  1.00  0.00     0.074 A 
ATOM     68  C   UNL     1      18.768  11.629  -6.938  1.00  0.00     0.031 C 
ATOM     69  C   UNL     1      18.098  12.059  -9.369  1.00  0.00     0.037 A 
BRANCH  56  70
ATOM     70  C   UNL     1      15.404  14.982  -5.480  1.00  0.00     0.057 A 
ATOM     71  C   UNL     1      16.270  16.086  -5.501  1.00  0.00     0.134 A 
ATOM     72  C   UNL     1      15.319  14.307  -4.243  1.00  0.00     0.134 A 
ATOM     73  F   UNL     1      16.455  16.792  -6.627  1.00  0.00    -0.206 F 
ATOM     74  C   UNL     1      17.035  16.456  -4.389  1.00  0.00     0.040 A 
ATOM     75  C   UNL     1      16.036  14.701  -3.112  1.00  0.00     0.040 A 
ATOM     76  F   UNL     1      14.630  13.171  -4.082  1.00  0.00    -0.206 F 
ATOM     77  C   UNL     1      16.922  15.761  -3.191  1.00  0.00     0.006 A 
ENDBRANCH  56  70
BRANCH  57  78
ATOM     78  C   UNL     1      18.626   7.197  -6.106  1.00  0.00     0.057 A 
ATOM     79  C   UNL     1      20.015   7.028  -6.070  1.00  0.00     0.134 A 
ATOM     80  C   UNL     1      17.895   6.574  -5.079  1.00  0.00     0.134 A 
ATOM     81  F   UNL     1      20.795   7.618  -6.987  1.00  0.00    -0.206 F 
ATOM     82  C   UNL     1      20.647   6.300  -5.054  1.00  0.00     0.040 A 
ATOM     83  C   UNL     1      18.512   5.841  -4.062  1.00  0.00     0.040 A 
ATOM     84  F   UNL     1      16.567   6.733  -4.981  1.00  0.00    -0.206 F 
ATOM     85  C   UNL     1      19.895   5.715  -4.038  1.00  0.00     0.006 A 
ENDBRANCH  57  78
BRANCH  69  86
ATOM     86  C   UNL     1      18.176  11.492 -10.749  1.00  0.00     0.057 A 
ATOM     87  C   UNL     1      17.475  10.358 -11.179  1.00  0.00     0.134 A 
ATOM     88  C   UNL     1      18.951  12.163 -11.701  1.00  0.00     0.134 A 
ATOM     89  F   UNL     1      16.658   9.696 -10.349  1.00  0.00    -0.206 F 
ATOM     90  C   UNL     1      17.573   9.893 -12.494  1.00  0.00     0.040 A 
ATOM     91  C   UNL     1      19.035  11.727 -13.023  1.00  0.00     0.040 A 
ATOM     92  F   UNL     1      19.620  13.278 -11.363  1.00  0.00    -0.206 F 
ATOM     93  C   UNL     1      18.351  10.582 -13.421  1.00  0.00     0.006 A 
ENDBRANCH  69  86
ENDBRANCH  43  44
ENDBRANCH  36  38
ENDBRANCH  35  36
ENDBRANCH  34  35
ENDBRANCH  33  34
ENDBRANCH  32  33
ENDBRANCH  31  32
ENDBRANCH  30  31
ENDBRANCH  29  30
ENDBRANCH  28  29
ENDBRANCH   1  28
TORSDOF 25
