REMARK SMILES CC1=C(CC(=O)OCCOCCOCCOCCOC(=O)c2ccc(-c3c4nc(c(-c5c(F)cccc5F)c5ccc([nH]5)c(-c5c(F)cccc5F)c5nc(c(-c6c(F)cccc6F)c6ccc3[nH]6)C=C5)C=C4)cc2)c2cc(F)ccc2/C1=C\c1cccc(OCc2ccccc2)c1
REMARK SMILES IDX 11 1 10 2 9 3 8 4 7 5 5 6 6 7 4 8 3 9 1 10 2 11 83 12 76 13
REMARK SMILES IDX 82 14 84 15 77 16 81 17 78 18 80 19 79 20 85 21 86 22 98 23
REMARK SMILES IDX 87 24 89 25 88 26 90 27 91 28 92 29 93 30 97 31 94 32 96 33
REMARK SMILES IDX 95 34 12 35 13 36 14 37 15 38 16 39 17 40 18 41 19 42 20 43
REMARK SMILES IDX 21 44 22 45 23 46 75 47 24 48 74 49 25 50 26 51 27 52 68 53
REMARK SMILES IDX 28 54 73 55 67 56 69 57 29 58 72 59 66 60 65 61 30 63 56 64
REMARK SMILES IDX 39 65 55 66 40 67 43 68 54 69 70 70 41 71 42 72 53 74 71 75
REMARK SMILES IDX 44 76 31 77 32 78 37 79 33 80 34 81 36 82 38 83 35 84 57 85
REMARK SMILES IDX 58 86 63 87 59 88 60 89 62 90 64 91 61 92 45 93 46 94 51 95
REMARK SMILES IDX 47 96 48 97 50 98 52 99 49 100
REMARK H PARENT 69 62 43 73
REMARK Flexibility Score: inf
ROOT
ATOM      1  C   UNL     1       1.233  -5.449   2.286  1.00  0.00     0.188 C 
ENDROOT
BRANCH   1   2
ATOM      2  O   UNL     1       1.000  -5.401   3.677  1.00  0.00    -0.376 OA
BRANCH   2   3
ATOM      3  C   UNL     1       1.555  -4.339   4.425  1.00  0.00     0.202 C 
BRANCH   3   4
ATOM      4  C   UNL     1       1.470  -2.880   3.938  1.00  0.00     0.261 C 
BRANCH   4   5
ATOM      5  O   UNL     1       1.580  -2.633   2.521  1.00  0.00    -0.463 OA
BRANCH   5   6
ATOM      6  C   UNL     1       2.806  -2.407   1.996  1.00  0.00     0.310 C 
ATOM      7  O   UNL     1       3.838  -2.430   2.660  1.00  0.00    -0.252 OA
BRANCH   6   8
ATOM      8  C   UNL     1       2.819  -2.132   0.478  1.00  0.00     0.159 C 
BRANCH   8   9
ATOM      9  C   UNL     1       1.559  -2.143  -0.347  1.00  0.00    -0.025 C 
ATOM     10  C   UNL     1       0.667   0.211   0.064  1.00  0.00     0.045 C 
ATOM     11  C   UNL     1       0.639  -1.161  -0.521  1.00  0.00    -0.039 C 
ATOM     12  C   UNL     1      -0.434  -1.621  -1.427  1.00  0.00    -0.014 C 
ATOM     13  C   UNL     1       1.156  -3.270  -1.223  1.00  0.00    -0.011 A 
ATOM     14  C   UNL     1      -0.077  -2.988  -1.844  1.00  0.00    -0.010 A 
ATOM     15  C   UNL     1      -1.516  -0.902  -1.788  1.00  0.00     0.017 C 
ATOM     16  C   UNL     1       1.778  -4.494  -1.444  1.00  0.00     0.048 A 
ATOM     17  C   UNL     1      -0.709  -3.932  -2.648  1.00  0.00     0.012 A 
ATOM     18  C   UNL     1       1.135  -5.432  -2.254  1.00  0.00     0.123 A 
ATOM     19  C   UNL     1      -0.096  -5.166  -2.851  1.00  0.00     0.040 A 
ATOM     20  F   UNL     1       1.695  -6.635  -2.435  1.00  0.00    -0.207 F 
BRANCH  15  21
ATOM     21  C   UNL     1      -2.583  -1.359  -2.687  1.00  0.00    -0.021 A 
ATOM     22  C   UNL     1      -3.707  -2.006  -2.159  1.00  0.00     0.008 A 
ATOM     23  C   UNL     1      -2.446  -1.224  -4.077  1.00  0.00     0.054 A 
ATOM     24  C   UNL     1      -4.665  -2.551  -3.013  1.00  0.00     0.004 A 
ATOM     25  C   UNL     1      -3.413  -1.758  -4.933  1.00  0.00     0.120 A 
ATOM     26  C   UNL     1      -4.509  -2.437  -4.394  1.00  0.00     0.046 A 
BRANCH  25  27
ATOM     27  O   UNL     1      -3.424  -1.671  -6.300  1.00  0.00    -0.489 OA
BRANCH  27  28
ATOM     28  C   UNL     1      -2.505  -0.780  -6.942  1.00  0.00     0.265 C 
BRANCH  28  29
ATOM     29  C   UNL     1      -2.757   0.694  -6.691  1.00  0.00    -0.011 A 
ATOM     30  C   UNL     1      -3.985   1.167  -6.205  1.00  0.00     0.007 A 
ATOM     31  C   UNL     1      -1.738   1.620  -6.956  1.00  0.00     0.007 A 
ATOM     32  C   UNL     1      -4.165   2.521  -5.922  1.00  0.00     0.000 A 
ATOM     33  C   UNL     1      -1.925   2.978  -6.689  1.00  0.00     0.000 A 
ATOM     34  C   UNL     1      -3.134   3.425  -6.158  1.00  0.00     0.000 A 
ENDBRANCH  28  29
ENDBRANCH  27  28
ENDBRANCH  25  27
ENDBRANCH  15  21
ENDBRANCH   8   9
ENDBRANCH   6   8
ENDBRANCH   5   6
ENDBRANCH   4   5
ENDBRANCH   3   4
ENDBRANCH   2   3
ENDBRANCH   1   2
BRANCH   1  35
ATOM     35  C   UNL     1       0.073  -4.875   1.449  1.00  0.00     0.188 C 
BRANCH  35  36
ATOM     36  O   UNL     1      -1.256  -4.736   1.933  1.00  0.00    -0.377 OA
BRANCH  36  37
ATOM     37  C   UNL     1      -1.651  -5.466   3.072  1.00  0.00     0.188 C 
BRANCH  37  38
ATOM     38  C   UNL     1      -1.545  -6.996   2.989  1.00  0.00     0.188 C 
BRANCH  38  39
ATOM     39  O   UNL     1      -0.753  -7.470   1.906  1.00  0.00    -0.376 OA
BRANCH  39  40
ATOM     40  C   UNL     1      -1.447  -8.111   0.842  1.00  0.00     0.202 C 
BRANCH  40  41
ATOM     41  C   UNL     1      -2.236  -7.196  -0.105  1.00  0.00     0.261 C 
BRANCH  41  42
ATOM     42  O   UNL     1      -3.242  -6.382   0.506  1.00  0.00    -0.460 OA
BRANCH  42  43
ATOM     43  C   UNL     1      -4.265  -6.997   1.130  1.00  0.00     0.338 C 
ATOM     44  O   UNL     1      -4.473  -8.195   1.217  1.00  0.00    -0.246 OA
BRANCH  43  45
ATOM     45  C   UNL     1      -4.995  -5.950   1.869  1.00  0.00     0.060 A 
ATOM     46  C   UNL     1      -5.401  -4.782   1.216  1.00  0.00     0.016 A 
ATOM     47  C   UNL     1      -5.208  -6.111   3.244  1.00  0.00     0.016 A 
ATOM     48  C   UNL     1      -6.046  -3.781   1.938  1.00  0.00     0.010 A 
ATOM     49  C   UNL     1      -5.832  -5.098   3.971  1.00  0.00     0.010 A 
ATOM     50  C   UNL     1      -6.282  -3.943   3.314  1.00  0.00    -0.014 A 
BRANCH  50  51
ATOM     51  C   UNL     1      -7.224  -3.031   4.000  1.00  0.00     0.031 A 
ATOM     52  C   UNL     1      -6.773  -1.905   4.872  1.00  0.00     0.074 A 
ATOM     53  C   UNL     1      -8.534  -3.283   3.824  1.00  0.00     0.049 A 
ATOM     54  N   UNL     1      -7.498  -0.993   5.470  1.00  0.00    -0.248 NA
ATOM     55  C   UNL     1      -5.330  -1.791   5.121  1.00  0.00     0.031 C 
ATOM     56  C   UNL     1      -9.072  -4.392   3.030  1.00  0.00     0.029 A 
ATOM     57  N   UNL     1      -9.644  -2.638   4.294  1.00  0.00    -0.354 N 
ATOM     58  C   UNL     1      -6.604  -0.181   6.153  1.00  0.00     0.074 A 
ATOM     59  C   UNL     1      -5.283  -0.739   5.930  1.00  0.00     0.031 C 
ATOM     60  C   UNL     1     -10.410  -4.340   3.056  1.00  0.00     0.029 A 
ATOM     61  C   UNL     1     -10.820  -3.211   3.880  1.00  0.00     0.049 A 
ATOM     62  H   UNL     1      -9.604  -1.841   4.871  1.00  0.00     0.167 HD
ATOM     63  C   UNL     1      -6.869   0.928   6.887  1.00  0.00     0.037 A 
ATOM     64  C   UNL     1     -12.092  -2.862   4.135  1.00  0.00     0.037 A 
ATOM     65  C   UNL     1      -8.197   1.446   7.125  1.00  0.00     0.049 A 
ATOM     66  C   UNL     1     -12.354  -1.645   4.968  1.00  0.00     0.074 A 
ATOM     67  C   UNL     1      -8.572   2.592   7.806  1.00  0.00     0.029 A 
ATOM     68  N   UNL     1      -9.373   0.833   6.708  1.00  0.00    -0.354 N 
ATOM     69  N   UNL     1     -11.496  -0.823   5.523  1.00  0.00    -0.248 NA
ATOM     70  C   UNL     1     -13.761  -1.300   5.200  1.00  0.00     0.031 C 
ATOM     71  C   UNL     1      -9.971   2.642   7.850  1.00  0.00     0.029 A 
ATOM     72  C   UNL     1     -10.472   1.557   7.150  1.00  0.00     0.049 A 
ATOM     73  H   UNL     1      -9.419   0.006   6.177  1.00  0.00     0.167 HD
ATOM     74  C   UNL     1     -12.259   0.146   6.159  1.00  0.00     0.074 A 
ATOM     75  C   UNL     1     -13.647  -0.176   5.892  1.00  0.00     0.031 C 
ATOM     76  C   UNL     1     -11.848   1.205   6.900  1.00  0.00     0.037 A 
BRANCH  63  77
ATOM     77  C   UNL     1      -5.702   1.653   7.496  1.00  0.00     0.057 A 
ATOM     78  C   UNL     1      -5.517   1.683   8.885  1.00  0.00     0.134 A 
ATOM     79  C   UNL     1      -4.779   2.359   6.711  1.00  0.00     0.134 A 
ATOM     80  F   UNL     1      -6.367   1.041   9.700  1.00  0.00    -0.206 F 
ATOM     81  C   UNL     1      -4.458   2.384   9.469  1.00  0.00     0.040 A 
ATOM     82  C   UNL     1      -3.702   3.042   7.282  1.00  0.00     0.040 A 
ATOM     83  F   UNL     1      -4.894   2.372   5.375  1.00  0.00    -0.206 F 
ATOM     84  C   UNL     1      -3.542   3.059   8.665  1.00  0.00     0.006 A 
ENDBRANCH  63  77
BRANCH  64  85
ATOM     85  C   UNL     1     -13.201  -3.662   3.565  1.00  0.00     0.057 A 
ATOM     86  C   UNL     1     -13.469  -4.960   4.015  1.00  0.00     0.134 A 
ATOM     87  C   UNL     1     -14.009  -3.150   2.544  1.00  0.00     0.134 A 
ATOM     88  F   UNL     1     -12.718  -5.512   4.980  1.00  0.00    -0.206 F 
ATOM     89  C   UNL     1     -14.498  -5.724   3.466  1.00  0.00     0.040 A 
ATOM     90  C   UNL     1     -15.059  -3.893   2.004  1.00  0.00     0.040 A 
ATOM     91  F   UNL     1     -13.804  -1.909   2.079  1.00  0.00    -0.206 F 
ATOM     92  C   UNL     1     -15.302  -5.187   2.463  1.00  0.00     0.006 A 
ENDBRANCH  64  85
BRANCH  76  93
ATOM     93  C   UNL     1     -12.930   2.081   7.465  1.00  0.00     0.057 A 
ATOM     94  C   UNL     1     -13.146   3.369   6.961  1.00  0.00     0.134 A 
ATOM     95  C   UNL     1     -13.777   1.638   8.490  1.00  0.00     0.134 A 
ATOM     96  F   UNL     1     -12.369   3.858   5.983  1.00  0.00    -0.206 F 
ATOM     97  C   UNL     1     -14.170   4.181   7.449  1.00  0.00     0.040 A 
ATOM     98  C   UNL     1     -14.825   2.429   8.965  1.00  0.00     0.040 A 
ATOM     99  F   UNL     1     -13.637   0.406   9.003  1.00  0.00    -0.206 F 
ATOM    100  C   UNL     1     -15.021   3.707   8.446  1.00  0.00     0.006 A 
ENDBRANCH  76  93
ENDBRANCH  50  51
ENDBRANCH  43  45
ENDBRANCH  42  43
ENDBRANCH  41  42
ENDBRANCH  40  41
ENDBRANCH  39  40
ENDBRANCH  38  39
ENDBRANCH  37  38
ENDBRANCH  36  37
ENDBRANCH  35  36
ENDBRANCH   1  35
TORSDOF 25
