REMARK SMILES C[C@@H](C(=O)OCCOCCOCCOCCOC(=O)c1ccc(-c2c3nc(c(-c4c(F)cccc4F)c4ccc([nH]4)c(-c4c(F)cccc4F)c4nc(c(-c5c(F)cccc5F)c5ccc2[nH]5)C=C4)C=C3)cc1)c1ccc(-c2cccc(OC(=O)NCCCc3ccccc3)c2)c(F)c1
REMARK SMILES IDX 8 1 7 2 6 3 5 4 3 5 4 6 2 7 1 8 74 9 75 10 99 11 76 12 97 13
REMARK SMILES IDX 77 14 98 15 78 16 79 17 96 18 80 19 82 20 81 21 83 22 84 23
REMARK SMILES IDX 85 24 86 25 87 27 88 28 89 29 90 30 91 31 95 32 92 33 94 34
REMARK SMILES IDX 93 35 9 36 10 37 11 38 12 39 13 40 14 41 15 42 16 43 17 44
REMARK SMILES IDX 18 45 19 46 20 47 21 48 73 49 22 50 72 51 23 52 24 53 25 54
REMARK SMILES IDX 66 55 26 56 71 57 65 58 67 59 27 60 70 61 64 62 63 63 28 65
REMARK SMILES IDX 54 66 37 67 53 68 38 69 41 70 52 71 68 72 39 73 40 74 51 76
REMARK SMILES IDX 69 77 42 78 29 79 30 80 35 81 31 82 32 83 34 84 36 85 33 86
REMARK SMILES IDX 55 87 56 88 61 89 57 90 58 91 60 92 62 93 59 94 43 95 44 96
REMARK SMILES IDX 49 97 45 98 46 99 48 100 50 101 47 102
REMARK H PARENT 86 26 67 64 41 75
REMARK Flexibility Score: inf
ROOT
ATOM      1  O   UNL     1       0.810  -2.775  -4.052  1.00  0.00    -0.376 OA
ENDROOT
BRANCH   1   2
ATOM      2  C   UNL     1       2.039  -2.176  -4.428  1.00  0.00     0.202 C 
BRANCH   2   3
ATOM      3  C   UNL     1       2.323  -0.676  -4.201  1.00  0.00     0.261 C 
BRANCH   3   4
ATOM      4  O   UNL     1       1.901  -0.092  -2.951  1.00  0.00    -0.463 OA
BRANCH   4   5
ATOM      5  C   UNL     1       0.844   0.759  -3.005  1.00  0.00     0.313 C 
ATOM      6  O   UNL     1       0.263   1.051  -4.046  1.00  0.00    -0.252 OA
BRANCH   5   7
ATOM      7  C   UNL     1       0.423   1.342  -1.639  1.00  0.00     0.126 C 
ATOM      8  C   UNL     1       1.211   0.956  -0.381  1.00  0.00     0.025 C 
BRANCH   7   9
ATOM      9  C   UNL     1      -1.083   1.185  -1.443  1.00  0.00    -0.031 A 
ATOM     10  C   UNL     1      -1.930   2.280  -1.636  1.00  0.00     0.005 A 
ATOM     11  C   UNL     1      -1.674  -0.055  -1.173  1.00  0.00     0.044 A 
ATOM     12  C   UNL     1      -3.321   2.129  -1.597  1.00  0.00     0.012 A 
ATOM     13  C   UNL     1      -3.056  -0.212  -1.192  1.00  0.00     0.131 A 
ATOM     14  C   UNL     1      -3.914   0.873  -1.392  1.00  0.00     0.018 A 
ATOM     15  F   UNL     1      -3.543  -1.452  -1.015  1.00  0.00    -0.206 F 
BRANCH  14  16
ATOM     16  C   UNL     1      -5.373   0.722  -1.307  1.00  0.00    -0.012 A 
ATOM     17  C   UNL     1      -6.246   1.323  -2.229  1.00  0.00     0.009 A 
ATOM     18  C   UNL     1      -5.931  -0.015  -0.251  1.00  0.00     0.056 A 
ATOM     19  C   UNL     1      -7.631   1.209  -2.083  1.00  0.00     0.004 A 
ATOM     20  C   UNL     1      -7.306  -0.126  -0.104  1.00  0.00     0.133 A 
ATOM     21  C   UNL     1      -8.163   0.488  -1.015  1.00  0.00     0.047 A 
BRANCH  20  22
ATOM     22  O   UNL     1      -7.929  -0.847   0.940  1.00  0.00    -0.410 OA
BRANCH  22  23
ATOM     23  C   UNL     1      -7.285  -1.472   2.007  1.00  0.00     0.412 C 
ATOM     24  O   UNL     1      -6.084  -1.488   2.239  1.00  0.00    -0.224 OA
ATOM     25  N   UNL     1      -8.153  -2.097   2.855  1.00  0.00    -0.321 N 
ATOM     26  H   UNL     1      -7.765  -2.642   3.577  1.00  0.00     0.167 HD
BRANCH  25  27
ATOM     27  C   UNL     1      -9.591  -2.025   2.781  1.00  0.00     0.120 C 
BRANCH  27  28
ATOM     28  C   UNL     1     -10.306  -3.269   3.301  1.00  0.00     0.026 C 
BRANCH  28  29
ATOM     29  C   UNL     1      -9.767  -3.939   4.572  1.00  0.00     0.037 C 
BRANCH  29  30
ATOM     30  C   UNL     1      -9.913  -3.270   5.919  1.00  0.00    -0.048 A 
ATOM     31  C   UNL     1     -10.114  -1.900   6.113  1.00  0.00     0.004 A 
ATOM     32  C   UNL     1      -9.769  -4.079   7.061  1.00  0.00     0.004 A 
ATOM     33  C   UNL     1     -10.156  -1.353   7.399  1.00  0.00     0.000 A 
ATOM     34  C   UNL     1      -9.824  -3.536   8.347  1.00  0.00     0.000 A 
ATOM     35  C   UNL     1     -10.010  -2.169   8.516  1.00  0.00     0.000 A 
ENDBRANCH  29  30
ENDBRANCH  28  29
ENDBRANCH  27  28
ENDBRANCH  25  27
ENDBRANCH  22  23
ENDBRANCH  20  22
ENDBRANCH  14  16
ENDBRANCH   7   9
ENDBRANCH   5   7
ENDBRANCH   4   5
ENDBRANCH   3   4
ENDBRANCH   2   3
ENDBRANCH   1   2
BRANCH   1  36
ATOM     36  C   UNL     1       0.240  -2.475  -2.789  1.00  0.00     0.188 C 
BRANCH  36  37
ATOM     37  C   UNL     1       1.134  -2.396  -1.533  1.00  0.00     0.188 C 
BRANCH  37  38
ATOM     38  O   UNL     1       2.518  -2.550  -1.777  1.00  0.00    -0.377 OA
BRANCH  38  39
ATOM     39  C   UNL     1       3.033  -3.850  -1.534  1.00  0.00     0.188 C 
BRANCH  39  40
ATOM     40  C   UNL     1       2.183  -5.035  -2.030  1.00  0.00     0.188 C 
BRANCH  40  41
ATOM     41  O   UNL     1       0.855  -5.039  -1.514  1.00  0.00    -0.376 OA
BRANCH  41  42
ATOM     42  C   UNL     1       0.558  -5.858  -0.392  1.00  0.00     0.202 C 
BRANCH  42  43
ATOM     43  C   UNL     1       1.157  -5.437   0.961  1.00  0.00     0.261 C 
BRANCH  43  44
ATOM     44  O   UNL     1       2.591  -5.386   1.036  1.00  0.00    -0.460 OA
BRANCH  44  45
ATOM     45  C   UNL     1       3.285  -6.493   0.703  1.00  0.00     0.338 C 
ATOM     46  O   UNL     1       2.837  -7.594   0.434  1.00  0.00    -0.246 OA
BRANCH  45  47
ATOM     47  C   UNL     1       4.692  -6.091   0.495  1.00  0.00     0.060 A 
ATOM     48  C   UNL     1       5.288  -6.346  -0.748  1.00  0.00     0.016 A 
ATOM     49  C   UNL     1       5.410  -5.442   1.503  1.00  0.00     0.016 A 
ATOM     50  C   UNL     1       6.613  -5.981  -0.977  1.00  0.00     0.010 A 
ATOM     51  C   UNL     1       6.748  -5.105   1.284  1.00  0.00     0.010 A 
ATOM     52  C   UNL     1       7.364  -5.405   0.056  1.00  0.00    -0.014 A 
BRANCH  52  53
ATOM     53  C   UNL     1       8.838  -5.336  -0.072  1.00  0.00     0.031 A 
ATOM     54  C   UNL     1       9.649  -6.446   0.537  1.00  0.00     0.074 A 
ATOM     55  C   UNL     1       9.443  -4.339  -0.740  1.00  0.00     0.049 A 
ATOM     56  N   UNL     1      10.947  -6.593   0.598  1.00  0.00    -0.248 NA
ATOM     57  C   UNL     1       8.889  -7.538   1.167  1.00  0.00     0.031 C 
ATOM     58  C   UNL     1       8.764  -3.240  -1.421  1.00  0.00     0.029 A 
ATOM     59  N   UNL     1      10.778  -4.093  -0.947  1.00  0.00    -0.354 N 
ATOM     60  C   UNL     1      11.157  -7.786   1.280  1.00  0.00     0.074 A 
ATOM     61  C   UNL     1       9.857  -8.307   1.638  1.00  0.00     0.031 C 
ATOM     62  C   UNL     1       9.689  -2.428  -1.964  1.00  0.00     0.029 A 
ATOM     63  C   UNL     1      11.023  -2.932  -1.638  1.00  0.00     0.049 A 
ATOM     64  H   UNL     1      11.492  -4.693  -0.631  1.00  0.00     0.167 HD
ATOM     65  C   UNL     1      12.329  -8.395   1.575  1.00  0.00     0.037 A 
ATOM     66  C   UNL     1      12.191  -2.337  -1.946  1.00  0.00     0.037 A 
ATOM     67  C   UNL     1      13.620  -7.871   1.218  1.00  0.00     0.049 A 
ATOM     68  C   UNL     1      13.485  -2.990  -1.528  1.00  0.00     0.074 A 
ATOM     69  C   UNL     1      14.867  -8.419   1.456  1.00  0.00     0.029 A 
ATOM     70  N   UNL     1      13.828  -6.669   0.558  1.00  0.00    -0.354 N 
ATOM     71  N   UNL     1      13.677  -4.128  -0.904  1.00  0.00    -0.248 NA
ATOM     72  C   UNL     1      14.726  -2.274  -1.858  1.00  0.00     0.031 C 
ATOM     73  C   UNL     1      15.833  -7.518   0.997  1.00  0.00     0.029 A 
ATOM     74  C   UNL     1      15.186  -6.442   0.410  1.00  0.00     0.049 A 
ATOM     75  H   UNL     1      13.116  -6.067   0.242  1.00  0.00     0.167 HD
ATOM     76  C   UNL     1      15.055  -4.281  -0.800  1.00  0.00     0.074 A 
ATOM     77  C   UNL     1      15.651  -3.125  -1.436  1.00  0.00     0.031 C 
ATOM     78  C   UNL     1      15.764  -5.289  -0.234  1.00  0.00     0.037 A 
BRANCH  65  79
ATOM     79  C   UNL     1      12.265  -9.675   2.357  1.00  0.00     0.057 A 
ATOM     80  C   UNL     1      11.773 -10.864   1.804  1.00  0.00     0.134 A 
ATOM     81  C   UNL     1      12.725  -9.720   3.679  1.00  0.00     0.134 A 
ATOM     82  F   UNL     1      11.299 -10.886   0.548  1.00  0.00    -0.206 F 
ATOM     83  C   UNL     1      11.717 -12.046   2.546  1.00  0.00     0.040 A 
ATOM     84  C   UNL     1      12.703 -10.902   4.421  1.00  0.00     0.040 A 
ATOM     85  F   UNL     1      13.210  -8.618   4.271  1.00  0.00    -0.206 F 
ATOM     86  C   UNL     1      12.191 -12.068   3.856  1.00  0.00     0.006 A 
ENDBRANCH  65  79
BRANCH  66  87
ATOM     87  C   UNL     1      12.204  -1.041  -2.675  1.00  0.00     0.057 A 
ATOM     88  C   UNL     1      12.718  -0.943  -3.973  1.00  0.00     0.134 A 
ATOM     89  C   UNL     1      11.736   0.136  -2.078  1.00  0.00     0.134 A 
ATOM     90  F   UNL     1      13.206  -2.029  -4.590  1.00  0.00    -0.206 F 
ATOM     91  C   UNL     1      12.787   0.281  -4.644  1.00  0.00     0.040 A 
ATOM     92  C   UNL     1      11.771   1.361  -2.748  1.00  0.00     0.040 A 
ATOM     93  F   UNL     1      11.233   0.113  -0.835  1.00  0.00    -0.206 F 
ATOM     94  C   UNL     1      12.307   1.437  -4.031  1.00  0.00     0.006 A 
ENDBRANCH  66  87
BRANCH  78  95
ATOM     95  C   UNL     1      17.263  -5.216  -0.317  1.00  0.00     0.057 A 
ATOM     96  C   UNL     1      18.006  -4.283   0.417  1.00  0.00     0.134 A 
ATOM     97  C   UNL     1      17.975  -6.126  -1.111  1.00  0.00     0.134 A 
ATOM     98  F   UNL     1      17.387  -3.377   1.189  1.00  0.00    -0.206 F 
ATOM     99  C   UNL     1      19.399  -4.240   0.345  1.00  0.00     0.040 A 
ATOM    100  C   UNL     1      19.369  -6.114  -1.165  1.00  0.00     0.040 A 
ATOM    101  F   UNL     1      17.328  -7.055  -1.830  1.00  0.00    -0.206 F 
ATOM    102  C   UNL     1      20.085  -5.164  -0.441  1.00  0.00     0.006 A 
ENDBRANCH  78  95
ENDBRANCH  52  53
ENDBRANCH  45  47
ENDBRANCH  44  45
ENDBRANCH  43  44
ENDBRANCH  42  43
ENDBRANCH  41  42
ENDBRANCH  40  41
ENDBRANCH  39  40
ENDBRANCH  38  39
ENDBRANCH  37  38
ENDBRANCH  36  37
ENDBRANCH   1  36
TORSDOF 28
