REMARK SMILES O=C(CSc1nc2cnccc2n1CCC1CC1)OCCOCCOCCOCCOC(=O)c1ccc(-c2c3nc(c(-c4c(F)cccc4F)c4ccc([nH]4)c(-c4c(F)cccc4F)c4nc(c(-c5c(F)cccc5F)c5ccc2[nH]5)C=C4)C=C3)cc1
REMARK SMILES IDX 23 1 22 2 21 3 20 4 19 5 2 6 1 7 3 8 4 9 5 10 6 11 13 12
REMARK SMILES IDX 7 13 12 14 8 15 11 16 9 17 10 18 14 19 15 20 16 21 17 22
REMARK SMILES IDX 18 23 24 24 25 25 26 26 27 27 28 28 29 29 30 30 31 31 32 32
REMARK SMILES IDX 33 33 34 34 35 35 87 36 36 37 86 38 37 39 38 40 39 41 80 42
REMARK SMILES IDX 40 43 85 44 79 45 81 46 41 47 84 48 78 49 77 50 42 52 68 53
REMARK SMILES IDX 51 54 67 55 52 56 55 57 66 58 82 59 53 60 54 61 65 63 83 64
REMARK SMILES IDX 56 65 43 66 44 67 49 68 45 69 46 70 48 71 50 72 47 73 69 74
REMARK SMILES IDX 70 75 75 76 71 77 72 78 74 79 76 80 73 81 57 82 58 83 63 84
REMARK SMILES IDX 59 85 60 86 62 87 64 88 61 89
REMARK H PARENT 81 51 55 62
REMARK Flexibility Score: inf
ROOT
ATOM      1  C   UNL     1       3.341   1.388   3.065  1.00  0.00     0.188 C 
ENDROOT
BRANCH   1   2
ATOM      2  O   UNL     1       4.650   0.949   2.711  1.00  0.00    -0.376 OA
BRANCH   2   3
ATOM      3  C   UNL     1       5.200   0.633   1.448  1.00  0.00     0.202 C 
BRANCH   3   4
ATOM      4  C   UNL     1       4.355   0.132   0.294  1.00  0.00     0.261 C 
BRANCH   4   5
ATOM      5  O   UNL     1       3.112  -0.401   0.741  1.00  0.00    -0.463 OA
BRANCH   5   6
ATOM      6  C   UNL     1       2.972  -1.449   1.577  1.00  0.00     0.316 C 
ATOM      7  O   UNL     1       2.102  -1.419   2.446  1.00  0.00    -0.251 OA
BRANCH   6   8
ATOM      8  C   UNL     1       3.807  -2.670   1.331  1.00  0.00     0.200 C 
BRANCH   8   9
ATOM      9  S   UNL     1       3.841  -3.132  -0.420  1.00  0.00    -0.076 SA
BRANCH   9  10
ATOM     10  C   UNL     1       2.713  -4.437  -0.604  1.00  0.00     0.169 A 
ATOM     11  N   UNL     1       3.009  -5.662  -0.227  1.00  0.00    -0.221 NA
ATOM     12  N   UNL     1       1.615  -4.418  -1.444  1.00  0.00    -0.319 N 
ATOM     13  C   UNL     1       2.119  -6.480  -0.887  1.00  0.00     0.108 A 
ATOM     14  C   UNL     1       1.176  -5.725  -1.572  1.00  0.00     0.072 A 
ATOM     15  C   UNL     1       2.064  -7.872  -1.009  1.00  0.00     0.141 A 
ATOM     16  C   UNL     1       0.136  -6.298  -2.305  1.00  0.00     0.049 A 
ATOM     17  N   UNL     1       1.092  -8.460  -1.763  1.00  0.00    -0.262 NA
ATOM     18  C   UNL     1       0.165  -7.681  -2.365  1.00  0.00     0.113 A 
BRANCH  12  19
ATOM     19  C   UNL     1       1.172  -3.403  -2.388  1.00  0.00     0.125 C 
BRANCH  19  20
ATOM     20  C   UNL     1      -0.170  -2.736  -2.082  1.00  0.00     0.025 C 
BRANCH  20  21
ATOM     21  C   UNL     1      -0.071  -1.366  -1.503  1.00  0.00    -0.009 C 
ATOM     22  C   UNL     1       0.622  -1.188  -0.252  1.00  0.00     0.004 C 
ATOM     23  C   UNL     1       1.244  -0.561  -1.502  1.00  0.00     0.004 C 
ENDBRANCH  20  21
ENDBRANCH  19  20
ENDBRANCH  12  19
ENDBRANCH   9  10
ENDBRANCH   8   9
ENDBRANCH   6   8
ENDBRANCH   5   6
ENDBRANCH   4   5
ENDBRANCH   3   4
ENDBRANCH   2   3
ENDBRANCH   1   2
BRANCH   1  24
ATOM     24  C   UNL     1       2.323   2.024   2.111  1.00  0.00     0.188 C 
BRANCH  24  25
ATOM     25  O   UNL     1       2.579   3.371   1.781  1.00  0.00    -0.377 OA
BRANCH  25  26
ATOM     26  C   UNL     1       3.861   3.609   1.252  1.00  0.00     0.188 C 
BRANCH  26  27
ATOM     27  C   UNL     1       4.933   3.969   2.303  1.00  0.00     0.188 C 
BRANCH  27  28
ATOM     28  O   UNL     1       4.547   4.595   3.514  1.00  0.00    -0.376 OA
BRANCH  28  29
ATOM     29  C   UNL     1       3.475   5.521   3.459  1.00  0.00     0.202 C 
BRANCH  29  30
ATOM     30  C   UNL     1       3.599   6.733   2.506  1.00  0.00     0.261 C 
BRANCH  30  31
ATOM     31  O   UNL     1       4.037   6.426   1.159  1.00  0.00    -0.460 OA
BRANCH  31  32
ATOM     32  C   UNL     1       5.264   6.848   0.749  1.00  0.00     0.338 C 
ATOM     33  O   UNL     1       5.943   7.713   1.287  1.00  0.00    -0.246 OA
BRANCH  32  34
ATOM     34  C   UNL     1       5.823   5.863  -0.243  1.00  0.00     0.060 A 
ATOM     35  C   UNL     1       5.062   5.303  -1.272  1.00  0.00     0.016 A 
ATOM     36  C   UNL     1       7.077   5.292   0.058  1.00  0.00     0.016 A 
ATOM     37  C   UNL     1       5.509   4.128  -1.903  1.00  0.00     0.010 A 
ATOM     38  C   UNL     1       7.508   4.102  -0.555  1.00  0.00     0.010 A 
ATOM     39  C   UNL     1       6.720   3.494  -1.531  1.00  0.00    -0.014 A 
BRANCH  39  40
ATOM     40  C   UNL     1       7.254   2.440  -2.434  1.00  0.00     0.031 A 
ATOM     41  C   UNL     1       7.472   2.996  -3.803  1.00  0.00     0.074 A 
ATOM     42  C   UNL     1       7.713   1.184  -2.202  1.00  0.00     0.049 A 
ATOM     43  N   UNL     1       6.878   2.677  -4.904  1.00  0.00    -0.248 NA
ATOM     44  C   UNL     1       8.361   4.165  -3.906  1.00  0.00     0.031 C 
ATOM     45  C   UNL     1       7.960   0.524  -0.921  1.00  0.00     0.029 A 
ATOM     46  N   UNL     1       8.135   0.230  -3.109  1.00  0.00    -0.354 N 
ATOM     47  C   UNL     1       7.435   3.502  -5.880  1.00  0.00     0.074 A 
ATOM     48  C   UNL     1       8.209   4.495  -5.187  1.00  0.00     0.031 C 
ATOM     49  C   UNL     1       8.620  -0.642  -1.122  1.00  0.00     0.029 A 
ATOM     50  C   UNL     1       8.797  -0.865  -2.549  1.00  0.00     0.049 A 
ATOM     51  H   UNL     1       7.981   0.317  -4.077  1.00  0.00     0.167 HD
ATOM     52  C   UNL     1       7.398   3.179  -7.200  1.00  0.00     0.037 A 
ATOM     53  C   UNL     1       9.491  -1.854  -3.183  1.00  0.00     0.037 A 
ATOM     54  C   UNL     1       6.378   2.203  -7.475  1.00  0.00     0.049 A 
ATOM     55  C   UNL     1       9.125  -1.850  -4.617  1.00  0.00     0.074 A 
ATOM     56  C   UNL     1       5.007   2.141  -7.315  1.00  0.00     0.029 A 
ATOM     57  N   UNL     1       6.778   0.917  -7.729  1.00  0.00    -0.354 N 
ATOM     58  N   UNL     1       8.002  -2.295  -5.096  1.00  0.00    -0.248 NA
ATOM     59  C   UNL     1       9.885  -0.994  -5.511  1.00  0.00     0.031 C 
ATOM     60  C   UNL     1       4.734   0.780  -6.992  1.00  0.00     0.029 A 
ATOM     61  C   UNL     1       5.946   0.092  -7.024  1.00  0.00     0.049 A 
ATOM     62  H   UNL     1       7.523   0.639  -8.308  1.00  0.00     0.167 HD
ATOM     63  C   UNL     1       7.686  -1.408  -6.111  1.00  0.00     0.074 A 
ATOM     64  C   UNL     1       8.931  -0.703  -6.398  1.00  0.00     0.031 C 
ATOM     65  C   UNL     1       6.385  -1.139  -6.421  1.00  0.00     0.037 A 
BRANCH  52  66
ATOM     66  C   UNL     1       8.540   3.439  -8.157  1.00  0.00     0.057 A 
ATOM     67  C   UNL     1       9.872   3.682  -7.762  1.00  0.00     0.134 A 
ATOM     68  C   UNL     1       8.374   3.111  -9.516  1.00  0.00     0.134 A 
ATOM     69  F   UNL     1      10.216   3.951  -6.497  1.00  0.00    -0.206 F 
ATOM     70  C   UNL     1      10.956   3.556  -8.633  1.00  0.00     0.040 A 
ATOM     71  C   UNL     1       9.457   2.929 -10.382  1.00  0.00     0.040 A 
ATOM     72  F   UNL     1       7.156   2.858 -10.020  1.00  0.00    -0.206 F 
ATOM     73  C   UNL     1      10.756   3.137  -9.937  1.00  0.00     0.006 A 
ENDBRANCH  52  66
BRANCH  53  74
ATOM     74  C   UNL     1      10.625  -2.699  -2.715  1.00  0.00     0.057 A 
ATOM     75  C   UNL     1      11.562  -2.206  -1.793  1.00  0.00     0.134 A 
ATOM     76  C   UNL     1      10.985  -3.893  -3.367  1.00  0.00     0.134 A 
ATOM     77  F   UNL     1      11.363  -1.036  -1.170  1.00  0.00    -0.206 F 
ATOM     78  C   UNL     1      12.783  -2.844  -1.544  1.00  0.00     0.040 A 
ATOM     79  C   UNL     1      12.210  -4.540  -3.132  1.00  0.00     0.040 A 
ATOM     80  F   UNL     1      10.186  -4.433  -4.299  1.00  0.00    -0.206 F 
ATOM     81  C   UNL     1      13.119  -4.007  -2.225  1.00  0.00     0.006 A 
ENDBRANCH  53  74
BRANCH  65  82
ATOM     82  C   UNL     1       5.332  -2.071  -5.903  1.00  0.00     0.057 A 
ATOM     83  C   UNL     1       4.391  -2.587  -6.806  1.00  0.00     0.134 A 
ATOM     84  C   UNL     1       5.179  -2.428  -4.558  1.00  0.00     0.134 A 
ATOM     85  F   UNL     1       4.433  -2.243  -8.102  1.00  0.00    -0.206 F 
ATOM     86  C   UNL     1       3.376  -3.454  -6.404  1.00  0.00     0.040 A 
ATOM     87  C   UNL     1       4.228  -3.368  -4.167  1.00  0.00     0.040 A 
ATOM     88  F   UNL     1       5.913  -1.863  -3.588  1.00  0.00    -0.206 F 
ATOM     89  C   UNL     1       3.321  -3.881  -5.086  1.00  0.00     0.006 A 
ENDBRANCH  65  82
ENDBRANCH  39  40
ENDBRANCH  32  34
ENDBRANCH  31  32
ENDBRANCH  30  31
ENDBRANCH  29  30
ENDBRANCH  28  29
ENDBRANCH  27  28
ENDBRANCH  26  27
ENDBRANCH  25  26
ENDBRANCH  24  25
ENDBRANCH   1  24
TORSDOF 25
