REMARK SMILES COC(=O)[C@@H]1[C@@H](NC(=O)COCC(=O)OCCOCCOCCOCCOC(=O)c2ccc(-c3c4nc(c(-c5c(F)cccc5F)c5ccc([nH]5)c(-c5c(F)cccc5F)c5nc(c(-c6c(F)cccc6F)c6ccc3[nH]6)C=C5)C=C4)cc2)CCN1C(C)=O
REMARK SMILES IDX 19 1 18 2 17 3 16 4 15 5 13 6 14 7 12 8 11 9 10 10 8 11 7 12
REMARK SMILES IDX 9 14 6 15 5 16 86 17 84 18 85 19 3 20 4 21 2 22 1 23 87 24
REMARK SMILES IDX 88 25 89 26 20 27 21 28 22 29 23 30 24 31 25 32 26 33 27 34
REMARK SMILES IDX 28 35 29 36 30 37 31 38 83 39 32 40 82 41 33 42 34 43 35 44
REMARK SMILES IDX 76 45 36 46 81 47 75 48 77 49 37 50 80 51 74 52 73 53 38 55
REMARK SMILES IDX 64 56 47 57 63 58 48 59 51 60 62 61 78 62 49 63 50 64 61 66
REMARK SMILES IDX 79 67 52 68 39 69 40 70 45 71 41 72 42 73 44 74 46 75 43 76
REMARK SMILES IDX 65 77 66 78 71 79 67 80 68 81 70 82 72 83 69 84 53 85 54 86
REMARK SMILES IDX 59 87 55 88 56 89 58 90 60 91 57 92
REMARK H PARENT 7 13 77 54 51 65
REMARK Flexibility Score: inf
ROOT
ATOM      1  C   UNL     1       6.373   1.178  -1.634  1.00  0.00     0.188 C 
ENDROOT
BRANCH   1   2
ATOM      2  O   UNL     1       6.902  -0.002  -1.018  1.00  0.00    -0.376 OA
BRANCH   2   3
ATOM      3  C   UNL     1       6.175  -1.222  -1.167  1.00  0.00     0.202 C 
BRANCH   3   4
ATOM      4  C   UNL     1       4.882  -1.360  -0.346  1.00  0.00     0.261 C 
BRANCH   4   5
ATOM      5  O   UNL     1       3.896  -0.374  -0.689  1.00  0.00    -0.462 OA
BRANCH   5   6
ATOM      6  C   UNL     1       3.675   0.611   0.218  1.00  0.00     0.332 C 
ATOM      7  O   UNL     1       4.111   0.623   1.365  1.00  0.00    -0.250 OA
BRANCH   6   8
ATOM      8  C   UNL     1       2.919   1.800  -0.390  1.00  0.00     0.283 C 
BRANCH   8   9
ATOM      9  O   UNL     1       2.139   1.565  -1.554  1.00  0.00    -0.360 OA
BRANCH   9  10
ATOM     10  C   UNL     1       2.466   2.381  -2.663  1.00  0.00     0.260 C 
BRANCH  10  11
ATOM     11  C   UNL     1       2.399   3.885  -2.451  1.00  0.00     0.246 C 
ATOM     12  N   UNL     1       1.238   4.497  -2.114  1.00  0.00    -0.349 N 
ATOM     13  H   UNL     1       1.369   5.411  -1.771  1.00  0.00     0.163 HD
ATOM     14  O   UNL     1       3.415   4.577  -2.550  1.00  0.00    -0.272 OA
BRANCH  12  15
ATOM     15  C   UNL     1      -0.167   4.096  -2.148  1.00  0.00     0.118 C 
ATOM     16  C   UNL     1      -0.621   2.619  -2.040  1.00  0.00     0.217 C 
ATOM     17  N   UNL     1      -1.960   2.638  -2.651  1.00  0.00    -0.327 N 
ATOM     18  C   UNL     1      -0.810   4.538  -3.464  1.00  0.00     0.049 C 
ATOM     19  C   UNL     1      -2.155   3.828  -3.462  1.00  0.00     0.122 C 
BRANCH  16  20
ATOM     20  C   UNL     1      -0.568   2.147  -0.578  1.00  0.00     0.330 C 
ATOM     21  O   UNL     1      -0.715   2.865   0.403  1.00  0.00    -0.250 OA
BRANCH  20  22
ATOM     22  O   UNL     1      -0.325   0.807  -0.544  1.00  0.00    -0.467 OA
ATOM     23  C   UNL     1      -0.088   0.176   0.713  1.00  0.00     0.282 C 
ENDBRANCH  20  22
ENDBRANCH  16  20
BRANCH  17  24
ATOM     24  C   UNL     1      -2.680   1.472  -2.799  1.00  0.00     0.220 C 
ATOM     25  C   UNL     1      -4.103   1.596  -3.273  1.00  0.00     0.114 C 
ATOM     26  O   UNL     1      -2.229   0.372  -2.491  1.00  0.00    -0.275 OA
ENDBRANCH  17  24
ENDBRANCH  12  15
ENDBRANCH  10  11
ENDBRANCH   9  10
ENDBRANCH   8   9
ENDBRANCH   6   8
ENDBRANCH   5   6
ENDBRANCH   4   5
ENDBRANCH   3   4
ENDBRANCH   2   3
ENDBRANCH   1   2
BRANCH   1  27
ATOM     27  C   UNL     1       5.919   1.020  -3.085  1.00  0.00     0.188 C 
BRANCH  27  28
ATOM     28  O   UNL     1       4.715   0.258  -3.127  1.00  0.00    -0.377 OA
BRANCH  28  29
ATOM     29  C   UNL     1       4.431  -0.547  -4.265  1.00  0.00     0.188 C 
BRANCH  29  30
ATOM     30  C   UNL     1       5.414  -0.458  -5.427  1.00  0.00     0.188 C 
BRANCH  30  31
ATOM     31  O   UNL     1       5.587   0.834  -6.010  1.00  0.00    -0.376 OA
BRANCH  31  32
ATOM     32  C   UNL     1       4.423   1.636  -6.203  1.00  0.00     0.202 C 
BRANCH  32  33
ATOM     33  C   UNL     1       3.562   1.278  -7.414  1.00  0.00     0.261 C 
BRANCH  33  34
ATOM     34  O   UNL     1       2.967  -0.023  -7.291  1.00  0.00    -0.460 OA
BRANCH  34  35
ATOM     35  C   UNL     1       3.570  -0.997  -8.012  1.00  0.00     0.338 C 
ATOM     36  O   UNL     1       4.532  -0.889  -8.758  1.00  0.00    -0.246 OA
BRANCH  35  37
ATOM     37  C   UNL     1       3.001  -2.296  -7.625  1.00  0.00     0.060 A 
ATOM     38  C   UNL     1       3.871  -3.304  -7.184  1.00  0.00     0.016 A 
ATOM     39  C   UNL     1       1.635  -2.538  -7.770  1.00  0.00     0.016 A 
ATOM     40  C   UNL     1       3.380  -4.574  -6.915  1.00  0.00     0.010 A 
ATOM     41  C   UNL     1       1.148  -3.821  -7.533  1.00  0.00     0.010 A 
ATOM     42  C   UNL     1       2.028  -4.847  -7.145  1.00  0.00    -0.014 A 
BRANCH  42  43
ATOM     43  C   UNL     1       1.588  -6.253  -7.220  1.00  0.00     0.031 A 
ATOM     44  C   UNL     1       1.523  -6.895  -8.576  1.00  0.00     0.074 A 
ATOM     45  C   UNL     1       1.289  -6.940  -6.106  1.00  0.00     0.049 A 
ATOM     46  N   UNL     1       1.087  -8.078  -8.915  1.00  0.00    -0.248 NA
ATOM     47  C   UNL     1       2.015  -6.086  -9.705  1.00  0.00     0.031 C 
ATOM     48  C   UNL     1       1.388  -6.425  -4.742  1.00  0.00     0.029 A 
ATOM     49  N   UNL     1       0.830  -8.221  -5.955  1.00  0.00    -0.354 N 
ATOM     50  C   UNL     1       1.247  -8.153 -10.293  1.00  0.00     0.074 A 
ATOM     51  C   UNL     1       1.786  -6.887 -10.733  1.00  0.00     0.031 C 
ATOM     52  C   UNL     1       0.978  -7.380  -3.889  1.00  0.00     0.029 A 
ATOM     53  C   UNL     1       0.553  -8.550  -4.652  1.00  0.00     0.049 A 
ATOM     54  H   UNL     1       0.711  -8.845  -6.708  1.00  0.00     0.167 HD
ATOM     55  C   UNL     1       0.975  -9.194 -11.113  1.00  0.00     0.037 A 
ATOM     56  C   UNL     1      -0.015  -9.662  -4.150  1.00  0.00     0.037 A 
ATOM     57  C   UNL     1       0.427 -10.442 -10.657  1.00  0.00     0.049 A 
ATOM     58  C   UNL     1      -0.408 -10.767  -5.098  1.00  0.00     0.074 A 
ATOM     59  C   UNL     1       0.096 -11.562 -11.397  1.00  0.00     0.029 A 
ATOM     60  N   UNL     1       0.124 -10.730  -9.334  1.00  0.00    -0.354 N 
ATOM     61  N   UNL     1      -0.256 -10.836  -6.399  1.00  0.00    -0.248 NA
ATOM     62  C   UNL     1      -1.050 -11.947  -4.506  1.00  0.00     0.031 C 
ATOM     63  C   UNL     1      -0.457 -12.508 -10.528  1.00  0.00     0.029 A 
ATOM     64  C   UNL     1      -0.411 -12.002  -9.238  1.00  0.00     0.049 A 
ATOM     65  H   UNL     1       0.269 -10.119  -8.575  1.00  0.00     0.167 HD
ATOM     66  C   UNL     1      -0.748 -12.080  -6.776  1.00  0.00     0.074 A 
ATOM     67  C   UNL     1      -1.192 -12.735  -5.562  1.00  0.00     0.031 C 
ATOM     68  C   UNL     1      -0.828 -12.635  -8.011  1.00  0.00     0.037 A 
BRANCH  55  69
ATOM     69  C   UNL     1       1.235  -9.006 -12.579  1.00  0.00     0.057 A 
ATOM     70  C   UNL     1       2.534  -8.913 -13.097  1.00  0.00     0.134 A 
ATOM     71  C   UNL     1       0.173  -8.932 -13.489  1.00  0.00     0.134 A 
ATOM     72  F   UNL     1       3.597  -8.955 -12.279  1.00  0.00    -0.206 F 
ATOM     73  C   UNL     1       2.766  -8.730 -14.462  1.00  0.00     0.040 A 
ATOM     74  C   UNL     1       0.392  -8.780 -14.859  1.00  0.00     0.040 A 
ATOM     75  F   UNL     1      -1.097  -9.012 -13.062  1.00  0.00    -0.206 F 
ATOM     76  C   UNL     1       1.692  -8.672 -15.348  1.00  0.00     0.006 A 
ENDBRANCH  55  69
BRANCH  56  77
ATOM     77  C   UNL     1      -0.272  -9.782  -2.692  1.00  0.00     0.057 A 
ATOM     78  C   UNL     1       0.391 -10.737  -1.913  1.00  0.00     0.134 A 
ATOM     79  C   UNL     1      -1.214  -8.969  -2.048  1.00  0.00     0.134 A 
ATOM     80  F   UNL     1       1.290 -11.559  -2.475  1.00  0.00    -0.206 F 
ATOM     81  C   UNL     1       0.108 -10.900  -0.556  1.00  0.00     0.040 A 
ATOM     82  C   UNL     1      -1.485  -9.100  -0.685  1.00  0.00     0.040 A 
ATOM     83  F   UNL     1      -1.884  -8.032  -2.735  1.00  0.00    -0.206 F 
ATOM     84  C   UNL     1      -0.830 -10.077   0.062  1.00  0.00     0.006 A 
ENDBRANCH  56  77
BRANCH  68  85
ATOM     85  C   UNL     1      -1.361 -14.035  -8.102  1.00  0.00     0.057 A 
ATOM     86  C   UNL     1      -2.712 -14.332  -7.886  1.00  0.00     0.134 A 
ATOM     87  C   UNL     1      -0.513 -15.094  -8.453  1.00  0.00     0.134 A 
ATOM     88  F   UNL     1      -3.575 -13.366  -7.535  1.00  0.00    -0.206 F 
ATOM     89  C   UNL     1      -3.196 -15.638  -7.988  1.00  0.00     0.040 A 
ATOM     90  C   UNL     1      -0.991 -16.397  -8.591  1.00  0.00     0.040 A 
ATOM     91  F   UNL     1       0.790 -14.876  -8.687  1.00  0.00    -0.206 F 
ATOM     92  C   UNL     1      -2.335 -16.673  -8.350  1.00  0.00     0.006 A 
ENDBRANCH  68  85
ENDBRANCH  42  43
ENDBRANCH  35  37
ENDBRANCH  34  35
ENDBRANCH  33  34
ENDBRANCH  32  33
ENDBRANCH  31  32
ENDBRANCH  30  31
ENDBRANCH  29  30
ENDBRANCH  28  29
ENDBRANCH  27  28
ENDBRANCH   1  27
TORSDOF 27
