REMARK SMILES C[C@@H](Sc1ccccc1[N+](=O)[O-])[C@@H](C)C(=O)OCCOCCOCCOCCOC(=O)c1ccc(-c2c3nc(c(-c4c(F)cccc4F)c4ccc([nH]4)c(-c4c(F)cccc4F)c4nc(c(-c5c(F)cccc5F)c5ccc2[nH]5)C=C4)C=C3)cc1
REMARK SMILES IDX 22 1 21 2 20 3 19 4 18 5 17 6 15 7 16 8 13 9 14 10 2 11 1 12
REMARK SMILES IDX 3 13 4 14 5 15 9 16 6 17 8 18 7 19 10 20 11 21 12 22 23 23
REMARK SMILES IDX 24 24 25 25 26 26 27 27 28 28 29 29 30 30 31 31 32 32 33 33
REMARK SMILES IDX 85 34 34 35 84 36 35 37 36 38 37 39 78 40 38 41 83 42 77 43
REMARK SMILES IDX 79 44 39 45 82 46 76 47 75 48 40 50 66 51 49 52 65 53 50 54
REMARK SMILES IDX 53 55 64 56 80 57 51 58 52 59 63 61 81 62 54 63 41 64 42 65
REMARK SMILES IDX 47 66 43 67 44 68 46 69 48 70 45 71 67 72 68 73 73 74 69 75
REMARK SMILES IDX 70 76 72 77 74 78 71 79 55 80 56 81 61 82 57 83 58 84 60 85
REMARK SMILES IDX 62 86 59 87
REMARK H PARENT 79 49 53 60
REMARK Flexibility Score: inf
ROOT
ATOM      1  C   UNL     1      -0.740   4.103  -1.876  1.00  0.00     0.188 C 
ENDROOT
BRANCH   1   2
ATOM      2  C   UNL     1      -2.160   4.469  -2.295  1.00  0.00     0.188 C 
BRANCH   2   3
ATOM      3  O   UNL     1      -3.150   4.543  -1.270  1.00  0.00    -0.376 OA
BRANCH   3   4
ATOM      4  C   UNL     1      -2.809   5.266  -0.097  1.00  0.00     0.202 C 
BRANCH   4   5
ATOM      5  C   UNL     1      -2.544   4.348   1.115  1.00  0.00     0.261 C 
BRANCH   5   6
ATOM      6  O   UNL     1      -1.509   3.333   0.985  1.00  0.00    -0.463 OA
BRANCH   6   7
ATOM      7  C   UNL     1      -1.897   2.179   0.384  1.00  0.00     0.309 C 
ATOM      8  O   UNL     1      -3.017   2.000  -0.094  1.00  0.00    -0.252 OA
BRANCH   7   9
ATOM      9  C   UNL     1      -0.922   1.001   0.492  1.00  0.00     0.109 C 
ATOM     10  C   UNL     1      -1.452   0.242   1.726  1.00  0.00     0.021 C 
BRANCH   9  11
ATOM     11  C   UNL     1       0.647   1.164   0.502  1.00  0.00     0.063 C 
ATOM     12  C   UNL     1       1.301  -0.126   1.026  1.00  0.00     0.020 C 
BRANCH  11  13
ATOM     13  S   UNL     1       1.369   1.399  -1.220  1.00  0.00    -0.115 SA
BRANCH  13  14
ATOM     14  C   UNL     1       3.175   1.352  -1.048  1.00  0.00     0.085 A 
ATOM     15  C   UNL     1       3.819   0.188  -1.502  1.00  0.00     0.022 A 
ATOM     16  C   UNL     1       4.024   2.414  -0.693  1.00  0.00     0.282 A 
ATOM     17  C   UNL     1       5.221   0.109  -1.610  1.00  0.00     0.002 A 
ATOM     18  C   UNL     1       5.426   2.363  -0.830  1.00  0.00     0.087 A 
ATOM     19  C   UNL     1       6.023   1.202  -1.296  1.00  0.00     0.007 A 
BRANCH  16  20
ATOM     20  N   UNL     1       3.505   3.682  -0.272  1.00  0.00     0.063 N 
ATOM     21  O   UNL     1       3.913   4.148   0.800  1.00  0.00    -0.258 OA
ATOM     22  O   UNL     1       2.781   4.259  -1.074  1.00  0.00    -0.258 OA
ENDBRANCH  16  20
ENDBRANCH  13  14
ENDBRANCH  11  13
ENDBRANCH   9  11
ENDBRANCH   7   9
ENDBRANCH   6   7
ENDBRANCH   5   6
ENDBRANCH   4   5
ENDBRANCH   3   4
ENDBRANCH   2   3
ENDBRANCH   1   2
BRANCH   1  23
ATOM     23  O   UNL     1      -0.148   4.908  -0.873  1.00  0.00    -0.377 OA
BRANCH  23  24
ATOM     24  C   UNL     1       0.494   6.134  -1.181  1.00  0.00     0.188 C 
BRANCH  24  25
ATOM     25  C   UNL     1       0.328   6.806  -2.543  1.00  0.00     0.188 C 
BRANCH  25  26
ATOM     26  O   UNL     1       0.519   6.061  -3.739  1.00  0.00    -0.376 OA
BRANCH  26  27
ATOM     27  C   UNL     1       1.672   5.239  -3.906  1.00  0.00     0.202 C 
BRANCH  27  28
ATOM     28  C   UNL     1       3.015   5.929  -4.107  1.00  0.00     0.261 C 
BRANCH  28  29
ATOM     29  O   UNL     1       3.536   6.386  -2.851  1.00  0.00    -0.460 OA
BRANCH  29  30
ATOM     30  C   UNL     1       3.576   7.724  -2.706  1.00  0.00     0.338 C 
ATOM     31  O   UNL     1       3.354   8.566  -3.556  1.00  0.00    -0.246 OA
BRANCH  30  32
ATOM     32  C   UNL     1       3.771   8.064  -1.284  1.00  0.00     0.060 A 
ATOM     33  C   UNL     1       2.983   9.103  -0.781  1.00  0.00     0.016 A 
ATOM     34  C   UNL     1       4.759   7.468  -0.494  1.00  0.00     0.016 A 
ATOM     35  C   UNL     1       3.260   9.636   0.469  1.00  0.00     0.010 A 
ATOM     36  C   UNL     1       5.035   8.002   0.769  1.00  0.00     0.010 A 
ATOM     37  C   UNL     1       4.340   9.142   1.212  1.00  0.00    -0.014 A 
BRANCH  37  38
ATOM     38  C   UNL     1       4.897  10.021   2.269  1.00  0.00     0.031 A 
ATOM     39  C   UNL     1       6.096  10.869   1.925  1.00  0.00     0.074 A 
ATOM     40  C   UNL     1       4.272  10.177   3.449  1.00  0.00     0.049 A 
ATOM     41  N   UNL     1       6.692  11.796   2.630  1.00  0.00    -0.248 NA
ATOM     42  C   UNL     1       6.704  10.643   0.602  1.00  0.00     0.031 C 
ATOM     43  C   UNL     1       3.080   9.450   3.879  1.00  0.00     0.029 A 
ATOM     44  N   UNL     1       4.548  11.024   4.492  1.00  0.00    -0.354 N 
ATOM     45  C   UNL     1       7.739  12.257   1.838  1.00  0.00     0.074 A 
ATOM     46  C   UNL     1       7.732  11.475   0.624  1.00  0.00     0.031 C 
ATOM     47  C   UNL     1       2.718   9.891   5.097  1.00  0.00     0.029 A 
ATOM     48  C   UNL     1       3.662  10.918   5.535  1.00  0.00     0.049 A 
ATOM     49  H   UNL     1       5.310  11.648   4.493  1.00  0.00     0.167 HD
ATOM     50  C   UNL     1       8.614  13.259   2.086  1.00  0.00     0.037 A 
ATOM     51  C   UNL     1       3.621  11.581   6.707  1.00  0.00     0.037 A 
ATOM     52  C   UNL     1       8.613  14.050   3.286  1.00  0.00     0.049 A 
ATOM     53  C   UNL     1       4.638  12.660   6.980  1.00  0.00     0.074 A 
ATOM     54  C   UNL     1       9.454  15.091   3.634  1.00  0.00     0.029 A 
ATOM     55  N   UNL     1       7.721  13.885   4.334  1.00  0.00    -0.354 N 
ATOM     56  N   UNL     1       5.609  13.101   6.215  1.00  0.00    -0.248 NA
ATOM     57  C   UNL     1       4.539  13.347   8.276  1.00  0.00     0.031 C 
ATOM     58  C   UNL     1       9.102  15.525   4.916  1.00  0.00     0.029 A 
ATOM     59  C   UNL     1       8.002  14.795   5.338  1.00  0.00     0.049 A 
ATOM     60  H   UNL     1       6.996  13.219   4.361  1.00  0.00     0.167 HD
ATOM     61  C   UNL     1       6.206  14.142   6.918  1.00  0.00     0.074 A 
ATOM     62  C   UNL     1       5.480  14.273   8.164  1.00  0.00     0.031 C 
ATOM     63  C   UNL     1       7.257  14.923   6.565  1.00  0.00     0.037 A 
BRANCH  50  64
ATOM     64  C   UNL     1       9.657  13.536   1.042  1.00  0.00     0.057 A 
ATOM     65  C   UNL     1       9.337  14.106  -0.198  1.00  0.00     0.134 A 
ATOM     66  C   UNL     1      11.003  13.236   1.286  1.00  0.00     0.134 A 
ATOM     67  F   UNL     1       8.063  14.398  -0.504  1.00  0.00    -0.206 F 
ATOM     68  C   UNL     1      10.314  14.344  -1.166  1.00  0.00     0.040 A 
ATOM     69  C   UNL     1      11.993  13.498   0.337  1.00  0.00     0.040 A 
ATOM     70  F   UNL     1      11.379  12.688   2.451  1.00  0.00    -0.206 F 
ATOM     71  C   UNL     1      11.648  14.046  -0.896  1.00  0.00     0.006 A 
ENDBRANCH  50  64
BRANCH  51  72
ATOM     72  C   UNL     1       2.579  11.256   7.715  1.00  0.00     0.057 A 
ATOM     73  C   UNL     1       1.579  12.174   8.056  1.00  0.00     0.134 A 
ATOM     74  C   UNL     1       2.589  10.032   8.396  1.00  0.00     0.134 A 
ATOM     75  F   UNL     1       1.530  13.373   7.456  1.00  0.00    -0.206 F 
ATOM     76  C   UNL     1       0.646  11.901   9.058  1.00  0.00     0.040 A 
ATOM     77  C   UNL     1       1.645   9.735   9.380  1.00  0.00     0.040 A 
ATOM     78  F   UNL     1       3.519   9.108   8.116  1.00  0.00    -0.206 F 
ATOM     79  C   UNL     1       0.676  10.676   9.721  1.00  0.00     0.006 A 
ENDBRANCH  51  72
BRANCH  63  80
ATOM     80  C   UNL     1       7.644  16.028   7.507  1.00  0.00     0.057 A 
ATOM     81  C   UNL     1       8.232  15.776   8.753  1.00  0.00     0.134 A 
ATOM     82  C   UNL     1       7.444  17.367   7.147  1.00  0.00     0.134 A 
ATOM     83  F   UNL     1       8.446  14.517   9.163  1.00  0.00    -0.206 F 
ATOM     84  C   UNL     1       8.572  16.815   9.622  1.00  0.00     0.040 A 
ATOM     85  C   UNL     1       7.809  18.415   7.993  1.00  0.00     0.040 A 
ATOM     86  F   UNL     1       6.900  17.681   5.961  1.00  0.00    -0.206 F 
ATOM     87  C   UNL     1       8.365  18.139   9.240  1.00  0.00     0.006 A 
ENDBRANCH  63  80
ENDBRANCH  37  38
ENDBRANCH  30  32
ENDBRANCH  29  30
ENDBRANCH  28  29
ENDBRANCH  27  28
ENDBRANCH  26  27
ENDBRANCH  25  26
ENDBRANCH  24  25
ENDBRANCH  23  24
ENDBRANCH   1  23
TORSDOF 24
