REMARK SMILES C[NH+]1CCC(NC(=O)N[C@@H]2C=C[C@H](C(=O)OCCOCCOCCOCCOC(=O)c3ccc(-c4c5nc(c(-c6c(F)cccc6F)c6ccc([nH]6)c(-c6c(F)cccc6F)c6nc(c(-c7c(F)cccc7F)c7ccc4[nH]7)C=C6)C=C5)cc3)C2)CC1
REMARK SMILES IDX 22 1 21 2 20 3 19 4 18 5 17 6 16 7 14 8 15 9 13 10 10 11
REMARK SMILES IDX 11 12 85 13 12 14 9 15 6 16 7 17 8 19 5 21 1 22 2 23 3 24
REMARK SMILES IDX 87 25 4 27 86 28 23 29 24 30 25 31 26 32 27 33 28 34 29 35
REMARK SMILES IDX 30 36 31 37 32 38 84 39 33 40 83 41 34 42 35 43 36 44 77 45
REMARK SMILES IDX 37 46 82 47 76 48 78 49 38 50 81 51 75 52 74 53 39 55 65 56
REMARK SMILES IDX 48 57 64 58 49 59 52 60 63 61 79 62 50 63 51 64 62 66 80 67
REMARK SMILES IDX 53 68 40 69 41 70 46 71 42 72 43 73 45 74 47 75 44 76 66 77
REMARK SMILES IDX 67 78 72 79 68 80 69 81 71 82 73 83 70 84 54 85 55 86 60 87
REMARK SMILES IDX 56 88 57 89 59 90 61 91 58 92
REMARK H PARENT 6 18 9 20 2 26 78 54 52 65
REMARK Flexibility Score: inf
ROOT
ATOM      1  O   UNL     1      -1.400   4.118  -1.809  1.00  0.00    -0.377 OA
ENDROOT
BRANCH   1   2
ATOM      2  C   UNL     1      -0.579   3.139  -2.435  1.00  0.00     0.188 C 
BRANCH   2   3
ATOM      3  C   UNL     1      -0.838   2.594  -3.872  1.00  0.00     0.188 C 
BRANCH   3   4
ATOM      4  O   UNL     1      -2.202   2.574  -4.259  1.00  0.00    -0.376 OA
BRANCH   4   5
ATOM      5  C   UNL     1      -2.827   1.307  -4.354  1.00  0.00     0.202 C 
BRANCH   5   6
ATOM      6  C   UNL     1      -3.048   0.582  -3.023  1.00  0.00     0.261 C 
BRANCH   6   7
ATOM      7  O   UNL     1      -1.886   0.446  -2.190  1.00  0.00    -0.463 OA
BRANCH   7   8
ATOM      8  C   UNL     1      -0.914  -0.424  -2.580  1.00  0.00     0.312 C 
ATOM      9  O   UNL     1      -0.948  -1.088  -3.605  1.00  0.00    -0.252 OA
BRANCH   8  10
ATOM     10  C   UNL     1       0.237  -0.363  -1.578  1.00  0.00     0.124 C 
ATOM     11  C   UNL     1       2.573  -0.191  -2.368  1.00  0.00     0.107 C 
ATOM     12  C   UNL     1       2.220  -1.568  -1.916  1.00  0.00    -0.006 C 
ATOM     13  C   UNL     1       1.345   0.616  -1.987  1.00  0.00     0.048 C 
ATOM     14  C   UNL     1       0.961  -1.664  -1.480  1.00  0.00    -0.014 C 
BRANCH  11  15
ATOM     15  N   UNL     1       2.865  -0.218  -3.785  1.00  0.00    -0.332 N 
ATOM     16  N   UNL     1       5.190  -0.688  -3.921  1.00  0.00    -0.335 N 
ATOM     17  C   UNL     1       3.999  -0.410  -4.491  1.00  0.00     0.315 C 
ATOM     18  H   UNL     1       5.925  -0.833  -4.561  1.00  0.00     0.165 HD
ATOM     19  O   UNL     1       3.941  -0.336  -5.719  1.00  0.00    -0.249 OA
ATOM     20  H   UNL     1       2.074  -0.066  -4.351  1.00  0.00     0.165 HD
BRANCH  16  21
ATOM     21  C   UNL     1       5.572  -0.808  -2.534  1.00  0.00     0.095 C 
ATOM     22  C   UNL     1       6.654  -0.982   1.486  1.00  0.00     0.332 C 
ATOM     23  N   UNL     1       6.846  -0.923   0.032  1.00  0.00    -0.337 N 
ATOM     24  C   UNL     1       6.294   0.346  -0.475  1.00  0.00     0.264 C 
ATOM     25  C   UNL     1       6.269  -2.125  -0.599  1.00  0.00     0.264 C 
ATOM     26  H   UNL     1       7.837  -0.930  -0.209  1.00  0.00     0.347 HD
ATOM     27  C   UNL     1       6.286   0.423  -2.001  1.00  0.00     0.086 C 
ATOM     28  C   UNL     1       6.319  -2.067  -2.136  1.00  0.00     0.086 C 
ENDBRANCH  16  21
ENDBRANCH  11  15
ENDBRANCH   8  10
ENDBRANCH   7   8
ENDBRANCH   6   7
ENDBRANCH   5   6
ENDBRANCH   4   5
ENDBRANCH   3   4
ENDBRANCH   2   3
ENDBRANCH   1   2
BRANCH   1  29
ATOM     29  C   UNL     1      -2.534   4.577  -2.518  1.00  0.00     0.188 C 
BRANCH  29  30
ATOM     30  C   UNL     1      -2.197   5.396  -3.779  1.00  0.00     0.188 C 
BRANCH  30  31
ATOM     31  O   UNL     1      -0.820   5.331  -4.129  1.00  0.00    -0.376 OA
BRANCH  31  32
ATOM     32  C   UNL     1       0.017   6.428  -3.807  1.00  0.00     0.202 C 
BRANCH  32  33
ATOM     33  C   UNL     1       0.169   6.862  -2.340  1.00  0.00     0.261 C 
BRANCH  33  34
ATOM     34  O   UNL     1      -1.034   7.018  -1.576  1.00  0.00    -0.460 OA
BRANCH  34  35
ATOM     35  C   UNL     1      -1.886   8.000  -1.928  1.00  0.00     0.338 C 
ATOM     36  O   UNL     1      -1.752   8.810  -2.829  1.00  0.00    -0.246 OA
BRANCH  35  37
ATOM     37  C   UNL     1      -3.126   7.796  -1.149  1.00  0.00     0.060 A 
ATOM     38  C   UNL     1      -4.324   7.532  -1.830  1.00  0.00     0.016 A 
ATOM     39  C   UNL     1      -3.092   7.808   0.247  1.00  0.00     0.016 A 
ATOM     40  C   UNL     1      -5.495   7.291  -1.114  1.00  0.00     0.010 A 
ATOM     41  C   UNL     1      -4.274   7.608   0.963  1.00  0.00     0.010 A 
ATOM     42  C   UNL     1      -5.483   7.379   0.283  1.00  0.00    -0.014 A 
BRANCH  42  43
ATOM     43  C   UNL     1      -6.769   7.473   1.011  1.00  0.00     0.031 A 
ATOM     44  C   UNL     1      -7.299   8.846   1.316  1.00  0.00     0.074 A 
ATOM     45  C   UNL     1      -7.465   6.379   1.364  1.00  0.00     0.049 A 
ATOM     46  N   UNL     1      -8.375   9.198   1.969  1.00  0.00    -0.248 NA
ATOM     47  C   UNL     1      -6.500   9.977   0.813  1.00  0.00     0.031 C 
ATOM     48  C   UNL     1      -7.078   4.999   1.079  1.00  0.00     0.029 A 
ATOM     49  N   UNL     1      -8.648   6.265   2.048  1.00  0.00    -0.354 N 
ATOM     50  C   UNL     1      -8.380  10.587   1.957  1.00  0.00     0.074 A 
ATOM     51  C   UNL     1      -7.185  11.015   1.266  1.00  0.00     0.031 C 
ATOM     52  C   UNL     1      -8.005   4.173   1.597  1.00  0.00     0.029 A 
ATOM     53  C   UNL     1      -9.030   4.966   2.276  1.00  0.00     0.049 A 
ATOM     54  H   UNL     1      -9.175   7.042   2.347  1.00  0.00     0.167 HD
ATOM     55  C   UNL     1      -9.305  11.432   2.470  1.00  0.00     0.037 A 
ATOM     56  C   UNL     1     -10.075   4.481   2.973  1.00  0.00     0.037 A 
ATOM     57  C   UNL     1     -10.486  11.002   3.167  1.00  0.00     0.049 A 
ATOM     58  C   UNL     1     -11.044   5.442   3.614  1.00  0.00     0.074 A 
ATOM     59  C   UNL     1     -11.488  11.776   3.723  1.00  0.00     0.029 A 
ATOM     60  N   UNL     1     -10.817   9.678   3.415  1.00  0.00    -0.354 N 
ATOM     61  N   UNL     1     -11.055   6.754   3.583  1.00  0.00    -0.248 NA
ATOM     62  C   UNL     1     -12.149   4.854   4.385  1.00  0.00     0.031 C 
ATOM     63  C   UNL     1     -12.396  10.922   4.357  1.00  0.00     0.029 A 
ATOM     64  C   UNL     1     -11.995   9.613   4.139  1.00  0.00     0.049 A 
ATOM     65  H   UNL     1     -10.292   8.899   3.119  1.00  0.00     0.167 HD
ATOM     66  C   UNL     1     -12.182   7.145   4.298  1.00  0.00     0.074 A 
ATOM     67  C   UNL     1     -12.836   5.931   4.739  1.00  0.00     0.031 C 
ATOM     68  C   UNL     1     -12.637   8.395   4.563  1.00  0.00     0.037 A 
BRANCH  55  69
ATOM     69  C   UNL     1      -9.051  12.903   2.320  1.00  0.00     0.057 A 
ATOM     70  C   UNL     1      -9.124  13.548   1.078  1.00  0.00     0.134 A 
ATOM     71  C   UNL     1      -8.743  13.689   3.438  1.00  0.00     0.134 A 
ATOM     72  F   UNL     1      -9.394  12.850  -0.036  1.00  0.00    -0.206 F 
ATOM     73  C   UNL     1      -8.877  14.916   0.950  1.00  0.00     0.040 A 
ATOM     74  C   UNL     1      -8.524  15.063   3.326  1.00  0.00     0.040 A 
ATOM     75  F   UNL     1      -8.655  13.136   4.657  1.00  0.00    -0.206 F 
ATOM     76  C   UNL     1      -8.584  15.678   2.078  1.00  0.00     0.006 A 
ENDBRANCH  55  69
BRANCH  56  77
ATOM     77  C   UNL     1     -10.261   3.014   3.119  1.00  0.00     0.057 A 
ATOM     78  C   UNL     1     -11.350   2.357   2.534  1.00  0.00     0.134 A 
ATOM     79  C   UNL     1      -9.374   2.238   3.877  1.00  0.00     0.134 A 
ATOM     80  F   UNL     1     -12.249   3.047   1.818  1.00  0.00    -0.206 F 
ATOM     81  C   UNL     1     -11.563   0.988   2.713  1.00  0.00     0.040 A 
ATOM     82  C   UNL     1      -9.559   0.864   4.041  1.00  0.00     0.040 A 
ATOM     83  F   UNL     1      -8.311   2.805   4.466  1.00  0.00    -0.206 F 
ATOM     84  C   UNL     1     -10.661   0.237   3.465  1.00  0.00     0.006 A 
ENDBRANCH  56  77
BRANCH  68  85
ATOM     85  C   UNL     1     -13.927   8.514   5.326  1.00  0.00     0.057 A 
ATOM     86  C   UNL     1     -14.021   8.190   6.685  1.00  0.00     0.134 A 
ATOM     87  C   UNL     1     -15.081   9.002   4.697  1.00  0.00     0.134 A 
ATOM     88  F   UNL     1     -12.957   7.709   7.346  1.00  0.00    -0.206 F 
ATOM     89  C   UNL     1     -15.223   8.318   7.384  1.00  0.00     0.040 A 
ATOM     90  C   UNL     1     -16.279   9.165   5.393  1.00  0.00     0.040 A 
ATOM     91  F   UNL     1     -15.057   9.344   3.400  1.00  0.00    -0.206 F 
ATOM     92  C   UNL     1     -16.355   8.814   6.739  1.00  0.00     0.006 A 
ENDBRANCH  68  85
ENDBRANCH  42  43
ENDBRANCH  35  37
ENDBRANCH  34  35
ENDBRANCH  33  34
ENDBRANCH  32  33
ENDBRANCH  31  32
ENDBRANCH  30  31
ENDBRANCH  29  30
ENDBRANCH   1  29
TORSDOF 22
