REMARK SMILES COc1ccc(NC(=O)N[C@@H]2C=C[C@H](C(=O)OCCOCCOCCOCCOC(=O)c3ccc(-c4c5nc(c(-c6c(F)cccc6F)c6ccc([nH]6)c(-c6c(F)cccc6F)c6nc(c(-c7c(F)cccc7F)c7ccc4[nH]7)C=C6)C=C5)cc3)C2)c(C)c1
REMARK SMILES IDX 22 1 21 2 20 3 19 4 18 5 17 6 15 7 16 8 14 9 11 10 12 11
REMARK SMILES IDX 86 12 13 13 10 14 7 15 8 16 9 18 6 20 3 21 4 22 89 23 5 24
REMARK SMILES IDX 87 25 88 26 2 27 1 28 23 29 24 30 25 31 26 32 27 33 28 34
REMARK SMILES IDX 29 35 30 36 31 37 32 38 33 39 85 40 34 41 84 42 35 43 36 44
REMARK SMILES IDX 37 45 78 46 38 47 83 48 77 49 79 50 39 51 82 52 76 53 75 54
REMARK SMILES IDX 40 56 66 57 49 58 65 59 50 60 53 61 64 62 80 63 51 64 52 65
REMARK SMILES IDX 63 67 81 68 54 69 41 70 42 71 47 72 43 73 44 74 46 75 48 76
REMARK SMILES IDX 45 77 67 78 68 79 73 80 69 81 70 82 72 83 74 84 71 85 55 86
REMARK SMILES IDX 56 87 61 88 57 89 58 90 60 91 62 92 59 93
REMARK H PARENT 7 17 10 19 79 55 53 66
REMARK Flexibility Score: inf
ROOT
ATOM      1  C   UNL     1       4.154   1.964  -0.278  1.00  0.00     0.188 C 
ENDROOT
BRANCH   1   2
ATOM      2  C   UNL     1       4.270   0.692  -1.107  1.00  0.00     0.188 C 
BRANCH   2   3
ATOM      3  O   UNL     1       4.158  -0.484  -0.295  1.00  0.00    -0.376 OA
BRANCH   3   4
ATOM      4  C   UNL     1       2.810  -0.795   0.040  1.00  0.00     0.202 C 
BRANCH   4   5
ATOM      5  C   UNL     1       2.716  -1.137   1.514  1.00  0.00     0.261 C 
BRANCH   5   6
ATOM      6  O   UNL     1       2.716   0.091   2.238  1.00  0.00    -0.463 OA
BRANCH   6   7
ATOM      7  C   UNL     1       3.170   0.060   3.506  1.00  0.00     0.312 C 
ATOM      8  O   UNL     1       3.402  -0.954   4.158  1.00  0.00    -0.252 OA
BRANCH   7   9
ATOM      9  C   UNL     1       3.652   1.437   3.908  1.00  0.00     0.124 C 
ATOM     10  C   UNL     1       4.297   3.514   2.800  1.00  0.00     0.107 C 
ATOM     11  C   UNL     1       5.334   2.442   2.665  1.00  0.00    -0.006 C 
ATOM     12  C   UNL     1       3.063   2.675   3.161  1.00  0.00     0.048 C 
ATOM     13  C   UNL     1       5.068   1.380   3.417  1.00  0.00    -0.014 C 
BRANCH  10  14
ATOM     14  N   UNL     1       4.444   4.404   1.679  1.00  0.00    -0.332 N 
ATOM     15  N   UNL     1       6.601   5.537   1.981  1.00  0.00    -0.308 N 
ATOM     16  C   UNL     1       5.457   5.225   1.285  1.00  0.00     0.319 C 
ATOM     17  H   UNL     1       7.241   6.043   1.431  1.00  0.00     0.171 HD
ATOM     18  O   UNL     1       5.344   5.727   0.156  1.00  0.00    -0.248 OA
ATOM     19  H   UNL     1       3.661   4.423   1.082  1.00  0.00     0.165 HD
BRANCH  15  20
ATOM     20  C   UNL     1       7.088   5.311   3.293  1.00  0.00     0.046 A 
ATOM     21  C   UNL     1       7.520   4.742   6.049  1.00  0.00     0.119 A 
ATOM     22  C   UNL     1       6.317   4.534   5.456  1.00  0.00     0.048 A 
ATOM     23  C   UNL     1       8.513   5.370   5.268  1.00  0.00     0.052 A 
ATOM     24  C   UNL     1       6.403   4.458   4.095  1.00  0.00     0.030 A 
ATOM     25  C   UNL     1       8.285   5.712   3.879  1.00  0.00    -0.024 A 
ATOM     26  C   UNL     1       9.412   6.323   3.103  1.00  0.00     0.047 C 
BRANCH  21  27
ATOM     27  O   UNL     1       7.782   4.251   7.298  1.00  0.00    -0.497 OA
ATOM     28  C   UNL     1       6.936   3.136   7.665  1.00  0.00     0.278 C 
ENDBRANCH  21  27
ENDBRANCH  15  20
ENDBRANCH  10  14
ENDBRANCH   7   9
ENDBRANCH   6   7
ENDBRANCH   5   6
ENDBRANCH   4   5
ENDBRANCH   3   4
ENDBRANCH   2   3
ENDBRANCH   1   2
BRANCH   1  29
ATOM     29  O   UNL     1       2.879   2.432   0.130  1.00  0.00    -0.377 OA
BRANCH  29  30
ATOM     30  C   UNL     1       2.029   3.115  -0.773  1.00  0.00     0.188 C 
BRANCH  30  31
ATOM     31  C   UNL     1       2.681   3.986  -1.827  1.00  0.00     0.188 C 
BRANCH  31  32
ATOM     32  O   UNL     1       3.408   3.121  -2.695  1.00  0.00    -0.376 OA
BRANCH  32  33
ATOM     33  C   UNL     1       4.261   3.791  -3.612  1.00  0.00     0.202 C 
BRANCH  33  34
ATOM     34  C   UNL     1       3.466   4.496  -4.712  1.00  0.00     0.261 C 
BRANCH  34  35
ATOM     35  O   UNL     1       2.552   3.540  -5.293  1.00  0.00    -0.460 OA
BRANCH  35  36
ATOM     36  C   UNL     1       1.240   3.804  -5.115  1.00  0.00     0.338 C 
ATOM     37  O   UNL     1       0.717   4.926  -5.221  1.00  0.00    -0.246 OA
BRANCH  36  38
ATOM     38  C   UNL     1       0.540   2.646  -4.498  1.00  0.00     0.060 A 
ATOM     39  C   UNL     1      -0.770   2.803  -4.008  1.00  0.00     0.016 A 
ATOM     40  C   UNL     1       1.272   1.517  -4.135  1.00  0.00     0.016 A 
ATOM     41  C   UNL     1      -1.278   1.929  -3.033  1.00  0.00     0.010 A 
ATOM     42  C   UNL     1       0.789   0.693  -3.129  1.00  0.00     0.010 A 
ATOM     43  C   UNL     1      -0.458   0.922  -2.516  1.00  0.00    -0.014 A 
BRANCH  43  44
ATOM     44  C   UNL     1      -0.657   0.253  -1.206  1.00  0.00     0.031 A 
ATOM     45  C   UNL     1      -0.460  -1.235  -1.060  1.00  0.00     0.074 A 
ATOM     46  C   UNL     1      -0.590   1.031  -0.092  1.00  0.00     0.049 A 
ATOM     47  N   UNL     1      -0.549  -1.901   0.047  1.00  0.00    -0.248 NA
ATOM     48  C   UNL     1      -0.141  -2.113  -2.184  1.00  0.00     0.031 C 
ATOM     49  C   UNL     1      -0.124   0.598   1.220  1.00  0.00     0.029 A 
ATOM     50  N   UNL     1      -0.862   2.383   0.129  1.00  0.00    -0.354 N 
ATOM     51  C   UNL     1       0.004  -3.157  -0.133  1.00  0.00     0.074 A 
ATOM     52  C   UNL     1       0.118  -3.271  -1.565  1.00  0.00     0.031 C 
ATOM     53  C   UNL     1      -0.214   1.590   2.111  1.00  0.00     0.029 A 
ATOM     54  C   UNL     1      -1.055   2.582   1.503  1.00  0.00     0.049 A 
ATOM     55  H   UNL     1      -0.911   3.079  -0.565  1.00  0.00     0.167 HD
ATOM     56  C   UNL     1       0.421  -3.883   0.958  1.00  0.00     0.037 A 
ATOM     57  C   UNL     1      -2.234   2.966   2.075  1.00  0.00     0.037 A 
ATOM     58  C   UNL     1      -0.029  -3.264   2.235  1.00  0.00     0.049 A 
ATOM     59  C   UNL     1      -2.828   1.856   2.938  1.00  0.00     0.074 A 
ATOM     60  C   UNL     1       0.601  -2.893   3.417  1.00  0.00     0.029 A 
ATOM     61  N   UNL     1      -1.331  -2.763   2.348  1.00  0.00    -0.354 N 
ATOM     62  N   UNL     1      -2.438   0.606   2.837  1.00  0.00    -0.248 NA
ATOM     63  C   UNL     1      -3.820   2.016   3.998  1.00  0.00     0.031 C 
ATOM     64  C   UNL     1      -0.276  -2.047   4.152  1.00  0.00     0.029 A 
ATOM     65  C   UNL     1      -1.488  -1.996   3.486  1.00  0.00     0.049 A 
ATOM     66  H   UNL     1      -2.048  -2.936   1.696  1.00  0.00     0.167 HD
ATOM     67  C   UNL     1      -3.052  -0.172   3.771  1.00  0.00     0.074 A 
ATOM     68  C   UNL     1      -3.933   0.753   4.461  1.00  0.00     0.031 C 
ATOM     69  C   UNL     1      -2.802  -1.510   3.893  1.00  0.00     0.037 A 
BRANCH  56  70
ATOM     70  C   UNL     1       1.423  -5.066   0.924  1.00  0.00     0.057 A 
ATOM     71  C   UNL     1       1.811  -5.733   2.112  1.00  0.00     0.134 A 
ATOM     72  C   UNL     1       2.120  -5.543  -0.209  1.00  0.00     0.134 A 
ATOM     73  F   UNL     1       1.230  -5.468   3.289  1.00  0.00    -0.206 F 
ATOM     74  C   UNL     1       2.815  -6.722   2.171  1.00  0.00     0.040 A 
ATOM     75  C   UNL     1       3.082  -6.574  -0.174  1.00  0.00     0.040 A 
ATOM     76  F   UNL     1       1.957  -5.028  -1.428  1.00  0.00    -0.206 F 
ATOM     77  C   UNL     1       3.452  -7.155   1.023  1.00  0.00     0.006 A 
ENDBRANCH  56  70
BRANCH  57  78
ATOM     78  C   UNL     1      -2.845   4.128   1.374  1.00  0.00     0.057 A 
ATOM     79  C   UNL     1      -2.110   5.321   1.528  1.00  0.00     0.134 A 
ATOM     80  C   UNL     1      -3.485   3.938   0.142  1.00  0.00     0.134 A 
ATOM     81  F   UNL     1      -1.527   5.598   2.706  1.00  0.00    -0.206 F 
ATOM     82  C   UNL     1      -1.770   6.117   0.431  1.00  0.00     0.040 A 
ATOM     83  C   UNL     1      -3.163   4.742  -0.964  1.00  0.00     0.040 A 
ATOM     84  F   UNL     1      -4.218   2.838  -0.079  1.00  0.00    -0.206 F 
ATOM     85  C   UNL     1      -2.246   5.787  -0.834  1.00  0.00     0.006 A 
ENDBRANCH  57  78
BRANCH  69  86
ATOM     86  C   UNL     1      -3.774  -2.522   4.453  1.00  0.00     0.057 A 
ATOM     87  C   UNL     1      -5.162  -2.334   4.435  1.00  0.00     0.134 A 
ATOM     88  C   UNL     1      -3.350  -3.831   4.789  1.00  0.00     0.134 A 
ATOM     89  F   UNL     1      -5.710  -1.174   4.050  1.00  0.00    -0.206 F 
ATOM     90  C   UNL     1      -6.062  -3.361   4.745  1.00  0.00     0.040 A 
ATOM     91  C   UNL     1      -4.240  -4.875   5.047  1.00  0.00     0.040 A 
ATOM     92  F   UNL     1      -2.054  -4.172   4.837  1.00  0.00    -0.206 F 
ATOM     93  C   UNL     1      -5.604  -4.641   5.031  1.00  0.00     0.006 A 
ENDBRANCH  69  86
ENDBRANCH  43  44
ENDBRANCH  36  38
ENDBRANCH  35  36
ENDBRANCH  34  35
ENDBRANCH  33  34
ENDBRANCH  32  33
ENDBRANCH  31  32
ENDBRANCH  30  31
ENDBRANCH  29  30
ENDBRANCH   1  29
TORSDOF 23
