REMARK SMILES C[NH2+][C@]1(C(=O)OCCOCCOCCOCCOC(=O)c2ccc(-c3c4nc(c(-c5c(F)cccc5F)c5ccc([nH]5)c(-c5c(F)cccc5F)c5nc(c(-c6c(F)cccc6F)c6ccc3[nH]6)C=C5)C=C4)cc2)CC[C@@H](Sc2cc(F)ccc2F)C1
REMARK SMILES IDX 12 1 11 2 10 3 9 4 8 5 7 6 6 7 4 8 5 9 3 10 75 11 87 12
REMARK SMILES IDX 76 13 77 14 2 15 1 16 78 19 79 20 80 21 85 22 81 23 84 24
REMARK SMILES IDX 86 25 82 26 83 27 13 28 14 29 15 30 16 31 17 32 18 33 19 34
REMARK SMILES IDX 20 35 21 36 22 37 74 38 23 39 73 40 24 41 25 42 26 43 67 44
REMARK SMILES IDX 27 45 72 46 66 47 68 48 28 49 71 50 65 51 64 52 29 54 55 55
REMARK SMILES IDX 38 56 54 57 39 58 42 59 53 60 69 61 40 62 41 63 52 65 70 66
REMARK SMILES IDX 43 67 30 68 31 69 36 70 32 71 33 72 35 73 37 74 34 75 56 76
REMARK SMILES IDX 57 77 62 78 58 79 59 80 61 81 63 82 60 83 44 84 45 85 50 86
REMARK SMILES IDX 46 87 47 88 49 89 51 90 48 91
REMARK H PARENT 2 17 2 18 68 53 42 64
REMARK Flexibility Score: inf
ROOT
ATOM      1  O   UNL     1       2.034   3.640  -0.056  1.00  0.00    -0.377 OA
ENDROOT
BRANCH   1   2
ATOM      2  C   UNL     1       1.118   3.223   0.940  1.00  0.00     0.188 C 
BRANCH   2   3
ATOM      3  C   UNL     1       1.593   2.057   1.837  1.00  0.00     0.188 C 
BRANCH   3   4
ATOM      4  O   UNL     1       2.721   1.260   1.499  1.00  0.00    -0.376 OA
BRANCH   4   5
ATOM      5  C   UNL     1       3.183   1.196   0.163  1.00  0.00     0.202 C 
BRANCH   5   6
ATOM      6  C   UNL     1       2.246   0.659  -0.934  1.00  0.00     0.261 C 
BRANCH   6   7
ATOM      7  O   UNL     1       0.863   1.050  -0.867  1.00  0.00    -0.459 OA
BRANCH   7   8
ATOM      8  C   UNL     1       0.040   0.239  -0.148  1.00  0.00     0.368 C 
ATOM      9  O   UNL     1       0.413  -0.780   0.429  1.00  0.00    -0.245 OA
BRANCH   8  10
ATOM     10  C   UNL     1      -1.436   0.750  -0.074  1.00  0.00     0.195 C 
ATOM     11  C   UNL     1      -1.776   1.988  -0.931  1.00  0.00     0.082 C 
ATOM     12  C   UNL     1      -2.285  -0.365  -0.734  1.00  0.00     0.096 C 
ATOM     13  C   UNL     1      -3.238   1.825  -1.308  1.00  0.00     0.022 C 
ATOM     14  C   UNL     1      -3.425   0.324  -1.483  1.00  0.00     0.059 C 
BRANCH  10  15
ATOM     15  N   UNL     1      -1.902   0.781   1.343  1.00  0.00    -0.335 N 
ATOM     16  C   UNL     1      -2.090   2.045   2.022  1.00  0.00     0.331 C 
ATOM     17  H   UNL     1      -2.801   0.299   1.366  1.00  0.00     0.347 HD
ATOM     18  H   UNL     1      -1.126   0.358   1.851  1.00  0.00     0.347 HD
ENDBRANCH  10  15
BRANCH  14  19
ATOM     19  S   UNL     1      -3.588  -0.268  -3.218  1.00  0.00    -0.119 SA
BRANCH  19  20
ATOM     20  C   UNL     1      -2.296   0.595  -4.101  1.00  0.00     0.046 A 
ATOM     21  C   UNL     1      -2.680   1.592  -5.005  1.00  0.00     0.057 A 
ATOM     22  C   UNL     1      -0.938   0.255  -4.025  1.00  0.00     0.136 A 
ATOM     23  C   UNL     1      -1.721   2.230  -5.788  1.00  0.00     0.124 A 
ATOM     24  C   UNL     1       0.021   0.909  -4.800  1.00  0.00     0.043 A 
ATOM     25  F   UNL     1      -0.514  -0.720  -3.211  1.00  0.00    -0.206 F 
ATOM     26  F   UNL     1      -2.107   3.168  -6.663  1.00  0.00    -0.207 F 
ATOM     27  C   UNL     1      -0.374   1.901  -5.692  1.00  0.00     0.042 A 
ENDBRANCH  19  20
ENDBRANCH  14  19
ENDBRANCH   8  10
ENDBRANCH   7   8
ENDBRANCH   6   7
ENDBRANCH   5   6
ENDBRANCH   4   5
ENDBRANCH   3   4
ENDBRANCH   2   3
ENDBRANCH   1   2
BRANCH   1  28
ATOM     28  C   UNL     1       2.777   4.803   0.272  1.00  0.00     0.188 C 
BRANCH  28  29
ATOM     29  C   UNL     1       3.482   4.768   1.639  1.00  0.00     0.188 C 
BRANCH  29  30
ATOM     30  O   UNL     1       2.571   4.566   2.713  1.00  0.00    -0.376 OA
BRANCH  30  31
ATOM     31  C   UNL     1       2.155   5.665   3.503  1.00  0.00     0.202 C 
BRANCH  31  32
ATOM     32  C   UNL     1       1.223   6.701   2.854  1.00  0.00     0.261 C 
BRANCH  32  33
ATOM     33  O   UNL     1       1.667   7.289   1.624  1.00  0.00    -0.460 OA
BRANCH  33  34
ATOM     34  C   UNL     1       2.841   7.953   1.623  1.00  0.00     0.338 C 
ATOM     35  O   UNL     1       3.563   8.171   2.580  1.00  0.00    -0.246 OA
BRANCH  34  36
ATOM     36  C   UNL     1       3.218   8.178   0.210  1.00  0.00     0.060 A 
ATOM     37  C   UNL     1       4.452   7.694  -0.245  1.00  0.00     0.016 A 
ATOM     38  C   UNL     1       2.342   8.816  -0.672  1.00  0.00     0.016 A 
ATOM     39  C   UNL     1       4.825   7.870  -1.577  1.00  0.00     0.010 A 
ATOM     40  C   UNL     1       2.729   9.021  -1.999  1.00  0.00     0.010 A 
ATOM     41  C   UNL     1       3.986   8.577  -2.447  1.00  0.00    -0.014 A 
BRANCH  41  42
ATOM     42  C   UNL     1       4.523   9.059  -3.741  1.00  0.00     0.031 A 
ATOM     43  C   UNL     1       5.075  10.457  -3.794  1.00  0.00     0.074 A 
ATOM     44  C   UNL     1       4.550   8.275  -4.833  1.00  0.00     0.049 A 
ATOM     45  N   UNL     1       5.556  11.125  -4.809  1.00  0.00    -0.248 NA
ATOM     46  C   UNL     1       5.081  11.201  -2.523  1.00  0.00     0.031 C 
ATOM     47  C   UNL     1       4.093   6.889  -4.895  1.00  0.00     0.029 A 
ATOM     48  N   UNL     1       4.980   8.547  -6.108  1.00  0.00    -0.354 N 
ATOM     49  C   UNL     1       5.916  12.367  -4.301  1.00  0.00     0.074 A 
ATOM     50  C   UNL     1       5.568  12.373  -2.898  1.00  0.00     0.031 C 
ATOM     51  C   UNL     1       4.254   6.435  -6.151  1.00  0.00     0.029 A 
ATOM     52  C   UNL     1       4.793   7.508  -6.985  1.00  0.00     0.049 A 
ATOM     53  H   UNL     1       5.385   9.406  -6.369  1.00  0.00     0.167 HD
ATOM     54  C   UNL     1       6.493  13.409  -4.944  1.00  0.00     0.037 A 
ATOM     55  C   UNL     1       5.010   7.445  -8.314  1.00  0.00     0.037 A 
ATOM     56  C   UNL     1       6.831  13.402  -6.342  1.00  0.00     0.049 A 
ATOM     57  C   UNL     1       5.572   8.649  -9.028  1.00  0.00     0.074 A 
ATOM     58  C   UNL     1       7.426  14.402  -7.089  1.00  0.00     0.029 A 
ATOM     59  N   UNL     1       6.591  12.344  -7.206  1.00  0.00    -0.354 N 
ATOM     60  N   UNL     1       5.930   9.812  -8.538  1.00  0.00    -0.248 NA
ATOM     61  C   UNL     1       5.763   8.529 -10.481  1.00  0.00     0.031 C 
ATOM     62  C   UNL     1       7.493  13.972  -8.418  1.00  0.00     0.029 A 
ATOM     63  C   UNL     1       7.000  12.678  -8.486  1.00  0.00     0.049 A 
ATOM     64  H   UNL     1       6.189  11.483  -6.947  1.00  0.00     0.167 HD
ATOM     65  C   UNL     1       6.418  10.547  -9.613  1.00  0.00     0.074 A 
ATOM     66  C   UNL     1       6.321   9.694 -10.779  1.00  0.00     0.031 C 
ATOM     67  C   UNL     1       6.905  11.813  -9.634  1.00  0.00     0.037 A 
BRANCH  54  68
ATOM     68  C   UNL     1       6.760  14.651  -4.146  1.00  0.00     0.057 A 
ATOM     69  C   UNL     1       7.748  14.700  -3.153  1.00  0.00     0.134 A 
ATOM     70  C   UNL     1       6.028  15.821  -4.386  1.00  0.00     0.134 A 
ATOM     71  F   UNL     1       8.471  13.608  -2.859  1.00  0.00    -0.206 F 
ATOM     72  C   UNL     1       7.981  15.860  -2.412  1.00  0.00     0.040 A 
ATOM     73  C   UNL     1       6.272  16.995  -3.672  1.00  0.00     0.040 A 
ATOM     74  F   UNL     1       5.067  15.843  -5.322  1.00  0.00    -0.206 F 
ATOM     75  C   UNL     1       7.247  17.014  -2.677  1.00  0.00     0.006 A 
ENDBRANCH  54  68
BRANCH  55  76
ATOM     76  C   UNL     1       4.679   6.208  -9.069  1.00  0.00     0.057 A 
ATOM     77  C   UNL     1       5.677   5.427  -9.663  1.00  0.00     0.134 A 
ATOM     78  C   UNL     1       3.352   5.796  -9.246  1.00  0.00     0.134 A 
ATOM     79  F   UNL     1       6.966   5.782  -9.552  1.00  0.00    -0.206 F 
ATOM     80  C   UNL     1       5.369   4.295 -10.421  1.00  0.00     0.040 A 
ATOM     81  C   UNL     1       3.030   4.652  -9.977  1.00  0.00     0.040 A 
ATOM     82  F   UNL     1       2.346   6.499  -8.704  1.00  0.00    -0.206 F 
ATOM     83  C   UNL     1       4.041   3.902 -10.575  1.00  0.00     0.006 A 
ENDBRANCH  55  76
BRANCH  67  84
ATOM     84  C   UNL     1       7.415  12.339 -10.946  1.00  0.00     0.057 A 
ATOM     85  C   UNL     1       6.556  12.660 -12.005  1.00  0.00     0.134 A 
ATOM     86  C   UNL     1       8.784  12.573 -11.133  1.00  0.00     0.134 A 
ATOM     87  F   UNL     1       5.235  12.451 -11.896  1.00  0.00    -0.206 F 
ATOM     88  C   UNL     1       7.042  13.170 -13.210  1.00  0.00     0.040 A 
ATOM     89  C   UNL     1       9.278  13.112 -12.321  1.00  0.00     0.040 A 
ATOM     90  F   UNL     1       9.662  12.301 -10.156  1.00  0.00    -0.206 F 
ATOM     91  C   UNL     1       8.407  13.405 -13.367  1.00  0.00     0.006 A 
ENDBRANCH  67  84
ENDBRANCH  41  42
ENDBRANCH  34  36
ENDBRANCH  33  34
ENDBRANCH  32  33
ENDBRANCH  31  32
ENDBRANCH  30  31
ENDBRANCH  29  30
ENDBRANCH  28  29
ENDBRANCH   1  28
TORSDOF 23
