REMARK SMILES [NH3+][C@@H](Cc1cn(-c2nc(Cl)nc(N3CCOCC3)n2)c2ccccc12)C(=O)OCCOCCOCCOCCOC(=O)c1ccc(-c2c3nc(c(-c4c(F)cccc4F)c4ccc([nH]4)c(-c4c(F)cccc4F)c4nc(c(-c5c(F)cccc5F)c5ccc2[nH]5)C=C4)C=C3)cc1
REMARK SMILES IDX 33 1 32 2 31 3 30 4 29 5 28 6 26 7 27 8 2 9 1 10 3 14 4 15
REMARK SMILES IDX 5 16 25 17 6 18 20 19 24 20 21 21 23 22 22 23 7 24 8 25
REMARK SMILES IDX 19 26 9 27 12 28 10 29 11 30 13 31 14 32 18 33 15 34 17 35
REMARK SMILES IDX 16 36 34 37 35 38 36 39 37 40 38 41 39 42 40 43 41 44 42 45
REMARK SMILES IDX 43 46 44 47 96 48 45 49 95 50 46 51 47 52 48 53 89 54 49 55
REMARK SMILES IDX 94 56 88 57 90 58 50 59 93 60 87 61 86 62 51 64 77 65 60 66
REMARK SMILES IDX 76 67 61 68 64 69 75 70 91 71 62 72 63 73 74 75 92 76 65 77
REMARK SMILES IDX 52 78 53 79 58 80 54 81 55 82 57 83 59 84 56 85 78 86 79 87
REMARK SMILES IDX 84 88 80 89 81 90 83 91 85 92 82 93 66 94 67 95 72 96 68 97
REMARK SMILES IDX 69 98 71 99 73 100 70 101
REMARK H PARENT 1 11 1 12 1 13 90 63 64 74
REMARK Flexibility Score: inf
ROOT
ATOM      1  C   UNL     1      -0.931  -0.113  -1.802  1.00  0.00     0.188 C 
ENDROOT
BRANCH   1   2
ATOM      2  C   UNL     1      -1.450  -1.536  -2.028  1.00  0.00     0.188 C 
BRANCH   2   3
ATOM      3  O   UNL     1      -2.797  -1.882  -1.727  1.00  0.00    -0.376 OA
BRANCH   3   4
ATOM      4  C   UNL     1      -3.365  -1.729  -0.430  1.00  0.00     0.202 C 
BRANCH   4   5
ATOM      5  C   UNL     1      -2.618  -1.956   0.893  1.00  0.00     0.261 C 
BRANCH   5   6
ATOM      6  O   UNL     1      -1.210  -1.748   0.853  1.00  0.00    -0.459 OA
BRANCH   6   7
ATOM      7  C   UNL     1      -0.427  -2.858   0.917  1.00  0.00     0.365 C 
ATOM      8  O   UNL     1      -0.838  -4.004   1.064  1.00  0.00    -0.245 OA
BRANCH   7   9
ATOM      9  C   UNL     1       1.063  -2.500   0.806  1.00  0.00     0.296 C 
BRANCH   9  10
ATOM     10  N   UNL     1       1.303  -1.319  -0.045  1.00  0.00    -0.346 N 
ATOM     11  H   UNL     1       2.303  -1.126  -0.085  1.00  0.00     0.345 HD
ATOM     12  H   UNL     1       0.816  -0.513   0.347  1.00  0.00     0.345 HD
ATOM     13  H   UNL     1       0.954  -1.503  -0.986  1.00  0.00     0.345 HD
ENDBRANCH   9  10
BRANCH   9  14
ATOM     14  C   UNL     1       1.708  -2.334   2.181  1.00  0.00     0.115 C 
BRANCH  14  15
ATOM     15  C   UNL     1       1.056  -1.344   3.103  1.00  0.00    -0.015 A 
ATOM     16  C   UNL     1       0.345  -1.719   4.220  1.00  0.00     0.099 A 
ATOM     17  C   UNL     1       1.053   0.092   3.095  1.00  0.00     0.004 A 
ATOM     18  N   UNL     1      -0.086  -0.602   4.903  1.00  0.00    -0.285 N 
ATOM     19  C   UNL     1       0.286   0.529   4.191  1.00  0.00     0.056 A 
ATOM     20  C   UNL     1       1.651   1.075   2.274  1.00  0.00     0.010 A 
ATOM     21  C   UNL     1       0.106   1.899   4.470  1.00  0.00     0.027 A 
ATOM     22  C   UNL     1       1.467   2.436   2.546  1.00  0.00     0.001 A 
ATOM     23  C   UNL     1       0.705   2.840   3.632  1.00  0.00     0.002 A 
BRANCH  18  24
ATOM     24  C   UNL     1      -0.674  -0.674   6.198  1.00  0.00     0.240 A 
ATOM     25  N   UNL     1      -1.413   0.317   6.673  1.00  0.00    -0.181 NA
ATOM     26  N   UNL     1      -0.329  -1.752   6.899  1.00  0.00    -0.176 NA
ATOM     27  C   UNL     1      -1.841   0.082   7.909  1.00  0.00     0.228 A 
ATOM     28  C   UNL     1      -0.727  -1.812   8.157  1.00  0.00     0.231 A 
ATOM     29  Cl  UNL     1      -2.798   1.315   8.606  1.00  0.00    -0.041 Cl
ATOM     30  N   UNL     1      -1.545  -0.938   8.708  1.00  0.00    -0.182 NA
BRANCH  28  31
ATOM     31  N   UNL     1      -0.134  -2.789   8.893  1.00  0.00    -0.336 N 
ATOM     32  C   UNL     1       1.236  -2.542   9.335  1.00  0.00     0.148 C 
ATOM     33  C   UNL     1      -0.898  -3.723   9.692  1.00  0.00     0.148 C 
ATOM     34  C   UNL     1       1.966  -3.887   9.452  1.00  0.00     0.181 C 
ATOM     35  C   UNL     1      -0.089  -5.034   9.750  1.00  0.00     0.181 C 
ATOM     36  O   UNL     1       1.235  -4.814  10.277  1.00  0.00    -0.378 OA
ENDBRANCH  28  31
ENDBRANCH  18  24
ENDBRANCH  14  15
ENDBRANCH   9  14
ENDBRANCH   7   9
ENDBRANCH   6   7
ENDBRANCH   5   6
ENDBRANCH   4   5
ENDBRANCH   3   4
ENDBRANCH   2   3
ENDBRANCH   1   2
BRANCH   1  37
ATOM     37  O   UNL     1      -1.467   0.494  -0.650  1.00  0.00    -0.377 OA
BRANCH  37  38
ATOM     38  C   UNL     1      -2.520   1.423  -0.863  1.00  0.00     0.188 C 
BRANCH  38  39
ATOM     39  C   UNL     1      -3.386   1.323  -2.141  1.00  0.00     0.188 C 
BRANCH  39  40
ATOM     40  O   UNL     1      -2.665   1.463  -3.358  1.00  0.00    -0.376 OA
BRANCH  40  41
ATOM     41  C   UNL     1      -2.575   2.752  -3.952  1.00  0.00     0.202 C 
BRANCH  41  42
ATOM     42  C   UNL     1      -1.902   3.865  -3.133  1.00  0.00     0.261 C 
BRANCH  42  43
ATOM     43  O   UNL     1      -2.600   4.179  -1.916  1.00  0.00    -0.460 OA
BRANCH  43  44
ATOM     44  C   UNL     1      -3.768   4.871  -2.003  1.00  0.00     0.338 C 
ATOM     45  O   UNL     1      -4.146   5.542  -2.922  1.00  0.00    -0.246 OA
BRANCH  44  46
ATOM     46  C   UNL     1      -4.629   4.290  -0.932  1.00  0.00     0.060 A 
ATOM     47  C   UNL     1      -4.135   3.998   0.344  1.00  0.00     0.016 A 
ATOM     48  C   UNL     1      -5.846   3.743  -1.365  1.00  0.00     0.016 A 
ATOM     49  C   UNL     1      -4.810   3.069   1.138  1.00  0.00     0.010 A 
ATOM     50  C   UNL     1      -6.495   2.788  -0.585  1.00  0.00     0.010 A 
ATOM     51  C   UNL     1      -5.961   2.420   0.652  1.00  0.00    -0.014 A 
BRANCH  51  52
ATOM     52  C   UNL     1      -6.728   1.574   1.579  1.00  0.00     0.031 A 
ATOM     53  C   UNL     1      -7.300   2.356   2.712  1.00  0.00     0.074 A 
ATOM     54  C   UNL     1      -7.112   0.291   1.399  1.00  0.00     0.049 A 
ATOM     55  N   UNL     1      -7.158   2.162   3.982  1.00  0.00    -0.248 NA
ATOM     56  C   UNL     1      -8.043   3.580   2.366  1.00  0.00     0.031 C 
ATOM     57  C   UNL     1      -6.928  -0.547   0.214  1.00  0.00     0.029 A 
ATOM     58  N   UNL     1      -7.862  -0.510   2.225  1.00  0.00    -0.354 N 
ATOM     59  C   UNL     1      -7.929   3.145   4.598  1.00  0.00     0.074 A 
ATOM     60  C   UNL     1      -8.327   4.069   3.570  1.00  0.00     0.031 C 
ATOM     61  C   UNL     1      -7.704  -1.651   0.320  1.00  0.00     0.029 A 
ATOM     62  C   UNL     1      -8.380  -1.646   1.608  1.00  0.00     0.049 A 
ATOM     63  H   UNL     1      -8.019  -0.300   3.174  1.00  0.00     0.167 HD
ATOM     64  C   UNL     1      -8.374   3.020   5.875  1.00  0.00     0.037 A 
ATOM     65  C   UNL     1      -9.343  -2.485   2.078  1.00  0.00     0.037 A 
ATOM     66  C   UNL     1      -7.595   2.075   6.625  1.00  0.00     0.049 A 
ATOM     67  C   UNL     1      -9.481  -2.268   3.537  1.00  0.00     0.074 A 
ATOM     68  C   UNL     1      -6.252   1.956   6.930  1.00  0.00     0.029 A 
ATOM     69  N   UNL     1      -8.151   0.856   6.925  1.00  0.00    -0.354 N 
ATOM     70  N   UNL     1      -8.620  -2.669   4.425  1.00  0.00    -0.248 NA
ATOM     71  C   UNL     1     -10.423  -1.256   3.990  1.00  0.00     0.031 C 
ATOM     72  C   UNL     1      -5.993   0.556   6.907  1.00  0.00     0.029 A 
ATOM     73  C   UNL     1      -7.199  -0.089   6.650  1.00  0.00     0.049 A 
ATOM     74  H   UNL     1      -9.059   0.694   7.271  1.00  0.00     0.167 HD
ATOM     75  C   UNL     1      -8.614  -1.662   5.376  1.00  0.00     0.074 A 
ATOM     76  C   UNL     1      -9.818  -0.880   5.118  1.00  0.00     0.031 C 
ATOM     77  C   UNL     1      -7.489  -1.385   6.093  1.00  0.00     0.037 A 
BRANCH  64  78
ATOM     78  C   UNL     1      -9.733   3.495   6.322  1.00  0.00     0.057 A 
ATOM     79  C   UNL     1     -10.830   3.667   5.451  1.00  0.00     0.134 A 
ATOM     80  C   UNL     1     -10.049   3.489   7.691  1.00  0.00     0.134 A 
ATOM     81  F   UNL     1     -10.707   3.611   4.119  1.00  0.00    -0.206 F 
ATOM     82  C   UNL     1     -12.143   3.804   5.905  1.00  0.00     0.040 A 
ATOM     83  C   UNL     1     -11.367   3.569   8.153  1.00  0.00     0.040 A 
ATOM     84  F   UNL     1      -9.094   3.316   8.617  1.00  0.00    -0.206 F 
ATOM     85  C   UNL     1     -12.420   3.718   7.259  1.00  0.00     0.006 A 
ENDBRANCH  64  78
BRANCH  65  86
ATOM     86  C   UNL     1     -10.313  -3.332   1.340  1.00  0.00     0.057 A 
ATOM     87  C   UNL     1     -10.784  -2.966   0.068  1.00  0.00     0.134 A 
ATOM     88  C   UNL     1     -11.002  -4.385   1.965  1.00  0.00     0.134 A 
ATOM     89  F   UNL     1     -10.267  -1.917  -0.585  1.00  0.00    -0.206 F 
ATOM     90  C   UNL     1     -11.867  -3.604  -0.547  1.00  0.00     0.040 A 
ATOM     91  C   UNL     1     -12.097  -5.026   1.365  1.00  0.00     0.040 A 
ATOM     92  F   UNL     1     -10.669  -4.783   3.202  1.00  0.00    -0.206 F 
ATOM     93  C   UNL     1     -12.537  -4.630   0.107  1.00  0.00     0.006 A 
ENDBRANCH  65  86
BRANCH  77  94
ATOM     94  C   UNL     1      -6.363  -2.378   6.054  1.00  0.00     0.057 A 
ATOM     95  C   UNL     1      -5.877  -2.888   7.263  1.00  0.00     0.134 A 
ATOM     96  C   UNL     1      -5.665  -2.728   4.888  1.00  0.00     0.134 A 
ATOM     97  F   UNL     1      -6.460  -2.550   8.424  1.00  0.00    -0.206 F 
ATOM     98  C   UNL     1      -4.758  -3.721   7.314  1.00  0.00     0.040 A 
ATOM     99  C   UNL     1      -4.566  -3.591   4.922  1.00  0.00     0.040 A 
ATOM    100  F   UNL     1      -5.991  -2.205   3.698  1.00  0.00    -0.206 F 
ATOM    101  C   UNL     1      -4.105  -4.085   6.139  1.00  0.00     0.006 A 
ENDBRANCH  77  94
ENDBRANCH  51  52
ENDBRANCH  44  46
ENDBRANCH  43  44
ENDBRANCH  42  43
ENDBRANCH  41  42
ENDBRANCH  40  41
ENDBRANCH  39  40
ENDBRANCH  38  39
ENDBRANCH  37  38
ENDBRANCH   1  37
TORSDOF 25
