REMARK SMILES Cc1nc2sc3c(c2c2nc(CCC(=O)OCCOCCOCCOCCOC(=O)c4ccc(-c5c6nc(c(-c7c(F)cccc7F)c7ccc([nH]7)c(-c7c(F)cccc7F)c7nc(c(-c8c(F)cccc8F)c8ccc5[nH]8)C=C7)C=C6)cc4)nn12)[C@@H](C)CCC3
REMARK SMILES IDX 22 1 21 2 20 3 19 4 18 5 17 6 16 7 14 8 15 9 13 10 12 11
REMARK SMILES IDX 11 12 1 13 2 14 3 15 86 16 4 17 9 18 85 19 5 20 8 21 10 22
REMARK SMILES IDX 6 23 7 24 91 25 87 26 90 27 88 28 89 29 23 30 24 31 25 32
REMARK SMILES IDX 26 33 27 34 28 35 29 36 30 37 31 38 32 39 84 40 33 41 83 42
REMARK SMILES IDX 34 43 35 44 36 45 77 46 37 47 82 48 76 49 78 50 38 51 81 52
REMARK SMILES IDX 75 53 74 54 39 56 65 57 48 58 64 59 49 60 52 61 63 62 79 63
REMARK SMILES IDX 50 64 51 65 62 67 80 68 53 69 40 70 41 71 46 72 42 73 43 74
REMARK SMILES IDX 45 75 47 76 44 77 66 78 67 79 72 80 68 81 69 82 71 83 73 84
REMARK SMILES IDX 70 85 54 86 55 87 60 88 56 89 57 90 59 91 61 92 58 93
REMARK H PARENT 78 55 52 66
REMARK Flexibility Score: inf
ROOT
ATOM      1  O   UNL     1       1.900   6.497   2.742  1.00  0.00    -0.377 OA
ENDROOT
BRANCH   1   2
ATOM      2  C   UNL     1       3.226   6.981   2.720  1.00  0.00     0.188 C 
BRANCH   2   3
ATOM      3  C   UNL     1       3.813   7.988   1.719  1.00  0.00     0.188 C 
BRANCH   3   4
ATOM      4  O   UNL     1       2.948   8.870   1.043  1.00  0.00    -0.376 OA
BRANCH   4   5
ATOM      5  C   UNL     1       2.721   8.715  -0.358  1.00  0.00     0.202 C 
BRANCH   5   6
ATOM      6  C   UNL     1       3.651   7.843  -1.213  1.00  0.00     0.261 C 
BRANCH   6   7
ATOM      7  O   UNL     1       3.679   6.456  -0.786  1.00  0.00    -0.463 OA
BRANCH   7   8
ATOM      8  C   UNL     1       4.904   5.880  -0.796  1.00  0.00     0.306 C 
ATOM      9  O   UNL     1       5.924   6.459  -1.166  1.00  0.00    -0.252 OA
BRANCH   8  10
ATOM     10  C   UNL     1       4.975   4.441  -0.340  1.00  0.00     0.131 C 
BRANCH  10  11
ATOM     11  C   UNL     1       3.993   3.868   0.668  1.00  0.00     0.091 C 
BRANCH  11  12
ATOM     12  C   UNL     1       2.660   3.458   0.158  1.00  0.00     0.152 A 
ATOM     13  C   UNL     1       0.654  -0.153  -0.179  1.00  0.00     0.090 C 
ATOM     14  C   UNL     1       0.121   1.209  -0.501  1.00  0.00     0.131 A 
ATOM     15  N   UNL     1      -1.102   1.395  -0.927  1.00  0.00    -0.222 NA
ATOM     16  N   UNL     1       1.007   2.268  -0.278  1.00  0.00    -0.199 N 
ATOM     17  C   UNL     1      -1.454   2.698  -1.191  1.00  0.00     0.129 A 
ATOM     18  C   UNL     1       0.668   3.576  -0.497  1.00  0.00     0.168 A 
ATOM     19  N   UNL     1       2.287   2.167   0.137  1.00  0.00    -0.150 NA
ATOM     20  S   UNL     1      -2.992   3.085  -1.823  1.00  0.00    -0.120 S 
ATOM     21  C   UNL     1      -0.688   3.847  -1.032  1.00  0.00     0.060 A 
ATOM     22  N   UNL     1       1.680   4.353  -0.197  1.00  0.00    -0.211 NA
ATOM     23  C   UNL     1      -2.614   4.744  -1.907  1.00  0.00     0.011 A 
ATOM     24  C   UNL     1      -1.336   5.044  -1.461  1.00  0.00    -0.018 A 
ATOM     25  C   UNL     1      -3.588   5.736  -2.463  1.00  0.00     0.047 C 
ATOM     26  C   UNL     1      -0.812   6.462  -1.476  1.00  0.00     0.018 C 
ATOM     27  C   UNL     1      -3.243   7.143  -1.966  1.00  0.00     0.006 C 
ATOM     28  C   UNL     1       0.548   6.569  -2.155  1.00  0.00     0.013 C 
ATOM     29  C   UNL     1      -1.764   7.447  -2.198  1.00  0.00     0.008 C 
ENDBRANCH  11  12
ENDBRANCH  10  11
ENDBRANCH   8  10
ENDBRANCH   7   8
ENDBRANCH   6   7
ENDBRANCH   5   6
ENDBRANCH   4   5
ENDBRANCH   3   4
ENDBRANCH   2   3
ENDBRANCH   1   2
BRANCH   1  30
ATOM     30  C   UNL     1       0.906   7.052   1.917  1.00  0.00     0.188 C 
BRANCH  30  31
ATOM     31  C   UNL     1       0.272   8.414   2.265  1.00  0.00     0.188 C 
BRANCH  31  32
ATOM     32  O   UNL     1       0.753   9.282   3.271  1.00  0.00    -0.376 OA
BRANCH  32  33
ATOM     33  C   UNL     1       1.300   8.861   4.500  1.00  0.00     0.202 C 
BRANCH  33  34
ATOM     34  C   UNL     1       0.831   7.627   5.271  1.00  0.00     0.261 C 
BRANCH  34  35
ATOM     35  O   UNL     1      -0.138   6.812   4.646  1.00  0.00    -0.460 OA
BRANCH  35  36
ATOM     36  C   UNL     1      -1.378   7.328   4.675  1.00  0.00     0.338 C 
ATOM     37  O   UNL     1      -1.700   8.479   4.901  1.00  0.00    -0.246 OA
BRANCH  36  38
ATOM     38  C   UNL     1      -2.329   6.216   4.587  1.00  0.00     0.060 A 
ATOM     39  C   UNL     1      -3.671   6.576   4.504  1.00  0.00     0.016 A 
ATOM     40  C   UNL     1      -1.922   4.907   4.903  1.00  0.00     0.016 A 
ATOM     41  C   UNL     1      -4.604   5.675   4.955  1.00  0.00     0.010 A 
ATOM     42  C   UNL     1      -2.860   4.006   5.354  1.00  0.00     0.010 A 
ATOM     43  C   UNL     1      -4.179   4.433   5.452  1.00  0.00    -0.014 A 
BRANCH  43  44
ATOM     44  C   UNL     1      -5.215   3.547   5.938  1.00  0.00     0.031 A 
ATOM     45  C   UNL     1      -6.073   3.083   4.834  1.00  0.00     0.074 A 
ATOM     46  C   UNL     1      -5.366   3.188   7.227  1.00  0.00     0.049 A 
ATOM     47  N   UNL     1      -7.272   3.480   4.574  1.00  0.00    -0.248 NA
ATOM     48  C   UNL     1      -5.470   2.250   3.780  1.00  0.00     0.031 C 
ATOM     49  C   UNL     1      -4.400   3.367   8.313  1.00  0.00     0.029 A 
ATOM     50  N   UNL     1      -6.385   2.501   7.827  1.00  0.00    -0.354 N 
ATOM     51  C   UNL     1      -7.673   2.711   3.490  1.00  0.00     0.074 A 
ATOM     52  C   UNL     1      -6.479   2.157   2.912  1.00  0.00     0.031 C 
ATOM     53  C   UNL     1      -4.767   2.600   9.366  1.00  0.00     0.029 A 
ATOM     54  C   UNL     1      -6.065   2.006   9.088  1.00  0.00     0.049 A 
ATOM     55  H   UNL     1      -7.264   2.369   7.406  1.00  0.00     0.167 HD
ATOM     56  C   UNL     1      -8.963   2.290   3.431  1.00  0.00     0.037 A 
ATOM     57  C   UNL     1      -6.800   1.134   9.821  1.00  0.00     0.037 A 
ATOM     58  C   UNL     1      -9.806   3.082   4.289  1.00  0.00     0.049 A 
ATOM     59  C   UNL     1      -8.203   1.218   9.356  1.00  0.00     0.074 A 
ATOM     60  C   UNL     1     -10.405   4.321   4.262  1.00  0.00     0.029 A 
ATOM     61  N   UNL     1      -9.794   2.665   5.590  1.00  0.00    -0.354 N 
ATOM     62  N   UNL     1      -8.965   2.260   9.541  1.00  0.00    -0.248 NA
ATOM     63  C   UNL     1      -8.693   0.241   8.387  1.00  0.00     0.031 C 
ATOM     64  C   UNL     1     -10.719   4.650   5.615  1.00  0.00     0.029 A 
ATOM     65  C   UNL     1     -10.333   3.594   6.434  1.00  0.00     0.049 A 
ATOM     66  H   UNL     1      -9.439   1.796   5.886  1.00  0.00     0.167 HD
ATOM     67  C   UNL     1      -9.788   2.272   8.436  1.00  0.00     0.074 A 
ATOM     68  C   UNL     1      -9.705   0.935   7.863  1.00  0.00     0.031 C 
ATOM     69  C   UNL     1     -10.170   3.444   7.860  1.00  0.00     0.037 A 
BRANCH  56  70
ATOM     70  C   UNL     1      -9.352   0.869   3.084  1.00  0.00     0.057 A 
ATOM     71  C   UNL     1     -10.716   0.557   2.955  1.00  0.00     0.134 A 
ATOM     72  C   UNL     1      -8.492  -0.246   3.190  1.00  0.00     0.134 A 
ATOM     73  F   UNL     1     -11.640   1.528   2.890  1.00  0.00    -0.206 F 
ATOM     74  C   UNL     1     -11.190  -0.761   2.974  1.00  0.00     0.040 A 
ATOM     75  C   UNL     1      -8.949  -1.565   3.156  1.00  0.00     0.040 A 
ATOM     76  F   UNL     1      -7.184  -0.130   3.444  1.00  0.00    -0.206 F 
ATOM     77  C   UNL     1     -10.305  -1.827   3.073  1.00  0.00     0.006 A 
ENDBRANCH  56  70
BRANCH  57  78
ATOM     78  C   UNL     1      -6.351   0.034  10.709  1.00  0.00     0.057 A 
ATOM     79  C   UNL     1      -7.264  -0.622  11.552  1.00  0.00     0.134 A 
ATOM     80  C   UNL     1      -5.116  -0.608  10.523  1.00  0.00     0.134 A 
ATOM     81  F   UNL     1      -8.480  -0.102  11.776  1.00  0.00    -0.206 F 
ATOM     82  C   UNL     1      -6.989  -1.870  12.125  1.00  0.00     0.040 A 
ATOM     83  C   UNL     1      -4.826  -1.851  11.096  1.00  0.00     0.040 A 
ATOM     84  F   UNL     1      -4.186  -0.099   9.703  1.00  0.00    -0.206 F 
ATOM     85  C   UNL     1      -5.773  -2.499  11.881  1.00  0.00     0.006 A 
ENDBRANCH  57  78
BRANCH  69  86
ATOM     86  C   UNL     1     -10.268   4.663   8.712  1.00  0.00     0.057 A 
ATOM     87  C   UNL     1      -9.177   5.353   9.251  1.00  0.00     0.134 A 
ATOM     88  C   UNL     1     -11.537   5.231   8.876  1.00  0.00     0.134 A 
ATOM     89  F   UNL     1      -7.924   4.902   9.095  1.00  0.00    -0.206 F 
ATOM     90  C   UNL     1      -9.351   6.567   9.925  1.00  0.00     0.040 A 
ATOM     91  C   UNL     1     -11.720   6.453   9.518  1.00  0.00     0.040 A 
ATOM     92  F   UNL     1     -12.620   4.624   8.362  1.00  0.00    -0.206 F 
ATOM     93  C   UNL     1     -10.623   7.127  10.045  1.00  0.00     0.006 A 
ENDBRANCH  69  86
ENDBRANCH  43  44
ENDBRANCH  36  38
ENDBRANCH  35  36
ENDBRANCH  34  35
ENDBRANCH  33  34
ENDBRANCH  32  33
ENDBRANCH  31  32
ENDBRANCH  30  31
ENDBRANCH   1  30
TORSDOF 22
