REMARK SMILES N#C/C(=C\c1ccc(-c2cc(C(=O)OCCOCCOCCOCCOC(=O)c3ccc(-c4c5nc(c(-c6c(F)cccc6F)c6ccc([nH]6)c(-c6c(F)cccc6F)c6nc(c(-c7c(F)cccc7F)c7ccc4[nH]7)C=C6)C=C5)cc3)ccc2Cl)o1)C(=O)N1CCOCC1
REMARK SMILES IDX 19 1 18 2 17 3 16 4 15 5 14 6 12 7 13 8 11 9 9 10 10 11
REMARK SMILES IDX 85 12 84 13 86 14 83 15 8 16 5 17 6 18 87 19 7 20 4 21 3 22
REMARK SMILES IDX 2 23 1 24 88 25 89 26 90 27 91 28 95 29 92 30 94 31 93 32
REMARK SMILES IDX 20 33 21 34 22 35 23 36 24 37 25 38 26 39 27 40 28 41 29 42
REMARK SMILES IDX 30 43 82 44 31 45 81 46 32 47 33 48 34 49 75 50 35 51 80 52
REMARK SMILES IDX 74 53 76 54 36 55 79 56 73 57 72 58 37 60 63 61 46 62 62 63
REMARK SMILES IDX 47 64 50 65 61 66 77 67 48 68 49 69 60 71 78 72 51 73 38 74
REMARK SMILES IDX 39 75 44 76 40 77 41 78 43 79 45 80 42 81 64 82 65 83 70 84
REMARK SMILES IDX 66 85 67 86 69 87 71 88 68 89 52 90 53 91 58 92 54 93 55 94
REMARK SMILES IDX 57 95 59 96 56 97
REMARK H PARENT 76 59 50 70
REMARK Flexibility Score: inf
ROOT
ATOM      1  C   UNL     1       4.690   2.589   8.457  1.00  0.00     0.188 C 
ENDROOT
BRANCH   1   2
ATOM      2  C   UNL     1       3.780   3.613   7.747  1.00  0.00     0.188 C 
BRANCH   2   3
ATOM      3  O   UNL     1       3.389   4.685   8.587  1.00  0.00    -0.376 OA
BRANCH   3   4
ATOM      4  C   UNL     1       2.070   4.727   9.098  1.00  0.00     0.202 C 
BRANCH   4   5
ATOM      5  C   UNL     1       1.499   3.529   9.873  1.00  0.00     0.261 C 
BRANCH   5   6
ATOM      6  O   UNL     1       1.826   2.227   9.373  1.00  0.00    -0.460 OA
BRANCH   6   7
ATOM      7  C   UNL     1       1.182   1.794   8.266  1.00  0.00     0.338 C 
ATOM      8  O   UNL     1       0.313   2.382   7.651  1.00  0.00    -0.246 OA
BRANCH   7   9
ATOM      9  C   UNL     1       1.869   0.558   7.800  1.00  0.00     0.060 A 
ATOM     10  C   UNL     1       2.798  -0.746   5.953  1.00  0.00     0.037 A 
ATOM     11  C   UNL     1       2.103   0.382   6.424  1.00  0.00     0.029 A 
ATOM     12  C   UNL     1       3.257  -1.690   6.894  1.00  0.00     0.052 A 
ATOM     13  C   UNL     1       3.035  -1.507   8.265  1.00  0.00     0.022 A 
ATOM     14  Cl  UNL     1       4.090  -3.133   6.419  1.00  0.00    -0.084 Cl
ATOM     15  C   UNL     1       2.340  -0.387   8.720  1.00  0.00     0.017 A 
BRANCH  10  16
ATOM     16  C   UNL     1       2.869  -1.005   4.518  1.00  0.00     0.136 A 
ATOM     17  C   UNL     1       3.625  -0.727   2.426  1.00  0.00     0.129 A 
ATOM     18  C   UNL     1       2.685  -1.758   2.433  1.00  0.00     0.051 A 
ATOM     19  O   UNL     1       3.749  -0.292   3.746  1.00  0.00    -0.457 OA
ATOM     20  C   UNL     1       2.183  -1.904   3.740  1.00  0.00     0.051 A 
BRANCH  17  21
ATOM     21  C   UNL     1       4.373  -0.182   1.315  1.00  0.00     0.072 C 
ATOM     22  C   UNL     1       3.850   0.016   0.070  1.00  0.00     0.121 C 
BRANCH  22  23
ATOM     23  C   UNL     1       2.330   0.016   0.070  1.00  0.00     0.105 C 
ATOM     24  N   UNL     1       1.069   0.016   0.070  1.00  0.00    -0.192 NA
ENDBRANCH  22  23
BRANCH  22  25
ATOM     25  C   UNL     1       4.611   0.685  -1.013  1.00  0.00     0.264 C 
ATOM     26  O   UNL     1       4.013   1.455  -1.763  1.00  0.00    -0.268 OA
ATOM     27  N   UNL     1       5.980   0.489  -1.109  1.00  0.00    -0.333 N 
ATOM     28  C   UNL     1       6.790  -0.628  -0.597  1.00  0.00     0.148 C 
ATOM     29  C   UNL     1       6.787   1.500  -1.797  1.00  0.00     0.148 C 
ATOM     30  C   UNL     1       7.936  -0.100   0.282  1.00  0.00     0.181 C 
ATOM     31  C   UNL     1       7.886   1.989  -0.845  1.00  0.00     0.181 C 
ATOM     32  O   UNL     1       8.710   0.892  -0.411  1.00  0.00    -0.378 OA
ENDBRANCH  22  25
ENDBRANCH  17  21
ENDBRANCH  10  16
ENDBRANCH   7   9
ENDBRANCH   6   7
ENDBRANCH   5   6
ENDBRANCH   4   5
ENDBRANCH   3   4
ENDBRANCH   2   3
ENDBRANCH   1   2
BRANCH   1  33
ATOM     33  O   UNL     1       4.778   2.663   9.872  1.00  0.00    -0.377 OA
BRANCH  33  34
ATOM     34  C   UNL     1       5.213   3.874  10.490  1.00  0.00     0.188 C 
BRANCH  34  35
ATOM     35  C   UNL     1       5.872   5.033   9.698  1.00  0.00     0.188 C 
BRANCH  35  36
ATOM     36  O   UNL     1       6.319   4.692   8.398  1.00  0.00    -0.376 OA
BRANCH  36  37
ATOM     37  C   UNL     1       7.712   4.580   8.176  1.00  0.00     0.202 C 
BRANCH  37  38
ATOM     38  C   UNL     1       8.439   3.457   8.927  1.00  0.00     0.261 C 
BRANCH  38  39
ATOM     39  O   UNL     1       8.263   3.441  10.352  1.00  0.00    -0.460 OA
BRANCH  39  40
ATOM     40  C   UNL     1       8.783   4.473  11.047  1.00  0.00     0.338 C 
ATOM     41  O   UNL     1       9.403   5.427  10.603  1.00  0.00    -0.246 OA
BRANCH  40  42
ATOM     42  C   UNL     1       8.316   4.353  12.441  1.00  0.00     0.060 A 
ATOM     43  C   UNL     1       7.529   5.376  12.988  1.00  0.00     0.016 A 
ATOM     44  C   UNL     1       8.644   3.227  13.200  1.00  0.00     0.016 A 
ATOM     45  C   UNL     1       7.097   5.290  14.311  1.00  0.00     0.010 A 
ATOM     46  C   UNL     1       8.227   3.152  14.530  1.00  0.00     0.010 A 
ATOM     47  C   UNL     1       7.481   4.198  15.101  1.00  0.00    -0.014 A 
BRANCH  47  48
ATOM     48  C   UNL     1       7.265   4.241  16.567  1.00  0.00     0.031 A 
ATOM     49  C   UNL     1       8.415   4.639  17.449  1.00  0.00     0.074 A 
ATOM     50  C   UNL     1       6.072   3.944  17.107  1.00  0.00     0.049 A 
ATOM     51  N   UNL     1       8.479   4.710  18.753  1.00  0.00    -0.248 NA
ATOM     52  C   UNL     1       9.666   4.997  16.762  1.00  0.00     0.031 C 
ATOM     53  C   UNL     1       4.875   3.571  16.357  1.00  0.00     0.029 A 
ATOM     54  N   UNL     1       5.679   3.897  18.421  1.00  0.00    -0.354 N 
ATOM     55  C   UNL     1       9.778   5.107  19.044  1.00  0.00     0.074 A 
ATOM     56  C   UNL     1      10.476   5.229  17.782  1.00  0.00     0.031 C 
ATOM     57  C   UNL     1       3.882   3.316  17.227  1.00  0.00     0.029 A 
ATOM     58  C   UNL     1       4.384   3.475  18.591  1.00  0.00     0.049 A 
ATOM     59  H   UNL     1       6.269   4.143  19.170  1.00  0.00     0.167 HD
ATOM     60  C   UNL     1      10.338   5.352  20.252  1.00  0.00     0.037 A 
ATOM     61  C   UNL     1       3.694   3.221  19.720  1.00  0.00     0.037 A 
ATOM     62  C   UNL     1       9.640   5.223  21.505  1.00  0.00     0.049 A 
ATOM     63  C   UNL     1       4.350   3.442  21.057  1.00  0.00     0.074 A 
ATOM     64  C   UNL     1      10.104   5.487  22.781  1.00  0.00     0.029 A 
ATOM     65  N   UNL     1       8.335   4.771  21.639  1.00  0.00    -0.354 N 
ATOM     66  N   UNL     1       5.564   3.862  21.324  1.00  0.00    -0.248 NA
ATOM     67  C   UNL     1       3.538   3.161  22.249  1.00  0.00     0.031 C 
ATOM     68  C   UNL     1       9.104   5.128  23.692  1.00  0.00     0.029 A 
ATOM     69  C   UNL     1       7.990   4.709  22.980  1.00  0.00     0.049 A 
ATOM     70  H   UNL     1       7.740   4.531  20.892  1.00  0.00     0.167 HD
ATOM     71  C   UNL     1       5.654   3.918  22.710  1.00  0.00     0.074 A 
ATOM     72  C   UNL     1       4.366   3.502  23.227  1.00  0.00     0.031 C 
ATOM     73  C   UNL     1       6.707   4.284  23.484  1.00  0.00     0.037 A 
BRANCH  60  74
ATOM     74  C   UNL     1      11.791   5.735  20.271  1.00  0.00     0.057 A 
ATOM     75  C   UNL     1      12.252   6.956  19.760  1.00  0.00     0.134 A 
ATOM     76  C   UNL     1      12.746   4.861  20.806  1.00  0.00     0.134 A 
ATOM     77  F   UNL     1      11.394   7.835  19.218  1.00  0.00    -0.206 F 
ATOM     78  C   UNL     1      13.611   7.275  19.742  1.00  0.00     0.040 A 
ATOM     79  C   UNL     1      14.103   5.183  20.825  1.00  0.00     0.040 A 
ATOM     80  F   UNL     1      12.376   3.677  21.317  1.00  0.00    -0.206 F 
ATOM     81  C   UNL     1      14.541   6.388  20.281  1.00  0.00     0.006 A 
ENDBRANCH  60  74
BRANCH  61  82
ATOM     82  C   UNL     1       2.303   2.710  19.626  1.00  0.00     0.057 A 
ATOM     83  C   UNL     1       1.209   3.497  20.000  1.00  0.00     0.134 A 
ATOM     84  C   UNL     1       2.035   1.422  19.144  1.00  0.00     0.134 A 
ATOM     85  F   UNL     1       1.401   4.730  20.492  1.00  0.00    -0.206 F 
ATOM     86  C   UNL     1      -0.101   3.022  19.903  1.00  0.00     0.040 A 
ATOM     87  C   UNL     1       0.731   0.944  19.017  1.00  0.00     0.040 A 
ATOM     88  F   UNL     1       3.041   0.617  18.769  1.00  0.00    -0.206 F 
ATOM     89  C   UNL     1      -0.343   1.744  19.401  1.00  0.00     0.006 A 
ENDBRANCH  61  82
BRANCH  73  90
ATOM     90  C   UNL     1       6.506   4.278  24.975  1.00  0.00     0.057 A 
ATOM     91  C   UNL     1       6.371   3.089  25.704  1.00  0.00     0.134 A 
ATOM     92  C   UNL     1       6.488   5.480  25.696  1.00  0.00     0.134 A 
ATOM     93  F   UNL     1       6.370   1.903  25.077  1.00  0.00    -0.206 F 
ATOM     94  C   UNL     1       6.199   3.097  27.090  1.00  0.00     0.040 A 
ATOM     95  C   UNL     1       6.349   5.499  27.084  1.00  0.00     0.040 A 
ATOM     96  F   UNL     1       6.624   6.656  25.064  1.00  0.00    -0.206 F 
ATOM     97  C   UNL     1       6.195   4.305  27.785  1.00  0.00     0.006 A 
ENDBRANCH  73  90
ENDBRANCH  47  48
ENDBRANCH  40  42
ENDBRANCH  39  40
ENDBRANCH  38  39
ENDBRANCH  37  38
ENDBRANCH  36  37
ENDBRANCH  35  36
ENDBRANCH  34  35
ENDBRANCH  33  34
ENDBRANCH   1  33
TORSDOF 24
