REMARK SMILES C[C@@H](C(=O)OCCOCCOCCOCCOC(=O)c1ccc(-c2c3nc(c(-c4c(F)cccc4F)c4ccc([nH]4)c(-c4c(F)cccc4F)c4nc(c(-c5c(F)cccc5F)c5ccc2[nH]5)C=C4)C=C3)cc1)c1ccc(C[C@@H]2CCC[C@@H]2O)cc1Br
REMARK SMILES IDX 10 1 9 2 8 3 7 4 6 5 5 6 3 7 4 8 2 9 1 10 74 11 75 12 86 13
REMARK SMILES IDX 76 14 85 15 87 16 77 17 78 18 79 19 80 20 83 21 81 22 82 23
REMARK SMILES IDX 84 24 11 26 12 27 13 28 14 29 15 30 16 31 17 32 18 33 19 34
REMARK SMILES IDX 20 35 21 36 73 37 22 38 72 39 23 40 24 41 25 42 66 43 26 44
REMARK SMILES IDX 71 45 65 46 67 47 27 48 70 49 64 50 63 51 28 53 54 54 37 55
REMARK SMILES IDX 53 56 38 57 41 58 52 59 68 60 39 61 40 62 51 64 69 65 42 66
REMARK SMILES IDX 29 67 30 68 35 69 31 70 32 71 34 72 36 73 33 74 55 75 56 76
REMARK SMILES IDX 61 77 57 78 58 79 60 80 62 81 59 82 43 83 44 84 49 85 45 86
REMARK SMILES IDX 46 87 48 88 50 89 47 90
REMARK H PARENT 84 25 67 52 41 63
REMARK Flexibility Score: inf
ROOT
ATOM      1  C   UNL     1      -7.504   2.933   6.515  1.00  0.00     0.188 C 
ENDROOT
BRANCH   1   2
ATOM      2  C   UNL     1      -7.831   3.747   5.253  1.00  0.00     0.188 C 
BRANCH   2   3
ATOM      3  O   UNL     1      -8.075   5.116   5.522  1.00  0.00    -0.376 OA
BRANCH   3   4
ATOM      4  C   UNL     1      -9.420   5.561   5.611  1.00  0.00     0.202 C 
BRANCH   4   5
ATOM      5  C   UNL     1     -10.425   4.845   6.533  1.00  0.00     0.261 C 
BRANCH   5   6
ATOM      6  O   UNL     1     -10.372   3.408   6.543  1.00  0.00    -0.463 OA
BRANCH   6   7
ATOM      7  C   UNL     1     -10.972   2.765   5.514  1.00  0.00     0.313 C 
ATOM      8  O   UNL     1     -11.536   3.379   4.618  1.00  0.00    -0.252 OA
BRANCH   7   9
ATOM      9  C   UNL     1     -10.840   1.222   5.601  1.00  0.00     0.127 C 
ATOM     10  C   UNL     1     -10.506   0.763   7.042  1.00  0.00     0.025 C 
BRANCH   9  11
ATOM     11  C   UNL     1      -9.961   0.606   4.489  1.00  0.00    -0.020 A 
ATOM     12  C   UNL     1      -8.862  -0.228   4.791  1.00  0.00     0.006 A 
ATOM     13  C   UNL     1     -10.221   0.786   3.116  1.00  0.00     0.022 A 
ATOM     14  C   UNL     1      -8.028  -0.767   3.792  1.00  0.00     0.004 A 
ATOM     15  C   UNL     1      -9.324   0.332   2.130  1.00  0.00     0.019 A 
ATOM     16  Br  UNL     1     -11.874   1.433   2.425  1.00  0.00    -0.050 Br
ATOM     17  C   UNL     1      -8.204  -0.440   2.450  1.00  0.00    -0.047 A 
BRANCH  17  18
ATOM     18  C   UNL     1      -7.354  -1.011   1.335  1.00  0.00     0.041 C 
BRANCH  18  19
ATOM     19  C   UNL     1      -5.832  -0.756   1.270  1.00  0.00     0.022 C 
ATOM     20  C   UNL     1      -5.007  -1.409   2.381  1.00  0.00     0.007 C 
ATOM     21  C   UNL     1      -5.352   0.697   1.292  1.00  0.00     0.117 C 
ATOM     22  C   UNL     1      -4.652  -0.298   3.374  1.00  0.00     0.003 C 
ATOM     23  C   UNL     1      -5.148   1.010   2.767  1.00  0.00     0.032 C 
BRANCH  21  24
ATOM     24  O   UNL     1      -6.223   1.598   0.643  1.00  0.00    -0.393 OA
ATOM     25  H   UNL     1      -7.092   1.575   1.075  1.00  0.00     0.210 HD
ENDBRANCH  21  24
ENDBRANCH  18  19
ENDBRANCH  17  18
ENDBRANCH   9  11
ENDBRANCH   7   9
ENDBRANCH   6   7
ENDBRANCH   5   6
ENDBRANCH   4   5
ENDBRANCH   3   4
ENDBRANCH   2   3
ENDBRANCH   1   2
BRANCH   1  26
ATOM     26  O   UNL     1      -7.943   3.480   7.748  1.00  0.00    -0.377 OA
BRANCH  26  27
ATOM     27  C   UNL     1      -7.325   4.664   8.251  1.00  0.00     0.188 C 
BRANCH  27  28
ATOM     28  C   UNL     1      -6.155   5.363   7.521  1.00  0.00     0.188 C 
BRANCH  28  29
ATOM     29  O   UNL     1      -5.352   4.510   6.722  1.00  0.00    -0.376 OA
BRANCH  29  30
ATOM     30  C   UNL     1      -4.120   4.061   7.261  1.00  0.00     0.202 C 
BRANCH  30  31
ATOM     31  C   UNL     1      -4.189   3.174   8.514  1.00  0.00     0.261 C 
BRANCH  31  32
ATOM     32  O   UNL     1      -4.828   3.749   9.666  1.00  0.00    -0.460 OA
BRANCH  32  33
ATOM     33  C   UNL     1      -4.312   4.887  10.172  1.00  0.00     0.338 C 
ATOM     34  O   UNL     1      -3.308   5.475   9.797  1.00  0.00    -0.246 OA
BRANCH  33  35
ATOM     35  C   UNL     1      -5.279   5.429  11.149  1.00  0.00     0.060 A 
ATOM     36  C   UNL     1      -5.827   6.700  10.932  1.00  0.00     0.016 A 
ATOM     37  C   UNL     1      -5.646   4.683  12.271  1.00  0.00     0.016 A 
ATOM     38  C   UNL     1      -6.713   7.247  11.861  1.00  0.00     0.010 A 
ATOM     39  C   UNL     1      -6.516   5.241  13.211  1.00  0.00     0.010 A 
ATOM     40  C   UNL     1      -7.023   6.541  13.030  1.00  0.00    -0.014 A 
BRANCH  40  41
ATOM     41  C   UNL     1      -7.694   7.237  14.154  1.00  0.00     0.031 A 
ATOM     42  C   UNL     1      -6.840   7.763  15.275  1.00  0.00     0.074 A 
ATOM     43  C   UNL     1      -9.025   7.423  14.176  1.00  0.00     0.049 A 
ATOM     44  N   UNL     1      -7.194   8.347  16.390  1.00  0.00    -0.248 NA
ATOM     45  C   UNL     1      -5.385   7.602  15.115  1.00  0.00     0.031 C 
ATOM     46  C   UNL     1      -9.956   7.005  13.131  1.00  0.00     0.029 A 
ATOM     47  N   UNL     1      -9.824   8.007  15.128  1.00  0.00    -0.354 N 
ATOM     48  C   UNL     1      -6.010   8.617  17.066  1.00  0.00     0.074 A 
ATOM     49  C   UNL     1      -4.931   8.100  16.254  1.00  0.00     0.031 C 
ATOM     50  C   UNL     1     -11.206   7.330  13.507  1.00  0.00     0.029 A 
ATOM     51  C   UNL     1     -11.164   7.947  14.833  1.00  0.00     0.049 A 
ATOM     52  H   UNL     1      -9.470   8.428  15.944  1.00  0.00     0.167 HD
ATOM     53  C   UNL     1      -5.836   9.248  18.251  1.00  0.00     0.037 A 
ATOM     54  C   UNL     1     -12.233   8.320  15.564  1.00  0.00     0.037 A 
ATOM     55  C   UNL     1      -6.913   9.754  19.061  1.00  0.00     0.049 A 
ATOM     56  C   UNL     1     -12.021   8.942  16.921  1.00  0.00     0.074 A 
ATOM     57  C   UNL     1      -6.841  10.414  20.275  1.00  0.00     0.029 A 
ATOM     58  N   UNL     1      -8.258   9.645  18.743  1.00  0.00    -0.354 N 
ATOM     59  N   UNL     1     -10.899   9.210  17.545  1.00  0.00    -0.248 NA
ATOM     60  C   UNL     1     -13.227   9.317  17.675  1.00  0.00     0.031 C 
ATOM     61  C   UNL     1      -8.146  10.651  20.720  1.00  0.00     0.029 A 
ATOM     62  C   UNL     1      -9.028  10.200  19.751  1.00  0.00     0.049 A 
ATOM     63  H   UNL     1      -8.614   9.234  17.922  1.00  0.00     0.167 HD
ATOM     64  C   UNL     1     -11.261   9.812  18.745  1.00  0.00     0.074 A 
ATOM     65  C   UNL     1     -12.707   9.882  18.756  1.00  0.00     0.031 C 
ATOM     66  C   UNL     1     -10.468  10.270  19.746  1.00  0.00     0.037 A 
BRANCH  53  67
ATOM     67  C   UNL     1      -4.429   9.395  18.754  1.00  0.00     0.057 A 
ATOM     68  C   UNL     1      -3.503  10.247  18.137  1.00  0.00     0.134 A 
ATOM     69  C   UNL     1      -3.999   8.688  19.884  1.00  0.00     0.134 A 
ATOM     70  F   UNL     1      -3.844  10.941  17.040  1.00  0.00    -0.206 F 
ATOM     71  C   UNL     1      -2.195  10.368  18.608  1.00  0.00     0.040 A 
ATOM     72  C   UNL     1      -2.703   8.824  20.383  1.00  0.00     0.040 A 
ATOM     73  F   UNL     1      -4.834   7.857  20.527  1.00  0.00    -0.206 F 
ATOM     74  C   UNL     1      -1.794   9.660  19.739  1.00  0.00     0.006 A 
ENDBRANCH  53  67
BRANCH  54  75
ATOM     75  C   UNL     1     -13.607   8.098  15.042  1.00  0.00     0.057 A 
ATOM     76  C   UNL     1     -14.443   9.170  14.707  1.00  0.00     0.134 A 
ATOM     77  C   UNL     1     -14.128   6.806  14.893  1.00  0.00     0.134 A 
ATOM     78  F   UNL     1     -14.013  10.432  14.852  1.00  0.00    -0.206 F 
ATOM     79  C   UNL     1     -15.751   8.968  14.262  1.00  0.00     0.040 A 
ATOM     80  C   UNL     1     -15.423   6.588  14.421  1.00  0.00     0.040 A 
ATOM     81  F   UNL     1     -13.381   5.735  15.198  1.00  0.00    -0.206 F 
ATOM     82  C   UNL     1     -16.242   7.672  14.112  1.00  0.00     0.006 A 
ENDBRANCH  54  75
BRANCH  66  83
ATOM     83  C   UNL     1     -11.140  10.927  20.919  1.00  0.00     0.057 A 
ATOM     84  C   UNL     1     -11.895  10.202  21.850  1.00  0.00     0.134 A 
ATOM     85  C   UNL     1     -10.989  12.303  21.145  1.00  0.00     0.134 A 
ATOM     86  F   UNL     1     -12.088   8.884  21.689  1.00  0.00    -0.206 F 
ATOM     87  C   UNL     1     -12.497  10.824  22.945  1.00  0.00     0.040 A 
ATOM     88  C   UNL     1     -11.559  12.930  22.253  1.00  0.00     0.040 A 
ATOM     89  F   UNL     1     -10.269  13.057  20.300  1.00  0.00    -0.206 F 
ATOM     90  C   UNL     1     -12.323  12.191  23.154  1.00  0.00     0.006 A 
ENDBRANCH  66  83
ENDBRANCH  40  41
ENDBRANCH  33  35
ENDBRANCH  32  33
ENDBRANCH  31  32
ENDBRANCH  30  31
ENDBRANCH  29  30
ENDBRANCH  28  29
ENDBRANCH  27  28
ENDBRANCH  26  27
ENDBRANCH   1  26
TORSDOF 24
