REMARK SMILES O=C(NCc1ccc(C(=O)OCCOCCOCCOCCOC(=O)c2ccc(-c3c4nc(c(-c5c(F)cccc5F)c5ccc([nH]5)c(-c5c(F)cccc5F)c5nc(c(-c6c(F)cccc6F)c6ccc3[nH]6)C=C5)C=C4)cc2)o1)Nc1ccc(F)c(Cl)c1
REMARK SMILES IDX 16 1 15 2 14 3 13 4 12 5 11 6 9 7 10 8 8 9 5 10 6 11 80 12
REMARK SMILES IDX 7 13 4 14 3 15 1 16 2 17 81 18 82 21 83 22 89 23 84 24 87 25
REMARK SMILES IDX 85 26 88 27 86 28 17 29 18 30 19 31 20 32 21 33 22 34 23 35
REMARK SMILES IDX 24 36 25 37 26 38 27 39 79 40 28 41 78 42 29 43 30 44 31 45
REMARK SMILES IDX 72 46 32 47 77 48 71 49 73 50 33 51 76 52 70 53 69 54 34 56
REMARK SMILES IDX 60 57 43 58 59 59 44 60 47 61 58 62 74 63 45 64 46 65 57 67
REMARK SMILES IDX 75 68 48 69 35 70 36 71 41 72 37 73 38 74 40 75 42 76 39 77
REMARK SMILES IDX 61 78 62 79 67 80 63 81 64 82 66 83 68 84 65 85 49 86 50 87
REMARK SMILES IDX 55 88 51 89 52 90 54 91 56 92 53 93
REMARK H PARENT 3 19 81 20 73 55 47 66
REMARK Flexibility Score: inf
ROOT
ATOM      1  C   UNL     1       7.119  -2.603  -4.360  1.00  0.00     0.188 C 
ENDROOT
BRANCH   1   2
ATOM      2  C   UNL     1       6.052  -3.705  -4.278  1.00  0.00     0.188 C 
BRANCH   2   3
ATOM      3  O   UNL     1       5.895  -4.429  -5.501  1.00  0.00    -0.376 OA
BRANCH   3   4
ATOM      4  C   UNL     1       4.693  -4.173  -6.221  1.00  0.00     0.202 C 
BRANCH   4   5
ATOM      5  C   UNL     1       4.732  -2.905  -7.087  1.00  0.00     0.261 C 
BRANCH   5   6
ATOM      6  O   UNL     1       4.853  -1.675  -6.355  1.00  0.00    -0.457 OA
BRANCH   6   7
ATOM      7  C   UNL     1       3.859  -1.379  -5.476  1.00  0.00     0.374 C 
ATOM      8  O   UNL     1       2.811  -2.004  -5.376  1.00  0.00    -0.242 OA
BRANCH   7   9
ATOM      9  C   UNL     1       4.313  -0.318  -4.610  1.00  0.00     0.211 A 
ATOM     10  C   UNL     1       4.567   0.663  -2.649  1.00  0.00     0.124 A 
ATOM     11  C   UNL     1       5.363   1.358  -3.535  1.00  0.00     0.048 A 
ATOM     12  O   UNL     1       3.910  -0.338  -3.303  1.00  0.00    -0.452 OA
ATOM     13  C   UNL     1       5.211   0.720  -4.791  1.00  0.00     0.058 A 
BRANCH  10  14
ATOM     14  C   UNL     1       4.321   0.769  -1.187  1.00  0.00     0.193 C 
BRANCH  14  15
ATOM     15  N   UNL     1       2.895   0.837  -0.964  1.00  0.00    -0.331 N 
ATOM     16  O   UNL     1       0.904   0.130  -0.288  1.00  0.00    -0.248 OA
ATOM     17  C   UNL     1       2.119   0.117  -0.115  1.00  0.00     0.319 C 
ATOM     18  N   UNL     1       2.770  -0.543   0.891  1.00  0.00    -0.308 N 
ATOM     19  H   UNL     1       2.416   1.504  -1.508  1.00  0.00     0.165 HD
ATOM     20  H   UNL     1       3.708  -0.295   1.057  1.00  0.00     0.171 HD
BRANCH  18  21
ATOM     21  C   UNL     1       2.217  -1.549   1.710  1.00  0.00     0.044 A 
ATOM     22  C   UNL     1       2.873  -1.850   2.912  1.00  0.00     0.029 A 
ATOM     23  C   UNL     1       1.071  -2.271   1.356  1.00  0.00     0.049 A 
ATOM     24  C   UNL     1       2.366  -2.833   3.766  1.00  0.00     0.043 A 
ATOM     25  C   UNL     1       0.576  -3.265   2.203  1.00  0.00     0.078 A 
ATOM     26  C   UNL     1       1.220  -3.535   3.407  1.00  0.00     0.141 A 
ATOM     27  Cl  UNL     1      -0.823  -4.157   1.740  1.00  0.00    -0.081 Cl
ATOM     28  F   UNL     1       0.755  -4.477   4.240  1.00  0.00    -0.205 F 
ENDBRANCH  18  21
ENDBRANCH  14  15
ENDBRANCH  10  14
ENDBRANCH   7   9
ENDBRANCH   6   7
ENDBRANCH   5   6
ENDBRANCH   4   5
ENDBRANCH   3   4
ENDBRANCH   2   3
ENDBRANCH   1   2
BRANCH   1  29
ATOM     29  O   UNL     1       7.639  -2.421  -5.666  1.00  0.00    -0.377 OA
BRANCH  29  30
ATOM     30  C   UNL     1       8.672  -3.304  -6.101  1.00  0.00     0.188 C 
BRANCH  30  31
ATOM     31  C   UNL     1       8.900  -4.673  -5.428  1.00  0.00     0.188 C 
BRANCH  31  32
ATOM     32  O   UNL     1       9.053  -4.598  -4.010  1.00  0.00    -0.376 OA
BRANCH  32  33
ATOM     33  C   UNL     1      10.361  -4.855  -3.507  1.00  0.00     0.202 C 
BRANCH  33  34
ATOM     34  C   UNL     1      11.257  -3.612  -3.532  1.00  0.00     0.261 C 
BRANCH  34  35
ATOM     35  O   UNL     1      11.582  -3.148  -4.851  1.00  0.00    -0.460 OA
BRANCH  35  36
ATOM     36  C   UNL     1      12.272  -3.999  -5.640  1.00  0.00     0.338 C 
ATOM     37  O   UNL     1      12.707  -5.097  -5.346  1.00  0.00    -0.246 OA
BRANCH  36  38
ATOM     38  C   UNL     1      12.281  -3.442  -7.004  1.00  0.00     0.060 A 
ATOM     39  C   UNL     1      11.840  -4.244  -8.064  1.00  0.00     0.016 A 
ATOM     40  C   UNL     1      12.741  -2.143  -7.232  1.00  0.00     0.016 A 
ATOM     41  C   UNL     1      11.898  -3.757  -9.370  1.00  0.00     0.010 A 
ATOM     42  C   UNL     1      12.814  -1.665  -8.538  1.00  0.00     0.010 A 
ATOM     43  C   UNL     1      12.426  -2.482  -9.613  1.00  0.00    -0.014 A 
BRANCH  43  44
ATOM     44  C   UNL     1      12.771  -2.059 -10.988  1.00  0.00     0.031 A 
ATOM     45  C   UNL     1      14.168  -2.316 -11.477  1.00  0.00     0.074 A 
ATOM     46  C   UNL     1      11.882  -1.417 -11.764  1.00  0.00     0.049 A 
ATOM     47  N   UNL     1      14.745  -1.927 -12.583  1.00  0.00    -0.248 NA
ATOM     48  C   UNL     1      15.032  -3.114 -10.591  1.00  0.00     0.031 C 
ATOM     49  C   UNL     1      10.492  -1.140 -11.412  1.00  0.00     0.029 A 
ATOM     50  N   UNL     1      12.036  -0.861 -13.009  1.00  0.00    -0.354 N 
ATOM     51  C   UNL     1      16.039  -2.426 -12.523  1.00  0.00     0.074 A 
ATOM     52  C   UNL     1      16.171  -3.130 -11.267  1.00  0.00     0.031 C 
ATOM     53  C   UNL     1       9.923  -0.441 -12.411  1.00  0.00     0.029 A 
ATOM     54  C   UNL     1      10.919  -0.197 -13.453  1.00  0.00     0.049 A 
ATOM     55  H   UNL     1      12.866  -0.931 -13.533  1.00  0.00     0.167 HD
ATOM     56  C   UNL     1      17.031  -2.308 -13.436  1.00  0.00     0.037 A 
ATOM     57  C   UNL     1      10.739   0.547 -14.561  1.00  0.00     0.037 A 
ATOM     58  C   UNL     1      16.905  -1.597 -14.678  1.00  0.00     0.049 A 
ATOM     59  C   UNL     1      11.880   0.729 -15.526  1.00  0.00     0.074 A 
ATOM     60  C   UNL     1      17.849  -1.427 -15.674  1.00  0.00     0.029 A 
ATOM     61  N   UNL     1      15.762  -0.929 -15.086  1.00  0.00    -0.354 N 
ATOM     62  N   UNL     1      13.095   0.237 -15.473  1.00  0.00    -0.248 NA
ATOM     63  C   UNL     1      11.629   1.578 -16.701  1.00  0.00     0.031 C 
ATOM     64  C   UNL     1      17.287  -0.625 -16.672  1.00  0.00     0.029 A 
ATOM     65  C   UNL     1      15.982  -0.327 -16.312  1.00  0.00     0.049 A 
ATOM     66  H   UNL     1      14.919  -0.889 -14.580  1.00  0.00     0.167 HD
ATOM     67  C   UNL     1      13.741   0.690 -16.617  1.00  0.00     0.074 A 
ATOM     68  C   UNL     1      12.785   1.497 -17.346  1.00  0.00     0.031 C 
ATOM     69  C   UNL     1      15.011   0.458 -17.028  1.00  0.00     0.037 A 
BRANCH  56  70
ATOM     70  C   UNL     1      18.344  -2.945 -13.103  1.00  0.00     0.057 A 
ATOM     71  C   UNL     1      18.526  -4.332 -13.168  1.00  0.00     0.134 A 
ATOM     72  C   UNL     1      19.442  -2.162 -12.725  1.00  0.00     0.134 A 
ATOM     73  F   UNL     1      17.505  -5.136 -13.504  1.00  0.00    -0.206 F 
ATOM     74  C   UNL     1      19.750  -4.920 -12.851  1.00  0.00     0.040 A 
ATOM     75  C   UNL     1      20.676  -2.738 -12.425  1.00  0.00     0.040 A 
ATOM     76  F   UNL     1      19.330  -0.828 -12.641  1.00  0.00    -0.206 F 
ATOM     77  C   UNL     1      20.832  -4.122 -12.483  1.00  0.00     0.006 A 
ENDBRANCH  56  70
BRANCH  57  78
ATOM     78  C   UNL     1       9.430   1.198 -14.814  1.00  0.00     0.057 A 
ATOM     79  C   UNL     1       8.587   0.751 -15.837  1.00  0.00     0.134 A 
ATOM     80  C   UNL     1       9.004   2.297 -14.058  1.00  0.00     0.134 A 
ATOM     81  F   UNL     1       8.955  -0.281 -16.610  1.00  0.00    -0.206 F 
ATOM     82  C   UNL     1       7.371   1.379 -16.109  1.00  0.00     0.040 A 
ATOM     83  C   UNL     1       7.781   2.923 -14.306  1.00  0.00     0.040 A 
ATOM     84  F   UNL     1       9.769   2.774 -13.066  1.00  0.00    -0.206 F 
ATOM     85  C   UNL     1       6.964   2.467 -15.338  1.00  0.00     0.006 A 
ENDBRANCH  57  78
BRANCH  69  86
ATOM     86  C   UNL     1      15.432   1.044 -18.341  1.00  0.00     0.057 A 
ATOM     87  C   UNL     1      15.757   2.399 -18.471  1.00  0.00     0.134 A 
ATOM     88  C   UNL     1      15.585   0.227 -19.468  1.00  0.00     0.134 A 
ATOM     89  F   UNL     1      15.622   3.234 -17.430  1.00  0.00    -0.206 F 
ATOM     90  C   UNL     1      16.214   2.923 -19.681  1.00  0.00     0.040 A 
ATOM     91  C   UNL     1      16.058   0.735 -20.677  1.00  0.00     0.040 A 
ATOM     92  F   UNL     1      15.297  -1.082 -19.403  1.00  0.00    -0.206 F 
ATOM     93  C   UNL     1      16.374   2.088 -20.786  1.00  0.00     0.006 A 
ENDBRANCH  69  86
ENDBRANCH  43  44
ENDBRANCH  36  38
ENDBRANCH  35  36
ENDBRANCH  34  35
ENDBRANCH  33  34
ENDBRANCH  32  33
ENDBRANCH  31  32
ENDBRANCH  30  31
ENDBRANCH  29  30
ENDBRANCH   1  29
TORSDOF 23
