REMARK SMILES CCc1cc(C[NH+]2CCC(C(=O)OCCOCCOCCOCCOC(=O)c3ccc(-c4c5nc(c(-c6c(F)cccc6F)c6ccc([nH]6)c(-c6c(F)cccc6F)c6nc(c(-c7c(F)cccc7F)c7ccc4[nH]7)C=C6)C=C5)cc3)(n3ccc(-c4ccco4)n3)CC2)on1
REMARK SMILES IDX 18 1 17 2 16 3 15 4 14 5 13 6 11 7 12 8 10 9 7 10 8 11 93 12
REMARK SMILES IDX 9 14 92 15 6 16 5 17 3 18 4 19 95 20 94 21 2 22 1 23 82 24
REMARK SMILES IDX 83 25 91 26 84 27 85 28 86 29 87 30 90 31 88 32 89 33 19 34
REMARK SMILES IDX 20 35 21 36 22 37 23 38 24 39 25 40 26 41 27 42 28 43 29 44
REMARK SMILES IDX 81 45 30 46 80 47 31 48 32 49 33 50 74 51 34 52 79 53 73 54
REMARK SMILES IDX 75 55 35 56 78 57 72 58 71 59 36 61 62 62 45 63 61 64 46 65
REMARK SMILES IDX 49 66 60 67 76 68 47 69 48 70 59 72 77 73 50 74 37 75 38 76
REMARK SMILES IDX 43 77 39 78 40 79 42 80 44 81 41 82 63 83 64 84 69 85 65 86
REMARK SMILES IDX 66 87 68 88 70 89 67 90 51 91 52 92 57 93 53 94 54 95 56 96
REMARK SMILES IDX 58 97 55 98
REMARK H PARENT 7 13 75 60 49 71
REMARK Flexibility Score: inf
ROOT
ATOM      1  C   UNL     1       8.165   4.821  -3.747  1.00  0.00     0.188 C 
ENDROOT
BRANCH   1   2
ATOM      2  C   UNL     1       9.132   3.787  -4.333  1.00  0.00     0.188 C 
BRANCH   2   3
ATOM      3  O   UNL     1      10.047   4.259  -5.296  1.00  0.00    -0.376 OA
BRANCH   3   4
ATOM      4  C   UNL     1       9.635   4.516  -6.627  1.00  0.00     0.202 C 
BRANCH   4   5
ATOM      5  C   UNL     1       8.215   4.343  -7.213  1.00  0.00     0.261 C 
BRANCH   5   6
ATOM      6  O   UNL     1       7.086   4.310  -6.329  1.00  0.00    -0.461 OA
BRANCH   6   7
ATOM      7  C   UNL     1       6.481   3.104  -6.167  1.00  0.00     0.334 C 
ATOM      8  O   UNL     1       6.866   2.088  -6.746  1.00  0.00    -0.249 OA
BRANCH   7   9
ATOM      9  C   UNL     1       5.196   3.145  -5.298  1.00  0.00     0.170 C 
ATOM     10  N   UNL     1       2.376   4.158  -5.182  1.00  0.00    -0.328 N 
ATOM     11  C   UNL     1       3.365   4.562  -4.189  1.00  0.00     0.265 C 
ATOM     12  C   UNL     1       2.682   2.947  -5.938  1.00  0.00     0.265 C 
ATOM     13  H   UNL     1       2.429   4.900  -5.880  1.00  0.00     0.348 HD
ATOM     14  C   UNL     1       4.807   4.515  -4.695  1.00  0.00     0.104 C 
ATOM     15  C   UNL     1       4.129   2.832  -6.382  1.00  0.00     0.104 C 
BRANCH  10  16
ATOM     16  C   UNL     1       1.001   4.130  -4.627  1.00  0.00     0.341 C 
BRANCH  16  17
ATOM     17  C   UNL     1       0.772   3.148  -3.523  1.00  0.00     0.191 A 
ATOM     18  C   UNL     1       0.499   1.899  -1.719  1.00  0.00     0.084 A 
ATOM     19  C   UNL     1       0.673   3.237  -2.154  1.00  0.00     0.078 A 
ATOM     20  N   UNL     1       0.459   1.061  -2.762  1.00  0.00    -0.085 NA
ATOM     21  O   UNL     1       0.607   1.846  -3.887  1.00  0.00    -0.355 OA
BRANCH  18  22
ATOM     22  C   UNL     1       0.314   1.405  -0.323  1.00  0.00     0.056 C 
ATOM     23  C   UNL     1       0.951   0.051  -0.036  1.00  0.00     0.011 C 
ENDBRANCH  18  22
ENDBRANCH  16  17
ENDBRANCH  10  16
BRANCH   9  24
ATOM     24  N   UNL     1       5.330   2.115  -4.242  1.00  0.00    -0.254 N 
ATOM     25  C   UNL     1       4.342   1.430  -3.587  1.00  0.00     0.111 A 
ATOM     26  N   UNL     1       6.554   1.774  -3.740  1.00  0.00    -0.168 NA
ATOM     27  C   UNL     1       4.949   0.388  -2.937  1.00  0.00     0.054 A 
ATOM     28  C   UNL     1       6.326   0.623  -3.087  1.00  0.00     0.128 A 
BRANCH  28  29
ATOM     29  C   UNL     1       7.366  -0.309  -2.563  1.00  0.00     0.154 A 
ATOM     30  C   UNL     1       8.690  -0.040  -2.276  1.00  0.00     0.052 A 
ATOM     31  O   UNL     1       7.109  -1.629  -2.290  1.00  0.00    -0.463 OA
ATOM     32  C   UNL     1       9.264  -1.255  -1.814  1.00  0.00     0.043 A 
ATOM     33  C   UNL     1       8.270  -2.200  -1.889  1.00  0.00     0.196 A 
ENDBRANCH  28  29
ENDBRANCH   9  24
ENDBRANCH   7   9
ENDBRANCH   6   7
ENDBRANCH   5   6
ENDBRANCH   4   5
ENDBRANCH   3   4
ENDBRANCH   2   3
ENDBRANCH   1   2
BRANCH   1  34
ATOM     34  O   UNL     1       7.923   5.979  -4.529  1.00  0.00    -0.377 OA
BRANCH  34  35
ATOM     35  C   UNL     1       8.892   7.021  -4.530  1.00  0.00     0.188 C 
BRANCH  35  36
ATOM     36  C   UNL     1      10.248   6.841  -3.819  1.00  0.00     0.188 C 
BRANCH  36  37
ATOM     37  O   UNL     1      10.198   6.101  -2.612  1.00  0.00    -0.376 OA
BRANCH  37  38
ATOM     38  C   UNL     1      10.050   6.787  -1.379  1.00  0.00     0.202 C 
BRANCH  38  39
ATOM     39  C   UNL     1       8.825   7.694  -1.181  1.00  0.00     0.261 C 
BRANCH  39  40
ATOM     40  O   UNL     1       8.671   8.784  -2.104  1.00  0.00    -0.460 OA
BRANCH  40  41
ATOM     41  C   UNL     1       9.690   9.662  -2.234  1.00  0.00     0.338 C 
ATOM     42  O   UNL     1      10.721   9.698  -1.598  1.00  0.00    -0.246 OA
BRANCH  41  43
ATOM     43  C   UNL     1       9.418  10.466  -3.446  1.00  0.00     0.060 A 
ATOM     44  C   UNL     1      10.319  10.406  -4.518  1.00  0.00     0.016 A 
ATOM     45  C   UNL     1       8.275  11.264  -3.525  1.00  0.00     0.016 A 
ATOM     46  C   UNL     1      10.094  11.166  -5.664  1.00  0.00     0.010 A 
ATOM     47  C   UNL     1       8.066  12.049  -4.662  1.00  0.00     0.010 A 
ATOM     48  C   UNL     1       8.991  12.025  -5.721  1.00  0.00    -0.014 A 
BRANCH  48  49
ATOM     49  C   UNL     1       8.913  13.048  -6.790  1.00  0.00     0.031 A 
ATOM     50  C   UNL     1       9.391  14.438  -6.480  1.00  0.00     0.074 A 
ATOM     51  C   UNL     1       8.433  12.754  -8.010  1.00  0.00     0.049 A 
ATOM     52  N   UNL     1       9.348  15.517  -7.216  1.00  0.00    -0.248 NA
ATOM     53  C   UNL     1       9.992  14.634  -5.151  1.00  0.00     0.031 C 
ATOM     54  C   UNL     1       7.982  11.435  -8.444  1.00  0.00     0.029 A 
ATOM     55  N   UNL     1       8.229  13.561  -9.100  1.00  0.00    -0.354 N 
ATOM     56  C   UNL     1       9.897  16.525  -6.433  1.00  0.00     0.074 A 
ATOM     57  C   UNL     1      10.242  15.933  -5.159  1.00  0.00     0.031 C 
ATOM     58  C   UNL     1       7.524  11.528  -9.704  1.00  0.00     0.029 A 
ATOM     59  C   UNL     1       7.615  12.920 -10.147  1.00  0.00     0.049 A 
ATOM     60  H   UNL     1       8.497  14.508  -9.129  1.00  0.00     0.167 HD
ATOM     61  C   UNL     1      10.095  17.826  -6.749  1.00  0.00     0.037 A 
ATOM     62  C   UNL     1       7.146  13.409 -11.311  1.00  0.00     0.037 A 
ATOM     63  C   UNL     1       9.743  18.408  -8.017  1.00  0.00     0.049 A 
ATOM     64  C   UNL     1       7.306  14.875 -11.618  1.00  0.00     0.074 A 
ATOM     65  C   UNL     1       9.943  19.705  -8.455  1.00  0.00     0.029 A 
ATOM     66  N   UNL     1       9.097  17.734  -9.043  1.00  0.00    -0.354 N 
ATOM     67  N   UNL     1       7.865  15.815 -10.893  1.00  0.00    -0.248 NA
ATOM     68  C   UNL     1       6.769  15.349 -12.902  1.00  0.00     0.031 C 
ATOM     69  C   UNL     1       9.352  19.834  -9.717  1.00  0.00     0.029 A 
ATOM     70  C   UNL     1       8.844  18.601 -10.094  1.00  0.00     0.049 A 
ATOM     71  H   UNL     1       8.855  16.780  -9.027  1.00  0.00     0.167 HD
ATOM     72  C   UNL     1       7.759  16.986 -11.635  1.00  0.00     0.074 A 
ATOM     73  C   UNL     1       7.100  16.633 -12.876  1.00  0.00     0.031 C 
ATOM     74  C   UNL     1       8.171  18.240 -11.318  1.00  0.00     0.037 A 
BRANCH  61  75
ATOM     75  C   UNL     1      10.665  18.713  -5.679  1.00  0.00     0.057 A 
ATOM     76  C   UNL     1      11.982  18.582  -5.217  1.00  0.00     0.134 A 
ATOM     77  C   UNL     1       9.873  19.708  -5.091  1.00  0.00     0.134 A 
ATOM     78  F   UNL     1      12.790  17.639  -5.724  1.00  0.00    -0.206 F 
ATOM     79  C   UNL     1      12.476  19.380  -4.183  1.00  0.00     0.040 A 
ATOM     80  C   UNL     1      10.366  20.534  -4.080  1.00  0.00     0.040 A 
ATOM     81  F   UNL     1       8.604  19.892  -5.487  1.00  0.00    -0.206 F 
ATOM     82  C   UNL     1      11.667  20.362  -3.614  1.00  0.00     0.006 A 
ENDBRANCH  61  75
BRANCH  62  83
ATOM     83  C   UNL     1       6.444  12.502 -12.253  1.00  0.00     0.057 A 
ATOM     84  C   UNL     1       7.014  12.137 -13.477  1.00  0.00     0.134 A 
ATOM     85  C   UNL     1       5.191  11.960 -11.938  1.00  0.00     0.134 A 
ATOM     86  F   UNL     1       8.199  12.643 -13.848  1.00  0.00    -0.206 F 
ATOM     87  C   UNL     1       6.364  11.266 -14.355  1.00  0.00     0.040 A 
ATOM     88  C   UNL     1       4.542  11.068 -12.793  1.00  0.00     0.040 A 
ATOM     89  F   UNL     1       4.590  12.271 -10.780  1.00  0.00    -0.206 F 
ATOM     90  C   UNL     1       5.128  10.721 -14.008  1.00  0.00     0.006 A 
ENDBRANCH  62  83
BRANCH  74  91
ATOM     91  C   UNL     1       7.927  19.326 -12.327  1.00  0.00     0.057 A 
ATOM     92  C   UNL     1       6.641  19.821 -12.585  1.00  0.00     0.134 A 
ATOM     93  C   UNL     1       8.996  19.926 -13.006  1.00  0.00     0.134 A 
ATOM     94  F   UNL     1       5.572  19.285 -11.977  1.00  0.00    -0.206 F 
ATOM     95  C   UNL     1       6.427  20.859 -13.494  1.00  0.00     0.040 A 
ATOM     96  C   UNL     1       8.797  20.984 -13.895  1.00  0.00     0.040 A 
ATOM     97  F   UNL     1      10.254  19.509 -12.800  1.00  0.00    -0.206 F 
ATOM     98  C   UNL     1       7.508  21.450 -14.145  1.00  0.00     0.006 A 
ENDBRANCH  74  91
ENDBRANCH  48  49
ENDBRANCH  41  43
ENDBRANCH  40  41
ENDBRANCH  39  40
ENDBRANCH  38  39
ENDBRANCH  37  38
ENDBRANCH  36  37
ENDBRANCH  35  36
ENDBRANCH  34  35
ENDBRANCH   1  34
TORSDOF 25
