REMARK SMILES CC[C@@H]1CCCC[N@H+]1Cc1c(C(=O)OCCOCCOCCOCCOC(=O)c2ccc(-c3c4nc(c(-c5c(F)cccc5F)c5ccc([nH]5)c(-c5c(F)cccc5F)c5nc(c(-c6c(F)cccc6F)c6ccc3[nH]6)C=C5)C=C4)cc2)oc2ccccc12
REMARK SMILES IDX 19 1 18 2 17 3 16 4 15 5 14 6 12 7 13 8 11 9 10 10 89 11
REMARK SMILES IDX 83 12 84 13 88 14 85 15 87 16 86 17 9 18 8 19 3 20 4 21 5 22
REMARK SMILES IDX 7 23 6 25 2 26 1 27 20 28 21 29 22 30 23 31 24 32 25 33
REMARK SMILES IDX 26 34 27 35 28 36 29 37 30 38 82 39 31 40 81 41 32 42 33 43
REMARK SMILES IDX 34 44 75 45 35 46 80 47 74 48 76 49 36 50 79 51 73 52 72 53
REMARK SMILES IDX 37 55 63 56 46 57 62 58 47 59 50 60 61 61 77 62 48 63 49 64
REMARK SMILES IDX 60 66 78 67 51 68 38 69 39 70 44 71 40 72 41 73 43 74 45 75
REMARK SMILES IDX 42 76 64 77 65 78 70 79 66 80 67 81 69 82 71 83 68 84 52 85
REMARK SMILES IDX 53 86 58 87 54 88 55 89 57 90 59 91 56 92
REMARK H PARENT 8 24 76 54 50 65
REMARK Flexibility Score: inf
ROOT
ATOM      1  C   UNL     1      -4.075   5.528  -0.508  1.00  0.00     0.188 C 
ENDROOT
BRANCH   1   2
ATOM      2  C   UNL     1      -3.023   6.630  -0.288  1.00  0.00     0.188 C 
BRANCH   2   3
ATOM      3  O   UNL     1      -3.337   7.884  -0.882  1.00  0.00    -0.376 OA
BRANCH   3   4
ATOM      4  C   UNL     1      -2.506   8.283  -1.964  1.00  0.00     0.202 C 
BRANCH   4   5
ATOM      5  C   UNL     1      -2.997   7.723  -3.303  1.00  0.00     0.261 C 
BRANCH   5   6
ATOM      6  O   UNL     1      -2.937   6.292  -3.397  1.00  0.00    -0.457 OA
BRANCH   6   7
ATOM      7  C   UNL     1      -1.702   5.726  -3.330  1.00  0.00     0.374 C 
ATOM      8  O   UNL     1      -0.655   6.356  -3.268  1.00  0.00    -0.242 OA
BRANCH   7   9
ATOM      9  C   UNL     1      -1.849   4.298  -3.188  1.00  0.00     0.221 A 
ATOM     10  C   UNL     1      -1.327   3.401  -2.255  1.00  0.00     0.067 A 
ATOM     11  C   UNL     1      -1.915   2.131  -2.582  1.00  0.00     0.030 A 
ATOM     12  O   UNL     1      -2.673   3.652  -4.064  1.00  0.00    -0.448 OA
ATOM     13  C   UNL     1      -2.698   2.345  -3.710  1.00  0.00     0.135 A 
ATOM     14  C   UNL     1      -1.886   0.827  -2.051  1.00  0.00     0.012 A 
ATOM     15  C   UNL     1      -3.418   1.355  -4.373  1.00  0.00     0.048 A 
ATOM     16  C   UNL     1      -2.585  -0.199  -2.704  1.00  0.00     0.001 A 
ATOM     17  C   UNL     1      -3.334   0.062  -3.851  1.00  0.00     0.004 A 
BRANCH  10  18
ATOM     18  C   UNL     1      -0.445   3.745  -1.087  1.00  0.00     0.304 C 
BRANCH  18  19
ATOM     19  N   UNL     1       0.991   3.472  -1.277  1.00  0.00    -0.329 N 
ATOM     20  C   UNL     1       1.390   2.051  -1.234  1.00  0.00     0.184 C 
ATOM     21  C   UNL     1       2.897   1.863  -1.530  1.00  0.00     0.065 C 
ATOM     22  C   UNL     1       3.346   2.597  -2.782  1.00  0.00     0.012 C 
ATOM     23  C   UNL     1       1.521   4.240  -2.413  1.00  0.00     0.262 C 
ATOM     24  H   UNL     1       1.458   3.820  -0.440  1.00  0.00     0.348 HD
ATOM     25  C   UNL     1       3.016   4.068  -2.635  1.00  0.00     0.062 C 
BRANCH  20  26
ATOM     26  C   UNL     1       1.083   1.432   0.159  1.00  0.00     0.061 C 
ATOM     27  C   UNL     1       1.393  -0.057   0.261  1.00  0.00     0.010 C 
ENDBRANCH  20  26
ENDBRANCH  18  19
ENDBRANCH  10  18
ENDBRANCH   7   9
ENDBRANCH   6   7
ENDBRANCH   5   6
ENDBRANCH   4   5
ENDBRANCH   3   4
ENDBRANCH   2   3
ENDBRANCH   1   2
BRANCH   1  28
ATOM     28  O   UNL     1      -5.434   5.853  -0.757  1.00  0.00    -0.377 OA
BRANCH  28  29
ATOM     29  C   UNL     1      -5.941   7.110  -0.345  1.00  0.00     0.188 C 
BRANCH  29  30
ATOM     30  C   UNL     1      -5.641   7.577   1.089  1.00  0.00     0.188 C 
BRANCH  30  31
ATOM     31  O   UNL     1      -5.090   6.563   1.927  1.00  0.00    -0.376 OA
BRANCH  31  32
ATOM     32  C   UNL     1      -5.971   6.033   2.910  1.00  0.00     0.202 C 
BRANCH  32  33
ATOM     33  C   UNL     1      -6.965   5.010   2.354  1.00  0.00     0.261 C 
BRANCH  33  34
ATOM     34  O   UNL     1      -7.927   5.547   1.432  1.00  0.00    -0.460 OA
BRANCH  34  35
ATOM     35  C   UNL     1      -8.750   6.517   1.884  1.00  0.00     0.338 C 
ATOM     36  O   UNL     1      -8.814   6.977   3.008  1.00  0.00    -0.246 OA
BRANCH  35  37
ATOM     37  C   UNL     1      -9.460   7.067   0.715  1.00  0.00     0.060 A 
ATOM     38  C   UNL     1      -9.363   8.439   0.447  1.00  0.00     0.016 A 
ATOM     39  C   UNL     1     -10.186   6.223  -0.129  1.00  0.00     0.016 A 
ATOM     40  C   UNL     1     -10.015   8.974  -0.663  1.00  0.00     0.010 A 
ATOM     41  C   UNL     1     -10.857   6.764  -1.225  1.00  0.00     0.010 A 
ATOM     42  C   UNL     1     -10.794   8.144  -1.481  1.00  0.00    -0.014 A 
BRANCH  42  43
ATOM     43  C   UNL     1     -11.708   8.733  -2.483  1.00  0.00     0.031 A 
ATOM     44  C   UNL     1     -13.113   9.051  -2.057  1.00  0.00     0.074 A 
ATOM     45  C   UNL     1     -11.312   8.956  -3.748  1.00  0.00     0.049 A 
ATOM     46  N   UNL     1     -14.113   9.505  -2.765  1.00  0.00    -0.248 NA
ATOM     47  C   UNL     1     -13.431   8.819  -0.638  1.00  0.00     0.031 C 
ATOM     48  C   UNL     1      -9.971   8.710  -4.274  1.00  0.00     0.029 A 
ATOM     49  N   UNL     1     -12.018   9.427  -4.826  1.00  0.00    -0.354 N 
ATOM     50  C   UNL     1     -15.176   9.616  -1.880  1.00  0.00     0.074 A 
ATOM     51  C   UNL     1     -14.710   9.158  -0.590  1.00  0.00     0.031 C 
ATOM     52  C   UNL     1      -9.956   9.016  -5.584  1.00  0.00     0.029 A 
ATOM     53  C   UNL     1     -11.291   9.453  -5.990  1.00  0.00     0.049 A 
ATOM     54  H   UNL     1     -12.957   9.720  -4.769  1.00  0.00     0.167 HD
ATOM     55  C   UNL     1     -16.430  10.065  -2.119  1.00  0.00     0.037 A 
ATOM     56  C   UNL     1     -11.674   9.770  -7.242  1.00  0.00     0.037 A 
ATOM     57  C   UNL     1     -16.901  10.501  -3.404  1.00  0.00     0.049 A 
ATOM     58  C   UNL     1     -13.098  10.190  -7.499  1.00  0.00     0.074 A 
ATOM     59  C   UNL     1     -18.150  10.989  -3.744  1.00  0.00     0.029 A 
ATOM     60  N   UNL     1     -16.143  10.487  -4.564  1.00  0.00    -0.354 N 
ATOM     61  N   UNL     1     -14.087  10.329  -6.649  1.00  0.00    -0.248 NA
ATOM     62  C   UNL     1     -13.460  10.491  -8.893  1.00  0.00     0.031 C 
ATOM     63  C   UNL     1     -18.160  11.232  -5.122  1.00  0.00     0.029 A 
ATOM     64  C   UNL     1     -16.906  10.933  -5.630  1.00  0.00     0.049 A 
ATOM     65  H   UNL     1     -15.203  10.202  -4.622  1.00  0.00     0.167 HD
ATOM     66  C   UNL     1     -15.177  10.755  -7.398  1.00  0.00     0.074 A 
ATOM     67  C   UNL     1     -14.727  10.860  -8.771  1.00  0.00     0.031 C 
ATOM     68  C   UNL     1     -16.438  11.036  -6.987  1.00  0.00     0.037 A 
BRANCH  55  69
ATOM     69  C   UNL     1     -17.380  10.080  -0.962  1.00  0.00     0.057 A 
ATOM     70  C   UNL     1     -17.278  11.032   0.061  1.00  0.00     0.134 A 
ATOM     71  C   UNL     1     -18.413   9.139  -0.873  1.00  0.00     0.134 A 
ATOM     72  F   UNL     1     -16.296  11.946   0.042  1.00  0.00    -0.206 F 
ATOM     73  C   UNL     1     -18.160  11.036   1.142  1.00  0.00     0.040 A 
ATOM     74  C   UNL     1     -19.313   9.146   0.192  1.00  0.00     0.040 A 
ATOM     75  F   UNL     1     -18.561   8.199  -1.819  1.00  0.00    -0.206 F 
ATOM     76  C   UNL     1     -19.185  10.094   1.206  1.00  0.00     0.006 A 
ENDBRANCH  55  69
BRANCH  56  77
ATOM     77  C   UNL     1     -10.703   9.689  -8.361  1.00  0.00     0.057 A 
ATOM     78  C   UNL     1     -10.225  10.845  -8.989  1.00  0.00     0.134 A 
ATOM     79  C   UNL     1     -10.256   8.456  -8.850  1.00  0.00     0.134 A 
ATOM     80  F   UNL     1     -10.639  12.054  -8.583  1.00  0.00    -0.206 F 
ATOM     81  C   UNL     1      -9.347  10.777 -10.073  1.00  0.00     0.040 A 
ATOM     82  C   UNL     1      -9.362   8.374  -9.919  1.00  0.00     0.040 A 
ATOM     83  F   UNL     1     -10.682   7.313  -8.294  1.00  0.00    -0.206 F 
ATOM     84  C   UNL     1      -8.910   9.538 -10.538  1.00  0.00     0.006 A 
ENDBRANCH  56  77
BRANCH  68  85
ATOM     85  C   UNL     1     -17.413  11.509  -8.024  1.00  0.00     0.057 A 
ATOM     86  C   UNL     1     -17.988  10.630  -8.949  1.00  0.00     0.134 A 
ATOM     87  C   UNL     1     -17.822  12.848  -8.059  1.00  0.00     0.134 A 
ATOM     88  F   UNL     1     -17.629   9.337  -8.973  1.00  0.00    -0.206 F 
ATOM     89  C   UNL     1     -18.927  11.069  -9.883  1.00  0.00     0.040 A 
ATOM     90  C   UNL     1     -18.776  13.294  -8.974  1.00  0.00     0.040 A 
ATOM     91  F   UNL     1     -17.314  13.738  -7.193  1.00  0.00    -0.206 F 
ATOM     92  C   UNL     1     -19.329  12.404  -9.892  1.00  0.00     0.006 A 
ENDBRANCH  68  85
ENDBRANCH  42  43
ENDBRANCH  35  37
ENDBRANCH  34  35
ENDBRANCH  33  34
ENDBRANCH  32  33
ENDBRANCH  31  32
ENDBRANCH  30  31
ENDBRANCH  29  30
ENDBRANCH  28  29
ENDBRANCH   1  28
TORSDOF 23
