REMARK SMILES O=C(COCC(=O)OCCOCCOCCOCCOC(=O)c1ccc(-c2c3nc(c(-c4c(F)cccc4F)c4ccc([nH]4)c(-c4c(F)cccc4F)c4nc(c(-c5c(F)cccc5F)c5ccc2[nH]5)C=C4)C=C3)cc1)/[NH+]=C1\S[C@@H]2CS(=O)(=O)C[C@H]2N1c1ccc(Cl)cc1
REMARK SMILES IDX 13 1 12 2 11 3 10 4 9 5 8 6 6 7 7 8 5 9 4 10 3 11 2 12 1 13
REMARK SMILES IDX 77 14 78 15 79 17 87 18 80 19 86 20 81 21 85 22 82 23 83 24
REMARK SMILES IDX 84 25 88 26 89 27 94 28 90 29 93 30 91 31 92 32 14 33 15 34
REMARK SMILES IDX 16 35 17 36 18 37 19 38 20 39 21 40 22 41 23 42 24 43 76 44
REMARK SMILES IDX 25 45 75 46 26 47 27 48 28 49 69 50 29 51 74 52 68 53 70 54
REMARK SMILES IDX 30 55 73 56 67 57 66 58 31 60 57 61 40 62 56 63 41 64 44 65
REMARK SMILES IDX 55 66 71 67 42 68 43 69 54 71 72 72 45 73 32 74 33 75 38 76
REMARK SMILES IDX 34 77 35 78 37 79 39 80 36 81 58 82 59 83 64 84 60 85 61 86
REMARK SMILES IDX 63 87 65 88 62 89 46 90 47 91 52 92 48 93 49 94 51 95 53 96
REMARK SMILES IDX 50 97
REMARK H PARENT 77 16 70 59 44 70
REMARK Flexibility Score: inf
ROOT
ATOM      1  C   UNL     1      -0.075   0.375  -2.740  1.00  0.00     0.188 C 
ENDROOT
BRANCH   1   2
ATOM      2  C   UNL     1      -0.350   1.830  -2.347  1.00  0.00     0.188 C 
BRANCH   2   3
ATOM      3  O   UNL     1      -0.728   2.695  -3.423  1.00  0.00    -0.376 OA
BRANCH   3   4
ATOM      4  C   UNL     1       0.090   2.687  -4.589  1.00  0.00     0.202 C 
BRANCH   4   5
ATOM      5  C   UNL     1       1.462   3.378  -4.491  1.00  0.00     0.261 C 
BRANCH   5   6
ATOM      6  O   UNL     1       2.279   2.971  -3.375  1.00  0.00    -0.462 OA
BRANCH   6   7
ATOM      7  C   UNL     1       2.445   3.895  -2.388  1.00  0.00     0.332 C 
ATOM      8  O   UNL     1       1.975   5.029  -2.408  1.00  0.00    -0.250 OA
BRANCH   7   9
ATOM      9  C   UNL     1       3.258   3.376  -1.177  1.00  0.00     0.283 C 
BRANCH   9  10
ATOM     10  O   UNL     1       3.962   2.143  -1.159  1.00  0.00    -0.358 OA
BRANCH  10  11
ATOM     11  C   UNL     1       3.109   1.015  -1.115  1.00  0.00     0.288 C 
BRANCH  11  12
ATOM     12  C   UNL     1       2.574   0.418   0.217  1.00  0.00     0.333 C 
ATOM     13  O   UNL     1       1.504  -0.191   0.231  1.00  0.00    -0.244 OA
ATOM     14  N   UNL     1       3.299   0.604   1.365  1.00  0.00    -0.202 N 
ATOM     15  C   UNL     1       4.471   0.083   1.483  1.00  0.00     0.319 C 
ATOM     16  H   UNL     1       2.923   1.137   2.103  1.00  0.00     0.316 HD
ATOM     17  S   UNL     1       5.323  -0.816   0.185  1.00  0.00    -0.029 SA
ATOM     18  N   UNL     1       5.343   0.218   2.568  1.00  0.00    -0.217 N 
ATOM     19  C   UNL     1       6.824  -0.005   0.747  1.00  0.00     0.120 C 
ATOM     20  C   UNL     1       6.710  -0.243   2.263  1.00  0.00     0.212 C 
ATOM     21  C   UNL     1       8.180  -0.448   0.285  1.00  0.00     0.156 C 
ATOM     22  C   UNL     1       7.904   0.496   2.816  1.00  0.00     0.188 C 
ATOM     23  S   UNL     1       9.213   0.042   1.667  1.00  0.00     0.155 S 
ATOM     24  O   UNL     1       9.936   1.243   1.308  1.00  0.00    -0.229 OA
ATOM     25  O   UNL     1       9.871  -1.143   2.171  1.00  0.00    -0.229 OA
BRANCH  18  26
ATOM     26  C   UNL     1       4.907   0.334   3.896  1.00  0.00     0.128 A 
ATOM     27  C   UNL     1       5.480   1.268   4.771  1.00  0.00     0.053 A 
ATOM     28  C   UNL     1       3.847  -0.448   4.390  1.00  0.00     0.053 A 
ATOM     29  C   UNL     1       5.021   1.417   6.086  1.00  0.00     0.025 A 
ATOM     30  C   UNL     1       3.388  -0.311   5.708  1.00  0.00     0.025 A 
ATOM     31  C   UNL     1       3.977   0.625   6.550  1.00  0.00     0.041 A 
ATOM     32  Cl  UNL     1       3.405   0.820   8.161  1.00  0.00    -0.084 Cl
ENDBRANCH  18  26
ENDBRANCH  11  12
ENDBRANCH  10  11
ENDBRANCH   9  10
ENDBRANCH   7   9
ENDBRANCH   6   7
ENDBRANCH   5   6
ENDBRANCH   4   5
ENDBRANCH   3   4
ENDBRANCH   2   3
ENDBRANCH   1   2
BRANCH   1  33
ATOM     33  O   UNL     1       1.131   0.289  -3.501  1.00  0.00    -0.377 OA
BRANCH  33  34
ATOM     34  C   UNL     1       1.277  -0.760  -4.454  1.00  0.00     0.188 C 
BRANCH  34  35
ATOM     35  C   UNL     1       0.078  -1.679  -4.705  1.00  0.00     0.188 C 
BRANCH  35  36
ATOM     36  O   UNL     1      -0.347  -2.531  -3.643  1.00  0.00    -0.376 OA
BRANCH  36  37
ATOM     37  C   UNL     1       0.600  -2.934  -2.657  1.00  0.00     0.202 C 
BRANCH  37  38
ATOM     38  C   UNL     1       1.568  -4.059  -3.032  1.00  0.00     0.261 C 
BRANCH  38  39
ATOM     39  O   UNL     1       2.350  -3.767  -4.197  1.00  0.00    -0.460 OA
BRANCH  39  40
ATOM     40  C   UNL     1       1.853  -4.274  -5.351  1.00  0.00     0.338 C 
ATOM     41  O   UNL     1       0.856  -4.950  -5.503  1.00  0.00    -0.246 OA
BRANCH  40  42
ATOM     42  C   UNL     1       2.644  -3.740  -6.472  1.00  0.00     0.060 A 
ATOM     43  C   UNL     1       1.969  -3.102  -7.520  1.00  0.00     0.016 A 
ATOM     44  C   UNL     1       4.024  -3.941  -6.521  1.00  0.00     0.016 A 
ATOM     45  C   UNL     1       2.670  -2.683  -8.642  1.00  0.00     0.010 A 
ATOM     46  C   UNL     1       4.723  -3.552  -7.661  1.00  0.00     0.010 A 
ATOM     47  C   UNL     1       4.037  -2.960  -8.736  1.00  0.00    -0.014 A 
BRANCH  47  48
ATOM     48  C   UNL     1       4.696  -2.844 -10.050  1.00  0.00     0.031 A 
ATOM     49  C   UNL     1       4.818  -4.084 -10.887  1.00  0.00     0.074 A 
ATOM     50  C   UNL     1       5.140  -1.657 -10.490  1.00  0.00     0.049 A 
ATOM     51  N   UNL     1       5.414  -4.254 -12.037  1.00  0.00    -0.248 NA
ATOM     52  C   UNL     1       4.183  -5.300 -10.350  1.00  0.00     0.031 C 
ATOM     53  C   UNL     1       5.010  -0.388  -9.776  1.00  0.00     0.029 A 
ATOM     54  N   UNL     1       5.801  -1.333 -11.644  1.00  0.00    -0.354 N 
ATOM     55  C   UNL     1       5.238  -5.595 -12.353  1.00  0.00     0.074 A 
ATOM     56  C   UNL     1       4.505  -6.201 -11.265  1.00  0.00     0.031 C 
ATOM     57  C   UNL     1       5.595   0.579 -10.503  1.00  0.00     0.029 A 
ATOM     58  C   UNL     1       6.170  -0.013 -11.708  1.00  0.00     0.049 A 
ATOM     59  H   UNL     1       5.993  -1.984 -12.358  1.00  0.00     0.167 HD
ATOM     60  C   UNL     1       5.651  -6.256 -13.459  1.00  0.00     0.037 A 
ATOM     61  C   UNL     1       6.918   0.626 -12.627  1.00  0.00     0.037 A 
ATOM     62  C   UNL     1       6.384  -5.634 -14.529  1.00  0.00     0.049 A 
ATOM     63  C   UNL     1       7.439  -0.151 -13.807  1.00  0.00     0.074 A 
ATOM     64  C   UNL     1       6.846  -6.202 -15.702  1.00  0.00     0.029 A 
ATOM     65  N   UNL     1       6.770  -4.301 -14.547  1.00  0.00    -0.354 N 
ATOM     66  N   UNL     1       7.261  -1.416 -14.111  1.00  0.00    -0.248 NA
ATOM     67  C   UNL     1       8.263   0.587 -14.773  1.00  0.00     0.031 C 
ATOM     68  C   UNL     1       7.564  -5.228 -16.401  1.00  0.00     0.029 A 
ATOM     69  C   UNL     1       7.491  -4.035 -15.697  1.00  0.00     0.049 A 
ATOM     70  H   UNL     1       6.561  -3.643 -13.846  1.00  0.00     0.167 HD
ATOM     71  C   UNL     1       7.920  -1.616 -15.317  1.00  0.00     0.074 A 
ATOM     72  C   UNL     1       8.491  -0.339 -15.694  1.00  0.00     0.031 C 
ATOM     73  C   UNL     1       8.042  -2.750 -16.051  1.00  0.00     0.037 A 
BRANCH  60  74
ATOM     74  C   UNL     1       5.357  -7.725 -13.539  1.00  0.00     0.057 A 
ATOM     75  C   UNL     1       4.057  -8.219 -13.711  1.00  0.00     0.134 A 
ATOM     76  C   UNL     1       6.396  -8.662 -13.460  1.00  0.00     0.134 A 
ATOM     77  F   UNL     1       3.013  -7.378 -13.774  1.00  0.00    -0.206 F 
ATOM     78  C   UNL     1       3.798  -9.589 -13.778  1.00  0.00     0.040 A 
ATOM     79  C   UNL     1       6.154 -10.033 -13.556  1.00  0.00     0.040 A 
ATOM     80  F   UNL     1       7.665  -8.259 -13.293  1.00  0.00    -0.206 F 
ATOM     81  C   UNL     1       4.851 -10.500 -13.708  1.00  0.00     0.006 A 
ENDBRANCH  60  74
BRANCH  61  82
ATOM     82  C   UNL     1       7.237   2.066 -12.457  1.00  0.00     0.057 A 
ATOM     83  C   UNL     1       6.733   3.030 -13.337  1.00  0.00     0.134 A 
ATOM     84  C   UNL     1       8.067   2.512 -11.421  1.00  0.00     0.134 A 
ATOM     85  F   UNL     1       5.947   2.664 -14.361  1.00  0.00    -0.206 F 
ATOM     86  C   UNL     1       7.061   4.381 -13.208  1.00  0.00     0.040 A 
ATOM     87  C   UNL     1       8.379   3.863 -11.262  1.00  0.00     0.040 A 
ATOM     88  F   UNL     1       8.578   1.640 -10.538  1.00  0.00    -0.206 F 
ATOM     89  C   UNL     1       7.883   4.801 -12.164  1.00  0.00     0.006 A 
ENDBRANCH  61  82
BRANCH  73  90
ATOM     90  C   UNL     1       8.781  -2.649 -17.355  1.00  0.00     0.057 A 
ATOM     91  C   UNL     1      10.168  -2.462 -17.412  1.00  0.00     0.134 A 
ATOM     92  C   UNL     1       8.096  -2.785 -18.570  1.00  0.00     0.134 A 
ATOM     93  F   UNL     1      10.881  -2.314 -16.285  1.00  0.00    -0.206 F 
ATOM     94  C   UNL     1      10.843  -2.386 -18.631  1.00  0.00     0.040 A 
ATOM     95  C   UNL     1       8.764  -2.745 -19.793  1.00  0.00     0.040 A 
ATOM     96  F   UNL     1       6.768  -2.979 -18.586  1.00  0.00    -0.206 F 
ATOM     97  C   UNL     1      10.141  -2.537 -19.826  1.00  0.00     0.006 A 
ENDBRANCH  73  90
ENDBRANCH  47  48
ENDBRANCH  40  42
ENDBRANCH  39  40
ENDBRANCH  38  39
ENDBRANCH  37  38
ENDBRANCH  36  37
ENDBRANCH  35  36
ENDBRANCH  34  35
ENDBRANCH  33  34
ENDBRANCH   1  33
TORSDOF 24
