REMARK SMILES CCN(C(=O)C[N@H+]1CCC[C@@H](C(=O)OCCOCCOCCOCCOC(=O)c2ccc(-c3c4nc(c(-c5c(F)cccc5F)c5ccc([nH]5)c(-c5c(F)cccc5F)c5nc(c(-c6c(F)cccc6F)c6ccc3[nH]6)C=C5)C=C4)cc2)C1)C1=CCCCC1
REMARK SMILES IDX 19 1 18 2 17 3 16 4 15 5 14 6 12 7 13 8 11 9 7 10 8 11 83 12
REMARK SMILES IDX 9 14 10 15 6 16 4 17 5 18 3 19 2 20 1 21 84 22 85 23 89 24
REMARK SMILES IDX 86 25 88 26 87 27 20 28 21 29 22 30 23 31 24 32 25 33 26 34
REMARK SMILES IDX 27 35 28 36 29 37 30 38 82 39 31 40 81 41 32 42 33 43 34 44
REMARK SMILES IDX 75 45 35 46 80 47 74 48 76 49 36 50 79 51 73 52 72 53 37 55
REMARK SMILES IDX 63 56 46 57 62 58 47 59 50 60 61 61 77 62 48 63 49 64 60 66
REMARK SMILES IDX 78 67 51 68 38 69 39 70 44 71 40 72 41 73 43 74 45 75 42 76
REMARK SMILES IDX 64 77 65 78 70 79 66 80 67 81 69 82 71 83 68 84 52 85 53 86
REMARK SMILES IDX 58 87 54 88 55 89 57 90 59 91 56 92
REMARK H PARENT 7 13 76 54 50 65
REMARK Flexibility Score: inf
ROOT
ATOM      1  C   UNL     1      -0.110  -3.398  -4.218  1.00  0.00     0.188 C 
ENDROOT
BRANCH   1   2
ATOM      2  C   UNL     1       0.979  -2.403  -3.740  1.00  0.00     0.188 C 
BRANCH   2   3
ATOM      3  O   UNL     1       2.153  -2.980  -3.187  1.00  0.00    -0.376 OA
BRANCH   3   4
ATOM      4  C   UNL     1       2.202  -3.139  -1.775  1.00  0.00     0.202 C 
BRANCH   4   5
ATOM      5  C   UNL     1       1.055  -3.958  -1.157  1.00  0.00     0.261 C 
BRANCH   5   6
ATOM      6  O   UNL     1      -0.234  -3.324  -1.311  1.00  0.00    -0.463 OA
BRANCH   6   7
ATOM      7  C   UNL     1      -0.384  -2.170  -0.632  1.00  0.00     0.314 C 
ATOM      8  O   UNL     1       0.400  -1.807   0.239  1.00  0.00    -0.252 OA
BRANCH   7   9
ATOM      9  C   UNL     1      -1.539  -1.302  -1.109  1.00  0.00     0.154 C 
ATOM     10  N   UNL     1      -1.980   1.030  -1.622  1.00  0.00    -0.326 N 
ATOM     11  C   UNL     1      -3.067   0.692  -2.565  1.00  0.00     0.262 C 
ATOM     12  C   UNL     1      -0.959  -0.016  -1.699  1.00  0.00     0.278 C 
ATOM     13  H   UNL     1      -2.341   1.049  -0.668  1.00  0.00     0.348 HD
ATOM     14  C   UNL     1      -3.650  -0.717  -2.299  1.00  0.00     0.062 C 
ATOM     15  C   UNL     1      -2.571  -1.801  -2.118  1.00  0.00     0.027 C 
BRANCH  10  16
ATOM     16  C   UNL     1      -1.458   2.406  -1.828  1.00  0.00     0.364 C 
BRANCH  16  17
ATOM     17  C   UNL     1       0.054   2.499  -2.117  1.00  0.00     0.281 C 
ATOM     18  O   UNL     1       0.406   2.569  -3.304  1.00  0.00    -0.268 OA
BRANCH  17  19
ATOM     19  N   UNL     1       0.981   2.404  -1.052  1.00  0.00    -0.312 N 
BRANCH  19  20
ATOM     20  C   UNL     1       0.618   2.456   0.386  1.00  0.00     0.122 C 
ATOM     21  C   UNL     1       0.541   1.139   1.149  1.00  0.00     0.028 C 
ENDBRANCH  19  20
BRANCH  19  22
ATOM     22  C   UNL     1       2.351   2.436  -1.363  1.00  0.00     0.017 C 
ATOM     23  C   UNL     1       2.880   3.515  -1.967  1.00  0.00    -0.005 C 
ATOM     24  C   UNL     1       3.187   1.203  -1.090  1.00  0.00     0.054 C 
ATOM     25  C   UNL     1       4.303   3.611  -2.424  1.00  0.00     0.029 C 
ATOM     26  C   UNL     1       4.695   1.408  -1.282  1.00  0.00     0.007 C 
ATOM     27  C   UNL     1       5.002   2.256  -2.507  1.00  0.00     0.005 C 
ENDBRANCH  19  22
ENDBRANCH  17  19
ENDBRANCH  16  17
ENDBRANCH  10  16
ENDBRANCH   7   9
ENDBRANCH   6   7
ENDBRANCH   5   6
ENDBRANCH   4   5
ENDBRANCH   3   4
ENDBRANCH   2   3
ENDBRANCH   1   2
BRANCH   1  28
ATOM     28  O   UNL     1       0.196  -4.683  -4.745  1.00  0.00    -0.377 OA
BRANCH  28  29
ATOM     29  C   UNL     1       1.548  -5.093  -4.763  1.00  0.00     0.188 C 
BRANCH  29  30
ATOM     30  C   UNL     1       2.425  -4.352  -5.786  1.00  0.00     0.188 C 
BRANCH  30  31
ATOM     31  O   UNL     1       1.842  -3.138  -6.237  1.00  0.00    -0.376 OA
BRANCH  31  32
ATOM     32  C   UNL     1       1.251  -3.106  -7.525  1.00  0.00     0.202 C 
BRANCH  32  33
ATOM     33  C   UNL     1       0.046  -4.011  -7.835  1.00  0.00     0.261 C 
BRANCH  33  34
ATOM     34  O   UNL     1       0.141  -5.388  -7.452  1.00  0.00    -0.460 OA
BRANCH  34  35
ATOM     35  C   UNL     1       1.051  -6.163  -8.071  1.00  0.00     0.338 C 
ATOM     36  O   UNL     1       1.809  -5.841  -8.969  1.00  0.00    -0.246 OA
BRANCH  35  37
ATOM     37  C   UNL     1       1.120  -7.434  -7.315  1.00  0.00     0.060 A 
ATOM     38  C   UNL     1       2.350  -7.828  -6.768  1.00  0.00     0.016 A 
ATOM     39  C   UNL     1      -0.030  -8.195  -7.089  1.00  0.00     0.016 A 
ATOM     40  C   UNL     1       2.433  -8.985  -5.996  1.00  0.00     0.010 A 
ATOM     41  C   UNL     1       0.062  -9.381  -6.357  1.00  0.00     0.010 A 
ATOM     42  C   UNL     1       1.300  -9.793  -5.833  1.00  0.00    -0.014 A 
BRANCH  42  43
ATOM     43  C   UNL     1       1.473 -11.183  -5.357  1.00  0.00     0.031 A 
ATOM     44  C   UNL     1       1.702 -12.244  -6.398  1.00  0.00     0.074 A 
ATOM     45  C   UNL     1       1.458 -11.499  -4.051  1.00  0.00     0.049 A 
ATOM     46  N   UNL     1       1.847 -13.534  -6.255  1.00  0.00    -0.248 NA
ATOM     47  C   UNL     1       1.776 -11.778  -7.793  1.00  0.00     0.031 C 
ATOM     48  C   UNL     1       1.294 -10.552  -2.950  1.00  0.00     0.029 A 
ATOM     49  N   UNL     1       1.577 -12.719  -3.434  1.00  0.00    -0.354 N 
ATOM     50  C   UNL     1       2.027 -14.032  -7.540  1.00  0.00     0.074 A 
ATOM     51  C   UNL     1       1.943 -12.914  -8.450  1.00  0.00     0.031 C 
ATOM     52  C   UNL     1       1.306 -11.232  -1.789  1.00  0.00     0.029 A 
ATOM     53  C   UNL     1       1.448 -12.661  -2.068  1.00  0.00     0.049 A 
ATOM     54  H   UNL     1       1.739 -13.557  -3.925  1.00  0.00     0.167 HD
ATOM     55  C   UNL     1       2.250 -15.309  -7.926  1.00  0.00     0.037 A 
ATOM     56  C   UNL     1       1.424 -13.654  -1.158  1.00  0.00     0.037 A 
ATOM     57  C   UNL     1       2.317 -16.421  -7.018  1.00  0.00     0.049 A 
ATOM     58  C   UNL     1       1.585 -15.081  -1.621  1.00  0.00     0.074 A 
ATOM     59  C   UNL     1       2.542 -17.755  -7.304  1.00  0.00     0.029 A 
ATOM     60  N   UNL     1       2.144 -16.327  -5.645  1.00  0.00    -0.354 N 
ATOM     61  N   UNL     1       1.780 -15.544  -2.833  1.00  0.00    -0.248 NA
ATOM     62  C   UNL     1       1.524 -16.125  -0.588  1.00  0.00     0.031 C 
ATOM     63  C   UNL     1       2.449 -18.477  -6.110  1.00  0.00     0.029 A 
ATOM     64  C   UNL     1       2.230 -17.584  -5.073  1.00  0.00     0.049 A 
ATOM     65  H   UNL     1       1.984 -15.490  -5.151  1.00  0.00     0.167 HD
ATOM     66  C   UNL     1       1.899 -16.923  -2.704  1.00  0.00     0.074 A 
ATOM     67  C   UNL     1       1.764 -17.221  -1.293  1.00  0.00     0.031 C 
ATOM     68  C   UNL     1       2.104 -17.859  -3.663  1.00  0.00     0.037 A 
BRANCH  55  69
ATOM     69  C   UNL     1       2.399 -15.567  -9.396  1.00  0.00     0.057 A 
ATOM     70  C   UNL     1       3.524 -15.141 -10.114  1.00  0.00     0.134 A 
ATOM     71  C   UNL     1       1.406 -16.259 -10.100  1.00  0.00     0.134 A 
ATOM     72  F   UNL     1       4.501 -14.453  -9.504  1.00  0.00    -0.206 F 
ATOM     73  C   UNL     1       3.646 -15.375 -11.485  1.00  0.00     0.040 A 
ATOM     74  C   UNL     1       1.530 -16.524 -11.464  1.00  0.00     0.040 A 
ATOM     75  F   UNL     1       0.302 -16.691  -9.473  1.00  0.00    -0.206 F 
ATOM     76  C   UNL     1       2.649 -16.076 -12.162  1.00  0.00     0.006 A 
ENDBRANCH  55  69
BRANCH  56  77
ATOM     77  C   UNL     1       1.222 -13.348   0.282  1.00  0.00     0.057 A 
ATOM     78  C   UNL     1       2.236 -13.567   1.222  1.00  0.00     0.134 A 
ATOM     79  C   UNL     1      -0.002 -12.863   0.758  1.00  0.00     0.134 A 
ATOM     80  F   UNL     1       3.422 -14.056   0.834  1.00  0.00    -0.206 F 
ATOM     81  C   UNL     1       2.034 -13.335   2.585  1.00  0.00     0.040 A 
ATOM     82  C   UNL     1      -0.209 -12.600   2.114  1.00  0.00     0.040 A 
ATOM     83  F   UNL     1      -1.016 -12.634  -0.089  1.00  0.00    -0.206 F 
ATOM     84  C   UNL     1       0.809 -12.845   3.033  1.00  0.00     0.006 A 
ENDBRANCH  56  77
BRANCH  68  85
ATOM     85  C   UNL     1       2.243 -19.288  -3.220  1.00  0.00     0.057 A 
ATOM     86  C   UNL     1       1.153 -20.030  -2.748  1.00  0.00     0.134 A 
ATOM     87  C   UNL     1       3.478 -19.944  -3.318  1.00  0.00     0.134 A 
ATOM     88  F   UNL     1      -0.055 -19.460  -2.622  1.00  0.00    -0.206 F 
ATOM     89  C   UNL     1       1.292 -21.366  -2.366  1.00  0.00     0.040 A 
ATOM     90  C   UNL     1       3.622 -21.287  -2.969  1.00  0.00     0.040 A 
ATOM     91  F   UNL     1       4.560 -19.295  -3.775  1.00  0.00    -0.206 F 
ATOM     92  C   UNL     1       2.528 -22.000  -2.484  1.00  0.00     0.006 A 
ENDBRANCH  68  85
ENDBRANCH  42  43
ENDBRANCH  35  37
ENDBRANCH  34  35
ENDBRANCH  33  34
ENDBRANCH  32  33
ENDBRANCH  31  32
ENDBRANCH  30  31
ENDBRANCH  29  30
ENDBRANCH  28  29
ENDBRANCH   1  28
TORSDOF 25
