REMARK SMILES CC(C)C[C@H](C(=O)OCCOCCOCCOCCOC(=O)c1ccc(-c2c3nc(c(-c4c(F)cccc4F)c4ccc([nH]4)c(-c4c(F)cccc4F)c4nc(c(-c5c(F)cccc5F)c5ccc2[nH]5)C=C4)C=C3)cc1)[C@@H]1CCO[C@]2(CCOC2)C1
REMARK SMILES IDX 14 1 13 2 12 3 11 4 10 5 9 6 8 7 6 8 7 9 5 10 4 11 2 12 1 13
REMARK SMILES IDX 3 14 77 15 78 16 86 17 79 18 81 19 80 20 82 21 85 22 83 23
REMARK SMILES IDX 84 24 15 25 16 26 17 27 18 28 19 29 20 30 21 31 22 32 23 33
REMARK SMILES IDX 24 34 76 35 25 36 75 37 26 38 27 39 28 40 69 41 29 42 74 43
REMARK SMILES IDX 68 44 70 45 30 46 73 47 67 48 66 49 31 51 57 52 40 53 56 54
REMARK SMILES IDX 41 55 44 56 55 57 71 58 42 59 43 60 54 62 72 63 45 64 32 65
REMARK SMILES IDX 33 66 38 67 34 68 35 69 37 70 39 71 36 72 58 73 59 74 64 75
REMARK SMILES IDX 60 76 61 77 63 78 65 79 62 80 46 81 47 82 52 83 48 84 49 85
REMARK SMILES IDX 51 86 53 87 50 88
REMARK H PARENT 70 50 44 61
REMARK Flexibility Score: inf
ROOT
ATOM      1  O   UNL     1       0.598   1.483   4.397  1.00  0.00    -0.377 OA
ENDROOT
BRANCH   1   2
ATOM      2  C   UNL     1       0.451   0.444   3.428  1.00  0.00     0.188 C 
BRANCH   2   3
ATOM      3  C   UNL     1       1.518   0.321   2.318  1.00  0.00     0.188 C 
BRANCH   3   4
ATOM      4  O   UNL     1       1.952   1.536   1.710  1.00  0.00    -0.376 OA
BRANCH   4   5
ATOM      5  C   UNL     1       0.932   2.415   1.248  1.00  0.00     0.202 C 
BRANCH   5   6
ATOM      6  C   UNL     1       0.122   1.835   0.089  1.00  0.00     0.261 C 
BRANCH   6   7
ATOM      7  O   UNL     1      -0.865   0.910   0.599  1.00  0.00    -0.463 OA
BRANCH   7   8
ATOM      8  C   UNL     1      -1.028  -0.263  -0.047  1.00  0.00     0.309 C 
ATOM      9  O   UNL     1      -0.381  -0.617  -1.023  1.00  0.00    -0.252 OA
BRANCH   8  10
ATOM     10  C   UNL     1      -2.074  -1.148   0.623  1.00  0.00     0.103 C 
BRANCH  10  11
ATOM     11  C   UNL     1      -1.454  -1.935   1.801  1.00  0.00     0.018 C 
BRANCH  11  12
ATOM     12  C   UNL     1      -1.760  -3.448   1.792  1.00  0.00    -0.017 C 
ATOM     13  C   UNL     1      -0.957  -4.177   0.709  1.00  0.00     0.007 C 
ATOM     14  C   UNL     1      -1.420  -4.055   3.158  1.00  0.00     0.007 C 
ENDBRANCH  11  12
ENDBRANCH  10  11
BRANCH  10  15
ATOM     15  C   UNL     1      -3.478  -0.515   0.900  1.00  0.00     0.008 C 
ATOM     16  C   UNL     1      -4.064   0.164  -0.345  1.00  0.00     0.033 C 
ATOM     17  C   UNL     1      -3.738   0.312   2.191  1.00  0.00     0.042 C 
ATOM     18  C   UNL     1      -3.885   1.668  -0.334  1.00  0.00     0.161 C 
ATOM     19  C   UNL     1      -3.972   1.844   2.058  1.00  0.00     0.094 C 
ATOM     20  O   UNL     1      -4.531   2.216   0.801  1.00  0.00    -0.372 OA
ATOM     21  C   UNL     1      -2.754   2.676   2.429  1.00  0.00     0.066 C 
ATOM     22  C   UNL     1      -4.931   2.366   3.147  1.00  0.00     0.195 C 
ATOM     23  C   UNL     1      -2.797   2.761   3.942  1.00  0.00     0.163 C 
ATOM     24  O   UNL     1      -4.168   2.637   4.328  1.00  0.00    -0.378 OA
ENDBRANCH  10  15
ENDBRANCH   8  10
ENDBRANCH   7   8
ENDBRANCH   6   7
ENDBRANCH   5   6
ENDBRANCH   4   5
ENDBRANCH   3   4
ENDBRANCH   2   3
ENDBRANCH   1   2
BRANCH   1  25
ATOM     25  C   UNL     1       1.927   1.866   4.728  1.00  0.00     0.188 C 
BRANCH  25  26
ATOM     26  C   UNL     1       2.835   0.789   5.339  1.00  0.00     0.188 C 
BRANCH  26  27
ATOM     27  O   UNL     1       2.382  -0.529   5.058  1.00  0.00    -0.376 OA
BRANCH  27  28
ATOM     28  C   UNL     1       2.184  -1.364   6.187  1.00  0.00     0.202 C 
BRANCH  28  29
ATOM     29  C   UNL     1       0.954  -1.080   7.069  1.00  0.00     0.261 C 
BRANCH  29  30
ATOM     30  O   UNL     1       0.562   0.292   7.227  1.00  0.00    -0.460 OA
BRANCH  30  31
ATOM     31  C   UNL     1       1.184   0.997   8.191  1.00  0.00     0.338 C 
ATOM     32  O   UNL     1       2.139   0.635   8.868  1.00  0.00    -0.246 OA
BRANCH  31  33
ATOM     33  C   UNL     1       0.593   2.346   8.261  1.00  0.00     0.060 A 
ATOM     34  C   UNL     1       1.397   3.459   7.987  1.00  0.00     0.016 A 
ATOM     35  C   UNL     1      -0.731   2.516   8.678  1.00  0.00     0.016 A 
ATOM     36  C   UNL     1       0.881   4.747   8.137  1.00  0.00     0.010 A 
ATOM     37  C   UNL     1      -1.235   3.807   8.864  1.00  0.00     0.010 A 
ATOM     38  C   UNL     1      -0.422   4.927   8.621  1.00  0.00    -0.014 A 
BRANCH  38  39
ATOM     39  C   UNL     1      -0.849   6.275   9.067  1.00  0.00     0.031 A 
ATOM     40  C   UNL     1      -0.568   6.677  10.489  1.00  0.00     0.074 A 
ATOM     41  C   UNL     1      -1.443   7.138   8.226  1.00  0.00     0.049 A 
ATOM     42  N   UNL     1      -0.835   7.799  11.106  1.00  0.00    -0.248 NA
ATOM     43  C   UNL     1       0.113   5.675  11.327  1.00  0.00     0.031 C 
ATOM     44  C   UNL     1      -1.737   6.881   6.819  1.00  0.00     0.029 A 
ATOM     45  N   UNL     1      -1.909   8.411   8.444  1.00  0.00    -0.354 N 
ATOM     46  C   UNL     1      -0.344   7.644  12.396  1.00  0.00     0.074 A 
ATOM     47  C   UNL     1       0.209   6.310  12.484  1.00  0.00     0.031 C 
ATOM     48  C   UNL     1      -2.350   7.960   6.300  1.00  0.00     0.029 A 
ATOM     49  C   UNL     1      -2.511   8.972   7.345  1.00  0.00     0.049 A 
ATOM     50  H   UNL     1      -1.821   8.877   9.306  1.00  0.00     0.167 HD
ATOM     51  C   UNL     1      -0.346   8.535  13.416  1.00  0.00     0.037 A 
ATOM     52  C   UNL     1      -3.137  10.157   7.208  1.00  0.00     0.037 A 
ATOM     53  C   UNL     1      -0.926   9.848  13.340  1.00  0.00     0.049 A 
ATOM     54  C   UNL     1      -3.208  11.098   8.384  1.00  0.00     0.074 A 
ATOM     55  C   UNL     1      -0.989  10.822  14.321  1.00  0.00     0.029 A 
ATOM     56  N   UNL     1      -1.562  10.365  12.221  1.00  0.00    -0.354 N 
ATOM     57  N   UNL     1      -2.712  10.957   9.590  1.00  0.00    -0.248 NA
ATOM     58  C   UNL     1      -3.925  12.366   8.178  1.00  0.00     0.031 C 
ATOM     59  C   UNL     1      -1.704  11.910  13.811  1.00  0.00     0.029 A 
ATOM     60  C   UNL     1      -2.041  11.635  12.495  1.00  0.00     0.049 A 
ATOM     61  H   UNL     1      -1.658   9.898  11.360  1.00  0.00     0.167 HD
ATOM     62  C   UNL     1      -3.032  12.123  10.275  1.00  0.00     0.074 A 
ATOM     63  C   UNL     1      -3.755  12.968   9.347  1.00  0.00     0.031 C 
ATOM     64  C   UNL     1      -2.752  12.466  11.557  1.00  0.00     0.037 A 
BRANCH  51  65
ATOM     65  C   UNL     1       0.274   8.096  14.709  1.00  0.00     0.057 A 
ATOM     66  C   UNL     1       1.661   7.954  14.851  1.00  0.00     0.134 A 
ATOM     67  C   UNL     1      -0.523   7.822  15.827  1.00  0.00     0.134 A 
ATOM     68  F   UNL     1       2.478   8.183  13.812  1.00  0.00    -0.206 F 
ATOM     69  C   UNL     1       2.231   7.532  16.053  1.00  0.00     0.040 A 
ATOM     70  C   UNL     1       0.038   7.424  17.042  1.00  0.00     0.040 A 
ATOM     71  F   UNL     1      -1.857   7.939  15.758  1.00  0.00    -0.206 F 
ATOM     72  C   UNL     1       1.419   7.271  17.155  1.00  0.00     0.006 A 
ENDBRANCH  51  65
BRANCH  52  73
ATOM     73  C   UNL     1      -3.766  10.523   5.913  1.00  0.00     0.057 A 
ATOM     74  C   UNL     1      -3.257  11.557   5.120  1.00  0.00     0.134 A 
ATOM     75  C   UNL     1      -4.913   9.863   5.453  1.00  0.00     0.134 A 
ATOM     76  F   UNL     1      -2.178  12.246   5.521  1.00  0.00    -0.206 F 
ATOM     77  C   UNL     1      -3.873  11.935   3.925  1.00  0.00     0.040 A 
ATOM     78  C   UNL     1      -5.524  10.212   4.248  1.00  0.00     0.040 A 
ATOM     79  F   UNL     1      -5.454   8.866   6.168  1.00  0.00    -0.206 F 
ATOM     80  C   UNL     1      -5.008  11.257   3.484  1.00  0.00     0.006 A 
ENDBRANCH  52  73
BRANCH  64  81
ATOM     81  C   UNL     1      -3.196  13.822  12.023  1.00  0.00     0.057 A 
ATOM     82  C   UNL     1      -4.542  14.117  12.273  1.00  0.00     0.134 A 
ATOM     83  C   UNL     1      -2.256  14.831  12.273  1.00  0.00     0.134 A 
ATOM     84  F   UNL     1      -5.493  13.199  12.044  1.00  0.00    -0.206 F 
ATOM     85  C   UNL     1      -4.939  15.373  12.736  1.00  0.00     0.040 A 
ATOM     86  C   UNL     1      -2.638  16.081  12.761  1.00  0.00     0.040 A 
ATOM     87  F   UNL     1      -0.949  14.611  12.065  1.00  0.00    -0.206 F 
ATOM     88  C   UNL     1      -3.984  16.357  12.988  1.00  0.00     0.006 A 
ENDBRANCH  64  81
ENDBRANCH  38  39
ENDBRANCH  31  33
ENDBRANCH  30  31
ENDBRANCH  29  30
ENDBRANCH  28  29
ENDBRANCH  27  28
ENDBRANCH  26  27
ENDBRANCH  25  26
ENDBRANCH   1  25
TORSDOF 23
