REMARK SMILES CCCCCCNC(=O)Oc1cccc(-c2ccc([C@@H](C)C(=O)OCCOCCOCCOCCOC(=O)c3ccc(-c4c5nc(c(-c6c(F)cccc6F)c6ccc([nH]6)c(-c6c(F)cccc6F)c6nc(c(-c7c(F)cccc7F)c7ccc4[nH]7)C=C6)C=C5)cc3)cc2C)c1
REMARK SMILES IDX 26 1 25 2 24 3 22 4 23 5 20 6 21 7 19 8 16 9 17 10 94 11
REMARK SMILES IDX 18 12 93 13 95 14 15 15 11 16 12 17 96 18 13 19 14 20 10 21
REMARK SMILES IDX 8 22 7 23 9 25 6 26 5 27 4 28 3 29 2 30 1 31 27 32 28 33
REMARK SMILES IDX 29 34 30 35 31 36 32 37 33 38 34 39 35 40 36 41 37 42 38 43
REMARK SMILES IDX 39 44 40 45 92 46 41 47 91 48 42 49 43 50 44 51 85 52 45 53
REMARK SMILES IDX 90 54 84 55 86 56 46 57 89 58 83 59 82 60 47 62 73 63 56 64
REMARK SMILES IDX 72 65 57 66 60 67 71 68 87 69 58 70 59 71 70 73 88 74 61 75
REMARK SMILES IDX 48 76 49 77 54 78 50 79 51 80 53 81 55 82 52 83 74 84 75 85
REMARK SMILES IDX 80 86 76 87 77 88 79 89 81 90 78 91 62 92 63 93 68 94 64 95
REMARK SMILES IDX 65 96 67 97 69 98 66 99
REMARK H PARENT 7 24 86 61 60 72
REMARK Flexibility Score: inf
ROOT
ATOM      1  C   UNL     1      -1.018  -9.631  12.383  1.00  0.00     0.202 C 
ENDROOT
BRANCH   1   2
ATOM      2  C   UNL     1      -2.500  -9.893  12.714  1.00  0.00     0.261 C 
BRANCH   2   3
ATOM      3  O   UNL     1      -3.485  -9.125  11.991  1.00  0.00    -0.463 OA
BRANCH   3   4
ATOM      4  C   UNL     1      -4.086  -8.126  12.677  1.00  0.00     0.313 C 
ATOM      5  O   UNL     1      -3.850  -7.885  13.861  1.00  0.00    -0.252 OA
BRANCH   4   6
ATOM      6  C   UNL     1      -5.129  -7.312  11.912  1.00  0.00     0.126 C 
ATOM      7  C   UNL     1      -6.509  -7.676  12.446  1.00  0.00     0.025 C 
BRANCH   6   8
ATOM      8  C   UNL     1      -5.125  -7.240  10.383  1.00  0.00    -0.034 A 
ATOM      9  C   UNL     1      -5.077  -6.951   7.519  1.00  0.00    -0.015 A 
ATOM     10  C   UNL     1      -5.231  -8.205   8.148  1.00  0.00     0.009 A 
ATOM     11  C   UNL     1      -4.946  -5.821   8.354  1.00  0.00    -0.043 A 
ATOM     12  C   UNL     1      -5.259  -8.351   9.549  1.00  0.00     0.005 A 
ATOM     13  C   UNL     1      -4.976  -5.982   9.759  1.00  0.00     0.008 A 
ATOM     14  C   UNL     1      -4.729  -4.424   7.828  1.00  0.00     0.045 C 
BRANCH   9  15
ATOM     15  C   UNL     1      -5.137  -6.858   6.038  1.00  0.00    -0.014 A 
ATOM     16  C   UNL     1      -4.255  -6.121   3.890  1.00  0.00     0.133 A 
ATOM     17  C   UNL     1      -5.420  -6.522   3.240  1.00  0.00     0.047 A 
ATOM     18  C   UNL     1      -4.098  -6.296   5.271  1.00  0.00     0.056 A 
ATOM     19  C   UNL     1      -6.439  -7.116   3.976  1.00  0.00     0.004 A 
ATOM     20  C   UNL     1      -6.300  -7.274   5.359  1.00  0.00     0.009 A 
BRANCH  16  21
ATOM     21  O   UNL     1      -3.339  -5.378   3.115  1.00  0.00    -0.410 OA
BRANCH  21  22
ATOM     22  C   UNL     1      -1.984  -5.663   3.174  1.00  0.00     0.412 C 
ATOM     23  N   UNL     1      -1.215  -4.795   2.446  1.00  0.00    -0.321 N 
ATOM     24  H   UNL     1      -0.243  -4.948   2.469  1.00  0.00     0.167 HD
ATOM     25  O   UNL     1      -1.473  -6.590   3.792  1.00  0.00    -0.224 OA
BRANCH  23  26
ATOM     26  C   UNL     1      -1.672  -3.676   1.642  1.00  0.00     0.119 C 
BRANCH  26  27
ATOM     27  C   UNL     1      -1.069  -2.347   2.102  1.00  0.00     0.021 C 
BRANCH  27  28
ATOM     28  C   UNL     1       0.459  -2.255   2.002  1.00  0.00     0.002 C 
BRANCH  28  29
ATOM     29  C   UNL     1       1.043  -2.425   0.595  1.00  0.00    -0.000 C 
BRANCH  29  30
ATOM     30  C   UNL     1       0.579  -1.396  -0.440  1.00  0.00    -0.003 C 
ATOM     31  C   UNL     1       0.987   0.029  -0.100  1.00  0.00     0.004 C 
ENDBRANCH  29  30
ENDBRANCH  28  29
ENDBRANCH  27  28
ENDBRANCH  26  27
ENDBRANCH  23  26
ENDBRANCH  21  22
ENDBRANCH  16  21
ENDBRANCH   9  15
ENDBRANCH   6   8
ENDBRANCH   4   6
ENDBRANCH   3   4
ENDBRANCH   2   3
ENDBRANCH   1   2
BRANCH   1  32
ATOM     32  O   UNL     1      -0.491  -8.312  12.371  1.00  0.00    -0.376 OA
BRANCH  32  33
ATOM     33  C   UNL     1      -1.114  -7.287  11.609  1.00  0.00     0.188 C 
BRANCH  33  34
ATOM     34  C   UNL     1      -1.754  -7.588  10.247  1.00  0.00     0.188 C 
BRANCH  34  35
ATOM     35  O   UNL     1      -1.826  -8.958   9.910  1.00  0.00    -0.377 OA
BRANCH  35  36
ATOM     36  C   UNL     1      -0.882  -9.422   8.961  1.00  0.00     0.188 C 
BRANCH  36  37
ATOM     37  C   UNL     1       0.562  -8.904   9.101  1.00  0.00     0.188 C 
BRANCH  37  38
ATOM     38  O   UNL     1       0.665  -7.485   9.142  1.00  0.00    -0.376 OA
BRANCH  38  39
ATOM     39  C   UNL     1       0.950  -6.785   7.939  1.00  0.00     0.202 C 
BRANCH  39  40
ATOM     40  C   UNL     1      -0.092  -6.813   6.809  1.00  0.00     0.261 C 
BRANCH  40  41
ATOM     41  O   UNL     1      -0.490  -8.102   6.330  1.00  0.00    -0.460 OA
BRANCH  41  42
ATOM     42  C   UNL     1       0.455  -8.924   5.825  1.00  0.00     0.338 C 
ATOM     43  O   UNL     1       1.639  -8.704   5.706  1.00  0.00    -0.246 OA
BRANCH  42  44
ATOM     44  C   UNL     1      -0.181 -10.250   5.642  1.00  0.00     0.060 A 
ATOM     45  C   UNL     1       0.331 -11.355   6.338  1.00  0.00     0.016 A 
ATOM     46  C   UNL     1      -1.278 -10.396   4.793  1.00  0.00     0.016 A 
ATOM     47  C   UNL     1      -0.225 -12.623   6.149  1.00  0.00     0.010 A 
ATOM     48  C   UNL     1      -1.814 -11.668   4.581  1.00  0.00     0.010 A 
ATOM     49  C   UNL     1      -1.263 -12.792   5.225  1.00  0.00    -0.014 A 
BRANCH  49  50
ATOM     50  C   UNL     1      -1.609 -14.146   4.727  1.00  0.00     0.031 A 
ATOM     51  C   UNL     1      -0.980 -14.591   3.435  1.00  0.00     0.074 A 
ATOM     52  C   UNL     1      -2.466 -14.953   5.375  1.00  0.00     0.049 A 
ATOM     53  N   UNL     1      -1.234 -15.642   2.700  1.00  0.00    -0.248 NA
ATOM     54  C   UNL     1       0.078 -13.719   2.894  1.00  0.00     0.031 C 
ATOM     55  C   UNL     1      -3.089 -14.670   6.665  1.00  0.00     0.029 A 
ATOM     56  N   UNL     1      -2.980 -16.174   5.011  1.00  0.00    -0.354 N 
ATOM     57  C   UNL     1      -0.389 -15.543   1.602  1.00  0.00     0.074 A 
ATOM     58  C   UNL     1       0.373 -14.325   1.755  1.00  0.00     0.031 C 
ATOM     59  C   UNL     1      -3.928 -15.676   6.972  1.00  0.00     0.029 A 
ATOM     60  C   UNL     1      -3.934 -16.648   5.879  1.00  0.00     0.049 A 
ATOM     61  H   UNL     1      -2.692 -16.663   4.207  1.00  0.00     0.167 HD
ATOM     62  C   UNL     1      -0.262 -16.393   0.556  1.00  0.00     0.037 A 
ATOM     63  C   UNL     1      -4.747 -17.720   5.776  1.00  0.00     0.037 A 
ATOM     64  C   UNL     1      -1.026 -17.601   0.407  1.00  0.00     0.049 A 
ATOM     65  C   UNL     1      -4.652 -18.607   4.557  1.00  0.00     0.074 A 
ATOM     66  C   UNL     1      -0.970 -18.535  -0.612  1.00  0.00     0.029 A 
ATOM     67  N   UNL     1      -1.990 -18.038   1.302  1.00  0.00    -0.354 N 
ATOM     68  N   UNL     1      -3.852 -18.511   3.523  1.00  0.00    -0.248 NA
ATOM     69  C   UNL     1      -5.577 -19.749   4.489  1.00  0.00     0.031 C 
ATOM     70  C   UNL     1      -1.943 -19.506  -0.365  1.00  0.00     0.029 A 
ATOM     71  C   UNL     1      -2.553 -19.217   0.846  1.00  0.00     0.049 A 
ATOM     72  H   UNL     1      -2.238 -17.578   2.136  1.00  0.00     0.167 HD
ATOM     73  C   UNL     1      -4.141 -19.602   2.710  1.00  0.00     0.074 A 
ATOM     74  C   UNL     1      -5.196 -20.344   3.367  1.00  0.00     0.031 C 
ATOM     75  C   UNL     1      -3.578 -19.962   1.531  1.00  0.00     0.037 A 
BRANCH  62  76
ATOM     76  C   UNL     1       0.710 -16.023  -0.526  1.00  0.00     0.057 A 
ATOM     77  C   UNL     1       2.095 -16.053  -0.325  1.00  0.00     0.134 A 
ATOM     78  C   UNL     1       0.249 -15.658  -1.798  1.00  0.00     0.134 A 
ATOM     79  F   UNL     1       2.603 -16.378   0.874  1.00  0.00    -0.206 F 
ATOM     80  C   UNL     1       2.987 -15.713  -1.344  1.00  0.00     0.040 A 
ATOM     81  C   UNL     1       1.131 -15.346  -2.833  1.00  0.00     0.040 A 
ATOM     82  F   UNL     1      -1.066 -15.610  -2.059  1.00  0.00    -0.206 F 
ATOM     83  C   UNL     1       2.505 -15.367  -2.605  1.00  0.00     0.006 A 
ENDBRANCH  62  76
BRANCH  63  84
ATOM     84  C   UNL     1      -5.747 -18.008   6.837  1.00  0.00     0.057 A 
ATOM     85  C   UNL     1      -5.646 -19.152   7.639  1.00  0.00     0.134 A 
ATOM     86  C   UNL     1      -6.848 -17.169   7.051  1.00  0.00     0.134 A 
ATOM     87  F   UNL     1      -4.630 -20.009   7.466  1.00  0.00    -0.206 F 
ATOM     88  C   UNL     1      -6.614 -19.463   8.597  1.00  0.00     0.040 A 
ATOM     89  C   UNL     1      -7.807 -17.453   8.026  1.00  0.00     0.040 A 
ATOM     90  F   UNL     1      -7.008 -16.059   6.317  1.00  0.00    -0.206 F 
ATOM     91  C   UNL     1      -7.696 -18.608   8.796  1.00  0.00     0.006 A 
ENDBRANCH  63  84
BRANCH  75  92
ATOM     92  C   UNL     1      -4.018 -21.253   0.903  1.00  0.00     0.057 A 
ATOM     93  C   UNL     1      -5.262 -21.397   0.279  1.00  0.00     0.134 A 
ATOM     94  C   UNL     1      -3.135 -22.341   0.843  1.00  0.00     0.134 A 
ATOM     95  F   UNL     1      -6.157 -20.398   0.307  1.00  0.00    -0.206 F 
ATOM     96  C   UNL     1      -5.615 -22.579  -0.376  1.00  0.00     0.040 A 
ATOM     97  C   UNL     1      -3.465 -23.515   0.168  1.00  0.00     0.040 A 
ATOM     98  F   UNL     1      -1.921 -22.264   1.411  1.00  0.00    -0.206 F 
ATOM     99  C   UNL     1      -4.710 -23.638  -0.443  1.00  0.00     0.006 A 
ENDBRANCH  75  92
ENDBRANCH  49  50
ENDBRANCH  42  44
ENDBRANCH  41  42
ENDBRANCH  40  41
ENDBRANCH  39  40
ENDBRANCH  38  39
ENDBRANCH  37  38
ENDBRANCH  36  37
ENDBRANCH  35  36
ENDBRANCH  34  35
ENDBRANCH  33  34
ENDBRANCH  32  33
ENDBRANCH   1  32
TORSDOF 29
