REMARK SMILES Nc1c(CC(=O)OCCOCCOCCOCCOC(=O)c2ccc(-c3c4nc(c(-c5c(F)cccc5F)c5ccc([nH]5)c(-c5c(F)cccc5F)c5nc(c(-c6c(F)cccc6F)c6ccc3[nH]6)C=C5)C=C4)cc2)cccc1C(=O)c1ccc(Br)cc1
REMARK SMILES IDX 12 1 11 2 10 3 9 4 8 5 7 6 5 7 6 8 4 9 3 10 2 11 79 12 76 13
REMARK SMILES IDX 78 14 77 15 1 16 80 19 81 20 82 21 83 22 88 23 84 24 87 25
REMARK SMILES IDX 85 26 86 27 13 28 14 29 15 30 16 31 17 32 18 33 19 34 20 35
REMARK SMILES IDX 21 36 22 37 23 38 75 39 24 40 74 41 25 42 26 43 27 44 68 45
REMARK SMILES IDX 28 46 73 47 67 48 69 49 29 50 72 51 66 52 65 53 30 55 56 56
REMARK SMILES IDX 39 57 55 58 40 59 43 60 54 61 70 62 41 63 42 64 53 66 71 67
REMARK SMILES IDX 44 68 31 69 32 70 37 71 33 72 34 73 36 74 38 75 35 76 57 77
REMARK SMILES IDX 58 78 63 79 59 80 60 81 62 82 64 83 61 84 45 85 46 86 51 87
REMARK SMILES IDX 47 88 48 89 50 90 52 91 49 92
REMARK H PARENT 1 17 1 18 69 54 43 65
REMARK Flexibility Score: inf
ROOT
ATOM      1  C   UNL     1      -1.279  -2.638   2.005  1.00  0.00     0.188 C 
ENDROOT
BRANCH   1   2
ATOM      2  C   UNL     1      -1.164  -4.084   1.462  1.00  0.00     0.188 C 
BRANCH   2   3
ATOM      3  O   UNL     1      -0.528  -5.118   2.212  1.00  0.00    -0.376 OA
BRANCH   3   4
ATOM      4  C   UNL     1       0.310  -4.774   3.301  1.00  0.00     0.202 C 
BRANCH   4   5
ATOM      5  C   UNL     1       1.578  -3.961   2.979  1.00  0.00     0.261 C 
BRANCH   5   6
ATOM      6  O   UNL     1       1.458  -3.051   1.862  1.00  0.00    -0.463 OA
BRANCH   6   7
ATOM      7  C   UNL     1       1.996  -3.439   0.683  1.00  0.00     0.310 C 
ATOM      8  O   UNL     1       2.727  -4.419   0.563  1.00  0.00    -0.252 OA
BRANCH   7   9
ATOM      9  C   UNL     1       1.583  -2.630  -0.538  1.00  0.00     0.160 C 
BRANCH   9  10
ATOM     10  C   UNL     1       0.811  -1.319  -0.431  1.00  0.00    -0.013 A 
ATOM     11  C   UNL     1       1.397  -0.124   0.044  1.00  0.00     0.047 A 
ATOM     12  C   UNL     1       0.649   1.085  -0.056  1.00  0.00     0.046 A 
ATOM     13  C   UNL     1      -0.525  -1.287  -0.899  1.00  0.00     0.006 A 
ATOM     14  C   UNL     1      -0.696   1.068  -0.458  1.00  0.00     0.014 A 
ATOM     15  C   UNL     1      -1.284  -0.118  -0.870  1.00  0.00     0.001 A 
BRANCH  11  16
ATOM     16  N   UNL     1       2.706  -0.151   0.517  1.00  0.00    -0.398 N 
ATOM     17  H   UNL     1       3.192  -1.006   0.572  1.00  0.00     0.156 HD
ATOM     18  H   UNL     1       3.146   0.684   0.797  1.00  0.00     0.156 HD
ENDBRANCH  11  16
BRANCH  12  19
ATOM     19  C   UNL     1       1.212   2.450   0.196  1.00  0.00     0.195 C 
ATOM     20  O   UNL     1       0.499   3.350   0.633  1.00  0.00    -0.289 OA
BRANCH  19  21
ATOM     21  C   UNL     1       2.634   2.748  -0.088  1.00  0.00     0.023 A 
ATOM     22  C   UNL     1       3.373   3.422   0.890  1.00  0.00     0.013 A 
ATOM     23  C   UNL     1       3.257   2.272  -1.248  1.00  0.00     0.013 A 
ATOM     24  C   UNL     1       4.758   3.528   0.755  1.00  0.00     0.016 A 
ATOM     25  C   UNL     1       4.643   2.376  -1.378  1.00  0.00     0.016 A 
ATOM     26  C   UNL     1       5.387   2.982  -0.365  1.00  0.00     0.018 A 
ATOM     27  Br  UNL     1       7.272   3.026  -0.492  1.00  0.00    -0.051 Br
ENDBRANCH  19  21
ENDBRANCH  12  19
ENDBRANCH   9  10
ENDBRANCH   7   9
ENDBRANCH   6   7
ENDBRANCH   5   6
ENDBRANCH   4   5
ENDBRANCH   3   4
ENDBRANCH   2   3
ENDBRANCH   1   2
BRANCH   1  28
ATOM     28  O   UNL     1      -1.161  -2.520   3.412  1.00  0.00    -0.377 OA
BRANCH  28  29
ATOM     29  C   UNL     1      -2.370  -2.212   4.078  1.00  0.00     0.188 C 
BRANCH  29  30
ATOM     30  C   UNL     1      -3.477  -3.254   3.863  1.00  0.00     0.188 C 
BRANCH  30  31
ATOM     31  O   UNL     1      -3.776  -3.443   2.485  1.00  0.00    -0.376 OA
BRANCH  31  32
ATOM     32  C   UNL     1      -4.929  -2.841   1.925  1.00  0.00     0.202 C 
BRANCH  32  33
ATOM     33  C   UNL     1      -4.981  -1.309   1.787  1.00  0.00     0.261 C 
BRANCH  33  34
ATOM     34  O   UNL     1      -4.597  -0.536   2.932  1.00  0.00    -0.460 OA
BRANCH  34  35
ATOM     35  C   UNL     1      -5.378  -0.620   4.026  1.00  0.00     0.338 C 
ATOM     36  O   UNL     1      -6.414  -1.258   4.137  1.00  0.00    -0.246 OA
BRANCH  35  37
ATOM     37  C   UNL     1      -4.662   0.012   5.157  1.00  0.00     0.060 A 
ATOM     38  C   UNL     1      -4.431  -0.759   6.304  1.00  0.00     0.016 A 
ATOM     39  C   UNL     1      -4.209   1.334   5.094  1.00  0.00     0.016 A 
ATOM     40  C   UNL     1      -3.801  -0.197   7.410  1.00  0.00     0.010 A 
ATOM     41  C   UNL     1      -3.604   1.909   6.219  1.00  0.00     0.010 A 
ATOM     42  C   UNL     1      -3.445   1.158   7.397  1.00  0.00    -0.014 A 
BRANCH  42  43
ATOM     43  C   UNL     1      -3.166   1.817   8.696  1.00  0.00     0.031 A 
ATOM     44  C   UNL     1      -4.303   2.530   9.381  1.00  0.00     0.074 A 
ATOM     45  C   UNL     1      -1.974   1.701   9.306  1.00  0.00     0.049 A 
ATOM     46  N   UNL     1      -4.334   3.127  10.545  1.00  0.00    -0.248 NA
ATOM     47  C   UNL     1      -5.583   2.565   8.654  1.00  0.00     0.031 C 
ATOM     48  C   UNL     1      -0.815   0.992   8.771  1.00  0.00     0.029 A 
ATOM     49  N   UNL     1      -1.550   2.173  10.524  1.00  0.00    -0.354 N 
ATOM     50  C   UNL     1      -5.631   3.606  10.686  1.00  0.00     0.074 A 
ATOM     51  C   UNL     1      -6.345   3.268   9.476  1.00  0.00     0.031 C 
ATOM     52  C   UNL     1       0.193   1.076   9.658  1.00  0.00     0.029 A 
ATOM     53  C   UNL     1      -0.243   1.865  10.809  1.00  0.00     0.049 A 
ATOM     54  H   UNL     1      -2.129   2.684  11.134  1.00  0.00     0.167 HD
ATOM     55  C   UNL     1      -6.184   4.258  11.736  1.00  0.00     0.037 A 
ATOM     56  C   UNL     1       0.513   2.196  11.874  1.00  0.00     0.037 A 
ATOM     57  C   UNL     1      -5.470   4.598  12.937  1.00  0.00     0.049 A 
ATOM     58  C   UNL     1      -0.103   2.994  12.996  1.00  0.00     0.074 A 
ATOM     59  C   UNL     1      -5.939   5.253  14.062  1.00  0.00     0.029 A 
ATOM     60  N   UNL     1      -4.131   4.319  13.164  1.00  0.00    -0.354 N 
ATOM     61  N   UNL     1      -1.335   3.422  13.132  1.00  0.00    -0.248 NA
ATOM     62  C   UNL     1       0.779   3.347  14.117  1.00  0.00     0.031 C 
ATOM     63  C   UNL     1      -4.867   5.424  14.945  1.00  0.00     0.029 A 
ATOM     64  C   UNL     1      -3.748   4.816  14.399  1.00  0.00     0.049 A 
ATOM     65  H   UNL     1      -3.540   3.840  12.540  1.00  0.00     0.167 HD
ATOM     66  C   UNL     1      -1.384   4.066  14.363  1.00  0.00     0.074 A 
ATOM     67  C   UNL     1      -0.061   3.953  14.943  1.00  0.00     0.031 C 
ATOM     68  C   UNL     1      -2.426   4.695  14.962  1.00  0.00     0.037 A 
BRANCH  55  69
ATOM     69  C   UNL     1      -7.621   4.676  11.609  1.00  0.00     0.057 A 
ATOM     70  C   UNL     1      -8.671   3.748  11.610  1.00  0.00     0.134 A 
ATOM     71  C   UNL     1      -7.959   6.031  11.498  1.00  0.00     0.134 A 
ATOM     72  F   UNL     1      -8.416   2.433  11.692  1.00  0.00    -0.206 F 
ATOM     73  C   UNL     1     -10.002   4.150  11.479  1.00  0.00     0.040 A 
ATOM     74  C   UNL     1      -9.287   6.447  11.398  1.00  0.00     0.040 A 
ATOM     75  F   UNL     1      -7.004   6.973  11.491  1.00  0.00    -0.206 F 
ATOM     76  C   UNL     1     -10.313   5.504  11.380  1.00  0.00     0.006 A 
ENDBRANCH  55  69
BRANCH  56  77
ATOM     77  C   UNL     1       1.942   1.790  11.933  1.00  0.00     0.057 A 
ATOM     78  C   UNL     1       2.405   0.880  12.890  1.00  0.00     0.134 A 
ATOM     79  C   UNL     1       2.887   2.334  11.054  1.00  0.00     0.134 A 
ATOM     80  F   UNL     1       1.556   0.342  13.778  1.00  0.00    -0.206 F 
ATOM     81  C   UNL     1       3.757   0.543  12.987  1.00  0.00     0.040 A 
ATOM     82  C   UNL     1       4.237   1.984  11.120  1.00  0.00     0.040 A 
ATOM     83  F   UNL     1       2.511   3.214  10.114  1.00  0.00    -0.206 F 
ATOM     84  C   UNL     1       4.677   1.092  12.095  1.00  0.00     0.006 A 
ENDBRANCH  56  77
BRANCH  68  85
ATOM     85  C   UNL     1      -2.187   5.275  16.329  1.00  0.00     0.057 A 
ATOM     86  C   UNL     1      -1.361   6.388  16.532  1.00  0.00     0.134 A 
ATOM     87  C   UNL     1      -2.812   4.723  17.455  1.00  0.00     0.134 A 
ATOM     88  F   UNL     1      -0.726   6.961  15.498  1.00  0.00    -0.206 F 
ATOM     89  C   UNL     1      -1.134   6.906  17.808  1.00  0.00     0.040 A 
ATOM     90  C   UNL     1      -2.620   5.253  18.732  1.00  0.00     0.040 A 
ATOM     91  F   UNL     1      -3.628   3.665  17.334  1.00  0.00    -0.206 F 
ATOM     92  C   UNL     1      -1.769   6.341  18.912  1.00  0.00     0.006 A 
ENDBRANCH  68  85
ENDBRANCH  42  43
ENDBRANCH  35  37
ENDBRANCH  34  35
ENDBRANCH  33  34
ENDBRANCH  32  33
ENDBRANCH  31  32
ENDBRANCH  30  31
ENDBRANCH  29  30
ENDBRANCH  28  29
ENDBRANCH   1  28
TORSDOF 24
