REMARK SMILES COc1ccc(C2=NN(C(=O)CCC(=O)OCCOCCOCCOCCOC(=O)c3ccc(-c4c5nc(c(-c6c(F)cccc6F)c6ccc([nH]6)c(-c6c(F)cccc6F)c6nc(c(-c7c(F)cccc7F)c7ccc4[nH]7)C=C6)C=C5)cc3)[C@H](c3ccc(Cl)cc3Cl)C2)cc1
REMARK SMILES IDX 20 1 19 2 18 3 17 4 16 5 14 6 15 7 13 8 12 9 10 10 11 11
REMARK SMILES IDX 9 12 7 13 8 14 94 15 85 16 6 17 3 18 4 19 96 20 5 21 95 22
REMARK SMILES IDX 2 23 1 24 86 25 87 26 92 27 88 28 91 29 93 30 89 31 90 32
REMARK SMILES IDX 21 33 22 34 23 35 24 36 25 37 26 38 27 39 28 40 29 41 30 42
REMARK SMILES IDX 31 43 32 44 84 45 33 46 83 47 34 48 35 49 36 50 77 51 37 52
REMARK SMILES IDX 82 53 76 54 78 55 38 56 81 57 75 58 74 59 39 61 65 62 48 63
REMARK SMILES IDX 64 64 49 65 52 66 63 67 79 68 50 69 51 70 62 72 80 73 53 74
REMARK SMILES IDX 40 75 41 76 46 77 42 78 43 79 45 80 47 81 44 82 66 83 67 84
REMARK SMILES IDX 72 85 68 86 69 87 71 88 73 89 70 90 54 91 55 92 60 93 56 94
REMARK SMILES IDX 57 95 59 96 61 97 58 98
REMARK H PARENT 78 60 52 71
REMARK Flexibility Score: inf
ROOT
ATOM      1  C   UNL     1       4.431  -3.535 -10.727  1.00  0.00     0.188 C 
ENDROOT
BRANCH   1   2
ATOM      2  O   UNL     1       5.249  -4.116  -9.692  1.00  0.00    -0.376 OA
BRANCH   2   3
ATOM      3  C   UNL     1       6.235  -3.409  -8.901  1.00  0.00     0.202 C 
BRANCH   3   4
ATOM      4  C   UNL     1       6.215  -1.891  -8.551  1.00  0.00     0.261 C 
BRANCH   4   5
ATOM      5  O   UNL     1       5.112  -1.144  -9.069  1.00  0.00    -0.463 OA
BRANCH   5   6
ATOM      6  C   UNL     1       5.375  -0.374 -10.136  1.00  0.00     0.306 C 
ATOM      7  O   UNL     1       6.494  -0.260 -10.628  1.00  0.00    -0.252 OA
BRANCH   6   8
ATOM      8  C   UNL     1       4.186   0.354 -10.716  1.00  0.00     0.132 C 
BRANCH   8   9
ATOM      9  C   UNL     1       2.700   0.016 -10.560  1.00  0.00     0.114 C 
BRANCH   9  10
ATOM     10  C   UNL     1       1.958  -0.512  -9.300  1.00  0.00     0.243 C 
ATOM     11  O   UNL     1       0.906   0.107  -9.034  1.00  0.00    -0.273 OA
BRANCH  10  12
ATOM     12  N   UNL     1       2.443  -1.496  -8.399  1.00  0.00    -0.225 N 
ATOM     13  C   UNL     1       3.030  -1.492  -6.304  1.00  0.00     0.071 C 
ATOM     14  N   UNL     1       2.480  -0.825  -7.224  1.00  0.00    -0.174 NA
ATOM     15  C   UNL     1       3.499  -2.852  -6.611  1.00  0.00     0.091 C 
ATOM     16  C   UNL     1       3.103  -3.239  -8.270  1.00  0.00     0.149 C 
BRANCH  13  17
ATOM     17  C   UNL     1       2.958  -0.987  -4.942  1.00  0.00    -0.002 A 
ATOM     18  C   UNL     1       2.586  -0.326  -2.293  1.00  0.00     0.118 A 
ATOM     19  C   UNL     1       1.599  -0.022  -3.237  1.00  0.00     0.047 A 
ATOM     20  C   UNL     1       3.805  -0.857  -2.712  1.00  0.00     0.047 A 
ATOM     21  C   UNL     1       1.759  -0.388  -4.557  1.00  0.00     0.014 A 
ATOM     22  C   UNL     1       4.002  -1.177  -4.051  1.00  0.00     0.014 A 
BRANCH  18  23
ATOM     23  O   UNL     1       2.190  -0.155  -1.003  1.00  0.00    -0.497 OA
ATOM     24  C   UNL     1       3.156  -0.104   0.027  1.00  0.00     0.278 C 
ENDBRANCH  18  23
ENDBRANCH  13  17
BRANCH  16  25
ATOM     25  C   UNL     1       2.322  -4.910  -9.163  1.00  0.00    -0.004 A 
ATOM     26  C   UNL     1       1.469  -6.351  -8.175  1.00  0.00     0.009 A 
ATOM     27  C   UNL     1       2.471  -5.360 -10.947  1.00  0.00     0.047 A 
ATOM     28  C   UNL     1       1.168  -7.997  -8.899  1.00  0.00     0.021 A 
ATOM     29  C   UNL     1       2.147  -6.995 -11.543  1.00  0.00     0.041 A 
ATOM     30  Cl  UNL     1       1.865  -4.446 -12.428  1.00  0.00    -0.084 Cl
ATOM     31  C   UNL     1       1.542  -8.264 -10.562  1.00  0.00     0.042 A 
ATOM     32  Cl  UNL     1       1.124  -9.744 -11.327  1.00  0.00    -0.084 Cl
ENDBRANCH  16  25
ENDBRANCH  10  12
ENDBRANCH   9  10
ENDBRANCH   8   9
ENDBRANCH   6   8
ENDBRANCH   5   6
ENDBRANCH   4   5
ENDBRANCH   3   4
ENDBRANCH   2   3
ENDBRANCH   1   2
BRANCH   1  33
ATOM     33  C   UNL     1       2.796  -2.869 -10.449  1.00  0.00     0.188 C 
BRANCH  33  34
ATOM     34  O   UNL     1       1.349  -3.165  -9.409  1.00  0.00    -0.377 OA
BRANCH  34  35
ATOM     35  C   UNL     1       1.244  -3.874  -7.693  1.00  0.00     0.188 C 
BRANCH  35  36
ATOM     36  C   UNL     1       2.647  -5.090  -6.958  1.00  0.00     0.188 C 
BRANCH  36  37
ATOM     37  O   UNL     1       3.525  -6.199  -7.921  1.00  0.00    -0.376 OA
BRANCH  37  38
ATOM     38  C   UNL     1       2.821  -6.822  -9.433  1.00  0.00     0.202 C 
BRANCH  38  39
ATOM     39  C   UNL     1       0.759  -6.239  -9.970  1.00  0.00     0.261 C 
BRANCH  39  40
ATOM     40  O   UNL     1      -0.571  -5.991  -8.821  1.00  0.00    -0.460 OA
BRANCH  40  41
ATOM     41  C   UNL     1      -1.208  -6.738  -7.853  1.00  0.00     0.338 C 
ATOM     42  O   UNL     1      -1.394  -7.946  -7.886  1.00  0.00    -0.246 OA
BRANCH  41  43
ATOM     43  C   UNL     1      -1.388  -5.990  -6.522  1.00  0.00     0.060 A 
ATOM     44  C   UNL     1      -0.599  -6.326  -5.393  1.00  0.00     0.016 A 
ATOM     45  C   UNL     1      -2.384  -5.035  -6.323  1.00  0.00     0.016 A 
ATOM     46  C   UNL     1      -0.778  -5.719  -4.123  1.00  0.00     0.010 A 
ATOM     47  C   UNL     1      -2.606  -4.469  -5.033  1.00  0.00     0.010 A 
ATOM     48  C   UNL     1      -1.828  -4.819  -3.908  1.00  0.00    -0.014 A 
BRANCH  48  49
ATOM     49  C   UNL     1      -2.260  -4.453  -2.506  1.00  0.00     0.031 A 
ATOM     50  C   UNL     1      -3.308  -5.293  -1.824  1.00  0.00     0.074 A 
ATOM     51  C   UNL     1      -1.811  -3.392  -1.805  1.00  0.00     0.049 A 
ATOM     52  N   UNL     1      -3.861  -5.136  -0.646  1.00  0.00    -0.248 NA
ATOM     53  C   UNL     1      -3.808  -6.444  -2.582  1.00  0.00     0.031 C 
ATOM     54  C   UNL     1      -0.820  -2.452  -2.288  1.00  0.00     0.029 A 
ATOM     55  N   UNL     1      -2.152  -2.904  -0.548  1.00  0.00    -0.354 N 
ATOM     56  C   UNL     1      -4.793  -6.154  -0.527  1.00  0.00     0.074 A 
ATOM     57  C   UNL     1      -4.740  -6.909  -1.765  1.00  0.00     0.031 C 
ATOM     58  C   UNL     1      -0.675  -1.493  -1.363  1.00  0.00     0.029 A 
ATOM     59  C   UNL     1      -1.521  -1.727  -0.214  1.00  0.00     0.049 A 
ATOM     60  H   UNL     1      -2.788  -3.360   0.049  1.00  0.00     0.167 HD
ATOM     61  C   UNL     1      -5.620  -6.440   0.507  1.00  0.00     0.037 A 
ATOM     62  C   UNL     1      -1.568  -0.897   0.855  1.00  0.00     0.037 A 
ATOM     63  C   UNL     1      -5.717  -5.699   1.741  1.00  0.00     0.049 A 
ATOM     64  C   UNL     1      -2.468  -1.242   2.001  1.00  0.00     0.074 A 
ATOM     65  C   UNL     1      -6.525  -5.959   2.837  1.00  0.00     0.029 A 
ATOM     66  N   UNL     1      -5.008  -4.548   2.045  1.00  0.00    -0.354 N 
ATOM     67  N   UNL     1      -3.272  -2.267   2.122  1.00  0.00    -0.248 NA
ATOM     68  C   UNL     1      -2.463  -0.339   3.163  1.00  0.00     0.031 C 
ATOM     69  C   UNL     1      -6.337  -4.944   3.784  1.00  0.00     0.029 A 
ATOM     70  C   UNL     1      -5.374  -4.078   3.301  1.00  0.00     0.049 A 
ATOM     71  H   UNL     1      -4.341  -4.125   1.456  1.00  0.00     0.167 HD
ATOM     72  C   UNL     1      -3.857  -2.137   3.370  1.00  0.00     0.074 A 
ATOM     73  C   UNL     1      -3.271  -0.973   3.998  1.00  0.00     0.031 C 
ATOM     74  C   UNL     1      -4.817  -2.910   3.930  1.00  0.00     0.037 A 
BRANCH  61  75
ATOM     75  C   UNL     1      -6.531  -7.615   0.314  1.00  0.00     0.057 A 
ATOM     76  C   UNL     1      -6.048  -8.930   0.301  1.00  0.00     0.134 A 
ATOM     77  C   UNL     1      -7.905  -7.425   0.123  1.00  0.00     0.134 A 
ATOM     78  F   UNL     1      -4.737  -9.175   0.453  1.00  0.00    -0.206 F 
ATOM     79  C   UNL     1      -6.895 -10.013   0.070  1.00  0.00     0.040 A 
ATOM     80  C   UNL     1      -8.766  -8.502  -0.078  1.00  0.00     0.040 A 
ATOM     81  F   UNL     1      -8.429  -6.190   0.123  1.00  0.00    -0.206 F 
ATOM     82  C   UNL     1      -8.260  -9.800  -0.115  1.00  0.00     0.006 A 
ENDBRANCH  61  75
BRANCH  62  83
ATOM     83  C   UNL     1      -0.716   0.339   0.935  1.00  0.00     0.057 A 
ATOM     84  C   UNL     1       0.272   0.480   1.922  1.00  0.00     0.134 A 
ATOM     85  C   UNL     1      -0.874   1.417   0.054  1.00  0.00     0.134 A 
ATOM     86  F   UNL     1       0.485  -0.503   2.811  1.00  0.00    -0.206 F 
ATOM     87  C   UNL     1       1.051   1.637   2.039  1.00  0.00     0.040 A 
ATOM     88  C   UNL     1      -0.066   2.558   0.125  1.00  0.00     0.040 A 
ATOM     89  F   UNL     1      -1.804   1.371  -0.912  1.00  0.00    -0.206 F 
ATOM     90  C   UNL     1       0.897   2.673   1.124  1.00  0.00     0.006 A 
ENDBRANCH  62  83
BRANCH  74  91
ATOM     91  C   UNL     1      -5.275  -2.503   5.299  1.00  0.00     0.057 A 
ATOM     92  C   UNL     1      -6.001  -1.321   5.511  1.00  0.00     0.134 A 
ATOM     93  C   UNL     1      -4.919  -3.253   6.425  1.00  0.00     0.134 A 
ATOM     94  F   UNL     1      -6.349  -0.542   4.476  1.00  0.00    -0.206 F 
ATOM     95  C   UNL     1      -6.308  -0.874   6.797  1.00  0.00     0.040 A 
ATOM     96  C   UNL     1      -5.247  -2.831   7.715  1.00  0.00     0.040 A 
ATOM     97  F   UNL     1      -4.222  -4.392   6.294  1.00  0.00    -0.206 F 
ATOM     98  C   UNL     1      -5.929  -1.630   7.904  1.00  0.00     0.006 A 
ENDBRANCH  74  91
ENDBRANCH  48  49
ENDBRANCH  41  43
ENDBRANCH  40  41
ENDBRANCH  39  40
ENDBRANCH  38  39
ENDBRANCH  37  38
ENDBRANCH  36  37
ENDBRANCH  35  36
ENDBRANCH  34  35
ENDBRANCH  33  34
ENDBRANCH   1  33
TORSDOF 26
