REMARK SMILES N#Cc1ccc(/C=C/C(=O)N2C[C@@H](O)C[C@H]2C(=O)OCCOCCOCCOCCOC(=O)c2ccc(-c3c4nc(c(-c5c(F)cccc5F)c5ccc([nH]5)c(-c5c(F)cccc5F)c5nc(c(-c6c(F)cccc6F)c6ccc3[nH]6)C=C5)C=C4)cc2)cc1
REMARK SMILES IDX 24 1 23 2 22 3 21 4 20 5 19 6 17 7 18 8 16 9 11 10 12 11
REMARK SMILES IDX 13 12 15 13 9 14 10 15 8 16 7 17 6 18 3 19 4 20 89 21 5 22
REMARK SMILES IDX 88 23 2 24 1 25 14 26 25 28 26 29 27 30 28 31 29 32 30 33
REMARK SMILES IDX 31 34 32 35 33 36 34 37 35 38 87 39 36 40 86 41 37 42 38 43
REMARK SMILES IDX 39 44 80 45 40 46 85 47 79 48 81 49 41 50 84 51 78 52 77 53
REMARK SMILES IDX 42 55 68 56 51 57 67 58 52 59 55 60 66 61 82 62 53 63 54 64
REMARK SMILES IDX 65 66 83 67 56 68 43 69 44 70 49 71 45 72 46 73 48 74 50 75
REMARK SMILES IDX 47 76 69 77 70 78 75 79 71 80 72 81 74 82 76 83 73 84 57 85
REMARK SMILES IDX 58 86 63 87 59 88 60 89 62 90 64 91 61 92
REMARK H PARENT 14 27 81 54 55 65
REMARK Flexibility Score: inf
ROOT
ATOM      1  C   UNL     1       8.544   2.312   0.363  1.00  0.00     0.188 C 
ENDROOT
BRANCH   1   2
ATOM      2  C   UNL     1       9.351   2.491   1.665  1.00  0.00     0.188 C 
BRANCH   2   3
ATOM      3  O   UNL     1      10.774   2.545   1.630  1.00  0.00    -0.376 OA
BRANCH   3   4
ATOM      4  C   UNL     1      11.487   1.882   0.599  1.00  0.00     0.202 C 
BRANCH   4   5
ATOM      5  C   UNL     1      11.250   0.375   0.355  1.00  0.00     0.261 C 
BRANCH   5   6
ATOM      6  O   UNL     1       9.875  -0.088   0.326  1.00  0.00    -0.462 OA
BRANCH   6   7
ATOM      7  C   UNL     1       9.406  -0.672   1.460  1.00  0.00     0.329 C 
ATOM      8  O   UNL     1      10.125  -0.956   2.415  1.00  0.00    -0.250 OA
BRANCH   7   9
ATOM      9  C   UNL     1       7.912  -1.125   1.414  1.00  0.00     0.198 C 
ATOM     10  N   UNL     1       6.829  -0.630   0.514  1.00  0.00    -0.323 N 
ATOM     11  C   UNL     1       6.588  -1.583  -0.547  1.00  0.00     0.152 C 
ATOM     12  C   UNL     1       6.793  -2.906   0.175  1.00  0.00     0.136 C 
ATOM     13  C   UNL     1       7.983  -2.628   1.089  1.00  0.00     0.071 C 
BRANCH  10  14
ATOM     14  C   UNL     1       5.958   0.360   0.931  1.00  0.00     0.247 C 
ATOM     15  O   UNL     1       6.199   1.093   1.889  1.00  0.00    -0.270 OA
BRANCH  14  16
ATOM     16  C   UNL     1       4.661   0.569   0.221  1.00  0.00     0.072 C 
ATOM     17  C   UNL     1       3.668  -0.315   0.421  1.00  0.00     0.014 C 
BRANCH  17  18
ATOM     18  C   UNL     1       2.236  -0.164   0.088  1.00  0.00    -0.025 A 
ATOM     19  C   UNL     1      -0.584  -0.026  -0.112  1.00  0.00     0.052 A 
ATOM     20  C   UNL     1       0.181   1.143  -0.069  1.00  0.00     0.020 A 
ATOM     21  C   UNL     1       0.060  -1.264  -0.096  1.00  0.00     0.020 A 
ATOM     22  C   UNL     1       1.581   1.075   0.031  1.00  0.00     0.009 A 
ATOM     23  C   UNL     1       1.456  -1.329   0.002  1.00  0.00     0.009 A 
BRANCH  19  24
ATOM     24  C   UNL     1      -2.021   0.037  -0.128  1.00  0.00     0.099 C 
ATOM     25  N   UNL     1      -3.176   0.079  -0.123  1.00  0.00    -0.192 NA
ENDBRANCH  19  24
ENDBRANCH  17  18
ENDBRANCH  14  16
ENDBRANCH  10  14
BRANCH  12  26
ATOM     26  O   UNL     1       7.044  -3.985  -0.704  1.00  0.00    -0.391 OA
ATOM     27  H   UNL     1       7.833  -3.793  -1.234  1.00  0.00     0.211 HD
ENDBRANCH  12  26
ENDBRANCH   7   9
ENDBRANCH   6   7
ENDBRANCH   5   6
ENDBRANCH   4   5
ENDBRANCH   3   4
ENDBRANCH   2   3
ENDBRANCH   1   2
BRANCH   1  28
ATOM     28  O   UNL     1       9.295   2.327  -0.833  1.00  0.00    -0.377 OA
BRANCH  28  29
ATOM     29  C   UNL     1       9.292   3.542  -1.549  1.00  0.00     0.188 C 
BRANCH  29  30
ATOM     30  C   UNL     1       9.442   4.835  -0.729  1.00  0.00     0.188 C 
BRANCH  30  31
ATOM     31  O   UNL     1       8.572   4.928   0.380  1.00  0.00    -0.376 OA
BRANCH  31  32
ATOM     32  C   UNL     1       7.270   5.472   0.316  1.00  0.00     0.202 C 
BRANCH  32  33
ATOM     33  C   UNL     1       6.273   5.231  -0.834  1.00  0.00     0.261 C 
BRANCH  33  34
ATOM     34  O   UNL     1       6.779   4.934  -2.136  1.00  0.00    -0.460 OA
BRANCH  34  35
ATOM     35  C   UNL     1       7.307   5.950  -2.852  1.00  0.00     0.338 C 
ATOM     36  O   UNL     1       7.404   7.113  -2.511  1.00  0.00    -0.246 OA
BRANCH  35  37
ATOM     37  C   UNL     1       7.930   5.367  -4.064  1.00  0.00     0.060 A 
ATOM     38  C   UNL     1       9.321   5.447  -4.223  1.00  0.00     0.016 A 
ATOM     39  C   UNL     1       7.149   4.722  -5.024  1.00  0.00     0.016 A 
ATOM     40  C   UNL     1       9.934   4.897  -5.349  1.00  0.00     0.010 A 
ATOM     41  C   UNL     1       7.759   4.208  -6.172  1.00  0.00     0.010 A 
ATOM     42  C   UNL     1       9.150   4.317  -6.352  1.00  0.00    -0.014 A 
BRANCH  42  43
ATOM     43  C   UNL     1       9.749   4.010  -7.673  1.00  0.00     0.031 A 
ATOM     44  C   UNL     1       9.550   5.000  -8.787  1.00  0.00     0.074 A 
ATOM     45  C   UNL     1      10.463   2.890  -7.879  1.00  0.00     0.049 A 
ATOM     46  N   UNL     1       9.882   4.912 -10.048  1.00  0.00    -0.248 NA
ATOM     47  C   UNL     1       8.878   6.260  -8.426  1.00  0.00     0.031 C 
ATOM     48  C   UNL     1      10.780   1.887  -6.865  1.00  0.00     0.029 A 
ATOM     49  N   UNL     1      11.040   2.404  -9.027  1.00  0.00    -0.354 N 
ATOM     50  C   UNL     1       9.457   6.099 -10.631  1.00  0.00     0.074 A 
ATOM     51  C   UNL     1       8.805   6.872  -9.597  1.00  0.00     0.031 C 
ATOM     52  C   UNL     1      11.479   0.892  -7.441  1.00  0.00     0.029 A 
ATOM     53  C   UNL     1      11.621   1.169  -8.870  1.00  0.00     0.049 A 
ATOM     54  H   UNL     1      11.038   2.894  -9.880  1.00  0.00     0.167 HD
ATOM     55  C   UNL     1       9.607   6.513 -11.911  1.00  0.00     0.037 A 
ATOM     56  C   UNL     1      12.171   0.347  -9.785  1.00  0.00     0.037 A 
ATOM     57  C   UNL     1      10.244   5.734 -12.939  1.00  0.00     0.049 A 
ATOM     58  C   UNL     1      12.216   0.779 -11.231  1.00  0.00     0.074 A 
ATOM     59  C   UNL     1      10.439   6.057 -14.270  1.00  0.00     0.029 A 
ATOM     60  N   UNL     1      10.782   4.469 -12.750  1.00  0.00    -0.354 N 
ATOM     61  N   UNL     1      11.824   1.907 -11.773  1.00  0.00    -0.248 NA
ATOM     62  C   UNL     1      12.781  -0.179 -12.193  1.00  0.00     0.031 C 
ATOM     63  C   UNL     1      11.038   4.963 -14.901  1.00  0.00     0.029 A 
ATOM     64  C   UNL     1      11.283   3.987 -13.948  1.00  0.00     0.049 A 
ATOM     65  H   UNL     1      10.804   3.986 -11.893  1.00  0.00     0.167 HD
ATOM     66  C   UNL     1      12.134   1.810 -13.126  1.00  0.00     0.074 A 
ATOM     67  C   UNL     1      12.758   0.519 -13.319  1.00  0.00     0.031 C 
ATOM     68  C   UNL     1      11.922   2.707 -14.120  1.00  0.00     0.037 A 
BRANCH  55  69
ATOM     69  C   UNL     1       9.051   7.860 -12.275  1.00  0.00     0.057 A 
ATOM     70  C   UNL     1       9.613   9.049 -11.790  1.00  0.00     0.134 A 
ATOM     71  C   UNL     1       7.961   7.971 -13.148  1.00  0.00     0.134 A 
ATOM     72  F   UNL     1      10.649   9.014 -10.938  1.00  0.00    -0.206 F 
ATOM     73  C   UNL     1       9.095  10.297 -12.140  1.00  0.00     0.040 A 
ATOM     74  C   UNL     1       7.456   9.214 -13.532  1.00  0.00     0.040 A 
ATOM     75  F   UNL     1       7.377   6.874 -13.653  1.00  0.00    -0.206 F 
ATOM     76  C   UNL     1       8.019  10.382 -13.021  1.00  0.00     0.006 A 
ENDBRANCH  55  69
BRANCH  56  77
ATOM     77  C   UNL     1      12.704  -0.984  -9.386  1.00  0.00     0.057 A 
ATOM     78  C   UNL     1      14.063  -1.291  -9.521  1.00  0.00     0.134 A 
ATOM     79  C   UNL     1      11.861  -2.002  -8.921  1.00  0.00     0.134 A 
ATOM     80  F   UNL     1      14.920  -0.368  -9.983  1.00  0.00    -0.206 F 
ATOM     81  C   UNL     1      14.559  -2.567  -9.247  1.00  0.00     0.040 A 
ATOM     82  C   UNL     1      12.348  -3.272  -8.609  1.00  0.00     0.040 A 
ATOM     83  F   UNL     1      10.548  -1.778  -8.764  1.00  0.00    -0.206 F 
ATOM     84  C   UNL     1      13.699  -3.562  -8.786  1.00  0.00     0.006 A 
ENDBRANCH  56  77
BRANCH  68  85
ATOM     85  C   UNL     1      12.419   2.356 -15.495  1.00  0.00     0.057 A 
ATOM     86  C   UNL     1      11.827   1.351 -16.269  1.00  0.00     0.134 A 
ATOM     87  C   UNL     1      13.473   3.077 -16.073  1.00  0.00     0.134 A 
ATOM     88  F   UNL     1      10.819   0.615 -15.774  1.00  0.00    -0.206 F 
ATOM     89  C   UNL     1      12.281   1.058 -17.556  1.00  0.00     0.040 A 
ATOM     90  C   UNL     1      13.913   2.817 -17.371  1.00  0.00     0.040 A 
ATOM     91  F   UNL     1      14.079   4.063 -15.393  1.00  0.00    -0.206 F 
ATOM     92  C   UNL     1      13.321   1.799 -18.114  1.00  0.00     0.006 A 
ENDBRANCH  68  85
ENDBRANCH  42  43
ENDBRANCH  35  37
ENDBRANCH  34  35
ENDBRANCH  33  34
ENDBRANCH  32  33
ENDBRANCH  31  32
ENDBRANCH  30  31
ENDBRANCH  29  30
ENDBRANCH  28  29
ENDBRANCH   1  28
TORSDOF 25
