REMARK SMILES C[C@@H](C(=O)OCCOCCOCCOCCOC(=O)c1ccc(-c2c3nc(c(-c4c(F)cccc4F)c4ccc([nH]4)c(-c4c(F)cccc4F)c4nc(c(-c5c(F)cccc5F)c5ccc2[nH]5)C=C4)C=C3)cc1)c1ccc(C[C@@H]2CCC[C@@H]2O)cc1F
REMARK SMILES IDX 10 1 9 2 8 3 7 4 6 5 5 6 3 7 4 8 2 9 1 10 74 11 75 12 86 13
REMARK SMILES IDX 76 14 85 15 87 16 77 17 78 18 79 19 80 20 83 21 81 22 82 23
REMARK SMILES IDX 84 24 11 26 12 27 13 28 14 29 15 30 16 31 17 32 18 33 19 34
REMARK SMILES IDX 20 35 21 36 73 37 22 38 72 39 23 40 24 41 25 42 66 43 26 44
REMARK SMILES IDX 71 45 65 46 67 47 27 48 70 49 64 50 63 51 28 53 54 54 37 55
REMARK SMILES IDX 53 56 38 57 41 58 52 59 68 60 39 61 40 62 51 64 69 65 42 66
REMARK SMILES IDX 29 67 30 68 35 69 31 70 32 71 34 72 36 73 33 74 55 75 56 76
REMARK SMILES IDX 61 77 57 78 58 79 60 80 62 81 59 82 43 83 44 84 49 85 45 86
REMARK SMILES IDX 46 87 48 88 50 89 47 90
REMARK H PARENT 84 25 67 52 41 63
REMARK Flexibility Score: inf
ROOT
ATOM      1  C   UNL     1     -11.232   5.559   3.848  1.00  0.00     0.188 C 
ENDROOT
BRANCH   1   2
ATOM      2  C   UNL     1     -12.006   4.597   2.922  1.00  0.00     0.188 C 
BRANCH   2   3
ATOM      3  O   UNL     1     -13.399   4.400   3.119  1.00  0.00    -0.376 OA
BRANCH   3   4
ATOM      4  C   UNL     1     -13.911   4.283   4.436  1.00  0.00     0.202 C 
BRANCH   4   5
ATOM      5  C   UNL     1     -13.223   3.410   5.508  1.00  0.00     0.261 C 
BRANCH   5   6
ATOM      6  O   UNL     1     -11.784   3.446   5.593  1.00  0.00    -0.463 OA
BRANCH   6   7
ATOM      7  C   UNL     1     -11.120   2.359   5.120  1.00  0.00     0.313 C 
ATOM      8  O   UNL     1     -11.686   1.365   4.673  1.00  0.00    -0.252 OA
BRANCH   7   9
ATOM      9  C   UNL     1      -9.583   2.449   5.220  1.00  0.00     0.129 C 
ATOM     10  C   UNL     1      -8.930   3.713   5.795  1.00  0.00     0.025 C 
BRANCH   9  11
ATOM     11  C   UNL     1      -8.937   1.992   3.916  1.00  0.00     0.002 A 
ATOM     12  C   UNL     1      -8.430   0.691   3.820  1.00  0.00     0.008 A 
ATOM     13  C   UNL     1      -8.896   2.784   2.762  1.00  0.00     0.127 A 
ATOM     14  C   UNL     1      -7.896   0.217   2.617  1.00  0.00     0.004 A 
ATOM     15  C   UNL     1      -8.414   2.304   1.551  1.00  0.00     0.043 A 
ATOM     16  F   UNL     1      -9.281   4.062   2.789  1.00  0.00    -0.207 F 
ATOM     17  C   UNL     1      -7.865   1.027   1.475  1.00  0.00    -0.045 A 
BRANCH  17  18
ATOM     18  C   UNL     1      -7.186   0.577   0.210  1.00  0.00     0.041 C 
BRANCH  18  19
ATOM     19  C   UNL     1      -5.673   0.871   0.097  1.00  0.00     0.022 C 
ATOM     20  C   UNL     1      -4.821   0.255   1.213  1.00  0.00     0.007 C 
ATOM     21  C   UNL     1      -5.226   2.339   0.120  1.00  0.00     0.117 C 
ATOM     22  C   UNL     1      -4.567   1.366   2.237  1.00  0.00     0.003 C 
ATOM     23  C   UNL     1      -5.011   2.673   1.590  1.00  0.00     0.032 C 
BRANCH  21  24
ATOM     24  O   UNL     1      -6.130   3.230  -0.500  1.00  0.00    -0.393 OA
ATOM     25  H   UNL     1      -6.984   3.194  -0.041  1.00  0.00     0.210 HD
ENDBRANCH  21  24
ENDBRANCH  18  19
ENDBRANCH  17  18
ENDBRANCH   9  11
ENDBRANCH   7   9
ENDBRANCH   6   7
ENDBRANCH   5   6
ENDBRANCH   4   5
ENDBRANCH   3   4
ENDBRANCH   2   3
ENDBRANCH   1   2
BRANCH   1  26
ATOM     26  O   UNL     1     -12.022   6.192   4.833  1.00  0.00    -0.377 OA
BRANCH  26  27
ATOM     27  C   UNL     1     -12.519   7.474   4.496  1.00  0.00     0.188 C 
BRANCH  27  28
ATOM     28  C   UNL     1     -12.928   7.736   3.034  1.00  0.00     0.188 C 
BRANCH  28  29
ATOM     29  O   UNL     1     -11.925   7.408   2.079  1.00  0.00    -0.376 OA
BRANCH  29  30
ATOM     30  C   UNL     1     -11.092   8.435   1.563  1.00  0.00     0.202 C 
BRANCH  30  31
ATOM     31  C   UNL     1     -10.056   9.056   2.515  1.00  0.00     0.261 C 
BRANCH  31  32
ATOM     32  O   UNL     1     -10.567   9.653   3.716  1.00  0.00    -0.460 OA
BRANCH  32  33
ATOM     33  C   UNL     1     -11.474  10.645   3.598  1.00  0.00     0.338 C 
ATOM     34  O   UNL     1     -11.874  11.162   2.570  1.00  0.00    -0.246 OA
BRANCH  33  35
ATOM     35  C   UNL     1     -12.069  10.862   4.934  1.00  0.00     0.060 A 
ATOM     36  C   UNL     1     -13.449  10.682   5.098  1.00  0.00     0.016 A 
ATOM     37  C   UNL     1     -11.267  11.201   6.027  1.00  0.00     0.016 A 
ATOM     38  C   UNL     1     -14.036  10.867   6.349  1.00  0.00     0.010 A 
ATOM     39  C   UNL     1     -11.860  11.418   7.273  1.00  0.00     0.010 A 
ATOM     40  C   UNL     1     -13.251  11.283   7.431  1.00  0.00    -0.014 A 
BRANCH  40  41
ATOM     41  C   UNL     1     -13.911  11.799   8.654  1.00  0.00     0.031 A 
ATOM     42  C   UNL     1     -14.104  13.286   8.774  1.00  0.00     0.074 A 
ATOM     43  C   UNL     1     -14.352  10.977   9.621  1.00  0.00     0.049 A 
ATOM     44  N   UNL     1     -14.605  13.984   9.759  1.00  0.00    -0.248 NA
ATOM     45  C   UNL     1     -13.668  14.094   7.623  1.00  0.00     0.031 C 
ATOM     46  C   UNL     1     -14.271   9.518   9.597  1.00  0.00     0.029 A 
ATOM     47  N   UNL     1     -14.953  11.263  10.822  1.00  0.00    -0.354 N 
ATOM     48  C   UNL     1     -14.534  15.311   9.352  1.00  0.00     0.074 A 
ATOM     49  C   UNL     1     -13.916  15.323   8.045  1.00  0.00     0.031 C 
ATOM     50  C   UNL     1     -14.794   9.036  10.739  1.00  0.00     0.029 A 
ATOM     51  C   UNL     1     -15.212  10.152  11.586  1.00  0.00     0.049 A 
ATOM     52  H   UNL     1     -15.176  12.178  11.108  1.00  0.00     0.167 HD
ATOM     53  C   UNL     1     -14.952  16.419  10.006  1.00  0.00     0.037 A 
ATOM     54  C   UNL     1     -15.708  10.055  12.836  1.00  0.00     0.037 A 
ATOM     55  C   UNL     1     -15.563  16.403  11.308  1.00  0.00     0.049 A 
ATOM     56  C   UNL     1     -16.085  11.311  13.580  1.00  0.00     0.074 A 
ATOM     57  C   UNL     1     -16.039  17.469  12.049  1.00  0.00     0.029 A 
ATOM     58  N   UNL     1     -15.772  15.261  12.067  1.00  0.00    -0.354 N 
ATOM     59  N   UNL     1     -16.040  12.559  13.180  1.00  0.00    -0.248 NA
ATOM     60  C   UNL     1     -16.585  11.144  14.953  1.00  0.00     0.031 C 
ATOM     61  C   UNL     1     -16.477  16.980  13.284  1.00  0.00     0.029 A 
ATOM     62  C   UNL     1     -16.338  15.601  13.284  1.00  0.00     0.049 A 
ATOM     63  H   UNL     1     -15.550  14.345  11.783  1.00  0.00     0.167 HD
ATOM     64  C   UNL     1     -16.537  13.319  14.233  1.00  0.00     0.074 A 
ATOM     65  C   UNL     1     -16.888  12.390  15.286  1.00  0.00     0.031 C 
ATOM     66  C   UNL     1     -16.693  14.664  14.320  1.00  0.00     0.037 A 
BRANCH  53  67
ATOM     67  C   UNL     1     -14.723  17.744   9.338  1.00  0.00     0.057 A 
ATOM     68  C   UNL     1     -15.433  18.136   8.196  1.00  0.00     0.134 A 
ATOM     69  C   UNL     1     -13.791  18.649   9.861  1.00  0.00     0.134 A 
ATOM     70  F   UNL     1     -16.327  17.309   7.632  1.00  0.00    -0.206 F 
ATOM     71  C   UNL     1     -15.206  19.370   7.583  1.00  0.00     0.040 A 
ATOM     72  C   UNL     1     -13.578  19.898   9.277  1.00  0.00     0.040 A 
ATOM     73  F   UNL     1     -13.078  18.338  10.954  1.00  0.00    -0.206 F 
ATOM     74  C   UNL     1     -14.281  20.259   8.129  1.00  0.00     0.006 A 
ENDBRANCH  53  67
BRANCH  54  75
ATOM     75  C   UNL     1     -15.865   8.724  13.479  1.00  0.00     0.057 A 
ATOM     76  C   UNL     1     -17.131   8.209  13.783  1.00  0.00     0.134 A 
ATOM     77  C   UNL     1     -14.754   7.952  13.840  1.00  0.00     0.134 A 
ATOM     78  F   UNL     1     -18.234   8.912  13.488  1.00  0.00    -0.206 F 
ATOM     79  C   UNL     1     -17.286   6.986  14.439  1.00  0.00     0.040 A 
ATOM     80  C   UNL     1     -14.895   6.714  14.471  1.00  0.00     0.040 A 
ATOM     81  F   UNL     1     -13.512   8.388  13.582  1.00  0.00    -0.206 F 
ATOM     82  C   UNL     1     -16.165   6.232  14.780  1.00  0.00     0.006 A 
ENDBRANCH  54  75
BRANCH  66  83
ATOM     83  C   UNL     1     -17.313  15.211  15.574  1.00  0.00     0.057 A 
ATOM     84  C   UNL     1     -16.638  15.214  16.801  1.00  0.00     0.134 A 
ATOM     85  C   UNL     1     -18.590  15.789  15.540  1.00  0.00     0.134 A 
ATOM     86  F   UNL     1     -15.416  14.668  16.906  1.00  0.00    -0.206 F 
ATOM     87  C   UNL     1     -17.220  15.746  17.953  1.00  0.00     0.040 A 
ATOM     88  C   UNL     1     -19.169  16.353  16.678  1.00  0.00     0.040 A 
ATOM     89  F   UNL     1     -19.288  15.833  14.395  1.00  0.00    -0.206 F 
ATOM     90  C   UNL     1     -18.486  16.325  17.891  1.00  0.00     0.006 A 
ENDBRANCH  66  83
ENDBRANCH  40  41
ENDBRANCH  33  35
ENDBRANCH  32  33
ENDBRANCH  31  32
ENDBRANCH  30  31
ENDBRANCH  29  30
ENDBRANCH  28  29
ENDBRANCH  27  28
ENDBRANCH  26  27
ENDBRANCH   1  26
TORSDOF 24
