REMARK SMILES C[C@H](NC(=O)OC(C)(C)C)C(=O)N[C@@H](C)C(=O)N1CCC[C@H]1C(=O)OCCOCCOCCOCCOC(=O)c1ccc(-c2c3nc(c(-c4c(F)cccc4F)c4ccc([nH]4)c(-c4c(F)cccc4F)c4nc(c(-c5c(F)cccc5F)c5ccc2[nH]5)C=C4)C=C3)cc1
REMARK SMILES IDX 29 1 28 2 27 3 26 4 25 5 23 6 24 7 22 8 18 9 19 10 20 11
REMARK SMILES IDX 21 12 16 13 17 14 14 15 15 16 13 17 11 18 12 19 2 21 1 22
REMARK SMILES IDX 3 23 4 24 5 26 6 27 7 28 8 29 9 30 10 31 30 32 31 33 32 34
REMARK SMILES IDX 33 35 34 36 35 37 36 38 37 39 38 40 39 41 40 42 41 43 93 44
REMARK SMILES IDX 42 45 92 46 43 47 44 48 45 49 86 50 46 51 91 52 85 53 87 54
REMARK SMILES IDX 47 55 90 56 84 57 83 58 48 60 74 61 57 62 73 63 58 64 61 65
REMARK SMILES IDX 72 66 88 67 59 68 60 69 71 71 89 72 62 73 49 74 50 75 55 76
REMARK SMILES IDX 51 77 52 78 54 79 56 80 53 81 75 82 76 83 81 84 77 85 78 86
REMARK SMILES IDX 80 87 82 88 79 89 63 90 64 91 69 92 65 93 66 94 68 95 70 96
REMARK SMILES IDX 67 97
REMARK H PARENT 13 20 3 25 87 59 61 70
REMARK Flexibility Score: inf
ROOT
ATOM      1  C   UNL     1      -2.257  -7.501  -3.544  1.00  0.00     0.188 C 
ENDROOT
BRANCH   1   2
ATOM      2  O   UNL     1      -2.035  -7.535  -4.941  1.00  0.00    -0.376 OA
BRANCH   2   3
ATOM      3  C   UNL     1      -2.881  -6.804  -5.806  1.00  0.00     0.202 C 
BRANCH   3   4
ATOM      4  C   UNL     1      -2.776  -5.272  -5.748  1.00  0.00     0.261 C 
BRANCH   4   5
ATOM      5  O   UNL     1      -2.844  -4.704  -4.434  1.00  0.00    -0.462 OA
BRANCH   5   6
ATOM      6  C   UNL     1      -4.043  -4.761  -3.805  1.00  0.00     0.328 C 
ATOM      7  O   UNL     1      -5.052  -5.229  -4.321  1.00  0.00    -0.250 OA
BRANCH   6   8
ATOM      8  C   UNL     1      -3.902  -4.427  -2.304  1.00  0.00     0.195 C 
ATOM      9  N   UNL     1      -3.312  -3.139  -1.920  1.00  0.00    -0.327 N 
ATOM     10  C   UNL     1      -4.368  -2.234  -1.531  1.00  0.00     0.120 C 
ATOM     11  C   UNL     1      -5.409  -3.131  -0.892  1.00  0.00     0.024 C 
ATOM     12  C   UNL     1      -5.259  -4.475  -1.588  1.00  0.00     0.039 C 
BRANCH   9  13
ATOM     13  C   UNL     1      -1.944  -2.962  -1.863  1.00  0.00     0.245 C 
ATOM     14  O   UNL     1      -1.185  -3.708  -2.487  1.00  0.00    -0.272 OA
BRANCH  13  15
ATOM     15  C   UNL     1      -1.307  -1.968  -0.862  1.00  0.00     0.168 C 
ATOM     16  C   UNL     1      -1.583  -2.423   0.570  1.00  0.00     0.041 C 
BRANCH  15  17
ATOM     17  N   UNL     1      -1.645  -0.565  -1.070  1.00  0.00    -0.343 N 
ATOM     18  C   UNL     1      -0.850   0.479  -1.437  1.00  0.00     0.243 C 
ATOM     19  O   UNL     1      -1.416   1.539  -1.721  1.00  0.00    -0.273 OA
ATOM     20  H   UNL     1      -2.592  -0.337  -0.924  1.00  0.00     0.164 HD
BRANCH  18  21
ATOM     21  C   UNL     1       0.683   0.354  -1.530  1.00  0.00     0.171 C 
ATOM     22  C   UNL     1       1.097  -0.387  -2.796  1.00  0.00     0.042 C 
BRANCH  21  23
ATOM     23  N   UNL     1       1.197  -0.080  -0.228  1.00  0.00    -0.310 N 
ATOM     24  C   UNL     1       2.014  -1.096   0.140  1.00  0.00     0.408 C 
ATOM     25  H   UNL     1       0.888   0.474   0.525  1.00  0.00     0.167 HD
ATOM     26  O   UNL     1       2.287  -1.270   1.323  1.00  0.00    -0.225 OA
BRANCH  24  27
ATOM     27  O   UNL     1       2.443  -1.849  -0.887  1.00  0.00    -0.444 OA
BRANCH  27  28
ATOM     28  C   UNL     1       3.331  -2.972  -0.672  1.00  0.00     0.106 C 
ATOM     29  C   UNL     1       4.667  -2.525  -0.068  1.00  0.00     0.056 C 
ATOM     30  C   UNL     1       2.661  -4.068   0.163  1.00  0.00     0.056 C 
ATOM     31  C   UNL     1       3.598  -3.522  -2.077  1.00  0.00     0.056 C 
ENDBRANCH  27  28
ENDBRANCH  24  27
ENDBRANCH  21  23
ENDBRANCH  18  21
ENDBRANCH  15  17
ENDBRANCH  13  15
ENDBRANCH   9  13
ENDBRANCH   6   8
ENDBRANCH   5   6
ENDBRANCH   4   5
ENDBRANCH   3   4
ENDBRANCH   2   3
ENDBRANCH   1   2
BRANCH   1  32
ATOM     32  C   UNL     1      -1.114  -6.880  -2.699  1.00  0.00     0.188 C 
BRANCH  32  33
ATOM     33  O   UNL     1       0.147  -6.491  -3.230  1.00  0.00    -0.377 OA
BRANCH  33  34
ATOM     34  C   UNL     1       0.491  -6.874  -4.548  1.00  0.00     0.188 C 
BRANCH  34  35
ATOM     35  C   UNL     1       0.560  -8.392  -4.802  1.00  0.00     0.188 C 
BRANCH  35  36
ATOM     36  O   UNL     1       0.038  -9.165  -3.729  1.00  0.00    -0.376 OA
BRANCH  36  37
ATOM     37  C   UNL     1       0.962  -9.694  -2.789  1.00  0.00     0.202 C 
BRANCH  37  38
ATOM     38  C   UNL     1       1.964  -8.762  -2.080  1.00  0.00     0.261 C 
BRANCH  38  39
ATOM     39  O   UNL     1       2.744  -7.881  -2.903  1.00  0.00    -0.460 OA
BRANCH  39  40
ATOM     40  C   UNL     1       3.610  -8.428  -3.780  1.00  0.00     0.338 C 
ATOM     41  O   UNL     1       3.846  -9.609  -3.948  1.00  0.00    -0.246 OA
BRANCH  40  42
ATOM     42  C   UNL     1       4.096  -7.337  -4.654  1.00  0.00     0.060 A 
ATOM     43  C   UNL     1       3.828  -7.383  -6.027  1.00  0.00     0.016 A 
ATOM     44  C   UNL     1       4.804  -6.264  -4.111  1.00  0.00     0.016 A 
ATOM     45  C   UNL     1       4.301  -6.373  -6.865  1.00  0.00     0.010 A 
ATOM     46  C   UNL     1       5.284  -5.254  -4.950  1.00  0.00     0.010 A 
ATOM     47  C   UNL     1       5.075  -5.330  -6.338  1.00  0.00    -0.014 A 
BRANCH  47  48
ATOM     48  C   UNL     1       5.859  -4.476  -7.263  1.00  0.00     0.031 A 
ATOM     49  C   UNL     1       7.318  -4.797  -7.456  1.00  0.00     0.074 A 
ATOM     50  C   UNL     1       5.287  -3.482  -7.965  1.00  0.00     0.049 A 
ATOM     51  N   UNL     1       8.207  -4.215  -8.220  1.00  0.00    -0.248 NA
ATOM     52  C   UNL     1       7.846  -5.930  -6.677  1.00  0.00     0.031 C 
ATOM     53  C   UNL     1       3.880  -3.095  -7.895  1.00  0.00     0.029 A 
ATOM     54  N   UNL     1       5.830  -2.618  -8.883  1.00  0.00    -0.354 N 
ATOM     55  C   UNL     1       9.393  -4.908  -8.010  1.00  0.00     0.074 A 
ATOM     56  C   UNL     1       9.125  -5.921  -7.014  1.00  0.00     0.031 C 
ATOM     57  C   UNL     1       3.670  -2.068  -8.738  1.00  0.00     0.029 A 
ATOM     58  C   UNL     1       4.931  -1.709  -9.385  1.00  0.00     0.049 A 
ATOM     59  H   UNL     1       6.776  -2.646  -9.156  1.00  0.00     0.167 HD
ATOM     60  C   UNL     1      10.596  -4.729  -8.604  1.00  0.00     0.037 A 
ATOM     61  C   UNL     1       5.113  -0.698 -10.257  1.00  0.00     0.037 A 
ATOM     62  C   UNL     1      10.863  -3.721  -9.595  1.00  0.00     0.049 A 
ATOM     63  C   UNL     1       6.479  -0.473 -10.854  1.00  0.00     0.074 A 
ATOM     64  C   UNL     1      12.044  -3.465 -10.268  1.00  0.00     0.029 A 
ATOM     65  N   UNL     1       9.934  -2.796 -10.048  1.00  0.00    -0.354 N 
ATOM     66  N   UNL     1       7.587  -1.151 -10.671  1.00  0.00    -0.248 NA
ATOM     67  C   UNL     1       6.616   0.654 -11.788  1.00  0.00     0.031 C 
ATOM     68  C   UNL     1      11.847  -2.347 -11.084  1.00  0.00     0.029 A 
ATOM     69  C   UNL     1      10.524  -1.950 -10.973  1.00  0.00     0.049 A 
ATOM     70  H   UNL     1       8.995  -2.748  -9.756  1.00  0.00     0.167 HD
ATOM     71  C   UNL     1       8.540  -0.557 -11.492  1.00  0.00     0.074 A 
ATOM     72  C   UNL     1       7.874   0.527 -12.184  1.00  0.00     0.031 C 
ATOM     73  C   UNL     1       9.847  -0.880 -11.661  1.00  0.00     0.037 A 
BRANCH  60  74
ATOM     74  C   UNL     1      11.720  -5.627  -8.173  1.00  0.00     0.057 A 
ATOM     75  C   UNL     1      11.742  -6.994  -8.483  1.00  0.00     0.134 A 
ATOM     76  C   UNL     1      12.805  -5.113  -7.452  1.00  0.00     0.134 A 
ATOM     77  F   UNL     1      10.726  -7.556  -9.155  1.00  0.00    -0.206 F 
ATOM     78  C   UNL     1      12.789  -7.820  -8.069  1.00  0.00     0.040 A 
ATOM     79  C   UNL     1      13.872  -5.922  -7.059  1.00  0.00     0.040 A 
ATOM     80  F   UNL     1      12.849  -3.813  -7.122  1.00  0.00    -0.206 F 
ATOM     81  C   UNL     1      13.862  -7.282  -7.361  1.00  0.00     0.006 A 
ENDBRANCH  60  74
BRANCH  61  82
ATOM     82  C   UNL     1       3.977   0.190 -10.621  1.00  0.00     0.057 A 
ATOM     83  C   UNL     1       3.451   0.208 -11.919  1.00  0.00     0.134 A 
ATOM     84  C   UNL     1       3.412   1.068  -9.688  1.00  0.00     0.134 A 
ATOM     85  F   UNL     1       3.965  -0.590 -12.866  1.00  0.00    -0.206 F 
ATOM     86  C   UNL     1       2.424   1.081 -12.281  1.00  0.00     0.040 A 
ATOM     87  C   UNL     1       2.364   1.925 -10.028  1.00  0.00     0.040 A 
ATOM     88  F   UNL     1       3.869   1.103  -8.427  1.00  0.00    -0.206 F 
ATOM     89  C   UNL     1       1.874   1.940 -11.332  1.00  0.00     0.006 A 
ENDBRANCH  61  82
BRANCH  73  90
ATOM     90  C   UNL     1      10.630  -0.086 -12.669  1.00  0.00     0.057 A 
ATOM     91  C   UNL     1      10.969   1.258 -12.462  1.00  0.00     0.134 A 
ATOM     92  C   UNL     1      11.077  -0.688 -13.853  1.00  0.00     0.134 A 
ATOM     93  F   UNL     1      10.568   1.898 -11.354  1.00  0.00    -0.206 F 
ATOM     94  C   UNL     1      11.691   1.983 -13.413  1.00  0.00     0.040 A 
ATOM     95  C   UNL     1      11.828   0.017 -14.795  1.00  0.00     0.040 A 
ATOM     96  F   UNL     1      10.802  -1.976 -14.110  1.00  0.00    -0.206 F 
ATOM     97  C   UNL     1      12.127   1.361 -14.581  1.00  0.00     0.006 A 
ENDBRANCH  73  90
ENDBRANCH  47  48
ENDBRANCH  40  42
ENDBRANCH  39  40
ENDBRANCH  38  39
ENDBRANCH  37  38
ENDBRANCH  36  37
ENDBRANCH  35  36
ENDBRANCH  34  35
ENDBRANCH  33  34
ENDBRANCH  32  33
ENDBRANCH   1  32
TORSDOF 27
