REMARK SMILES Cc1cccc(O[C@H](C)C(=O)NNC(=O)[C@H]2[C@@H]3CC[C@@H](C3)[C@@H]2C(=O)OCCOCCOCCOCCOC(=O)c2ccc(-c3c4nc(c(-c5c(F)cccc5F)c5ccc([nH]5)c(-c5c(F)cccc5F)c5nc(c(-c6c(F)cccc6F)c6ccc3[nH]6)C=C5)C=C4)cc2)c1
REMARK SMILES IDX 29 1 28 2 27 3 26 4 25 5 23 6 24 7 22 8 16 9 17 10 18 11
REMARK SMILES IDX 21 12 20 13 19 14 14 15 13 16 15 18 12 19 10 20 11 21 8 23
REMARK SMILES IDX 9 24 7 25 6 26 1 27 2 28 3 29 94 30 4 31 5 32 30 33 31 34
REMARK SMILES IDX 32 35 33 36 34 37 35 38 36 39 37 40 38 41 39 42 40 43 41 44
REMARK SMILES IDX 93 45 42 46 92 47 43 48 44 49 45 50 86 51 46 52 91 53 85 54
REMARK SMILES IDX 87 55 47 56 90 57 84 58 83 59 48 61 74 62 57 63 73 64 58 65
REMARK SMILES IDX 61 66 72 67 88 68 59 69 60 70 71 72 89 73 62 74 49 75 50 76
REMARK SMILES IDX 55 77 51 78 52 79 54 80 56 81 53 82 75 83 76 84 81 85 77 86
REMARK SMILES IDX 78 87 80 88 82 89 79 90 63 91 64 92 69 93 65 94 66 95 68 96
REMARK SMILES IDX 70 97 67 98
REMARK H PARENT 13 17 12 22 87 60 61 71
REMARK Flexibility Score: inf
ROOT
ATOM      1  C   UNL     1       6.054   2.362   0.811  1.00  0.00     0.188 C 
ENDROOT
BRANCH   1   2
ATOM      2  O   UNL     1       7.418   2.647  -0.287  1.00  0.00    -0.376 OA
BRANCH   2   3
ATOM      3  C   UNL     1       7.698   3.593  -1.769  1.00  0.00     0.202 C 
BRANCH   3   4
ATOM      4  C   UNL     1       6.634   3.808  -3.341  1.00  0.00     0.261 C 
BRANCH   4   5
ATOM      5  O   UNL     1       5.142   2.924  -3.785  1.00  0.00    -0.463 OA
BRANCH   5   6
ATOM      6  C   UNL     1       4.575   1.624  -3.985  1.00  0.00     0.310 C 
ATOM      7  O   UNL     1       5.159   0.543  -4.108  1.00  0.00    -0.252 OA
BRANCH   6   8
ATOM      8  C   UNL     1       3.041   1.364  -3.812  1.00  0.00     0.115 C 
ATOM      9  C   UNL     1       2.731   0.181  -2.802  1.00  0.00     0.098 C 
ATOM     10  C   UNL     1       1.807  -0.751  -3.625  1.00  0.00     0.003 C 
ATOM     11  C   UNL     1       2.652  -1.463  -4.701  1.00  0.00     0.005 C 
ATOM     12  C   UNL     1       1.023   0.235  -4.484  1.00  0.00     0.009 C 
ATOM     13  C   UNL     1       2.283   0.884  -5.079  1.00  0.00     0.004 C 
ATOM     14  C   UNL     1       2.903  -0.352  -5.729  1.00  0.00     0.005 C 
BRANCH   9  15
ATOM     15  C   UNL     1       2.191   0.387  -1.370  1.00  0.00     0.242 C 
ATOM     16  N   UNL     1       1.221   1.261  -0.967  1.00  0.00    -0.267 N 
ATOM     17  H   UNL     1       1.011   1.251  -0.005  1.00  0.00     0.191 HD
ATOM     18  O   UNL     1       2.637  -0.345  -0.470  1.00  0.00    -0.273 OA
BRANCH  16  19
ATOM     19  N   UNL     1       0.500   2.151  -1.725  1.00  0.00    -0.264 N 
ATOM     20  C   UNL     1      -0.283   3.172  -1.276  1.00  0.00     0.279 C 
ATOM     21  O   UNL     1      -0.488   4.078  -2.100  1.00  0.00    -0.269 OA
ATOM     22  H   UNL     1       0.555   2.039  -2.701  1.00  0.00     0.191 HD
BRANCH  20  23
ATOM     23  C   UNL     1      -1.024   3.223   0.094  1.00  0.00     0.260 C 
ATOM     24  C   UNL     1      -2.452   2.675  -0.035  1.00  0.00     0.064 C 
BRANCH  23  25
ATOM     25  O   UNL     1      -0.437   3.102   1.374  1.00  0.00    -0.481 OA
BRANCH  25  26
ATOM     26  C   UNL     1      -0.176   1.940   2.022  1.00  0.00     0.120 A 
ATOM     27  C   UNL     1       1.747   1.197   5.244  1.00  0.00     0.044 C 
ATOM     28  C   UNL     1       0.972   1.014   3.974  1.00  0.00    -0.047 A 
ATOM     29  C   UNL     1       0.774  -0.268   3.462  1.00  0.00     0.003 A 
ATOM     30  C   UNL     1       0.481   2.107   3.249  1.00  0.00     0.049 A 
ATOM     31  C   UNL     1       0.056  -0.447   2.281  1.00  0.00     0.004 A 
ATOM     32  C   UNL     1      -0.432   0.653   1.572  1.00  0.00     0.046 A 
ENDBRANCH  25  26
ENDBRANCH  23  25
ENDBRANCH  20  23
ENDBRANCH  16  19
ENDBRANCH   9  15
ENDBRANCH   6   8
ENDBRANCH   5   6
ENDBRANCH   4   5
ENDBRANCH   3   4
ENDBRANCH   2   3
ENDBRANCH   1   2
BRANCH   1  33
ATOM     33  C   UNL     1       4.356   2.272   0.686  1.00  0.00     0.188 C 
BRANCH  33  34
ATOM     34  O   UNL     1       3.292   3.217   0.419  1.00  0.00    -0.377 OA
BRANCH  34  35
ATOM     35  C   UNL     1       3.063   4.513   0.966  1.00  0.00     0.188 C 
BRANCH  35  36
ATOM     36  C   UNL     1       3.174   4.648   2.454  1.00  0.00     0.188 C 
BRANCH  36  37
ATOM     37  O   UNL     1       4.384   4.010   2.803  1.00  0.00    -0.376 OA
BRANCH  37  38
ATOM     38  C   UNL     1       4.428   3.525   4.124  1.00  0.00     0.202 C 
BRANCH  38  39
ATOM     39  C   UNL     1       4.675   4.665   5.104  1.00  0.00     0.261 C 
BRANCH  39  40
ATOM     40  O   UNL     1       5.897   5.344   4.728  1.00  0.00    -0.460 OA
BRANCH  40  41
ATOM     41  C   UNL     1       5.725   6.458   3.944  1.00  0.00     0.338 C 
ATOM     42  O   UNL     1       4.970   7.372   4.187  1.00  0.00    -0.246 OA
BRANCH  41  43
ATOM     43  C   UNL     1       6.348   6.224   2.602  1.00  0.00     0.060 A 
ATOM     44  C   UNL     1       5.859   6.845   1.461  1.00  0.00     0.016 A 
ATOM     45  C   UNL     1       7.217   5.193   2.392  1.00  0.00     0.016 A 
ATOM     46  C   UNL     1       5.877   6.161   0.205  1.00  0.00     0.010 A 
ATOM     47  C   UNL     1       7.251   4.598   1.114  1.00  0.00     0.010 A 
ATOM     48  C   UNL     1       6.285   4.823   0.054  1.00  0.00    -0.014 A 
BRANCH  48  49
ATOM     49  C   UNL     1       5.506   3.635  -1.137  1.00  0.00     0.031 A 
ATOM     50  C   UNL     1       6.146   1.868  -1.751  1.00  0.00     0.074 A 
ATOM     51  C   UNL     1       4.460   4.327  -1.713  1.00  0.00     0.049 A 
ATOM     52  N   UNL     1       6.834   1.733  -2.929  1.00  0.00    -0.248 NA
ATOM     53  C   UNL     1       6.723   0.544  -1.097  1.00  0.00     0.031 C 
ATOM     54  C   UNL     1       3.265   3.844  -2.333  1.00  0.00     0.029 A 
ATOM     55  N   UNL     1       4.406   5.664  -2.129  1.00  0.00    -0.354 N 
ATOM     56  C   UNL     1       7.616   0.641  -3.195  1.00  0.00     0.074 A 
ATOM     57  C   UNL     1       7.645   0.007  -1.930  1.00  0.00     0.031 C 
ATOM     58  C   UNL     1       2.937   4.579  -3.411  1.00  0.00     0.029 A 
ATOM     59  C   UNL     1       3.841   5.690  -3.409  1.00  0.00     0.049 A 
ATOM     60  H   UNL     1       4.711   6.446  -1.614  1.00  0.00     0.167 HD
ATOM     61  C   UNL     1       8.136   0.320  -4.434  1.00  0.00     0.037 A 
ATOM     62  C   UNL     1       3.881   6.644  -4.354  1.00  0.00     0.037 A 
ATOM     63  C   UNL     1       7.493   0.994  -5.578  1.00  0.00     0.049 A 
ATOM     64  C   UNL     1       4.521   6.130  -5.622  1.00  0.00     0.074 A 
ATOM     65  C   UNL     1       6.464   0.539  -6.391  1.00  0.00     0.029 A 
ATOM     66  N   UNL     1       7.680   2.321  -5.951  1.00  0.00    -0.354 N 
ATOM     67  N   UNL     1       5.218   5.024  -5.757  1.00  0.00    -0.248 NA
ATOM     68  C   UNL     1       4.364   6.852  -6.879  1.00  0.00     0.031 C 
ATOM     69  C   UNL     1       5.869   1.633  -7.049  1.00  0.00     0.029 A 
ATOM     70  C   UNL     1       6.648   2.746  -6.797  1.00  0.00     0.049 A 
ATOM     71  H   UNL     1       8.434   2.884  -5.661  1.00  0.00     0.167 HD
ATOM     72  C   UNL     1       5.712   4.953  -7.055  1.00  0.00     0.074 A 
ATOM     73  C   UNL     1       5.060   6.070  -7.718  1.00  0.00     0.031 C 
ATOM     74  C   UNL     1       6.624   4.022  -7.509  1.00  0.00     0.037 A 
BRANCH  61  75
ATOM     75  C   UNL     1       8.930  -0.974  -4.604  1.00  0.00     0.057 A 
ATOM     76  C   UNL     1       8.648  -1.930  -5.601  1.00  0.00     0.134 A 
ATOM     77  C   UNL     1       9.969  -1.341  -3.731  1.00  0.00     0.134 A 
ATOM     78  F   UNL     1       7.820  -1.681  -6.621  1.00  0.00    -0.206 F 
ATOM     79  C   UNL     1       9.209  -3.215  -5.612  1.00  0.00     0.040 A 
ATOM     80  C   UNL     1      10.535  -2.629  -3.723  1.00  0.00     0.040 A 
ATOM     81  F   UNL     1      10.459  -0.461  -2.844  1.00  0.00    -0.206 F 
ATOM     82  C   UNL     1      10.123  -3.587  -4.641  1.00  0.00     0.006 A 
ENDBRANCH  61  75
BRANCH  62  83
ATOM     83  C   UNL     1       3.891   7.986  -3.711  1.00  0.00     0.057 A 
ATOM     84  C   UNL     1       2.666   8.309  -3.076  1.00  0.00     0.134 A 
ATOM     85  C   UNL     1       5.055   8.513  -3.146  1.00  0.00     0.134 A 
ATOM     86  F   UNL     1       1.512   7.828  -3.570  1.00  0.00    -0.206 F 
ATOM     87  C   UNL     1       2.624   8.903  -1.813  1.00  0.00     0.040 A 
ATOM     88  C   UNL     1       5.017   9.146  -1.893  1.00  0.00     0.040 A 
ATOM     89  F   UNL     1       6.251   8.245  -3.686  1.00  0.00    -0.206 F 
ATOM     90  C   UNL     1       3.811   9.282  -1.198  1.00  0.00     0.006 A 
ENDBRANCH  62  83
BRANCH  74  91
ATOM     91  C   UNL     1       7.439   4.053  -8.819  1.00  0.00     0.057 A 
ATOM     92  C   UNL     1       7.502   5.111  -9.738  1.00  0.00     0.134 A 
ATOM     93  C   UNL     1       8.300   2.969  -9.160  1.00  0.00     0.134 A 
ATOM     94  F   UNL     1       6.883   6.276  -9.535  1.00  0.00    -0.206 F 
ATOM     95  C   UNL     1       8.272   5.062 -10.915  1.00  0.00     0.040 A 
ATOM     96  C   UNL     1       9.101   2.927 -10.306  1.00  0.00     0.040 A 
ATOM     97  F   UNL     1       8.457   1.892  -8.381  1.00  0.00    -0.206 F 
ATOM     98  C   UNL     1       9.079   3.972 -11.202  1.00  0.00     0.006 A 
ENDBRANCH  74  91
ENDBRANCH  48  49
ENDBRANCH  41  43
ENDBRANCH  40  41
ENDBRANCH  39  40
ENDBRANCH  38  39
ENDBRANCH  37  38
ENDBRANCH  36  37
ENDBRANCH  35  36
ENDBRANCH  34  35
ENDBRANCH  33  34
ENDBRANCH   1  33
TORSDOF 25
