REMARK SMILES Cc1ccc(S(=O)(=O)n2cc(C(=O)C(=O)NCC(=O)NCC(=O)OCCOCCOCCOCCOC(=O)c3ccc(-c4c5nc(c(-c6c(F)cccc6F)c6ccc([nH]6)c(-c6c(F)cccc6F)c6nc(c(-c7c(F)cccc7F)c7ccc4[nH]7)C=C6)C=C5)cc3)c3ccccc32)cc1
REMARK SMILES IDX 28 1 27 2 26 3 25 4 24 5 22 6 23 7 21 8 20 9 18 10 19 11
REMARK SMILES IDX 17 13 16 14 14 15 15 16 12 18 13 19 11 20 9 21 10 22 98 23
REMARK SMILES IDX 93 24 97 25 94 26 96 27 95 28 6 29 7 30 8 31 5 32 1 33 2 34
REMARK SMILES IDX 3 35 100 36 4 37 99 38 29 39 30 40 31 41 32 42 33 43 34 44
REMARK SMILES IDX 35 45 36 46 37 47 38 48 39 49 40 50 92 51 41 52 91 53 42 54
REMARK SMILES IDX 43 55 44 56 85 57 45 58 90 59 84 60 86 61 46 62 89 63 83 64
REMARK SMILES IDX 82 65 47 67 73 68 56 69 72 70 57 71 60 72 71 73 87 74 58 75
REMARK SMILES IDX 59 76 70 78 88 79 61 80 48 81 49 82 54 83 50 84 51 85 53 86
REMARK SMILES IDX 55 87 52 88 74 89 75 90 80 91 76 92 77 93 79 94 81 95 78 96
REMARK SMILES IDX 62 97 63 98 68 99 64 100 65 101 67 102 69 103 66 104
REMARK H PARENT 20 12 16 17 86 66 60 77
REMARK Flexibility Score: inf
ROOT
ATOM      1  C   UNL     1     -11.679   5.033  -0.585  1.00  0.00     0.188 C 
ENDROOT
BRANCH   1   2
ATOM      2  O   UNL     1     -12.300   3.768  -0.742  1.00  0.00    -0.376 OA
BRANCH   2   3
ATOM      3  C   UNL     1     -11.580   2.649  -0.202  1.00  0.00     0.202 C 
BRANCH   3   4
ATOM      4  C   UNL     1     -10.084   2.544  -0.540  1.00  0.00     0.261 C 
BRANCH   4   5
ATOM      5  O   UNL     1      -9.322   3.486   0.251  1.00  0.00    -0.462 OA
BRANCH   5   6
ATOM      6  C   UNL     1      -8.451   4.274  -0.425  1.00  0.00     0.325 C 
ATOM      7  O   UNL     1      -7.941   3.987  -1.501  1.00  0.00    -0.250 OA
BRANCH   6   8
ATOM      8  C   UNL     1      -8.301   5.665   0.219  1.00  0.00     0.238 C 
BRANCH   8   9
ATOM      9  N   UNL     1      -9.022   5.980   1.455  1.00  0.00    -0.344 N 
ATOM     10  C   UNL     1      -8.583   6.598   2.585  1.00  0.00     0.239 C 
ATOM     11  O   UNL     1      -9.404   6.968   3.426  1.00  0.00    -0.273 OA
ATOM     12  H   UNL     1      -9.966   5.703   1.471  1.00  0.00     0.164 HD
BRANCH  10  13
ATOM     13  C   UNL     1      -7.092   6.702   2.841  1.00  0.00     0.216 C 
BRANCH  13  14
ATOM     14  N   UNL     1      -6.649   5.401   3.320  1.00  0.00    -0.340 N 
ATOM     15  C   UNL     1      -5.758   4.499   2.789  1.00  0.00     0.292 C 
ATOM     16  O   UNL     1      -5.566   3.442   3.377  1.00  0.00    -0.265 OA
ATOM     17  H   UNL     1      -7.057   5.119   4.170  1.00  0.00     0.164 HD
BRANCH  15  18
ATOM     18  C   UNL     1      -5.013   4.807   1.470  1.00  0.00     0.252 C 
ATOM     19  O   UNL     1      -4.841   5.984   1.164  1.00  0.00    -0.283 OA
BRANCH  18  20
ATOM     20  C   UNL     1      -4.543   3.734   0.586  1.00  0.00     0.054 A 
ATOM     21  N   UNL     1      -3.915   1.735  -0.191  1.00  0.00    -0.240 N 
ATOM     22  C   UNL     1      -4.266   2.428   0.939  1.00  0.00     0.117 A 
ATOM     23  C   UNL     1      -3.729   2.602  -1.250  1.00  0.00     0.065 A 
ATOM     24  C   UNL     1      -4.176   3.854  -0.801  1.00  0.00     0.012 A 
ATOM     25  C   UNL     1      -3.183   2.426  -2.534  1.00  0.00     0.028 A 
ATOM     26  C   UNL     1      -4.147   4.939  -1.705  1.00  0.00     0.011 A 
ATOM     27  C   UNL     1      -3.102   3.537  -3.376  1.00  0.00     0.002 A 
ATOM     28  C   UNL     1      -3.595   4.773  -2.978  1.00  0.00     0.001 A 
BRANCH  21  29
ATOM     29  S   UNL     1      -3.426   0.102  -0.171  1.00  0.00     0.268 S 
ATOM     30  O   UNL     1      -3.774  -0.445  -1.457  1.00  0.00    -0.201 OA
ATOM     31  O   UNL     1      -3.910  -0.456   1.087  1.00  0.00    -0.201 OA
BRANCH  29  32
ATOM     32  C   UNL     1      -1.661   0.109  -0.051  1.00  0.00     0.088 A 
ATOM     33  C   UNL     1       2.621  -0.087   0.022  1.00  0.00     0.044 C 
ATOM     34  C   UNL     1       1.124  -0.017   0.020  1.00  0.00    -0.051 A 
ATOM     35  C   UNL     1       0.368  -1.194  -0.055  1.00  0.00     0.005 A 
ATOM     36  C   UNL     1       0.471   1.219   0.090  1.00  0.00     0.005 A 
ATOM     37  C   UNL     1      -1.023  -1.134  -0.095  1.00  0.00     0.022 A 
ATOM     38  C   UNL     1      -0.920   1.285   0.065  1.00  0.00     0.022 A 
ENDBRANCH  29  32
ENDBRANCH  21  29
ENDBRANCH  18  20
ENDBRANCH  15  18
ENDBRANCH  13  14
ENDBRANCH  10  13
ENDBRANCH   8   9
ENDBRANCH   6   8
ENDBRANCH   5   6
ENDBRANCH   4   5
ENDBRANCH   3   4
ENDBRANCH   2   3
ENDBRANCH   1   2
BRANCH   1  39
ATOM     39  C   UNL     1     -12.421   6.096   0.216  1.00  0.00     0.188 C 
BRANCH  39  40
ATOM     40  O   UNL     1     -12.151   6.167   1.619  1.00  0.00    -0.377 OA
BRANCH  40  41
ATOM     41  C   UNL     1     -12.309   4.997   2.411  1.00  0.00     0.188 C 
BRANCH  41  42
ATOM     42  C   UNL     1     -13.733   4.467   2.549  1.00  0.00     0.188 C 
BRANCH  42  43
ATOM     43  O   UNL     1     -14.345   4.090   1.327  1.00  0.00    -0.376 OA
BRANCH  43  44
ATOM     44  C   UNL     1     -15.534   4.774   0.928  1.00  0.00     0.202 C 
BRANCH  44  45
ATOM     45  C   UNL     1     -16.656   4.915   1.965  1.00  0.00     0.261 C 
BRANCH  45  46
ATOM     46  O   UNL     1     -17.238   3.627   2.225  1.00  0.00    -0.460 OA
BRANCH  46  47
ATOM     47  C   UNL     1     -16.931   3.096   3.436  1.00  0.00     0.338 C 
ATOM     48  O   UNL     1     -17.084   3.652   4.512  1.00  0.00    -0.246 OA
BRANCH  47  49
ATOM     49  C   UNL     1     -16.103   1.872   3.248  1.00  0.00     0.060 A 
ATOM     50  C   UNL     1     -15.449   1.326   4.362  1.00  0.00     0.016 A 
ATOM     51  C   UNL     1     -15.676   1.543   1.964  1.00  0.00     0.016 A 
ATOM     52  C   UNL     1     -14.227   0.664   4.196  1.00  0.00     0.010 A 
ATOM     53  C   UNL     1     -14.418   0.995   1.815  1.00  0.00     0.010 A 
ATOM     54  C   UNL     1     -13.649   0.630   2.930  1.00  0.00    -0.014 A 
BRANCH  54  55
ATOM     55  C   UNL     1     -12.209   0.471   2.668  1.00  0.00     0.031 A 
ATOM     56  C   UNL     1     -11.773  -0.441   1.571  1.00  0.00     0.074 A 
ATOM     57  C   UNL     1     -11.341   1.377   3.192  1.00  0.00     0.049 A 
ATOM     58  N   UNL     1     -10.572  -0.504   1.123  1.00  0.00    -0.248 NA
ATOM     59  C   UNL     1     -12.665  -1.350   0.855  1.00  0.00     0.031 C 
ATOM     60  C   UNL     1     -10.016   1.742   2.695  1.00  0.00     0.029 A 
ATOM     61  N   UNL     1     -11.451   2.182   4.313  1.00  0.00    -0.354 N 
ATOM     62  C   UNL     1     -10.543  -1.254  -0.029  1.00  0.00     0.074 A 
ATOM     63  C   UNL     1     -11.876  -1.785  -0.138  1.00  0.00     0.031 C 
ATOM     64  C   UNL     1      -9.396   2.583   3.536  1.00  0.00     0.029 A 
ATOM     65  C   UNL     1     -10.177   2.589   4.745  1.00  0.00     0.049 A 
ATOM     66  H   UNL     1     -12.299   2.432   4.746  1.00  0.00     0.167 HD
ATOM     67  C   UNL     1      -9.388  -1.246  -0.761  1.00  0.00     0.037 A 
ATOM     68  C   UNL     1      -9.693   2.084   5.925  1.00  0.00     0.037 A 
ATOM     69  C   UNL     1      -8.284  -0.716   0.062  1.00  0.00     0.049 A 
ATOM     70  C   UNL     1      -8.696   0.943   5.702  1.00  0.00     0.074 A 
ATOM     71  C   UNL     1      -7.471   0.403   0.036  1.00  0.00     0.029 A 
ATOM     72  N   UNL     1      -8.082  -1.290   1.316  1.00  0.00    -0.354 N 
ATOM     73  N   UNL     1      -8.416   0.462   4.513  1.00  0.00    -0.248 NA
ATOM     74  C   UNL     1      -7.919   0.263   6.731  1.00  0.00     0.031 C 
ATOM     75  C   UNL     1      -6.977   0.591   1.365  1.00  0.00     0.029 A 
ATOM     76  C   UNL     1      -7.273  -0.523   2.124  1.00  0.00     0.049 A 
ATOM     77  H   UNL     1      -8.475  -2.149   1.593  1.00  0.00     0.167 HD
ATOM     78  C   UNL     1      -7.427  -0.471   4.565  1.00  0.00     0.074 A 
ATOM     79  C   UNL     1      -7.207  -0.620   5.999  1.00  0.00     0.031 C 
ATOM     80  C   UNL     1      -6.867  -1.023   3.438  1.00  0.00     0.037 A 
BRANCH  67  81
ATOM     81  C   UNL     1      -9.251  -1.604  -2.233  1.00  0.00     0.057 A 
ATOM     82  C   UNL     1      -7.997  -1.529  -2.876  1.00  0.00     0.134 A 
ATOM     83  C   UNL     1     -10.313  -1.917  -3.108  1.00  0.00     0.134 A 
ATOM     84  F   UNL     1      -6.883  -1.223  -2.198  1.00  0.00    -0.206 F 
ATOM     85  C   UNL     1      -7.818  -1.741  -4.255  1.00  0.00     0.040 A 
ATOM     86  C   UNL     1     -10.143  -2.169  -4.481  1.00  0.00     0.040 A 
ATOM     87  F   UNL     1     -11.586  -1.948  -2.705  1.00  0.00    -0.206 F 
ATOM     88  C   UNL     1      -8.893  -2.071  -5.064  1.00  0.00     0.006 A 
ENDBRANCH  67  81
BRANCH  68  89
ATOM     89  C   UNL     1     -10.699   2.358   7.006  1.00  0.00     0.057 A 
ATOM     90  C   UNL     1     -10.960   3.739   7.188  1.00  0.00     0.134 A 
ATOM     91  C   UNL     1     -11.786   1.494   7.187  1.00  0.00     0.134 A 
ATOM     92  F   UNL     1      -9.954   4.624   7.092  1.00  0.00    -0.206 F 
ATOM     93  C   UNL     1     -12.265   4.246   7.191  1.00  0.00     0.040 A 
ATOM     94  C   UNL     1     -13.098   1.998   7.254  1.00  0.00     0.040 A 
ATOM     95  F   UNL     1     -11.628   0.168   7.075  1.00  0.00    -0.206 F 
ATOM     96  C   UNL     1     -13.342   3.369   7.161  1.00  0.00     0.006 A 
ENDBRANCH  68  89
BRANCH  80  97
ATOM     97  C   UNL     1      -5.853  -2.142   3.471  1.00  0.00     0.057 A 
ATOM     98  C   UNL     1      -4.876  -2.263   4.461  1.00  0.00     0.134 A 
ATOM     99  C   UNL     1      -5.816  -3.150   2.478  1.00  0.00     0.134 A 
ATOM    100  F   UNL     1      -4.631  -1.265   5.323  1.00  0.00    -0.206 F 
ATOM    101  C   UNL     1      -4.091  -3.414   4.594  1.00  0.00     0.040 A 
ATOM    102  C   UNL     1      -4.994  -4.271   2.562  1.00  0.00     0.040 A 
ATOM    103  F   UNL     1      -6.591  -3.129   1.387  1.00  0.00    -0.206 F 
ATOM    104  C   UNL     1      -4.171  -4.438   3.659  1.00  0.00     0.006 A 
ENDBRANCH  80  97
ENDBRANCH  54  55
ENDBRANCH  47  49
ENDBRANCH  46  47
ENDBRANCH  45  46
ENDBRANCH  44  45
ENDBRANCH  43  44
ENDBRANCH  42  43
ENDBRANCH  41  42
ENDBRANCH  40  41
ENDBRANCH  39  40
ENDBRANCH   1  39
TORSDOF 27
