REMARK SMILES CNC(=O)NC1=[NH+]N=CN[C@@H]1C(=O)OCCOCCOCCOCCOC(=O)c1ccc(-c2c3nc(c(-c4c(F)cccc4F)c4ccc([nH]4)c(-c4c(F)cccc4F)c4nc(c(-c5c(F)cccc5F)c5ccc2[nH]5)C=C4)C=C3)cc1
REMARK SMILES IDX 21 1 20 2 19 3 18 4 17 5 16 6 15 7 14 8 12 9 13 10 11 11
REMARK SMILES IDX 1 12 2 13 3 14 4 16 5 17 6 18 7 20 8 21 10 23 9 24 22 26
REMARK SMILES IDX 23 27 24 28 25 29 26 30 27 31 28 32 29 33 30 34 82 35 31 36
REMARK SMILES IDX 81 37 32 38 33 39 34 40 75 41 35 42 80 43 74 44 76 45 36 46
REMARK SMILES IDX 79 47 73 48 72 49 37 51 63 52 46 53 62 54 47 55 50 56 61 57
REMARK SMILES IDX 77 58 48 59 49 60 60 62 78 63 51 64 38 65 39 66 44 67 40 68
REMARK SMILES IDX 41 69 43 70 45 71 42 72 64 73 65 74 70 75 66 76 67 77 69 78
REMARK SMILES IDX 71 79 68 80 52 81 53 82 58 83 54 84 55 85 57 86 59 87 56 88
REMARK H PARENT 2 15 5 19 7 22 10 25 76 50 50 61
REMARK Flexibility Score: inf
ROOT
ATOM      1  C   UNL     1      -3.260   4.729   0.654  1.00  0.00     0.188 C 
ENDROOT
BRANCH   1   2
ATOM      2  O   UNL     1      -2.129   3.857   0.764  1.00  0.00    -0.377 OA
BRANCH   2   3
ATOM      3  C   UNL     1      -1.702   3.128  -0.375  1.00  0.00     0.188 C 
BRANCH   3   4
ATOM      4  C   UNL     1      -2.606   1.987  -0.873  1.00  0.00     0.188 C 
BRANCH   4   5
ATOM      5  O   UNL     1      -3.988   2.214  -0.735  1.00  0.00    -0.376 OA
BRANCH   5   6
ATOM      6  C   UNL     1      -4.725   1.755   0.387  1.00  0.00     0.202 C 
BRANCH   6   7
ATOM      7  C   UNL     1      -4.134   1.388   1.763  1.00  0.00     0.261 C 
BRANCH   7   8
ATOM      8  O   UNL     1      -2.723   1.535   1.919  1.00  0.00    -0.461 OA
BRANCH   8   9
ATOM      9  C   UNL     1      -2.004   0.382   1.954  1.00  0.00     0.341 C 
ATOM     10  O   UNL     1      -2.513  -0.731   1.879  1.00  0.00    -0.249 OA
BRANCH   9  11
ATOM     11  C   UNL     1      -0.493   0.623   1.894  1.00  0.00     0.308 C 
ATOM     12  C   UNL     1       1.718  -0.657  -0.210  1.00  0.00     0.147 C 
ATOM     13  N   UNL     1       0.615  -1.591  -0.108  1.00  0.00    -0.321 N 
ATOM     14  C   UNL     1       0.141  -2.227   0.994  1.00  0.00     0.406 C 
ATOM     15  H   UNL     1       0.147  -1.792  -0.950  1.00  0.00     0.167 HD
ATOM     16  O   UNL     1      -0.495  -3.268   0.862  1.00  0.00    -0.221 OA
ATOM     17  N   UNL     1       0.407  -1.704   2.226  1.00  0.00    -0.191 N 
ATOM     18  C   UNL     1       0.210  -0.438   2.726  1.00  0.00     0.311 C 
ATOM     19  H   UNL     1       0.807  -2.339   2.864  1.00  0.00     0.317 HD
ATOM     20  N   UNL     1       0.625  -0.236   3.940  1.00  0.00    -0.148 N 
ATOM     21  N   UNL     1       0.566   1.072   4.472  1.00  0.00    -0.077 NA
ATOM     22  H   UNL     1       0.976  -0.981   4.480  1.00  0.00     0.342 HD
ATOM     23  N   UNL     1      -0.064   1.936   2.364  1.00  0.00    -0.350 N 
ATOM     24  C   UNL     1       0.305   2.045   3.663  1.00  0.00     0.241 C 
ATOM     25  H   UNL     1      -0.043   2.713   1.760  1.00  0.00     0.163 HD
ENDBRANCH   9  11
ENDBRANCH   8   9
ENDBRANCH   7   8
ENDBRANCH   6   7
ENDBRANCH   5   6
ENDBRANCH   4   5
ENDBRANCH   3   4
ENDBRANCH   2   3
ENDBRANCH   1   2
BRANCH   1  26
ATOM     26  C   UNL     1      -3.922   5.058  -0.707  1.00  0.00     0.188 C 
BRANCH  26  27
ATOM     27  O   UNL     1      -3.085   4.903  -1.838  1.00  0.00    -0.376 OA
BRANCH  27  28
ATOM     28  C   UNL     1      -2.465   6.061  -2.375  1.00  0.00     0.202 C 
BRANCH  28  29
ATOM     29  C   UNL     1      -1.495   6.826  -1.458  1.00  0.00     0.261 C 
BRANCH  29  30
ATOM     30  O   UNL     1      -2.058   7.339  -0.239  1.00  0.00    -0.460 OA
BRANCH  30  31
ATOM     31  C   UNL     1      -3.069   8.223  -0.352  1.00  0.00     0.338 C 
ATOM     32  O   UNL     1      -3.526   8.691  -1.385  1.00  0.00    -0.246 OA
BRANCH  31  33
ATOM     33  C   UNL     1      -3.692   8.391   0.975  1.00  0.00     0.060 A 
ATOM     34  C   UNL     1      -5.044   8.059   1.125  1.00  0.00     0.016 A 
ATOM     35  C   UNL     1      -2.961   8.889   2.057  1.00  0.00     0.016 A 
ATOM     36  C   UNL     1      -5.684   8.275   2.343  1.00  0.00     0.010 A 
ATOM     37  C   UNL     1      -3.611   9.125   3.273  1.00  0.00     0.010 A 
ATOM     38  C   UNL     1      -4.986   8.861   3.406  1.00  0.00    -0.014 A 
BRANCH  38  39
ATOM     39  C   UNL     1      -5.757   9.376   4.565  1.00  0.00     0.031 A 
ATOM     40  C   UNL     1      -6.104  10.841   4.602  1.00  0.00     0.074 A 
ATOM     41  C   UNL     1      -6.213   8.549   5.522  1.00  0.00     0.049 A 
ATOM     42  N   UNL     1      -6.814  11.506   5.477  1.00  0.00    -0.248 NA
ATOM     43  C   UNL     1      -5.583  11.666   3.499  1.00  0.00     0.031 C 
ATOM     44  C   UNL     1      -5.982   7.107   5.576  1.00  0.00     0.029 A 
ATOM     45  N   UNL     1      -6.978   8.810   6.631  1.00  0.00    -0.354 N 
ATOM     46  C   UNL     1      -6.820  12.824   5.035  1.00  0.00     0.074 A 
ATOM     47  C   UNL     1      -6.017  12.872   3.833  1.00  0.00     0.031 C 
ATOM     48  C   UNL     1      -6.600   6.608   6.661  1.00  0.00     0.029 A 
ATOM     49  C   UNL     1      -7.245   7.698   7.392  1.00  0.00     0.049 A 
ATOM     50  H   UNL     1      -7.306   9.710   6.860  1.00  0.00     0.167 HD
ATOM     51  C   UNL     1      -7.446  13.896   5.575  1.00  0.00     0.037 A 
ATOM     52  C   UNL     1      -7.923   7.579   8.550  1.00  0.00     0.037 A 
ATOM     53  C   UNL     1      -8.249  13.847   6.768  1.00  0.00     0.049 A 
ATOM     54  C   UNL     1      -8.549   8.804   9.168  1.00  0.00     0.074 A 
ATOM     55  C   UNL     1      -8.949  14.873   7.378  1.00  0.00     0.029 A 
ATOM     56  N   UNL     1      -8.449  12.712   7.540  1.00  0.00    -0.354 N 
ATOM     57  N   UNL     1      -8.584  10.036   8.719  1.00  0.00    -0.248 NA
ATOM     58  C   UNL     1      -9.237   8.617  10.453  1.00  0.00     0.031 C 
ATOM     59  C   UNL     1      -9.518  14.375   8.555  1.00  0.00     0.029 A 
ATOM     60  C   UNL     1      -9.232  13.022   8.641  1.00  0.00     0.049 A 
ATOM     61  H   UNL     1      -8.089  11.819   7.336  1.00  0.00     0.167 HD
ATOM     62  C   UNL     1      -9.326  10.760   9.647  1.00  0.00     0.074 A 
ATOM     63  C   UNL     1      -9.738   9.823  10.671  1.00  0.00     0.031 C 
ATOM     64  C   UNL     1      -9.639  12.080   9.652  1.00  0.00     0.037 A 
BRANCH  51  65
ATOM     65  C   UNL     1      -7.258  15.225   4.900  1.00  0.00     0.057 A 
ATOM     66  C   UNL     1      -7.832  15.520   3.657  1.00  0.00     0.134 A 
ATOM     67  C   UNL     1      -6.523  16.240   5.528  1.00  0.00     0.134 A 
ATOM     68  F   UNL     1      -8.534  14.588   2.993  1.00  0.00    -0.206 F 
ATOM     69  C   UNL     1      -7.665  16.768   3.053  1.00  0.00     0.040 A 
ATOM     70  C   UNL     1      -6.374  17.500   4.948  1.00  0.00     0.040 A 
ATOM     71  F   UNL     1      -5.949  16.026   6.721  1.00  0.00    -0.206 F 
ATOM     72  C   UNL     1      -6.941  17.765   3.704  1.00  0.00     0.006 A 
ENDBRANCH  51  65
BRANCH  52  73
ATOM     73  C   UNL     1      -8.048   6.257   9.219  1.00  0.00     0.057 A 
ATOM     74  C   UNL     1      -9.291   5.628   9.363  1.00  0.00     0.134 A 
ATOM     75  C   UNL     1      -6.935   5.615   9.777  1.00  0.00     0.134 A 
ATOM     76  F   UNL     1     -10.399   6.204   8.873  1.00  0.00    -0.206 F 
ATOM     77  C   UNL     1      -9.428   4.427  10.062  1.00  0.00     0.040 A 
ATOM     78  C   UNL     1      -7.053   4.398  10.450  1.00  0.00     0.040 A 
ATOM     79  F   UNL     1      -5.715   6.164   9.676  1.00  0.00    -0.206 F 
ATOM     80  C   UNL     1      -8.305   3.807  10.604  1.00  0.00     0.006 A 
ENDBRANCH  52  73
BRANCH  64  81
ATOM     81  C   UNL     1     -10.504  12.577  10.777  1.00  0.00     0.057 A 
ATOM     82  C   UNL     1     -10.043  12.645  12.099  1.00  0.00     0.134 A 
ATOM     83  C   UNL     1     -11.814  13.009  10.531  1.00  0.00     0.134 A 
ATOM     84  F   UNL     1      -8.801  12.240  12.408  1.00  0.00    -0.206 F 
ATOM     85  C   UNL     1     -10.866  13.081  13.139  1.00  0.00     0.040 A 
ATOM     86  C   UNL     1     -12.635  13.481  11.556  1.00  0.00     0.040 A 
ATOM     87  F   UNL     1     -12.317  12.987   9.287  1.00  0.00    -0.206 F 
ATOM     88  C   UNL     1     -12.165  13.506  12.867  1.00  0.00     0.006 A 
ENDBRANCH  64  81
ENDBRANCH  38  39
ENDBRANCH  31  33
ENDBRANCH  30  31
ENDBRANCH  29  30
ENDBRANCH  28  29
ENDBRANCH  27  28
ENDBRANCH  26  27
ENDBRANCH   1  26
TORSDOF 20
