REMARK SMILES Cc1cc(C(=O)OCCOCCOCCOCCOC(=O)c2ccc(-c3c4nc(c(-c5c(F)cccc5F)c5ccc([nH]5)c(-c5c(F)cccc5F)c5nc(c(-c6c(F)cccc6F)c6ccc3[nH]6)C=C5)C=C4)cc2)ccc1NCCCC(=O)NC1CC1
REMARK SMILES IDX 11 1 10 2 9 3 8 4 7 5 5 6 6 7 4 8 1 9 2 10 3 11 78 12 77 13
REMARK SMILES IDX 76 14 79 15 80 17 81 18 82 19 83 20 84 21 85 22 86 24 87 25
REMARK SMILES IDX 88 26 12 27 13 28 14 29 15 30 16 31 17 32 18 33 19 34 20 35
REMARK SMILES IDX 21 36 22 37 23 38 75 39 24 40 74 41 25 42 26 43 27 44 68 45
REMARK SMILES IDX 28 46 73 47 67 48 69 49 29 50 72 51 66 52 65 53 30 55 56 56
REMARK SMILES IDX 39 57 55 58 40 59 43 60 54 61 70 62 41 63 42 64 53 66 71 67
REMARK SMILES IDX 44 68 31 69 32 70 37 71 33 72 34 73 36 74 38 75 35 76 57 77
REMARK SMILES IDX 58 78 63 79 59 80 60 81 62 82 64 83 61 84 45 85 46 86 51 87
REMARK SMILES IDX 47 88 48 89 50 90 52 91 49 92
REMARK H PARENT 79 16 85 23 69 54 43 65
REMARK Flexibility Score: inf
ROOT
ATOM      1  C   UNL     1       0.137  -2.164  -1.959  1.00  0.00     0.188 C 
ENDROOT
BRANCH   1   2
ATOM      2  O   UNL     1       0.158  -3.575  -2.181  1.00  0.00    -0.376 OA
BRANCH   2   3
ATOM      3  C   UNL     1      -0.677  -4.343  -1.309  1.00  0.00     0.202 C 
BRANCH   3   4
ATOM      4  C   UNL     1      -0.285  -4.352   0.168  1.00  0.00     0.261 C 
BRANCH   4   5
ATOM      5  O   UNL     1      -0.544  -3.069   0.735  1.00  0.00    -0.460 OA
BRANCH   5   6
ATOM      6  C   UNL     1       0.427  -2.607   1.538  1.00  0.00     0.338 C 
ATOM      7  O   UNL     1       1.292  -3.252   2.098  1.00  0.00    -0.246 OA
BRANCH   6   8
ATOM      8  C   UNL     1       0.492  -1.149   1.346  1.00  0.00     0.060 A 
ATOM      9  C   UNL     1       3.410   1.085   0.622  1.00  0.00     0.046 C 
ATOM     10  C   UNL     1       1.991   0.692   0.933  1.00  0.00    -0.027 A 
ATOM     11  C   UNL     1       1.779  -0.659   1.174  1.00  0.00     0.021 A 
ATOM     12  C   UNL     1       0.893   1.579   0.924  1.00  0.00     0.037 A 
ATOM     13  C   UNL     1      -0.402   1.054   0.932  1.00  0.00     0.027 A 
ATOM     14  C   UNL     1      -0.606  -0.307   1.166  1.00  0.00     0.018 A 
BRANCH  12  15
ATOM     15  N   UNL     1       1.152   2.929   0.918  1.00  0.00    -0.385 N 
ATOM     16  H   UNL     1       2.098   3.184   1.013  1.00  0.00     0.160 HD
BRANCH  15  17
ATOM     17  C   UNL     1       0.216   4.020   0.791  1.00  0.00     0.113 C 
BRANCH  17  18
ATOM     18  C   UNL     1       0.917   5.338   1.146  1.00  0.00     0.031 C 
BRANCH  18  19
ATOM     19  C   UNL     1       2.389   5.489   0.745  1.00  0.00     0.102 C 
BRANCH  19  20
ATOM     20  C   UNL     1       2.734   6.114  -0.586  1.00  0.00     0.220 C 
ATOM     21  O   UNL     1       3.293   7.215  -0.614  1.00  0.00    -0.275 OA
ATOM     22  N   UNL     1       2.553   5.476  -1.774  1.00  0.00    -0.353 N 
ATOM     23  H   UNL     1       3.049   5.877  -2.523  1.00  0.00     0.163 HD
BRANCH  22  24
ATOM     24  C   UNL     1       1.781   4.338  -2.136  1.00  0.00     0.082 C 
ATOM     25  C   UNL     1       2.148   3.633  -3.426  1.00  0.00     0.027 C 
ATOM     26  C   UNL     1       2.261   2.917  -2.122  1.00  0.00     0.027 C 
ENDBRANCH  22  24
ENDBRANCH  19  20
ENDBRANCH  18  19
ENDBRANCH  17  18
ENDBRANCH  15  17
ENDBRANCH  12  15
ENDBRANCH   6   8
ENDBRANCH   5   6
ENDBRANCH   4   5
ENDBRANCH   3   4
ENDBRANCH   2   3
ENDBRANCH   1   2
BRANCH   1  27
ATOM     27  C   UNL     1      -0.385  -1.341  -3.136  1.00  0.00     0.188 C 
BRANCH  27  28
ATOM     28  O   UNL     1      -1.721  -0.847  -2.979  1.00  0.00    -0.377 OA
BRANCH  28  29
ATOM     29  C   UNL     1      -2.777  -1.804  -3.090  1.00  0.00     0.188 C 
BRANCH  29  30
ATOM     30  C   UNL     1      -2.843  -2.477  -4.460  1.00  0.00     0.188 C 
BRANCH  30  31
ATOM     31  O   UNL     1      -1.975  -3.611  -4.485  1.00  0.00    -0.376 OA
BRANCH  31  32
ATOM     32  C   UNL     1      -1.295  -3.832  -5.722  1.00  0.00     0.202 C 
BRANCH  32  33
ATOM     33  C   UNL     1      -2.220  -4.177  -6.896  1.00  0.00     0.261 C 
BRANCH  33  34
ATOM     34  O   UNL     1      -2.896  -5.417  -6.623  1.00  0.00    -0.460 OA
BRANCH  34  35
ATOM     35  C   UNL     1      -4.194  -5.287  -6.244  1.00  0.00     0.338 C 
ATOM     36  O   UNL     1      -5.037  -4.614  -6.812  1.00  0.00    -0.246 OA
BRANCH  35  37
ATOM     37  C   UNL     1      -4.371  -5.859  -4.880  1.00  0.00     0.060 A 
ATOM     38  C   UNL     1      -5.564  -5.618  -4.181  1.00  0.00     0.016 A 
ATOM     39  C   UNL     1      -3.261  -6.351  -4.199  1.00  0.00     0.016 A 
ATOM     40  C   UNL     1      -5.584  -5.697  -2.782  1.00  0.00     0.010 A 
ATOM     41  C   UNL     1      -3.266  -6.346  -2.817  1.00  0.00     0.010 A 
ATOM     42  C   UNL     1      -4.396  -5.948  -2.090  1.00  0.00    -0.014 A 
BRANCH  42  43
ATOM     43  C   UNL     1      -4.151  -5.565  -0.683  1.00  0.00     0.031 A 
ATOM     44  C   UNL     1      -3.448  -6.483   0.277  1.00  0.00     0.074 A 
ATOM     45  C   UNL     1      -4.199  -4.235  -0.395  1.00  0.00     0.049 A 
ATOM     46  N   UNL     1      -3.238  -6.211   1.525  1.00  0.00    -0.248 NA
ATOM     47  C   UNL     1      -2.897  -7.795  -0.078  1.00  0.00     0.031 C 
ATOM     48  C   UNL     1      -3.478  -3.547   0.673  1.00  0.00     0.029 A 
ATOM     49  N   UNL     1      -4.930  -3.195  -0.981  1.00  0.00    -0.354 N 
ATOM     50  C   UNL     1      -2.203  -7.015   1.961  1.00  0.00     0.074 A 
ATOM     51  C   UNL     1      -2.155  -8.086   1.000  1.00  0.00     0.031 C 
ATOM     52  C   UNL     1      -3.897  -2.281   0.780  1.00  0.00     0.029 A 
ATOM     53  C   UNL     1      -5.090  -2.186  -0.020  1.00  0.00     0.049 A 
ATOM     54  H   UNL     1      -5.271  -3.175  -1.904  1.00  0.00     0.167 HD
ATOM     55  C   UNL     1      -1.378  -6.577   2.962  1.00  0.00     0.037 A 
ATOM     56  C   UNL     1      -6.289  -1.783   0.494  1.00  0.00     0.037 A 
ATOM     57  C   UNL     1      -1.867  -5.343   3.600  1.00  0.00     0.049 A 
ATOM     58  C   UNL     1      -6.354  -2.069   1.984  1.00  0.00     0.074 A 
ATOM     59  C   UNL     1      -1.285  -4.138   3.954  1.00  0.00     0.029 A 
ATOM     60  N   UNL     1      -3.228  -5.195   3.878  1.00  0.00    -0.354 N 
ATOM     61  N   UNL     1      -5.594  -2.977   2.549  1.00  0.00    -0.248 NA
ATOM     62  C   UNL     1      -7.141  -1.335   2.972  1.00  0.00     0.031 C 
ATOM     63  C   UNL     1      -2.323  -3.221   4.282  1.00  0.00     0.029 A 
ATOM     64  C   UNL     1      -3.527  -3.907   4.260  1.00  0.00     0.049 A 
ATOM     65  H   UNL     1      -3.889  -5.920   3.810  1.00  0.00     0.167 HD
ATOM     66  C   UNL     1      -5.677  -2.878   3.905  1.00  0.00     0.074 A 
ATOM     67  C   UNL     1      -6.716  -1.889   4.127  1.00  0.00     0.031 C 
ATOM     68  C   UNL     1      -4.856  -3.568   4.747  1.00  0.00     0.037 A 
BRANCH  55  69
ATOM     69  C   UNL     1       0.017  -7.133   3.252  1.00  0.00     0.057 A 
ATOM     70  C   UNL     1       0.671  -6.833   4.467  1.00  0.00     0.134 A 
ATOM     71  C   UNL     1       0.815  -7.858   2.341  1.00  0.00     0.134 A 
ATOM     72  F   UNL     1       0.051  -6.150   5.440  1.00  0.00    -0.206 F 
ATOM     73  C   UNL     1       1.996  -7.216   4.747  1.00  0.00     0.040 A 
ATOM     74  C   UNL     1       2.115  -8.306   2.637  1.00  0.00     0.040 A 
ATOM     75  F   UNL     1       0.405  -8.122   1.094  1.00  0.00    -0.206 F 
ATOM     76  C   UNL     1       2.718  -7.974   3.838  1.00  0.00     0.006 A 
ENDBRANCH  55  69
BRANCH  56  77
ATOM     77  C   UNL     1      -7.359  -1.706  -0.533  1.00  0.00     0.057 A 
ATOM     78  C   UNL     1      -7.218  -0.648  -1.453  1.00  0.00     0.134 A 
ATOM     79  C   UNL     1      -7.998  -2.864  -0.993  1.00  0.00     0.134 A 
ATOM     80  F   UNL     1      -6.653   0.506  -1.063  1.00  0.00    -0.206 F 
ATOM     81  C   UNL     1      -7.477  -0.819  -2.815  1.00  0.00     0.040 A 
ATOM     82  C   UNL     1      -8.273  -3.040  -2.359  1.00  0.00     0.040 A 
ATOM     83  F   UNL     1      -8.141  -3.926  -0.188  1.00  0.00    -0.206 F 
ATOM     84  C   UNL     1      -7.952  -2.041  -3.279  1.00  0.00     0.006 A 
ENDBRANCH  56  77
BRANCH  68  85
ATOM     85  C   UNL     1      -5.218  -3.993   6.147  1.00  0.00     0.057 A 
ATOM     86  C   UNL     1      -6.544  -4.195   6.553  1.00  0.00     0.134 A 
ATOM     87  C   UNL     1      -4.232  -4.487   7.034  1.00  0.00     0.134 A 
ATOM     88  F   UNL     1      -7.577  -3.844   5.775  1.00  0.00    -0.206 F 
ATOM     89  C   UNL     1      -6.867  -4.840   7.752  1.00  0.00     0.040 A 
ATOM     90  C   UNL     1      -4.545  -5.173   8.208  1.00  0.00     0.040 A 
ATOM     91  F   UNL     1      -2.921  -4.370   6.780  1.00  0.00    -0.206 F 
ATOM     92  C   UNL     1      -5.869  -5.351   8.572  1.00  0.00     0.006 A 
ENDBRANCH  68  85
ENDBRANCH  42  43
ENDBRANCH  35  37
ENDBRANCH  34  35
ENDBRANCH  33  34
ENDBRANCH  32  33
ENDBRANCH  31  32
ENDBRANCH  30  31
ENDBRANCH  29  30
ENDBRANCH  28  29
ENDBRANCH  27  28
ENDBRANCH   1  27
TORSDOF 26
