REMARK SMILES CCN(CC)S(=O)(=O)c1cccc(C(=O)N2C[C@H](O)C[C@H]2C(=O)OCCOCCOCCOCCOC(=O)c2ccc(-c3c4nc(c(-c5c(F)cccc5F)c5ccc([nH]5)c(-c5c(F)cccc5F)c5nc(c(-c6c(F)cccc6F)c6ccc3[nH]6)C=C5)C=C4)cc2)c1
REMARK SMILES IDX 28 1 27 2 26 3 25 4 24 5 22 6 23 7 21 8 16 9 17 10 18 11
REMARK SMILES IDX 20 12 14 13 15 14 13 15 9 16 10 17 93 18 11 19 12 20 6 21
REMARK SMILES IDX 7 22 8 23 3 24 2 25 1 26 4 27 5 28 19 29 29 31 30 32 31 33
REMARK SMILES IDX 32 34 33 35 34 36 35 37 36 38 37 39 38 40 39 41 40 42 92 43
REMARK SMILES IDX 41 44 91 45 42 46 43 47 44 48 85 49 45 50 90 51 84 52 86 53
REMARK SMILES IDX 46 54 89 55 83 56 82 57 47 59 73 60 56 61 72 62 57 63 60 64
REMARK SMILES IDX 71 65 87 66 58 67 59 68 70 70 88 71 61 72 48 73 49 74 54 75
REMARK SMILES IDX 50 76 51 77 53 78 55 79 52 80 74 81 75 82 80 83 76 84 77 85
REMARK SMILES IDX 79 86 81 87 78 88 62 89 63 90 68 91 64 92 65 93 67 94 69 95
REMARK SMILES IDX 66 96
REMARK H PARENT 19 30 86 58 60 69
REMARK Flexibility Score: inf
ROOT
ATOM      1  C   UNL     1      -0.304   9.593  -4.939  1.00  0.00     0.188 C 
ENDROOT
BRANCH   1   2
ATOM      2  O   UNL     1      -0.050  10.920  -5.363  1.00  0.00    -0.376 OA
BRANCH   2   3
ATOM      3  C   UNL     1       0.751  11.788  -4.566  1.00  0.00     0.202 C 
BRANCH   3   4
ATOM      4  C   UNL     1       0.684  11.742  -3.030  1.00  0.00     0.261 C 
BRANCH   4   5
ATOM      5  O   UNL     1       1.290  10.573  -2.421  1.00  0.00    -0.462 OA
BRANCH   5   6
ATOM      6  C   UNL     1       0.434   9.805  -1.715  1.00  0.00     0.329 C 
ATOM      7  O   UNL     1      -0.770  10.066  -1.617  1.00  0.00    -0.250 OA
BRANCH   6   8
ATOM      8  C   UNL     1       0.960   8.511  -1.058  1.00  0.00     0.198 C 
ATOM      9  N   UNL     1       2.296   7.923  -0.784  1.00  0.00    -0.322 N 
ATOM     10  C   UNL     1       2.474   7.627   0.630  1.00  0.00     0.152 C 
ATOM     11  C   UNL     1       1.052   7.552   1.163  1.00  0.00     0.136 C 
ATOM     12  C   UNL     1       0.363   8.637   0.375  1.00  0.00     0.071 C 
BRANCH   9  13
ATOM     13  C   UNL     1       3.207   7.488  -1.726  1.00  0.00     0.254 C 
ATOM     14  O   UNL     1       3.942   8.303  -2.279  1.00  0.00    -0.269 OA
BRANCH  13  15
ATOM     15  C   UNL     1       3.390   6.006  -2.023  1.00  0.00     0.041 A 
ATOM     16  C   UNL     1       3.135   3.594  -1.632  1.00  0.00     0.083 A 
ATOM     17  C   UNL     1       3.886   3.318  -2.781  1.00  0.00     0.022 A 
ATOM     18  C   UNL     1       2.885   4.935  -1.262  1.00  0.00     0.035 A 
ATOM     19  C   UNL     1       4.417   4.365  -3.529  1.00  0.00     0.002 A 
ATOM     20  C   UNL     1       4.186   5.689  -3.139  1.00  0.00     0.014 A 
BRANCH  16  21
ATOM     21  S   UNL     1       2.822   2.225  -0.498  1.00  0.00     0.243 S 
ATOM     22  O   UNL     1       3.382   2.613   0.778  1.00  0.00    -0.207 OA
ATOM     23  O   UNL     1       3.311   1.036  -1.167  1.00  0.00    -0.207 OA
BRANCH  21  24
ATOM     24  N   UNL     1       1.121   2.041  -0.319  1.00  0.00    -0.198 NA
BRANCH  24  25
ATOM     25  C   UNL     1       0.692   0.803   0.435  1.00  0.00     0.099 C 
ATOM     26  C   UNL     1       1.009  -0.509  -0.250  1.00  0.00     0.022 C 
ENDBRANCH  24  25
BRANCH  24  27
ATOM     27  C   UNL     1       0.351   3.209   0.209  1.00  0.00     0.099 C 
ATOM     28  C   UNL     1       0.737   3.610   1.629  1.00  0.00     0.022 C 
ENDBRANCH  24  27
ENDBRANCH  21  24
ENDBRANCH  16  21
ENDBRANCH  13  15
ENDBRANCH   9  13
BRANCH  11  29
ATOM     29  O   UNL     1       0.426   6.315   0.849  1.00  0.00    -0.391 OA
ATOM     30  H   UNL     1       0.435   6.181  -0.111  1.00  0.00     0.211 HD
ENDBRANCH  11  29
ENDBRANCH   6   8
ENDBRANCH   5   6
ENDBRANCH   4   5
ENDBRANCH   3   4
ENDBRANCH   2   3
ENDBRANCH   1   2
BRANCH   1  31
ATOM     31  C   UNL     1       0.813   8.564  -5.120  1.00  0.00     0.188 C 
BRANCH  31  32
ATOM     32  O   UNL     1       1.984   8.777  -4.355  1.00  0.00    -0.377 OA
BRANCH  32  33
ATOM     33  C   UNL     1       3.088   9.479  -4.934  1.00  0.00     0.188 C 
BRANCH  33  34
ATOM     34  C   UNL     1       3.157   9.578  -6.462  1.00  0.00     0.188 C 
BRANCH  34  35
ATOM     35  O   UNL     1       3.166   8.345  -7.189  1.00  0.00    -0.376 OA
BRANCH  35  36
ATOM     36  C   UNL     1       3.788   7.215  -6.583  1.00  0.00     0.202 C 
BRANCH  36  37
ATOM     37  C   UNL     1       5.303   7.142  -6.765  1.00  0.00     0.261 C 
BRANCH  37  38
ATOM     38  O   UNL     1       5.987   8.152  -6.005  1.00  0.00    -0.460 OA
BRANCH  38  39
ATOM     39  C   UNL     1       6.408   9.216  -6.725  1.00  0.00     0.338 C 
ATOM     40  O   UNL     1       6.293   9.384  -7.930  1.00  0.00    -0.246 OA
BRANCH  39  41
ATOM     41  C   UNL     1       6.955  10.260  -5.838  1.00  0.00     0.060 A 
ATOM     42  C   UNL     1       6.642  11.592  -6.137  1.00  0.00     0.016 A 
ATOM     43  C   UNL     1       7.856   9.956  -4.814  1.00  0.00     0.016 A 
ATOM     44  C   UNL     1       7.291  12.627  -5.471  1.00  0.00     0.010 A 
ATOM     45  C   UNL     1       8.514  10.995  -4.151  1.00  0.00     0.010 A 
ATOM     46  C   UNL     1       8.273  12.331  -4.517  1.00  0.00    -0.014 A 
BRANCH  46  47
ATOM     47  C   UNL     1       9.197  13.403  -4.081  1.00  0.00     0.031 A 
ATOM     48  C   UNL     1      10.528  13.523  -4.775  1.00  0.00     0.074 A 
ATOM     49  C   UNL     1       8.841  14.283  -3.130  1.00  0.00     0.049 A 
ATOM     50  N   UNL     1      11.508  14.361  -4.556  1.00  0.00    -0.248 NA
ATOM     51  C   UNL     1      10.786  12.568  -5.866  1.00  0.00     0.031 C 
ATOM     52  C   UNL     1       7.561  14.296  -2.427  1.00  0.00     0.029 A 
ATOM     53  N   UNL     1       9.535  15.337  -2.593  1.00  0.00    -0.354 N 
ATOM     54  C   UNL     1      12.496  14.032  -5.477  1.00  0.00     0.074 A 
ATOM     55  C   UNL     1      12.013  12.900  -6.236  1.00  0.00     0.031 C 
ATOM     56  C   UNL     1       7.563  15.308  -1.541  1.00  0.00     0.029 A 
ATOM     57  C   UNL     1       8.854  15.991  -1.596  1.00  0.00     0.049 A 
ATOM     58  H   UNL     1      10.434  15.600  -2.894  1.00  0.00     0.167 HD
ATOM     59  C   UNL     1      13.694  14.629  -5.680  1.00  0.00     0.037 A 
ATOM     60  C   UNL     1       9.243  17.011  -0.808  1.00  0.00     0.037 A 
ATOM     61  C   UNL     1      14.171  15.754  -4.923  1.00  0.00     0.049 A 
ATOM     62  C   UNL     1      10.613  17.609  -1.003  1.00  0.00     0.074 A 
ATOM     63  C   UNL     1      15.372  16.430  -5.042  1.00  0.00     0.029 A 
ATOM     64  N   UNL     1      13.464  16.369  -3.900  1.00  0.00    -0.354 N 
ATOM     65  N   UNL     1      11.536  17.297  -1.880  1.00  0.00    -0.248 NA
ATOM     66  C   UNL     1      10.992  18.704  -0.099  1.00  0.00     0.031 C 
ATOM     67  C   UNL     1      15.409  17.429  -4.064  1.00  0.00     0.029 A 
ATOM     68  C   UNL     1      14.211  17.406  -3.369  1.00  0.00     0.049 A 
ATOM     69  H   UNL     1      12.565  16.106  -3.597  1.00  0.00     0.167 HD
ATOM     70  C   UNL     1      12.588  18.177  -1.657  1.00  0.00     0.074 A 
ATOM     71  C   UNL     1      12.185  19.041  -0.567  1.00  0.00     0.031 C 
ATOM     72  C   UNL     1      13.780  18.265  -2.296  1.00  0.00     0.037 A 
BRANCH  59  73
ATOM     73  C   UNL     1      14.579  14.058  -6.749  1.00  0.00     0.057 A 
ATOM     74  C   UNL     1      14.293  14.224  -8.110  1.00  0.00     0.134 A 
ATOM     75  C   UNL     1      15.744  13.357  -6.413  1.00  0.00     0.134 A 
ATOM     76  F   UNL     1      13.183  14.870  -8.499  1.00  0.00    -0.206 F 
ATOM     77  C   UNL     1      15.126  13.697  -9.100  1.00  0.00     0.040 A 
ATOM     78  C   UNL     1      16.597  12.847  -7.393  1.00  0.00     0.040 A 
ATOM     79  F   UNL     1      16.076  13.164  -5.128  1.00  0.00    -0.206 F 
ATOM     80  C   UNL     1      16.286  13.012  -8.741  1.00  0.00     0.006 A 
ENDBRANCH  59  73
BRANCH  60  81
ATOM     81  C   UNL     1       8.337  17.529   0.248  1.00  0.00     0.057 A 
ATOM     82  C   UNL     1       7.783  18.812   0.165  1.00  0.00     0.134 A 
ATOM     83  C   UNL     1       8.032  16.767   1.382  1.00  0.00     0.134 A 
ATOM     84  F   UNL     1       8.056  19.599  -0.885  1.00  0.00    -0.206 F 
ATOM     85  C   UNL     1       6.976  19.327   1.182  1.00  0.00     0.040 A 
ATOM     86  C   UNL     1       7.207  17.260   2.394  1.00  0.00     0.040 A 
ATOM     87  F   UNL     1       8.531  15.531   1.523  1.00  0.00    -0.206 F 
ATOM     88  C   UNL     1       6.683  18.547   2.300  1.00  0.00     0.006 A 
ENDBRANCH  60  81
BRANCH  72  89
ATOM     89  C   UNL     1      14.710  19.363  -1.870  1.00  0.00     0.057 A 
ATOM     90  C   UNL     1      15.409  19.314  -0.657  1.00  0.00     0.134 A 
ATOM     91  C   UNL     1      14.943  20.461  -2.708  1.00  0.00     0.134 A 
ATOM     92  F   UNL     1      15.222  18.294   0.194  1.00  0.00    -0.206 F 
ATOM     93  C   UNL     1      16.288  20.330  -0.283  1.00  0.00     0.040 A 
ATOM     94  C   UNL     1      15.839  21.470  -2.356  1.00  0.00     0.040 A 
ATOM     95  F   UNL     1      14.314  20.562  -3.889  1.00  0.00    -0.206 F 
ATOM     96  C   UNL     1      16.511  21.409  -1.137  1.00  0.00     0.006 A 
ENDBRANCH  72  89
ENDBRANCH  46  47
ENDBRANCH  39  41
ENDBRANCH  38  39
ENDBRANCH  37  38
ENDBRANCH  36  37
ENDBRANCH  35  36
ENDBRANCH  34  35
ENDBRANCH  33  34
ENDBRANCH  32  33
ENDBRANCH  31  32
ENDBRANCH   1  31
TORSDOF 27
