REMARK SMILES O=C(OCCOCCOCCOCCOC(=O)[C@H]1Cc2[nH]cnc2CN1C(=O)c1ccncc1Cl)c1ccc(-c2c3nc(c(-c4c(F)cccc4F)c4ccc([nH]4)c(-c4c(F)cccc4F)c4nc(c(-c5c(F)cccc5F)c5ccc2[nH]5)C=C4)C=C3)cc1
REMARK SMILES IDX 9 1 8 2 7 3 6 4 5 5 4 6 3 7 2 8 1 9 36 10 37 11 89 12 38 13
REMARK SMILES IDX 88 14 39 15 40 16 41 17 82 18 42 19 87 20 81 21 83 22 43 23
REMARK SMILES IDX 86 24 80 25 79 26 44 28 70 29 53 30 69 31 54 32 57 33 68 34
REMARK SMILES IDX 84 35 55 36 56 37 67 39 85 40 58 41 45 42 46 43 51 44 47 45
REMARK SMILES IDX 48 46 50 47 52 48 49 49 71 50 72 51 77 52 73 53 74 54 76 55
REMARK SMILES IDX 78 56 75 57 59 58 60 59 65 60 61 61 62 62 64 63 66 64 63 65
REMARK SMILES IDX 10 66 11 67 12 68 13 69 14 70 15 71 16 72 17 73 18 74 19 75
REMARK SMILES IDX 26 76 20 77 25 78 21 79 24 80 22 81 23 83 27 84 28 85 29 86
REMARK SMILES IDX 30 87 34 88 31 89 33 90 35 91 32 92
REMARK H PARENT 83 27 57 38 21 82
REMARK Flexibility Score: inf
ROOT
ATOM      1  O   UNL     1       3.025   1.288  -2.393  1.00  0.00    -0.377 OA
ENDROOT
BRANCH   1   2
ATOM      2  C   UNL     1       2.347   0.950  -1.198  1.00  0.00     0.188 C 
BRANCH   2   3
ATOM      3  C   UNL     1       2.993   1.337   0.144  1.00  0.00     0.188 C 
BRANCH   3   4
ATOM      4  O   UNL     1       4.274   0.957   0.603  1.00  0.00    -0.376 OA
BRANCH   4   5
ATOM      5  C   UNL     1       5.046  -0.208   0.435  1.00  0.00     0.202 C 
BRANCH   5   6
ATOM      6  C   UNL     1       4.542  -1.621   0.107  1.00  0.00     0.261 C 
BRANCH   6   7
ATOM      7  O   UNL     1       3.211  -1.784  -0.363  1.00  0.00    -0.460 OA
BRANCH   7   8
ATOM      8  C   UNL     1       2.082  -1.882   0.371  1.00  0.00     0.338 C 
ATOM      9  O   UNL     1       1.052  -2.289  -0.152  1.00  0.00    -0.246 OA
BRANCH   8  10
ATOM     10  C   UNL     1       1.997  -1.310   1.731  1.00  0.00     0.060 A 
ATOM     11  C   UNL     1       3.024  -1.354   2.673  1.00  0.00     0.016 A 
ATOM     12  C   UNL     1       0.756  -0.729   2.067  1.00  0.00     0.016 A 
ATOM     13  C   UNL     1       2.790  -0.931   3.957  1.00  0.00     0.010 A 
ATOM     14  C   UNL     1       0.511  -0.310   3.358  1.00  0.00     0.010 A 
ATOM     15  C   UNL     1       1.508  -0.513   4.300  1.00  0.00    -0.014 A 
BRANCH  15  16
ATOM     16  C   UNL     1       1.234  -0.501   5.718  1.00  0.00     0.031 A 
ATOM     17  C   UNL     1       1.955   0.536   6.483  1.00  0.00     0.074 A 
ATOM     18  C   UNL     1       0.472  -1.484   6.232  1.00  0.00     0.049 A 
ATOM     19  N   UNL     1       2.909   0.368   7.338  1.00  0.00    -0.248 NA
ATOM     20  C   UNL     1       1.704   1.938   6.124  1.00  0.00     0.031 C 
ATOM     21  C   UNL     1      -0.390  -2.433   5.515  1.00  0.00     0.029 A 
ATOM     22  N   UNL     1       0.247  -1.792   7.533  1.00  0.00    -0.354 N 
ATOM     23  C   UNL     1       3.231   1.643   7.794  1.00  0.00     0.074 A 
ATOM     24  C   UNL     1       2.594   2.566   6.893  1.00  0.00     0.031 C 
ATOM     25  C   UNL     1      -1.224  -3.027   6.394  1.00  0.00     0.029 A 
ATOM     26  C   UNL     1      -0.855  -2.611   7.732  1.00  0.00     0.049 A 
ATOM     27  H   UNL     1       0.814  -1.465   8.268  1.00  0.00     0.167 HD
ATOM     28  C   UNL     1       3.761   1.822   9.034  1.00  0.00     0.037 A 
ATOM     29  C   UNL     1      -1.471  -2.813   8.921  1.00  0.00     0.037 A 
ATOM     30  C   UNL     1       4.417   0.622   9.493  1.00  0.00     0.049 A 
ATOM     31  C   UNL     1      -0.496  -2.459   9.987  1.00  0.00     0.074 A 
ATOM     32  C   UNL     1       5.474  -0.144   9.038  1.00  0.00     0.029 A 
ATOM     33  N   UNL     1       3.762  -0.162  10.412  1.00  0.00    -0.354 N 
ATOM     34  N   UNL     1       0.582  -3.154  10.236  1.00  0.00    -0.248 NA
ATOM     35  C   UNL     1      -0.460  -1.076  10.442  1.00  0.00     0.031 C 
ATOM     36  C   UNL     1       5.118  -1.490   9.344  1.00  0.00     0.029 A 
ATOM     37  C   UNL     1       3.895  -1.465  10.015  1.00  0.00     0.049 A 
ATOM     38  H   UNL     1       3.284   0.157  11.212  1.00  0.00     0.167 HD
ATOM     39  C   UNL     1       1.568  -2.209  10.487  1.00  0.00     0.074 A 
ATOM     40  C   UNL     1       0.850  -0.951  10.676  1.00  0.00     0.031 C 
ATOM     41  C   UNL     1       2.883  -2.473  10.229  1.00  0.00     0.037 A 
BRANCH  28  42
ATOM     42  C   UNL     1       3.280   2.899   9.987  1.00  0.00     0.057 A 
ATOM     43  C   UNL     1       3.850   2.962  11.273  1.00  0.00     0.134 A 
ATOM     44  C   UNL     1       2.087   3.636   9.832  1.00  0.00     0.134 A 
ATOM     45  F   UNL     1       5.001   2.330  11.549  1.00  0.00    -0.206 F 
ATOM     46  C   UNL     1       3.208   3.586  12.349  1.00  0.00     0.040 A 
ATOM     47  C   UNL     1       1.461   4.298  10.890  1.00  0.00     0.040 A 
ATOM     48  F   UNL     1       1.406   3.692   8.684  1.00  0.00    -0.206 F 
ATOM     49  C   UNL     1       1.996   4.237  12.164  1.00  0.00     0.006 A 
ENDBRANCH  28  42
BRANCH  29  50
ATOM     50  C   UNL     1      -2.930  -2.908   9.148  1.00  0.00     0.057 A 
ATOM     51  C   UNL     1      -3.442  -3.390  10.357  1.00  0.00     0.134 A 
ATOM     52  C   UNL     1      -3.858  -2.295   8.284  1.00  0.00     0.134 A 
ATOM     53  F   UNL     1      -2.628  -3.949  11.264  1.00  0.00    -0.206 F 
ATOM     54  C   UNL     1      -4.795  -3.257  10.696  1.00  0.00     0.040 A 
ATOM     55  C   UNL     1      -5.212  -2.166   8.604  1.00  0.00     0.040 A 
ATOM     56  F   UNL     1      -3.471  -1.721   7.135  1.00  0.00    -0.206 F 
ATOM     57  C   UNL     1      -5.683  -2.636   9.822  1.00  0.00     0.006 A 
ENDBRANCH  29  50
BRANCH  41  58
ATOM     58  C   UNL     1       3.263  -3.887   9.896  1.00  0.00     0.057 A 
ATOM     59  C   UNL     1       2.833  -4.558   8.742  1.00  0.00     0.134 A 
ATOM     60  C   UNL     1       4.222  -4.531  10.684  1.00  0.00     0.134 A 
ATOM     61  F   UNL     1       1.997  -3.974   7.872  1.00  0.00    -0.206 F 
ATOM     62  C   UNL     1       3.304  -5.833   8.412  1.00  0.00     0.040 A 
ATOM     63  C   UNL     1       4.726  -5.790  10.349  1.00  0.00     0.040 A 
ATOM     64  F   UNL     1       4.726  -3.922  11.769  1.00  0.00    -0.206 F 
ATOM     65  C   UNL     1       4.260  -6.450   9.215  1.00  0.00     0.006 A 
ENDBRANCH  41  58
ENDBRANCH  15  16
ENDBRANCH   8  10
ENDBRANCH   7   8
ENDBRANCH   6   7
ENDBRANCH   5   6
ENDBRANCH   4   5
ENDBRANCH   3   4
ENDBRANCH   2   3
ENDBRANCH   1   2
BRANCH   1  66
ATOM     66  C   UNL     1       4.380   0.921  -2.427  1.00  0.00     0.188 C 
BRANCH  66  67
ATOM     67  C   UNL     1       5.388   2.059  -2.236  1.00  0.00     0.188 C 
BRANCH  67  68
ATOM     68  O   UNL     1       4.952   3.287  -1.685  1.00  0.00    -0.376 OA
BRANCH  68  69
ATOM     69  C   UNL     1       3.770   3.891  -2.184  1.00  0.00     0.202 C 
BRANCH  69  70
ATOM     70  C   UNL     1       3.503   3.975  -3.688  1.00  0.00     0.261 C 
BRANCH  70  71
ATOM     71  O   UNL     1       3.611   2.775  -4.487  1.00  0.00    -0.462 OA
BRANCH  71  72
ATOM     72  C   UNL     1       4.658   2.716  -5.356  1.00  0.00     0.329 C 
ATOM     73  O   UNL     1       5.553   3.544  -5.396  1.00  0.00    -0.250 OA
BRANCH  72  74
ATOM     74  C   UNL     1       4.537   1.565  -6.372  1.00  0.00     0.201 C 
ATOM     75  C   UNL     1       4.035   0.198  -5.820  1.00  0.00     0.093 C 
ATOM     76  N   UNL     1       4.017   1.852  -7.751  1.00  0.00    -0.318 N 
ATOM     77  C   UNL     1       4.083  -0.810  -6.905  1.00  0.00     0.042 A 
ATOM     78  C   UNL     1       4.414   0.860  -8.788  1.00  0.00     0.179 C 
ATOM     79  N   UNL     1       4.083  -2.171  -6.801  1.00  0.00    -0.348 N 
ATOM     80  C   UNL     1       4.267  -0.526  -8.237  1.00  0.00     0.081 A 
ATOM     81  C   UNL     1       4.301  -2.656  -8.064  1.00  0.00     0.197 A 
ATOM     82  H   UNL     1       3.951  -2.699  -5.981  1.00  0.00     0.167 HD
ATOM     83  N   UNL     1       4.414  -1.688  -8.950  1.00  0.00    -0.240 NA
BRANCH  76  84
ATOM     84  C   UNL     1       3.028   2.761  -8.118  1.00  0.00     0.256 C 
ATOM     85  O   UNL     1       2.475   2.761  -9.216  1.00  0.00    -0.269 OA
BRANCH  84  86
ATOM     86  C   UNL     1       2.588   3.833  -7.216  1.00  0.00     0.061 A 
ATOM     87  C   UNL     1       1.341   3.697  -6.601  1.00  0.00     0.035 A 
ATOM     88  C   UNL     1       3.299   5.028  -7.104  1.00  0.00     0.072 A 
ATOM     89  C   UNL     1       0.875   4.753  -5.838  1.00  0.00     0.112 A 
ATOM     90  C   UNL     1       2.759   6.013  -6.290  1.00  0.00     0.132 A 
ATOM     91  Cl  UNL     1       4.785   5.331  -7.917  1.00  0.00    -0.082 Cl
ATOM     92  N   UNL     1       1.569   5.897  -5.644  1.00  0.00    -0.263 NA
ENDBRANCH  84  86
ENDBRANCH  76  84
ENDBRANCH  72  74
ENDBRANCH  71  72
ENDBRANCH  70  71
ENDBRANCH  69  70
ENDBRANCH  68  69
ENDBRANCH  67  68
ENDBRANCH  66  67
ENDBRANCH   1  66
TORSDOF 22
