REMARK SMILES O=C(OCCOCCOCCOCCOC(=O)[C@@H](Cc1ccccc1)/N=C1\C(=O)c2ccccc2C(=O)[C@H]1Cl)c1ccc(-c2c3nc(c(-c4c(F)cccc4F)c4ccc([nH]4)c(-c4c(F)cccc4F)c4nc(c(-c5c(F)cccc5F)c5ccc2[nH]5)C=C4)C=C3)cc1
REMARK SMILES IDX 9 1 8 2 7 3 6 4 5 5 4 6 3 7 2 8 1 9 40 10 41 11 93 12 42 13
REMARK SMILES IDX 92 14 43 15 44 16 45 17 86 18 46 19 91 20 85 21 87 22 47 23
REMARK SMILES IDX 90 24 84 25 83 26 48 28 74 29 57 30 73 31 58 32 61 33 72 34
REMARK SMILES IDX 88 35 59 36 60 37 71 39 89 40 62 41 49 42 50 43 55 44 51 45
REMARK SMILES IDX 52 46 54 47 56 48 53 49 75 50 76 51 81 52 77 53 78 54 80 55
REMARK SMILES IDX 82 56 79 57 63 58 64 59 69 60 65 61 66 62 68 63 70 64 67 65
REMARK SMILES IDX 10 66 11 67 12 68 13 69 14 70 15 71 16 72 17 73 18 74 19 75
REMARK SMILES IDX 20 76 21 77 25 78 22 79 24 80 23 81 26 82 27 83 28 84 38 85
REMARK SMILES IDX 29 86 30 87 36 88 39 89 31 90 35 91 37 92 32 93 34 94 33 95
REMARK H PARENT 87 27 61 38
REMARK Flexibility Score: inf
ROOT
ATOM      1  O   UNL     1       3.887  -3.414  -1.154  1.00  0.00    -0.377 OA
ENDROOT
BRANCH   1   2
ATOM      2  C   UNL     1       2.817  -2.475  -1.211  1.00  0.00     0.188 C 
BRANCH   2   3
ATOM      3  C   UNL     1       2.885  -1.417  -0.126  1.00  0.00     0.188 C 
BRANCH   3   4
ATOM      4  O   UNL     1       4.133  -0.765  -0.253  1.00  0.00    -0.376 OA
BRANCH   4   5
ATOM      5  C   UNL     1       4.819  -0.440   0.941  1.00  0.00     0.202 C 
BRANCH   5   6
ATOM      6  C   UNL     1       4.193   0.703   1.732  1.00  0.00     0.261 C 
BRANCH   6   7
ATOM      7  O   UNL     1       2.804   0.939   1.448  1.00  0.00    -0.460 OA
BRANCH   7   8
ATOM      8  C   UNL     1       2.217   1.735   0.525  1.00  0.00     0.338 C 
ATOM      9  O   UNL     1       1.013   1.964   0.657  1.00  0.00    -0.246 OA
BRANCH   8  10
ATOM     10  C   UNL     1       2.877   2.311  -0.691  1.00  0.00     0.060 A 
ATOM     11  C   UNL     1       4.006   1.803  -1.332  1.00  0.00     0.016 A 
ATOM     12  C   UNL     1       2.216   3.382  -1.316  1.00  0.00     0.016 A 
ATOM     13  C   UNL     1       4.441   2.267  -2.563  1.00  0.00     0.010 A 
ATOM     14  C   UNL     1       2.680   3.912  -2.524  1.00  0.00     0.010 A 
ATOM     15  C   UNL     1       3.802   3.350  -3.140  1.00  0.00    -0.014 A 
BRANCH  15  16
ATOM     16  C   UNL     1       4.519   4.046  -4.212  1.00  0.00     0.031 A 
ATOM     17  C   UNL     1       5.322   5.239  -3.807  1.00  0.00     0.074 A 
ATOM     18  C   UNL     1       4.561   3.542  -5.454  1.00  0.00     0.049 A 
ATOM     19  N   UNL     1       5.891   6.149  -4.543  1.00  0.00    -0.248 NA
ATOM     20  C   UNL     1       5.511   5.427  -2.356  1.00  0.00     0.031 C 
ATOM     21  C   UNL     1       3.973   2.267  -5.868  1.00  0.00     0.029 A 
ATOM     22  N   UNL     1       5.128   4.041  -6.592  1.00  0.00    -0.354 N 
ATOM     23  C   UNL     1       6.443   7.053  -3.645  1.00  0.00     0.074 A 
ATOM     24  C   UNL     1       6.168   6.572  -2.313  1.00  0.00     0.031 C 
ATOM     25  C   UNL     1       4.187   2.098  -7.183  1.00  0.00     0.029 A 
ATOM     26  C   UNL     1       4.849   3.289  -7.705  1.00  0.00     0.049 A 
ATOM     27  H   UNL     1       5.681   4.856  -6.611  1.00  0.00     0.167 HD
ATOM     28  C   UNL     1       7.090   8.203  -3.932  1.00  0.00     0.037 A 
ATOM     29  C   UNL     1       5.046   3.588  -9.002  1.00  0.00     0.037 A 
ATOM     30  C   UNL     1       7.330   8.626  -5.282  1.00  0.00     0.049 A 
ATOM     31  C   UNL     1       5.678   4.917  -9.317  1.00  0.00     0.074 A 
ATOM     32  C   UNL     1       7.899   9.794  -5.744  1.00  0.00     0.029 A 
ATOM     33  N   UNL     1       6.996   7.865  -6.399  1.00  0.00    -0.354 N 
ATOM     34  N   UNL     1       6.101   5.843  -8.486  1.00  0.00    -0.248 NA
ATOM     35  C   UNL     1       5.841   5.260 -10.733  1.00  0.00     0.031 C 
ATOM     36  C   UNL     1       7.867   9.759  -7.143  1.00  0.00     0.029 A 
ATOM     37  C   UNL     1       7.330   8.544  -7.553  1.00  0.00     0.049 A 
ATOM     38  H   UNL     1       6.582   6.972  -6.370  1.00  0.00     0.167 HD
ATOM     39  C   UNL     1       6.598   6.872  -9.272  1.00  0.00     0.074 A 
ATOM     40  C   UNL     1       6.425   6.449 -10.651  1.00  0.00     0.031 C 
ATOM     41  C   UNL     1       7.147   8.055  -8.899  1.00  0.00     0.037 A 
BRANCH  28  42
ATOM     42  C   UNL     1       7.436   9.087  -2.770  1.00  0.00     0.057 A 
ATOM     43  C   UNL     1       8.409   8.745  -1.821  1.00  0.00     0.134 A 
ATOM     44  C   UNL     1       6.694  10.253  -2.537  1.00  0.00     0.134 A 
ATOM     45  F   UNL     1       9.128   7.620  -1.960  1.00  0.00    -0.206 F 
ATOM     46  C   UNL     1       8.598   9.502  -0.661  1.00  0.00     0.040 A 
ATOM     47  C   UNL     1       6.893  11.033  -1.396  1.00  0.00     0.040 A 
ATOM     48  F   UNL     1       5.736  10.634  -3.396  1.00  0.00    -0.206 F 
ATOM     49  C   UNL     1       7.837  10.649  -0.446  1.00  0.00     0.006 A 
ENDBRANCH  28  42
BRANCH  29  50
ATOM     50  C   UNL     1       4.564   2.658 -10.054  1.00  0.00     0.057 A 
ATOM     51  C   UNL     1       5.451   1.951 -10.872  1.00  0.00     0.134 A 
ATOM     52  C   UNL     1       3.195   2.410 -10.231  1.00  0.00     0.134 A 
ATOM     53  F   UNL     1       6.773   2.152 -10.767  1.00  0.00    -0.206 F 
ATOM     54  C   UNL     1       4.997   1.029 -11.820  1.00  0.00     0.040 A 
ATOM     55  C   UNL     1       2.728   1.474 -11.156  1.00  0.00     0.040 A 
ATOM     56  F   UNL     1       2.288   3.051  -9.479  1.00  0.00    -0.206 F 
ATOM     57  C   UNL     1       3.632   0.781 -11.957  1.00  0.00     0.006 A 
ENDBRANCH  29  50
BRANCH  41  58
ATOM     58  C   UNL     1       7.644   8.946  -9.994  1.00  0.00     0.057 A 
ATOM     59  C   UNL     1       6.772   9.720 -10.766  1.00  0.00     0.134 A 
ATOM     60  C   UNL     1       9.021   9.108 -10.192  1.00  0.00     0.134 A 
ATOM     61  F   UNL     1       5.444   9.597 -10.624  1.00  0.00    -0.206 F 
ATOM     62  C   UNL     1       7.256  10.632 -11.703  1.00  0.00     0.040 A 
ATOM     63  C   UNL     1       9.516  10.034 -11.107  1.00  0.00     0.040 A 
ATOM     64  F   UNL     1       9.901   8.399  -9.469  1.00  0.00    -0.206 F 
ATOM     65  C   UNL     1       8.632  10.800 -11.865  1.00  0.00     0.006 A 
ENDBRANCH  41  58
ENDBRANCH  15  16
ENDBRANCH   8  10
ENDBRANCH   7   8
ENDBRANCH   6   7
ENDBRANCH   5   6
ENDBRANCH   4   5
ENDBRANCH   3   4
ENDBRANCH   2   3
ENDBRANCH   1   2
BRANCH   1  66
ATOM     66  C   UNL     1       5.211  -3.011  -1.475  1.00  0.00     0.188 C 
BRANCH  66  67
ATOM     67  C   UNL     1       5.535  -2.591  -2.913  1.00  0.00     0.188 C 
BRANCH  67  68
ATOM     68  O   UNL     1       4.458  -2.067  -3.662  1.00  0.00    -0.376 OA
BRANCH  68  69
ATOM     69  C   UNL     1       3.684  -2.974  -4.449  1.00  0.00     0.202 C 
BRANCH  69  70
ATOM     70  C   UNL     1       3.891  -4.501  -4.383  1.00  0.00     0.261 C 
BRANCH  70  71
ATOM     71  O   UNL     1       3.716  -5.081  -3.075  1.00  0.00    -0.462 OA
BRANCH  71  72
ATOM     72  C   UNL     1       4.679  -5.881  -2.562  1.00  0.00     0.331 C 
ATOM     73  O   UNL     1       5.744  -6.075  -3.154  1.00  0.00    -0.250 OA
BRANCH  72  74
ATOM     74  C   UNL     1       4.353  -6.623  -1.222  1.00  0.00     0.219 C 
BRANCH  74  75
ATOM     75  C   UNL     1       4.225  -6.040   0.222  1.00  0.00     0.074 C 
BRANCH  75  76
ATOM     76  C   UNL     1       2.881  -5.878   0.918  1.00  0.00    -0.045 A 
ATOM     77  C   UNL     1       2.426  -4.605   1.266  1.00  0.00     0.004 A 
ATOM     78  C   UNL     1       2.084  -6.960   1.302  1.00  0.00     0.004 A 
ATOM     79  C   UNL     1       1.137  -4.382   1.753  1.00  0.00     0.000 A 
ATOM     80  C   UNL     1       0.796  -6.755   1.817  1.00  0.00     0.000 A 
ATOM     81  C   UNL     1       0.303  -5.464   1.993  1.00  0.00     0.000 A 
ENDBRANCH  75  76
ENDBRANCH  74  75
BRANCH  74  82
ATOM     82  N   UNL     1       3.587  -7.863  -1.425  1.00  0.00    -0.268 NA
ATOM     83  C   UNL     1       2.323  -7.934  -1.646  1.00  0.00     0.110 C 
ATOM     84  C   UNL     1       1.337  -6.790  -1.807  1.00  0.00     0.209 C 
ATOM     85  C   UNL     1       1.713  -9.305  -1.664  1.00  0.00     0.205 C 
ATOM     86  O   UNL     1       1.679  -5.646  -2.010  1.00  0.00    -0.287 OA
ATOM     87  C   UNL     1      -0.096  -7.055  -1.646  1.00  0.00     0.035 A 
ATOM     88  C   UNL     1       0.416  -9.370  -0.905  1.00  0.00     0.187 C 
ATOM     89  Cl  UNL     1       1.435  -9.781  -3.353  1.00  0.00    -0.107 Cl
ATOM     90  C   UNL     1      -1.002  -6.025  -1.928  1.00  0.00     0.013 A 
ATOM     91  C   UNL     1      -0.539  -8.264  -1.123  1.00  0.00     0.031 A 
ATOM     92  O   UNL     1       0.124 -10.293  -0.152  1.00  0.00    -0.292 OA
ATOM     93  C   UNL     1      -2.352  -6.198  -1.645  1.00  0.00     0.001 A 
ATOM     94  C   UNL     1      -1.888  -8.424  -0.805  1.00  0.00     0.012 A 
ATOM     95  C   UNL     1      -2.790  -7.388  -1.064  1.00  0.00     0.001 A 
ENDBRANCH  74  82
ENDBRANCH  72  74
ENDBRANCH  71  72
ENDBRANCH  70  71
ENDBRANCH  69  70
ENDBRANCH  68  69
ENDBRANCH  67  68
ENDBRANCH  66  67
ENDBRANCH   1  66
TORSDOF 23
