REMARK SMILES CC(C)Cc1ccc(-c2cc(Cl)cc3c2O[C@@H](C(F)(F)F)C(C(=O)OCCOCCOCCOCCOC(=O)c2ccc(-c4c5nc(c(-c6c(F)cccc6F)c6ccc([nH]6)c(-c6c(F)cccc6F)c6nc(c(-c7c(F)cccc7F)c7ccc4[nH]7)C=C6)C=C5)cc2)=C3)cc1
REMARK SMILES IDX 30 1 29 2 28 3 27 4 26 5 25 6 23 7 24 8 22 9 9 10 10 11
REMARK SMILES IDX 15 12 11 13 14 14 16 15 12 16 13 17 94 18 17 19 8 20 5 21
REMARK SMILES IDX 6 22 96 23 7 24 95 25 4 26 2 27 1 28 3 29 18 30 19 31 20 32
REMARK SMILES IDX 21 33 31 34 32 35 33 36 34 37 35 38 36 39 37 40 38 41 39 42
REMARK SMILES IDX 40 43 41 44 93 45 42 46 92 47 43 48 44 49 45 50 86 51 46 52
REMARK SMILES IDX 91 53 85 54 87 55 47 56 90 57 84 58 83 59 48 61 74 62 57 63
REMARK SMILES IDX 73 64 58 65 61 66 72 67 88 68 59 69 60 70 71 72 89 73 62 74
REMARK SMILES IDX 49 75 50 76 55 77 51 78 52 79 54 80 56 81 53 82 75 83 76 84
REMARK SMILES IDX 81 85 77 86 78 87 80 88 82 89 79 90 63 91 64 92 69 93 65 94
REMARK SMILES IDX 66 95 68 96 70 97 67 98
REMARK H PARENT 87 60 61 71
REMARK Flexibility Score: inf
ROOT
ATOM      1  C   UNL     1      -5.136   4.696  -8.326  1.00  0.00     0.188 C 
ENDROOT
BRANCH   1   2
ATOM      2  C   UNL     1      -3.813   3.919  -8.337  1.00  0.00     0.188 C 
BRANCH   2   3
ATOM      3  O   UNL     1      -3.025   4.132  -9.505  1.00  0.00    -0.376 OA
BRANCH   3   4
ATOM      4  C   UNL     1      -3.124   3.172 -10.555  1.00  0.00     0.202 C 
BRANCH   4   5
ATOM      5  C   UNL     1      -4.533   2.811 -11.040  1.00  0.00     0.261 C 
BRANCH   5   6
ATOM      6  O   UNL     1      -5.240   2.071 -10.019  1.00  0.00    -0.460 OA
BRANCH   6   7
ATOM      7  C   UNL     1      -5.056   0.741 -10.026  1.00  0.00     0.338 C 
ATOM      8  O   UNL     1      -4.487   0.120 -10.915  1.00  0.00    -0.246 OA
BRANCH   7   9
ATOM      9  C   UNL     1      -5.465   0.103  -8.750  1.00  0.00     0.087 C 
ATOM     10  C   UNL     1      -3.425   1.311  -5.333  1.00  0.00     0.026 A 
ATOM     11  C   UNL     1      -2.195   1.826  -5.800  1.00  0.00     0.033 A 
ATOM     12  C   UNL     1      -4.246   0.728  -6.324  1.00  0.00     0.135 A 
ATOM     13  C   UNL     1      -1.665   1.403  -7.018  1.00  0.00     0.042 A 
ATOM     14  C   UNL     1      -3.640   0.121  -7.435  1.00  0.00     0.019 A 
ATOM     15  O   UNL     1      -5.585   1.127  -6.440  1.00  0.00    -0.475 OA
ATOM     16  Cl  UNL     1      -0.132   1.988  -7.525  1.00  0.00    -0.084 Cl
ATOM     17  C   UNL     1      -2.339   0.462  -7.787  1.00  0.00     0.032 A 
ATOM     18  C   UNL     1      -4.479  -0.709  -8.326  1.00  0.00     0.027 C 
ATOM     19  C   UNL     1      -6.340   0.667  -7.644  1.00  0.00     0.316 C 
BRANCH  10  20
ATOM     20  C   UNL     1      -3.307   0.764  -3.928  1.00  0.00    -0.015 A 
ATOM     21  C   UNL     1      -2.191  -0.417  -1.548  1.00  0.00    -0.048 A 
ATOM     22  C   UNL     1      -2.264   0.972  -1.704  1.00  0.00     0.004 A 
ATOM     23  C   UNL     1      -2.756  -1.208  -2.553  1.00  0.00     0.004 A 
ATOM     24  C   UNL     1      -2.816   1.551  -2.866  1.00  0.00     0.009 A 
ATOM     25  C   UNL     1      -3.313  -0.629  -3.712  1.00  0.00     0.009 A 
BRANCH  21  26
ATOM     26  C   UNL     1      -1.554  -1.044  -0.319  1.00  0.00     0.038 C 
BRANCH  26  27
ATOM     27  C   UNL     1      -0.012  -1.212  -0.316  1.00  0.00    -0.013 C 
ATOM     28  C   UNL     1       0.744   0.119  -0.323  1.00  0.00     0.008 C 
ATOM     29  C   UNL     1       0.421  -2.008   0.927  1.00  0.00     0.008 C 
ENDBRANCH  26  27
ENDBRANCH  21  26
ENDBRANCH  10  20
BRANCH  19  30
ATOM     30  C   UNL     1      -7.543   1.555  -8.057  1.00  0.00     0.430 C 
ATOM     31  F   UNL     1      -8.480   0.786  -8.678  1.00  0.00    -0.167 F 
ATOM     32  F   UNL     1      -8.151   2.096  -6.974  1.00  0.00    -0.167 F 
ATOM     33  F   UNL     1      -7.274   2.563  -8.898  1.00  0.00    -0.167 F 
ENDBRANCH  19  30
ENDBRANCH   7   9
ENDBRANCH   6   7
ENDBRANCH   5   6
ENDBRANCH   4   5
ENDBRANCH   3   4
ENDBRANCH   2   3
ENDBRANCH   1   2
BRANCH   1  34
ATOM     34  O   UNL     1      -5.446   5.289  -9.572  1.00  0.00    -0.377 OA
BRANCH  34  35
ATOM     35  C   UNL     1      -4.790   6.508  -9.908  1.00  0.00     0.188 C 
BRANCH  35  36
ATOM     36  C   UNL     1      -3.499   6.973  -9.195  1.00  0.00     0.188 C 
BRANCH  36  37
ATOM     37  O   UNL     1      -3.504   6.794  -7.782  1.00  0.00    -0.376 OA
BRANCH  37  38
ATOM     38  C   UNL     1      -3.623   7.964  -6.984  1.00  0.00     0.202 C 
BRANCH  38  39
ATOM     39  C   UNL     1      -5.060   8.484  -6.862  1.00  0.00     0.261 C 
BRANCH  39  40
ATOM     40  O   UNL     1      -5.652   8.909  -8.098  1.00  0.00    -0.460 OA
BRANCH  40  41
ATOM     41  C   UNL     1      -5.046   9.916  -8.765  1.00  0.00     0.338 C 
ATOM     42  O   UNL     1      -4.076  10.562  -8.411  1.00  0.00    -0.246 OA
BRANCH  41  43
ATOM     43  C   UNL     1      -5.647   9.975 -10.111  1.00  0.00     0.060 A 
ATOM     44  C   UNL     1      -4.816   9.854 -11.232  1.00  0.00     0.016 A 
ATOM     45  C   UNL     1      -7.031  10.098 -10.258  1.00  0.00     0.016 A 
ATOM     46  C   UNL     1      -5.371   9.874 -12.512  1.00  0.00     0.010 A 
ATOM     47  C   UNL     1      -7.581  10.140 -11.539  1.00  0.00     0.010 A 
ATOM     48  C   UNL     1      -6.752  10.053 -12.670  1.00  0.00    -0.014 A 
BRANCH  48  49
ATOM     49  C   UNL     1      -7.322  10.343 -14.004  1.00  0.00     0.031 A 
ATOM     50  C   UNL     1      -7.496  11.781 -14.400  1.00  0.00     0.074 A 
ATOM     51  C   UNL     1      -7.712   9.358 -14.831  1.00  0.00     0.049 A 
ATOM     52  N   UNL     1      -8.060  12.289 -15.464  1.00  0.00    -0.248 NA
ATOM     53  C   UNL     1      -6.966  12.782 -13.459  1.00  0.00     0.031 C 
ATOM     54  C   UNL     1      -7.574   7.928 -14.570  1.00  0.00     0.029 A 
ATOM     55  N   UNL     1      -8.331   9.422 -16.054  1.00  0.00    -0.354 N 
ATOM     56  C   UNL     1      -7.957  13.666 -15.320  1.00  0.00     0.074 A 
ATOM     57  C   UNL     1      -7.302  13.915 -14.055  1.00  0.00     0.031 C 
ATOM     58  C   UNL     1      -8.119   7.246 -15.593  1.00  0.00     0.029 A 
ATOM     59  C   UNL     1      -8.672   8.192 -16.561  1.00  0.00     0.049 A 
ATOM     60  H   UNL     1      -8.514  10.268 -16.523  1.00  0.00     0.167 HD
ATOM     61  C   UNL     1      -8.368  14.636 -16.169  1.00  0.00     0.037 A 
ATOM     62  C   UNL     1      -9.378   7.874 -17.664  1.00  0.00     0.037 A 
ATOM     63  C   UNL     1      -9.037  14.387 -17.417  1.00  0.00     0.049 A 
ATOM     64  C   UNL     1      -9.898   8.973 -18.555  1.00  0.00     0.074 A 
ATOM     65  C   UNL     1      -9.474  15.301 -18.358  1.00  0.00     0.029 A 
ATOM     66  N   UNL     1      -9.379  13.129 -17.888  1.00  0.00    -0.354 N 
ATOM     67  N   UNL     1      -9.761  10.272 -18.434  1.00  0.00    -0.248 NA
ATOM     68  C   UNL     1     -10.675   8.561 -19.734  1.00  0.00     0.031 C 
ATOM     69  C   UNL     1     -10.127  14.599 -19.376  1.00  0.00     0.029 A 
ATOM     70  C   UNL     1     -10.052  13.244 -19.093  1.00  0.00     0.049 A 
ATOM     71  H   UNL     1      -9.175  12.280 -17.434  1.00  0.00     0.167 HD
ATOM     72  C   UNL     1     -10.412  10.829 -19.529  1.00  0.00     0.074 A 
ATOM     73  C   UNL     1     -10.934   9.727 -20.310  1.00  0.00     0.031 C 
ATOM     74  C   UNL     1     -10.563  12.136 -19.859  1.00  0.00     0.037 A 
BRANCH  61  75
ATOM     75  C   UNL     1      -8.132  16.056 -15.749  1.00  0.00     0.057 A 
ATOM     76  C   UNL     1      -6.848  16.618 -15.734  1.00  0.00     0.134 A 
ATOM     77  C   UNL     1      -9.201  16.871 -15.360  1.00  0.00     0.134 A 
ATOM     78  F   UNL     1      -5.779  15.882 -16.077  1.00  0.00    -0.206 F 
ATOM     79  C   UNL     1      -6.634  17.934 -15.322  1.00  0.00     0.040 A 
ATOM     80  C   UNL     1      -9.002  18.196 -14.970  1.00  0.00     0.040 A 
ATOM     81  F   UNL     1     -10.454  16.394 -15.352  1.00  0.00    -0.206 F 
ATOM     82  C   UNL     1      -7.714  18.729 -14.944  1.00  0.00     0.006 A 
ENDBRANCH  61  75
BRANCH  62  83
ATOM     83  C   UNL     1      -9.665   6.451 -17.976  1.00  0.00     0.057 A 
ATOM     84  C   UNL     1      -9.075   5.815 -19.074  1.00  0.00     0.134 A 
ATOM     85  C   UNL     1     -10.555   5.701 -17.197  1.00  0.00     0.134 A 
ATOM     86  F   UNL     1      -8.236   6.489 -19.874  1.00  0.00    -0.206 F 
ATOM     87  C   UNL     1      -9.368   4.488 -19.394  1.00  0.00     0.040 A 
ATOM     88  C   UNL     1     -10.838   4.366 -17.491  1.00  0.00     0.040 A 
ATOM     89  F   UNL     1     -11.157   6.255 -16.135  1.00  0.00    -0.206 F 
ATOM     90  C   UNL     1     -10.248   3.758 -18.597  1.00  0.00     0.006 A 
ENDBRANCH  62  83
BRANCH  74  91
ATOM     91  C   UNL     1     -11.298  12.449 -21.130  1.00  0.00     0.057 A 
ATOM     92  C   UNL     1     -12.688  12.314 -21.232  1.00  0.00     0.134 A 
ATOM     93  C   UNL     1     -10.613  12.952 -22.244  1.00  0.00     0.134 A 
ATOM     94  F   UNL     1     -13.401  11.828 -20.205  1.00  0.00    -0.206 F 
ATOM     95  C   UNL     1     -13.368  12.653 -22.403  1.00  0.00     0.040 A 
ATOM     96  C   UNL     1     -11.285  13.318 -23.410  1.00  0.00     0.040 A 
ATOM     97  F   UNL     1      -9.281  13.116 -22.208  1.00  0.00    -0.206 F 
ATOM     98  C   UNL     1     -12.667  13.165 -23.493  1.00  0.00     0.006 A 
ENDBRANCH  74  91
ENDBRANCH  48  49
ENDBRANCH  41  43
ENDBRANCH  40  41
ENDBRANCH  39  40
ENDBRANCH  38  39
ENDBRANCH  37  38
ENDBRANCH  36  37
ENDBRANCH  35  36
ENDBRANCH  34  35
ENDBRANCH   1  34
TORSDOF 24
