REMARK SMILES C#Cc1cccc(NS(=O)(=O)c2cc(C)c(C(=O)OCCOCCOCCOCCOC(=O)c3ccc(-c4c5nc(c(-c6c(F)cccc6F)c6ccc([nH]6)c(-c6c(F)cccc6F)c6nc(c(-c7c(F)cccc7F)c7ccc4[nH]7)C=C6)C=C5)cc3)s2)c1
REMARK SMILES IDX 24 1 23 2 22 3 21 4 20 5 19 6 17 7 18 8 16 9 12 10 13 11
REMARK SMILES IDX 88 12 14 13 15 14 9 15 10 16 11 17 8 18 7 20 3 21 4 22 89 23
REMARK SMILES IDX 5 24 6 25 2 26 1 27 25 28 26 29 27 30 28 31 29 32 30 33
REMARK SMILES IDX 31 34 32 35 33 36 34 37 35 38 87 39 36 40 86 41 37 42 38 43
REMARK SMILES IDX 39 44 80 45 40 46 85 47 79 48 81 49 41 50 84 51 78 52 77 53
REMARK SMILES IDX 42 55 68 56 51 57 67 58 52 59 55 60 66 61 82 62 53 63 54 64
REMARK SMILES IDX 65 66 83 67 56 68 43 69 44 70 49 71 45 72 46 73 48 74 50 75
REMARK SMILES IDX 47 76 69 77 70 78 75 79 71 80 72 81 74 82 76 83 73 84 57 85
REMARK SMILES IDX 58 86 63 87 59 88 60 89 62 90 64 91 61 92
REMARK H PARENT 8 19 81 54 55 65
REMARK Flexibility Score: inf
ROOT
ATOM      1  C   UNL     1       6.755   2.511   2.373  1.00  0.00     0.188 C 
ENDROOT
BRANCH   1   2
ATOM      2  C   UNL     1       8.147   2.353   1.717  1.00  0.00     0.188 C 
BRANCH   2   3
ATOM      3  O   UNL     1       8.911   3.533   1.607  1.00  0.00    -0.376 OA
BRANCH   3   4
ATOM      4  C   UNL     1       9.030   4.299   0.432  1.00  0.00     0.202 C 
BRANCH   4   5
ATOM      5  C   UNL     1       7.899   4.471  -0.583  1.00  0.00     0.261 C 
BRANCH   5   6
ATOM      6  O   UNL     1       6.875   3.487  -0.571  1.00  0.00    -0.459 OA
BRANCH   6   7
ATOM      7  C   UNL     1       7.106   2.326  -1.235  1.00  0.00     0.348 C 
ATOM      8  O   UNL     1       8.162   2.054  -1.792  1.00  0.00    -0.245 OA
BRANCH   7   9
ATOM      9  C   UNL     1       5.945   1.465  -1.092  1.00  0.00     0.116 A 
ATOM     10  C   UNL     1       4.506  -0.530  -0.778  1.00  0.00     0.141 A 
ATOM     11  C   UNL     1       3.813   0.603  -1.147  1.00  0.00     0.038 A 
ATOM     12  S   UNL     1       6.187  -0.242  -0.967  1.00  0.00    -0.115 S 
ATOM     13  C   UNL     1       4.603   1.774  -0.908  1.00  0.00    -0.024 A 
ATOM     14  C   UNL     1       3.976   3.084  -0.547  1.00  0.00     0.046 C 
BRANCH  10  15
ATOM     15  S   UNL     1       4.024  -2.121  -0.132  1.00  0.00     0.271 S 
ATOM     16  O   UNL     1       4.655  -2.190   1.170  1.00  0.00    -0.200 OA
ATOM     17  O   UNL     1       4.340  -3.069  -1.179  1.00  0.00    -0.200 OA
BRANCH  15  18
ATOM     18  N   UNL     1       2.360  -2.268   0.118  1.00  0.00    -0.279 N 
ATOM     19  H   UNL     1       1.976  -3.174   0.086  1.00  0.00     0.180 HD
BRANCH  18  20
ATOM     20  C   UNL     1       1.469  -1.186   0.372  1.00  0.00     0.050 A 
ATOM     21  C   UNL     1      -0.733  -0.228   0.027  1.00  0.00     0.026 A 
ATOM     22  C   UNL     1      -0.261   1.009   0.462  1.00  0.00     0.017 A 
ATOM     23  C   UNL     1       0.138  -1.321  -0.045  1.00  0.00     0.044 A 
ATOM     24  C   UNL     1       1.018   1.105   0.999  1.00  0.00     0.003 A 
ATOM     25  C   UNL     1       1.850  -0.018   1.032  1.00  0.00     0.027 A 
BRANCH  21  26
ATOM     26  C   UNL     1      -2.131  -0.355  -0.256  1.00  0.00    -0.070 C 
ATOM     27  C   UNL     1      -3.324  -0.383  -0.354  1.00  0.00     0.010 C 
ENDBRANCH  21  26
ENDBRANCH  18  20
ENDBRANCH  15  18
ENDBRANCH  10  15
ENDBRANCH   7   9
ENDBRANCH   6   7
ENDBRANCH   5   6
ENDBRANCH   4   5
ENDBRANCH   3   4
ENDBRANCH   2   3
ENDBRANCH   1   2
BRANCH   1  28
ATOM     28  O   UNL     1       6.177   3.793   2.573  1.00  0.00    -0.377 OA
BRANCH  28  29
ATOM     29  C   UNL     1       6.958   4.882   3.052  1.00  0.00     0.188 C 
BRANCH  29  30
ATOM     30  C   UNL     1       8.203   4.685   3.950  1.00  0.00     0.188 C 
BRANCH  30  31
ATOM     31  O   UNL     1       8.516   3.343   4.241  1.00  0.00    -0.376 OA
BRANCH  31  32
ATOM     32  C   UNL     1       8.227   2.784   5.502  1.00  0.00     0.202 C 
BRANCH  32  33
ATOM     33  C   UNL     1       6.858   2.991   6.164  1.00  0.00     0.261 C 
BRANCH  33  34
ATOM     34  O   UNL     1       6.215   4.255   5.963  1.00  0.00    -0.460 OA
BRANCH  34  35
ATOM     35  C   UNL     1       6.679   5.297   6.689  1.00  0.00     0.338 C 
ATOM     36  O   UNL     1       7.606   5.294   7.477  1.00  0.00    -0.246 OA
BRANCH  35  37
ATOM     37  C   UNL     1       5.979   6.510   6.219  1.00  0.00     0.060 A 
ATOM     38  C   UNL     1       6.712   7.523   5.583  1.00  0.00     0.016 A 
ATOM     39  C   UNL     1       4.603   6.641   6.406  1.00  0.00     0.016 A 
ATOM     40  C   UNL     1       6.072   8.685   5.158  1.00  0.00     0.010 A 
ATOM     41  C   UNL     1       3.968   7.818   6.005  1.00  0.00     0.010 A 
ATOM     42  C   UNL     1       4.706   8.858   5.410  1.00  0.00    -0.014 A 
BRANCH  42  43
ATOM     43  C   UNL     1       4.088  10.192   5.232  1.00  0.00     0.031 A 
ATOM     44  C   UNL     1       3.870  11.046   6.449  1.00  0.00     0.074 A 
ATOM     45  C   UNL     1       3.736  10.643   4.016  1.00  0.00     0.049 A 
ATOM     46  N   UNL     1       3.282  12.209   6.557  1.00  0.00    -0.248 NA
ATOM     47  C   UNL     1       4.380  10.507   7.721  1.00  0.00     0.031 C 
ATOM     48  C   UNL     1       3.940   9.930   2.758  1.00  0.00     0.029 A 
ATOM     49  N   UNL     1       3.119  11.812   3.648  1.00  0.00    -0.354 N 
ATOM     50  C   UNL     1       3.338  12.534   7.906  1.00  0.00     0.074 A 
ATOM     51  C   UNL     1       3.984  11.430   8.582  1.00  0.00     0.031 C 
ATOM     52  C   UNL     1       3.441  10.671   1.754  1.00  0.00     0.029 A 
ATOM     53  C   UNL     1       2.847  11.888   2.304  1.00  0.00     0.049 A 
ATOM     54  H   UNL     1       2.892  12.527   4.286  1.00  0.00     0.167 HD
ATOM     55  C   UNL     1       2.898  13.655   8.524  1.00  0.00     0.037 A 
ATOM     56  C   UNL     1       2.169  12.821   1.607  1.00  0.00     0.037 A 
ATOM     57  C   UNL     1       2.247  14.745   7.845  1.00  0.00     0.049 A 
ATOM     58  C   UNL     1       1.608  14.020   2.328  1.00  0.00     0.074 A 
ATOM     59  C   UNL     1       1.777  15.933   8.375  1.00  0.00     0.029 A 
ATOM     60  N   UNL     1       1.959  14.771   6.488  1.00  0.00    -0.354 N 
ATOM     61  N   UNL     1       1.684  14.333   3.600  1.00  0.00    -0.248 NA
ATOM     62  C   UNL     1       0.870  14.997   1.515  1.00  0.00     0.031 C 
ATOM     63  C   UNL     1       1.139  16.644   7.355  1.00  0.00     0.029 A 
ATOM     64  C   UNL     1       1.285  15.939   6.170  1.00  0.00     0.049 A 
ATOM     65  H   UNL     1       2.199  14.064   5.845  1.00  0.00     0.167 HD
ATOM     66  C   UNL     1       1.038  15.558   3.732  1.00  0.00     0.074 A 
ATOM     67  C   UNL     1       0.586  15.933   2.409  1.00  0.00     0.031 C 
ATOM     68  C   UNL     1       0.843  16.305   4.847  1.00  0.00     0.037 A 
BRANCH  55  69
ATOM     69  C   UNL     1       3.067  13.735  10.015  1.00  0.00     0.057 A 
ATOM     70  C   UNL     1       4.327  13.834  10.621  1.00  0.00     0.134 A 
ATOM     71  C   UNL     1       1.948  13.724  10.858  1.00  0.00     0.134 A 
ATOM     72  F   UNL     1       5.443  13.837   9.876  1.00  0.00    -0.206 F 
ATOM     73  C   UNL     1       4.469  13.883  12.010  1.00  0.00     0.040 A 
ATOM     74  C   UNL     1       2.075  13.809  12.245  1.00  0.00     0.040 A 
ATOM     75  F   UNL     1       0.710  13.636  10.348  1.00  0.00    -0.206 F 
ATOM     76  C   UNL     1       3.340  13.877  12.825  1.00  0.00     0.006 A 
ENDBRANCH  55  69
BRANCH  56  77
ATOM     77  C   UNL     1       1.969  12.653   0.144  1.00  0.00     0.057 A 
ATOM     78  C   UNL     1       2.569  13.520  -0.776  1.00  0.00     0.134 A 
ATOM     79  C   UNL     1       1.161  11.630  -0.369  1.00  0.00     0.134 A 
ATOM     80  F   UNL     1       3.336  14.534  -0.347  1.00  0.00    -0.206 F 
ATOM     81  C   UNL     1       2.359  13.389  -2.150  1.00  0.00     0.040 A 
ATOM     82  C   UNL     1       0.968  11.468  -1.742  1.00  0.00     0.040 A 
ATOM     83  F   UNL     1       0.558  10.763   0.458  1.00  0.00    -0.206 F 
ATOM     84  C   UNL     1       1.562  12.355  -2.636  1.00  0.00     0.006 A 
ENDBRANCH  56  77
BRANCH  68  85
ATOM     85  C   UNL     1       0.154  17.633   4.683  1.00  0.00     0.057 A 
ATOM     86  C   UNL     1      -1.204  17.738   4.355  1.00  0.00     0.134 A 
ATOM     87  C   UNL     1       0.856  18.827   4.904  1.00  0.00     0.134 A 
ATOM     88  F   UNL     1      -1.934  16.637   4.121  1.00  0.00    -0.206 F 
ATOM     89  C   UNL     1      -1.830  18.979   4.223  1.00  0.00     0.040 A 
ATOM     90  C   UNL     1       0.232  20.072   4.810  1.00  0.00     0.040 A 
ATOM     91  F   UNL     1       2.156  18.802   5.234  1.00  0.00    -0.206 F 
ATOM     92  C   UNL     1      -1.113  20.150   4.460  1.00  0.00     0.006 A 
ENDBRANCH  68  85
ENDBRANCH  42  43
ENDBRANCH  35  37
ENDBRANCH  34  35
ENDBRANCH  33  34
ENDBRANCH  32  33
ENDBRANCH  31  32
ENDBRANCH  30  31
ENDBRANCH  29  30
ENDBRANCH  28  29
ENDBRANCH   1  28
TORSDOF 24
