REMARK SMILES Cc1ccc(C(=O)NC2CC2)cc1NC(=O)[C@@H]1[C@@H](C(=O)OCCOCCOCCOCCOC(=O)c2ccc(-c3c4nc(c(-c5c(F)cccc5F)c5ccc([nH]5)c(-c5c(F)cccc5F)c5nc(c(-c6c(F)cccc6F)c6ccc3[nH]6)C=C5)C=C4)cc2)[C@H]2C=C[C@@H]1C2
REMARK SMILES IDX 26 1 25 2 24 3 23 4 22 5 21 6 19 7 20 8 18 9 17 10 93 11
REMARK SMILES IDX 90 12 92 13 94 14 91 15 15 16 14 17 16 19 13 20 1 21 2 22
REMARK SMILES IDX 3 23 4 24 12 25 5 26 6 27 7 28 8 29 9 31 10 32 11 33 27 34
REMARK SMILES IDX 28 35 29 36 30 37 31 38 32 39 33 40 34 41 35 42 36 43 37 44
REMARK SMILES IDX 89 45 38 46 88 47 39 48 40 49 41 50 82 51 42 52 87 53 81 54
REMARK SMILES IDX 83 55 43 56 86 57 80 58 79 59 44 61 70 62 53 63 69 64 54 65
REMARK SMILES IDX 57 66 68 67 84 68 55 69 56 70 67 72 85 73 58 74 45 75 46 76
REMARK SMILES IDX 51 77 47 78 48 79 50 80 52 81 49 82 71 83 72 84 77 85 73 86
REMARK SMILES IDX 74 87 76 88 78 89 75 90 59 91 60 92 65 93 61 94 62 95 64 96
REMARK SMILES IDX 66 97 63 98
REMARK H PARENT 14 18 8 30 83 60 57 71
REMARK Flexibility Score: inf
ROOT
ATOM      1  C   UNL     1       0.530   6.581  -1.419  1.00  0.00     0.188 C 
ENDROOT
BRANCH   1   2
ATOM      2  C   UNL     1       0.006   6.133  -2.798  1.00  0.00     0.188 C 
BRANCH   2   3
ATOM      3  O   UNL     1      -0.435   4.793  -2.926  1.00  0.00    -0.376 OA
BRANCH   3   4
ATOM      4  C   UNL     1      -1.796   4.678  -3.310  1.00  0.00     0.202 C 
BRANCH   4   5
ATOM      5  C   UNL     1      -2.682   4.114  -2.216  1.00  0.00     0.261 C 
BRANCH   5   6
ATOM      6  O   UNL     1      -2.378   4.475  -0.838  1.00  0.00    -0.463 OA
BRANCH   6   7
ATOM      7  C   UNL     1      -1.237   4.046  -0.308  1.00  0.00     0.310 C 
ATOM      8  O   UNL     1      -0.434   3.351  -0.927  1.00  0.00    -0.252 OA
BRANCH   7   9
ATOM      9  C   UNL     1      -0.973   4.378   1.146  1.00  0.00     0.119 C 
ATOM     10  C   UNL     1      -0.555   2.974   1.692  1.00  0.00     0.100 C 
ATOM     11  C   UNL     1      -1.057   2.983   3.140  1.00  0.00     0.025 C 
ATOM     12  C   UNL     1      -1.903   4.890   2.277  1.00  0.00     0.027 C 
ATOM     13  C   UNL     1      -2.573   2.844   3.086  1.00  0.00    -0.027 C 
ATOM     14  C   UNL     1      -1.033   4.468   3.496  1.00  0.00     0.017 C 
ATOM     15  C   UNL     1      -3.069   3.985   2.579  1.00  0.00    -0.027 C 
BRANCH  10  16
ATOM     16  C   UNL     1       0.912   2.747   1.390  1.00  0.00     0.228 C 
ATOM     17  N   UNL     1       1.402   1.621   0.780  1.00  0.00    -0.326 N 
ATOM     18  H   UNL     1       2.356   1.713   0.555  1.00  0.00     0.169 HD
ATOM     19  O   UNL     1       1.737   3.625   1.677  1.00  0.00    -0.274 OA
BRANCH  17  20
ATOM     20  C   UNL     1       0.887   0.355   0.389  1.00  0.00     0.044 A 
ATOM     21  C   UNL     1       3.245  -0.607   0.206  1.00  0.00     0.046 C 
ATOM     22  C   UNL     1       1.750  -0.729   0.234  1.00  0.00    -0.027 A 
ATOM     23  C   UNL     1       1.206  -2.026   0.102  1.00  0.00     0.006 A 
ATOM     24  C   UNL     1      -0.171  -2.252   0.033  1.00  0.00     0.014 A 
ATOM     25  C   UNL     1      -0.459   0.098   0.137  1.00  0.00     0.040 A 
ATOM     26  C   UNL     1      -1.046  -1.180   0.006  1.00  0.00     0.041 A 
BRANCH  26  27
ATOM     27  C   UNL     1      -2.525  -1.524  -0.158  1.00  0.00     0.251 C 
ATOM     28  O   UNL     1      -2.862  -2.657  -0.499  1.00  0.00    -0.269 OA
ATOM     29  N   UNL     1      -3.522  -0.602   0.099  1.00  0.00    -0.349 N 
ATOM     30  H   UNL     1      -4.455  -0.915   0.134  1.00  0.00     0.164 HD
BRANCH  29  31
ATOM     31  C   UNL     1      -3.264   0.752   0.311  1.00  0.00     0.082 C 
ATOM     32  C   UNL     1      -3.159   1.421  -1.033  1.00  0.00     0.027 C 
ATOM     33  C   UNL     1      -3.995   2.002   0.043  1.00  0.00     0.027 C 
ENDBRANCH  29  31
ENDBRANCH  26  27
ENDBRANCH  17  20
ENDBRANCH  10  16
ENDBRANCH   7   9
ENDBRANCH   6   7
ENDBRANCH   5   6
ENDBRANCH   4   5
ENDBRANCH   3   4
ENDBRANCH   2   3
ENDBRANCH   1   2
BRANCH   1  34
ATOM     34  O   UNL     1      -0.334   7.445  -0.663  1.00  0.00    -0.377 OA
BRANCH  34  35
ATOM     35  C   UNL     1      -0.935   8.538  -1.363  1.00  0.00     0.188 C 
BRANCH  35  36
ATOM     36  C   UNL     1      -0.029   9.412  -2.242  1.00  0.00     0.188 C 
BRANCH  36  37
ATOM     37  O   UNL     1       0.342   8.704  -3.422  1.00  0.00    -0.376 OA
BRANCH  37  38
ATOM     38  C   UNL     1       1.583   9.063  -4.019  1.00  0.00     0.202 C 
BRANCH  38  39
ATOM     39  C   UNL     1       1.592  10.500  -4.545  1.00  0.00     0.261 C 
BRANCH  39  40
ATOM     40  O   UNL     1       0.634  10.613  -5.616  1.00  0.00    -0.460 OA
BRANCH  40  41
ATOM     41  C   UNL     1      -0.487  11.334  -5.318  1.00  0.00     0.338 C 
ATOM     42  O   UNL     1      -0.509  12.426  -4.806  1.00  0.00    -0.246 OA
BRANCH  41  43
ATOM     43  C   UNL     1      -1.685  10.447  -5.425  1.00  0.00     0.060 A 
ATOM     44  C   UNL     1      -2.922  10.897  -4.932  1.00  0.00     0.016 A 
ATOM     45  C   UNL     1      -1.489   9.095  -5.671  1.00  0.00     0.016 A 
ATOM     46  C   UNL     1      -3.888   9.976  -4.511  1.00  0.00     0.010 A 
ATOM     47  C   UNL     1      -2.387   8.200  -5.141  1.00  0.00     0.010 A 
ATOM     48  C   UNL     1      -3.575   8.623  -4.523  1.00  0.00    -0.014 A 
BRANCH  48  49
ATOM     49  C   UNL     1      -4.299   7.581  -3.783  1.00  0.00     0.031 A 
ATOM     50  C   UNL     1      -4.624   6.290  -4.490  1.00  0.00     0.074 A 
ATOM     51  C   UNL     1      -4.311   7.707  -2.434  1.00  0.00     0.049 A 
ATOM     52  N   UNL     1      -5.158   5.239  -3.969  1.00  0.00    -0.248 NA
ATOM     53  C   UNL     1      -4.359   6.094  -5.917  1.00  0.00     0.031 C 
ATOM     54  C   UNL     1      -4.181   6.643  -1.472  1.00  0.00     0.029 A 
ATOM     55  N   UNL     1      -4.268   8.790  -1.591  1.00  0.00    -0.354 N 
ATOM     56  C   UNL     1      -5.091   4.183  -4.878  1.00  0.00     0.074 A 
ATOM     57  C   UNL     1      -4.616   4.795  -6.087  1.00  0.00     0.031 C 
ATOM     58  C   UNL     1      -4.431   7.003  -0.213  1.00  0.00     0.029 A 
ATOM     59  C   UNL     1      -4.700   8.400  -0.305  1.00  0.00     0.049 A 
ATOM     60  H   UNL     1      -3.980   9.697  -1.844  1.00  0.00     0.167 HD
ATOM     61  C   UNL     1      -5.375   2.904  -4.467  1.00  0.00     0.037 A 
ATOM     62  C   UNL     1      -5.784   8.983   0.249  1.00  0.00     0.037 A 
ATOM     63  C   UNL     1      -6.110   2.932  -3.170  1.00  0.00     0.049 A 
ATOM     64  C   UNL     1      -6.928   7.964   0.162  1.00  0.00     0.074 A 
ATOM     65  C   UNL     1      -6.193   2.128  -2.055  1.00  0.00     0.029 A 
ATOM     66  N   UNL     1      -6.959   4.026  -2.849  1.00  0.00    -0.354 N 
ATOM     67  N   UNL     1      -7.094   7.053  -0.789  1.00  0.00    -0.248 NA
ATOM     68  C   UNL     1      -7.761   7.698   1.336  1.00  0.00     0.031 C 
ATOM     69  C   UNL     1      -6.828   2.855  -1.013  1.00  0.00     0.029 A 
ATOM     70  C   UNL     1      -7.307   4.048  -1.518  1.00  0.00     0.049 A 
ATOM     71  H   UNL     1      -7.264   4.693  -3.505  1.00  0.00     0.167 HD
ATOM     72  C   UNL     1      -7.990   6.091  -0.346  1.00  0.00     0.074 A 
ATOM     73  C   UNL     1      -8.356   6.545   0.991  1.00  0.00     0.031 C 
ATOM     74  C   UNL     1      -8.341   4.899  -0.942  1.00  0.00     0.037 A 
BRANCH  61  75
ATOM     75  C   UNL     1      -4.800   1.598  -5.144  1.00  0.00     0.057 A 
ATOM     76  C   UNL     1      -4.979   0.305  -4.588  1.00  0.00     0.134 A 
ATOM     77  C   UNL     1      -3.946   1.550  -6.273  1.00  0.00     0.134 A 
ATOM     78  F   UNL     1      -5.880   0.065  -3.633  1.00  0.00    -0.206 F 
ATOM     79  C   UNL     1      -4.280  -0.855  -5.004  1.00  0.00     0.040 A 
ATOM     80  C   UNL     1      -3.299   0.384  -6.749  1.00  0.00     0.040 A 
ATOM     81  F   UNL     1      -3.660   2.624  -7.008  1.00  0.00    -0.206 F 
ATOM     82  C   UNL     1      -3.428  -0.820  -6.089  1.00  0.00     0.006 A 
ENDBRANCH  61  75
BRANCH  62  83
ATOM     83  C   UNL     1      -5.557  10.470   0.118  1.00  0.00     0.057 A 
ATOM     84  C   UNL     1      -4.404  10.911   0.841  1.00  0.00     0.134 A 
ATOM     85  C   UNL     1      -5.786  11.127  -1.100  1.00  0.00     0.134 A 
ATOM     86  F   UNL     1      -4.098  10.338   2.018  1.00  0.00    -0.206 F 
ATOM     87  C   UNL     1      -3.405  11.709   0.256  1.00  0.00     0.040 A 
ATOM     88  C   UNL     1      -4.800  11.963  -1.673  1.00  0.00     0.040 A 
ATOM     89  F   UNL     1      -6.821  10.772  -1.874  1.00  0.00    -0.206 F 
ATOM     90  C   UNL     1      -3.580  12.193  -1.033  1.00  0.00     0.006 A 
ENDBRANCH  62  83
BRANCH  74  91
ATOM     91  C   UNL     1      -9.680   4.187  -0.709  1.00  0.00     0.057 A 
ATOM     92  C   UNL     1     -10.793   4.807  -0.138  1.00  0.00     0.134 A 
ATOM     93  C   UNL     1      -9.940   2.872  -1.194  1.00  0.00     0.134 A 
ATOM     94  F   UNL     1     -10.779   6.104   0.198  1.00  0.00    -0.206 F 
ATOM     95  C   UNL     1     -12.008   4.138   0.064  1.00  0.00     0.040 A 
ATOM     96  C   UNL     1     -11.136   2.188  -0.983  1.00  0.00     0.040 A 
ATOM     97  F   UNL     1      -9.084   2.194  -1.969  1.00  0.00    -0.206 F 
ATOM     98  C   UNL     1     -12.176   2.819  -0.336  1.00  0.00     0.006 A 
ENDBRANCH  74  91
ENDBRANCH  48  49
ENDBRANCH  41  43
ENDBRANCH  40  41
ENDBRANCH  39  40
ENDBRANCH  38  39
ENDBRANCH  37  38
ENDBRANCH  36  37
ENDBRANCH  35  36
ENDBRANCH  34  35
ENDBRANCH   1  34
TORSDOF 24
