REMARK SMILES Cc1nn(-c2ccccc2)c(C)c1CNC(=O)CCCC(=O)OCCOCCOCCOCCOC(=O)c1ccc(-c2c3nc(c(-c4c(F)cccc4F)c4ccc([nH]4)c(-c4c(F)cccc4F)c4nc(c(-c5c(F)cccc5F)c5ccc2[nH]5)C=C4)C=C3)cc1
REMARK SMILES IDX 27 1 26 2 25 3 24 4 23 5 21 6 22 7 20 8 19 9 18 10 16 11
REMARK SMILES IDX 15 12 17 14 14 15 13 16 1 17 2 18 3 19 4 20 11 21 12 22 5 23
REMARK SMILES IDX 6 24 10 25 7 26 9 27 8 28 28 29 29 30 30 31 31 32 32 33
REMARK SMILES IDX 33 34 34 35 35 36 36 37 37 38 38 39 39 40 91 41 40 42 90 43
REMARK SMILES IDX 41 44 42 45 43 46 84 47 44 48 89 49 83 50 85 51 45 52 88 53
REMARK SMILES IDX 82 54 81 55 46 57 72 58 55 59 71 60 56 61 59 62 70 63 86 64
REMARK SMILES IDX 57 65 58 66 69 68 87 69 60 70 47 71 48 72 53 73 49 74 50 75
REMARK SMILES IDX 52 76 54 77 51 78 73 79 74 80 79 81 75 82 76 83 78 84 80 85
REMARK SMILES IDX 77 86 61 87 62 88 67 89 63 90 64 91 66 92 68 93 65 94
REMARK H PARENT 15 13 85 56 59 67
REMARK Flexibility Score: inf
ROOT
ATOM      1  C   UNL     1      -3.851   3.841  -0.395  1.00  0.00     0.188 C 
ENDROOT
BRANCH   1   2
ATOM      2  O   UNL     1      -3.610   3.895   1.000  1.00  0.00    -0.376 OA
BRANCH   2   3
ATOM      3  C   UNL     1      -2.309   4.047   1.543  1.00  0.00     0.202 C 
BRANCH   3   4
ATOM      4  C   UNL     1      -1.046   3.463   0.895  1.00  0.00     0.261 C 
BRANCH   4   5
ATOM      5  O   UNL     1      -0.921   3.680  -0.514  1.00  0.00    -0.463 OA
BRANCH   5   6
ATOM      6  C   UNL     1      -1.188   2.625  -1.311  1.00  0.00     0.305 C 
ATOM      7  O   UNL     1      -1.460   1.507  -0.890  1.00  0.00    -0.252 OA
BRANCH   6   8
ATOM      8  C   UNL     1      -1.246   2.963  -2.788  1.00  0.00     0.123 C 
BRANCH   8   9
ATOM      9  C   UNL     1      -0.651   4.253  -3.373  1.00  0.00     0.022 C 
BRANCH   9  10
ATOM     10  C   UNL     1       0.602   4.884  -2.768  1.00  0.00     0.100 C 
BRANCH  10  11
ATOM     11  C   UNL     1       1.924   4.445  -3.361  1.00  0.00     0.220 C 
ATOM     12  N   UNL     1       2.498   3.261  -3.020  1.00  0.00    -0.352 N 
ATOM     13  H   UNL     1       3.354   3.075  -3.469  1.00  0.00     0.163 HD
ATOM     14  O   UNL     1       2.509   5.155  -4.183  1.00  0.00    -0.275 OA
BRANCH  12  15
ATOM     15  C   UNL     1       2.059   2.236  -2.110  1.00  0.00     0.155 C 
BRANCH  15  16
ATOM     16  C   UNL     1       1.444   1.062  -2.816  1.00  0.00     0.016 A 
ATOM     17  C   UNL     1       1.051  -0.414  -0.686  1.00  0.00     0.069 C 
ATOM     18  C   UNL     1       0.960  -0.102  -2.141  1.00  0.00     0.065 A 
ATOM     19  N   UNL     1       0.284  -0.918  -2.953  1.00  0.00    -0.173 NA
ATOM     20  N   UNL     1       0.388  -0.365  -4.180  1.00  0.00    -0.237 N 
ATOM     21  C   UNL     1       1.044   0.867  -4.141  1.00  0.00     0.046 A 
ATOM     22  C   UNL     1       0.988   1.801  -5.309  1.00  0.00     0.067 C 
BRANCH  20  23
ATOM     23  C   UNL     1      -0.274  -0.939  -5.301  1.00  0.00     0.065 A 
ATOM     24  C   UNL     1      -1.538  -1.519  -5.153  1.00  0.00     0.028 A 
ATOM     25  C   UNL     1       0.297  -0.832  -6.576  1.00  0.00     0.028 A 
ATOM     26  C   UNL     1      -2.262  -1.887  -6.293  1.00  0.00     0.002 A 
ATOM     27  C   UNL     1      -0.428  -1.197  -7.707  1.00  0.00     0.002 A 
ATOM     28  C   UNL     1      -1.716  -1.705  -7.566  1.00  0.00     0.000 A 
ENDBRANCH  20  23
ENDBRANCH  15  16
ENDBRANCH  12  15
ENDBRANCH  10  11
ENDBRANCH   9  10
ENDBRANCH   8   9
ENDBRANCH   6   8
ENDBRANCH   5   6
ENDBRANCH   4   5
ENDBRANCH   3   4
ENDBRANCH   2   3
ENDBRANCH   1   2
BRANCH   1  29
ATOM     29  C   UNL     1      -3.393   4.982  -1.321  1.00  0.00     0.188 C 
BRANCH  29  30
ATOM     30  O   UNL     1      -2.352   5.808  -0.852  1.00  0.00    -0.377 OA
BRANCH  30  31
ATOM     31  C   UNL     1      -2.713   6.935  -0.064  1.00  0.00     0.188 C 
BRANCH  31  32
ATOM     32  C   UNL     1      -4.091   7.005   0.647  1.00  0.00     0.188 C 
BRANCH  32  33
ATOM     33  O   UNL     1      -5.152   6.254   0.074  1.00  0.00    -0.376 OA
BRANCH  33  34
ATOM     34  C   UNL     1      -6.124   6.796  -0.810  1.00  0.00     0.202 C 
BRANCH  34  35
ATOM     35  C   UNL     1      -5.695   7.468  -2.121  1.00  0.00     0.261 C 
BRANCH  35  36
ATOM     36  O   UNL     1      -4.530   8.260  -2.013  1.00  0.00    -0.460 OA
BRANCH  36  37
ATOM     37  C   UNL     1      -4.686   9.335  -1.234  1.00  0.00     0.338 C 
ATOM     38  O   UNL     1      -5.646   9.586  -0.497  1.00  0.00    -0.246 OA
BRANCH  37  39
ATOM     39  C   UNL     1      -3.603  10.273  -1.489  1.00  0.00     0.060 A 
ATOM     40  C   UNL     1      -3.665  11.440  -0.737  1.00  0.00     0.016 A 
ATOM     41  C   UNL     1      -2.900  10.181  -2.703  1.00  0.00     0.016 A 
ATOM     42  C   UNL     1      -3.329  12.600  -1.375  1.00  0.00     0.010 A 
ATOM     43  C   UNL     1      -2.547  11.346  -3.333  1.00  0.00     0.010 A 
ATOM     44  C   UNL     1      -2.881  12.538  -2.705  1.00  0.00    -0.014 A 
BRANCH  44  45
ATOM     45  C   UNL     1      -2.676  13.801  -3.368  1.00  0.00     0.031 A 
ATOM     46  C   UNL     1      -1.587  14.560  -2.730  1.00  0.00     0.074 A 
ATOM     47  C   UNL     1      -3.408  14.229  -4.411  1.00  0.00     0.049 A 
ATOM     48  N   UNL     1      -1.714  15.587  -1.961  1.00  0.00    -0.248 NA
ATOM     49  C   UNL     1      -0.242  13.968  -2.747  1.00  0.00     0.031 C 
ATOM     50  C   UNL     1      -4.349  13.488  -5.251  1.00  0.00     0.029 A 
ATOM     51  N   UNL     1      -3.398  15.463  -4.978  1.00  0.00    -0.354 N 
ATOM     52  C   UNL     1      -0.425  15.906  -1.567  1.00  0.00     0.074 A 
ATOM     53  C   UNL     1       0.404  14.782  -1.913  1.00  0.00     0.031 C 
ATOM     54  C   UNL     1      -4.639  14.226  -6.350  1.00  0.00     0.029 A 
ATOM     55  C   UNL     1      -4.027  15.537  -6.212  1.00  0.00     0.049 A 
ATOM     56  H   UNL     1      -2.979  16.243  -4.547  1.00  0.00     0.167 HD
ATOM     57  C   UNL     1      -0.110  17.188  -1.252  1.00  0.00     0.037 A 
ATOM     58  C   UNL     1      -3.976  16.595  -7.061  1.00  0.00     0.037 A 
ATOM     59  C   UNL     1      -1.287  17.943  -0.898  1.00  0.00     0.049 A 
ATOM     60  C   UNL     1      -3.602  17.788  -6.258  1.00  0.00     0.074 A 
ATOM     61  C   UNL     1      -2.250  17.832   0.087  1.00  0.00     0.029 A 
ATOM     62  N   UNL     1      -1.827  18.767  -1.856  1.00  0.00    -0.354 N 
ATOM     63  N   UNL     1      -4.385  18.335  -5.371  1.00  0.00    -0.248 NA
ATOM     64  C   UNL     1      -2.185  18.086  -6.107  1.00  0.00     0.031 C 
ATOM     65  C   UNL     1      -3.474  18.207  -0.542  1.00  0.00     0.029 A 
ATOM     66  C   UNL     1      -3.186  18.585  -1.853  1.00  0.00     0.049 A 
ATOM     67  H   UNL     1      -1.325  19.380  -2.441  1.00  0.00     0.167 HD
ATOM     68  C   UNL     1      -3.546  18.664  -4.316  1.00  0.00     0.074 A 
ATOM     69  C   UNL     1      -2.193  18.566  -4.860  1.00  0.00     0.031 C 
ATOM     70  C   UNL     1      -4.013  18.702  -3.033  1.00  0.00     0.037 A 
BRANCH  57  71
ATOM     71  C   UNL     1       1.176  17.832  -1.699  1.00  0.00     0.057 A 
ATOM     72  C   UNL     1       1.475  19.129  -1.255  1.00  0.00     0.134 A 
ATOM     73  C   UNL     1       1.971  17.364  -2.768  1.00  0.00     0.134 A 
ATOM     74  F   UNL     1       0.775  19.693  -0.258  1.00  0.00    -0.206 F 
ATOM     75  C   UNL     1       2.440  19.927  -1.878  1.00  0.00     0.040 A 
ATOM     76  C   UNL     1       2.972  18.133  -3.362  1.00  0.00     0.040 A 
ATOM     77  F   UNL     1       1.761  16.188  -3.370  1.00  0.00    -0.206 F 
ATOM     78  C   UNL     1       3.187  19.432  -2.941  1.00  0.00     0.006 A 
ENDBRANCH  57  71
BRANCH  58  79
ATOM     79  C   UNL     1      -3.873  16.588  -8.538  1.00  0.00     0.057 A 
ATOM     80  C   UNL     1      -4.070  17.763  -9.280  1.00  0.00     0.134 A 
ATOM     81  C   UNL     1      -3.284  15.515  -9.228  1.00  0.00     0.134 A 
ATOM     82  F   UNL     1      -4.586  18.856  -8.700  1.00  0.00    -0.206 F 
ATOM     83  C   UNL     1      -3.675  17.875 -10.620  1.00  0.00     0.040 A 
ATOM     84  C   UNL     1      -2.888  15.612 -10.567  1.00  0.00     0.040 A 
ATOM     85  F   UNL     1      -2.984  14.369  -8.601  1.00  0.00    -0.206 F 
ATOM     86  C   UNL     1      -3.069  16.800 -11.264  1.00  0.00     0.006 A 
ENDBRANCH  58  79
BRANCH  70  87
ATOM     87  C   UNL     1      -5.504  18.638  -2.831  1.00  0.00     0.057 A 
ATOM     88  C   UNL     1      -6.307  17.543  -3.188  1.00  0.00     0.134 A 
ATOM     89  C   UNL     1      -6.128  19.674  -2.128  1.00  0.00     0.134 A 
ATOM     90  F   UNL     1      -5.784  16.460  -3.778  1.00  0.00    -0.206 F 
ATOM     91  C   UNL     1      -7.676  17.506  -2.896  1.00  0.00     0.040 A 
ATOM     92  C   UNL     1      -7.485  19.634  -1.801  1.00  0.00     0.040 A 
ATOM     93  F   UNL     1      -5.414  20.730  -1.708  1.00  0.00    -0.206 F 
ATOM     94  C   UNL     1      -8.267  18.552  -2.195  1.00  0.00     0.006 A 
ENDBRANCH  70  87
ENDBRANCH  44  45
ENDBRANCH  37  39
ENDBRANCH  36  37
ENDBRANCH  35  36
ENDBRANCH  34  35
ENDBRANCH  33  34
ENDBRANCH  32  33
ENDBRANCH  31  32
ENDBRANCH  30  31
ENDBRANCH  29  30
ENDBRANCH   1  29
TORSDOF 26
