REMARK SMILES O=C(OCCOCCOCCOCCOC(=O)c1ccc(-c2c3nc(c(-c4c(F)cccc4F)c4ccc([nH]4)c(-c4c(F)cccc4F)c4nc(c(-c5c(F)cccc5F)c5ccc2[nH]5)C=C4)C=C3)cc1)C1=Cc2cc(Cl)cc(-c3ccccc3)c2O[C@@H]1C(F)(F)F
REMARK SMILES IDX 10 1 9 2 8 3 7 4 6 5 5 6 4 7 3 8 2 9 1 10 72 11 73 12 88 13
REMARK SMILES IDX 74 14 87 15 75 16 86 17 76 18 79 19 77 20 78 21 89 22 90 23
REMARK SMILES IDX 91 24 92 25 80 26 81 27 85 28 82 29 84 30 83 31 11 32 12 33
REMARK SMILES IDX 13 34 14 35 15 36 16 37 17 38 18 39 19 40 71 41 20 42 70 43
REMARK SMILES IDX 21 44 22 45 23 46 64 47 24 48 69 49 63 50 65 51 25 52 68 53
REMARK SMILES IDX 62 54 61 55 26 57 52 58 35 59 51 60 36 61 39 62 50 63 66 64
REMARK SMILES IDX 37 65 38 66 49 68 67 69 40 70 27 71 28 72 33 73 29 74 30 75
REMARK SMILES IDX 32 76 34 77 31 78 53 79 54 80 59 81 55 82 56 83 58 84 60 85
REMARK SMILES IDX 57 86 41 87 42 88 47 89 43 90 44 91 46 92 48 93 45 94
REMARK H PARENT 65 56 39 67
REMARK Flexibility Score: inf
ROOT
ATOM      1  C   UNL     1       2.614  -4.414  -1.077  1.00  0.00     0.188 C 
ENDROOT
BRANCH   1   2
ATOM      2  O   UNL     1       1.422  -4.056  -1.772  1.00  0.00    -0.377 OA
BRANCH   2   3
ATOM      3  C   UNL     1       0.609  -3.067  -1.143  1.00  0.00     0.188 C 
BRANCH   3   4
ATOM      4  C   UNL     1       1.113  -1.651  -1.385  1.00  0.00     0.188 C 
BRANCH   4   5
ATOM      5  O   UNL     1       2.402  -1.443  -0.853  1.00  0.00    -0.376 OA
BRANCH   5   6
ATOM      6  C   UNL     1       2.577  -1.497   0.550  1.00  0.00     0.202 C 
BRANCH   6   7
ATOM      7  C   UNL     1       2.259  -0.229   1.353  1.00  0.00     0.261 C 
BRANCH   7   8
ATOM      8  O   UNL     1       1.930   0.926   0.550  1.00  0.00    -0.460 OA
BRANCH   8   9
ATOM      9  C   UNL     1       2.697   2.048   0.702  1.00  0.00     0.338 C 
ATOM     10  O   UNL     1       2.336   3.007   1.365  1.00  0.00    -0.246 OA
BRANCH   9  11
ATOM     11  C   UNL     1       3.958   2.016  -0.099  1.00  0.00     0.087 C 
ATOM     12  C   UNL     1       5.090   2.505   0.432  1.00  0.00     0.027 C 
ATOM     13  C   UNL     1       4.100   0.880  -1.051  1.00  0.00     0.316 C 
ATOM     14  C   UNL     1       6.156   1.525   0.673  1.00  0.00     0.019 A 
ATOM     15  O   UNL     1       4.934  -0.176  -0.498  1.00  0.00    -0.475 OA
ATOM     16  C   UNL     1       7.358   1.863   1.287  1.00  0.00     0.032 A 
ATOM     17  C   UNL     1       5.838   0.172   0.486  1.00  0.00     0.135 A 
ATOM     18  C   UNL     1       8.188   0.848   1.762  1.00  0.00     0.042 A 
ATOM     19  C   UNL     1       6.489  -0.811   1.269  1.00  0.00     0.026 A 
ATOM     20  Cl  UNL     1       9.744   1.226   2.385  1.00  0.00    -0.084 Cl
ATOM     21  C   UNL     1       7.729  -0.466   1.824  1.00  0.00     0.033 A 
BRANCH  13  22
ATOM     22  C   UNL     1       4.352   1.384  -2.483  1.00  0.00     0.430 C 
ATOM     23  F   UNL     1       4.112   0.422  -3.403  1.00  0.00    -0.167 F 
ATOM     24  F   UNL     1       3.484   2.399  -2.772  1.00  0.00    -0.167 F 
ATOM     25  F   UNL     1       5.595   1.864  -2.684  1.00  0.00    -0.167 F 
ENDBRANCH  13  22
BRANCH  19  26
ATOM     26  C   UNL     1       5.827  -2.030   1.800  1.00  0.00    -0.015 A 
ATOM     27  C   UNL     1       5.270  -2.017   3.105  1.00  0.00     0.009 A 
ATOM     28  C   UNL     1       5.725  -3.217   1.083  1.00  0.00     0.009 A 
ATOM     29  C   UNL     1       4.591  -3.122   3.640  1.00  0.00     0.001 A 
ATOM     30  C   UNL     1       5.002  -4.304   1.601  1.00  0.00     0.001 A 
ATOM     31  C   UNL     1       4.429  -4.262   2.870  1.00  0.00     0.000 A 
ENDBRANCH  19  26
ENDBRANCH   9  11
ENDBRANCH   8   9
ENDBRANCH   7   8
ENDBRANCH   6   7
ENDBRANCH   5   6
ENDBRANCH   4   5
ENDBRANCH   3   4
ENDBRANCH   2   3
ENDBRANCH   1   2
BRANCH   1  32
ATOM     32  C   UNL     1       3.933  -3.884  -1.687  1.00  0.00     0.188 C 
BRANCH  32  33
ATOM     33  O   UNL     1       4.262  -4.019  -3.062  1.00  0.00    -0.376 OA
BRANCH  33  34
ATOM     34  C   UNL     1       3.258  -4.458  -3.949  1.00  0.00     0.202 C 
BRANCH  34  35
ATOM     35  C   UNL     1       2.969  -5.968  -3.883  1.00  0.00     0.261 C 
BRANCH  35  36
ATOM     36  O   UNL     1       3.523  -6.653  -2.738  1.00  0.00    -0.460 OA
BRANCH  36  37
ATOM     37  C   UNL     1       4.872  -6.840  -2.725  1.00  0.00     0.338 C 
ATOM     38  O   UNL     1       5.626  -6.686  -3.653  1.00  0.00    -0.246 OA
BRANCH  37  39
ATOM     39  C   UNL     1       5.319  -7.154  -1.324  1.00  0.00     0.060 A 
ATOM     40  C   UNL     1       6.602  -6.743  -0.930  1.00  0.00     0.016 A 
ATOM     41  C   UNL     1       4.513  -7.825  -0.396  1.00  0.00     0.016 A 
ATOM     42  C   UNL     1       7.101  -7.053   0.349  1.00  0.00     0.010 A 
ATOM     43  C   UNL     1       5.009  -8.124   0.889  1.00  0.00     0.010 A 
ATOM     44  C   UNL     1       6.327  -7.782   1.261  1.00  0.00    -0.014 A 
BRANCH  44  45
ATOM     45  C   UNL     1       6.954  -8.386   2.481  1.00  0.00     0.031 A 
ATOM     46  C   UNL     1       7.315  -9.851   2.432  1.00  0.00     0.074 A 
ATOM     47  C   UNL     1       7.242  -7.700   3.607  1.00  0.00     0.049 A 
ATOM     48  N   UNL     1       7.924 -10.588   3.327  1.00  0.00    -0.248 NA
ATOM     49  C   UNL     1       6.958 -10.573   1.201  1.00  0.00     0.031 C 
ATOM     50  C   UNL     1       7.032  -6.276   3.813  1.00  0.00     0.029 A 
ATOM     51  N   UNL     1       7.761  -8.124   4.813  1.00  0.00    -0.354 N 
ATOM     52  C   UNL     1       8.081 -11.835   2.739  1.00  0.00     0.074 A 
ATOM     53  C   UNL     1       7.401 -11.791   1.463  1.00  0.00     0.031 C 
ATOM     54  C   UNL     1       7.318  -5.954   5.087  1.00  0.00     0.029 A 
ATOM     55  C   UNL     1       7.795  -7.146   5.782  1.00  0.00     0.049 A 
ATOM     56  H   UNL     1       8.079  -9.043   4.967  1.00  0.00     0.167 HD
ATOM     57  C   UNL     1       8.780 -12.906   3.182  1.00  0.00     0.037 A 
ATOM     58  C   UNL     1       8.183  -7.191   7.073  1.00  0.00     0.037 A 
ATOM     59  C   UNL     1       9.429 -12.987   4.462  1.00  0.00     0.049 A 
ATOM     60  C   UNL     1       8.827  -8.444   7.610  1.00  0.00     0.074 A 
ATOM     61  C   UNL     1      10.161 -14.035   4.992  1.00  0.00     0.029 A 
ATOM     62  N   UNL     1       9.408 -11.989   5.422  1.00  0.00    -0.354 N 
ATOM     63  N   UNL     1       9.056  -9.582   7.002  1.00  0.00    -0.248 NA
ATOM     64  C   UNL     1       9.323  -8.399   8.995  1.00  0.00     0.031 C 
ATOM     65  C   UNL     1      10.533 -13.694   6.297  1.00  0.00     0.029 A 
ATOM     66  C   UNL     1      10.086 -12.408   6.556  1.00  0.00     0.049 A 
ATOM     67  H   UNL     1       8.975 -11.111   5.316  1.00  0.00     0.167 HD
ATOM     68  C   UNL     1       9.775 -10.360   7.904  1.00  0.00     0.074 A 
ATOM     69  C   UNL     1       9.946  -9.563   9.099  1.00  0.00     0.031 C 
ATOM     70  C   UNL     1      10.263 -11.615   7.745  1.00  0.00     0.037 A 
BRANCH  57  71
ATOM     71  C   UNL     1       8.885 -14.072   2.244  1.00  0.00     0.057 A 
ATOM     72  C   UNL     1       9.637 -13.990   1.063  1.00  0.00     0.134 A 
ATOM     73  C   UNL     1       8.231 -15.278   2.513  1.00  0.00     0.134 A 
ATOM     74  F   UNL     1      10.273 -12.853   0.739  1.00  0.00    -0.206 F 
ATOM     75  C   UNL     1       9.707 -15.056   0.166  1.00  0.00     0.040 A 
ATOM     76  C   UNL     1       8.318 -16.362   1.637  1.00  0.00     0.040 A 
ATOM     77  F   UNL     1       7.496 -15.423   3.625  1.00  0.00    -0.206 F 
ATOM     78  C   UNL     1       9.050 -16.249   0.456  1.00  0.00     0.006 A 
ENDBRANCH  57  71
BRANCH  58  79
ATOM     79  C   UNL     1       8.019  -6.006   7.961  1.00  0.00     0.057 A 
ATOM     80  C   UNL     1       9.121  -5.288   8.443  1.00  0.00     0.134 A 
ATOM     81  C   UNL     1       6.753  -5.617   8.418  1.00  0.00     0.134 A 
ATOM     82  F   UNL     1      10.363  -5.627   8.067  1.00  0.00    -0.206 F 
ATOM     83  C   UNL     1       8.976  -4.257   9.375  1.00  0.00     0.040 A 
ATOM     84  C   UNL     1       6.592  -4.571   9.331  1.00  0.00     0.040 A 
ATOM     85  F   UNL     1       5.654  -6.260   7.998  1.00  0.00    -0.206 F 
ATOM     86  C   UNL     1       7.707  -3.897   9.823  1.00  0.00     0.006 A 
ENDBRANCH  58  79
BRANCH  70  87
ATOM     87  C   UNL     1      11.073 -12.193   8.873  1.00  0.00     0.057 A 
ATOM     88  C   UNL     1      10.504 -12.524  10.110  1.00  0.00     0.134 A 
ATOM     89  C   UNL     1      12.444 -12.439   8.711  1.00  0.00     0.134 A 
ATOM     90  F   UNL     1       9.200 -12.308  10.339  1.00  0.00    -0.206 F 
ATOM     91  C   UNL     1      11.274 -13.041  11.155  1.00  0.00     0.040 A 
ATOM     92  C   UNL     1      13.216 -12.988   9.736  1.00  0.00     0.040 A 
ATOM     93  F   UNL     1      13.055 -12.158   7.551  1.00  0.00    -0.206 F 
ATOM     94  C   UNL     1      12.633 -13.280  10.967  1.00  0.00     0.006 A 
ENDBRANCH  70  87
ENDBRANCH  44  45
ENDBRANCH  37  39
ENDBRANCH  36  37
ENDBRANCH  35  36
ENDBRANCH  34  35
ENDBRANCH  33  34
ENDBRANCH  32  33
ENDBRANCH   1  32
TORSDOF 22
