REMARK SMILES C[C@@H](C(=O)OCCOCCOCCOCCOC(=O)c1ccc(-c2c3nc(c(-c4c(F)cccc4F)c4ccc([nH]4)c(-c4c(F)cccc4F)c4nc(c(-c5c(F)cccc5F)c5ccc2[nH]5)C=C4)C=C3)cc1)c1ccccc1-c1ccn(C(F)F)c(=O)c1
REMARK SMILES IDX 10 1 9 2 8 3 7 4 6 5 5 6 3 7 4 8 2 9 1 10 74 11 75 12 79 13
REMARK SMILES IDX 76 14 78 15 77 16 80 17 81 18 89 19 82 20 87 21 83 22 88 23
REMARK SMILES IDX 84 24 85 25 86 26 11 27 12 28 13 29 14 30 15 31 16 32 17 33
REMARK SMILES IDX 18 34 19 35 20 36 21 37 73 38 22 39 72 40 23 41 24 42 25 43
REMARK SMILES IDX 66 44 26 45 71 46 65 47 67 48 27 49 70 50 64 51 63 52 28 54
REMARK SMILES IDX 54 55 37 56 53 57 38 58 41 59 52 60 68 61 39 62 40 63 51 65
REMARK SMILES IDX 69 66 42 67 29 68 30 69 35 70 31 71 32 72 34 73 36 74 33 75
REMARK SMILES IDX 55 76 56 77 61 78 57 79 58 80 60 81 62 82 59 83 43 84 44 85
REMARK SMILES IDX 49 86 45 87 46 88 48 89 50 90 47 91
REMARK H PARENT 67 53 41 64
REMARK Flexibility Score: inf
ROOT
ATOM      1  C   UNL     1       0.750  -0.303   2.697  1.00  0.00     0.188 C 
ENDROOT
BRANCH   1   2
ATOM      2  C   UNL     1       0.299  -1.708   3.134  1.00  0.00     0.188 C 
BRANCH   2   3
ATOM      3  O   UNL     1       1.296  -2.463   3.803  1.00  0.00    -0.376 OA
BRANCH   3   4
ATOM      4  C   UNL     1       1.990  -3.460   3.073  1.00  0.00     0.202 C 
BRANCH   4   5
ATOM      5  C   UNL     1       2.870  -3.017   1.879  1.00  0.00     0.261 C 
BRANCH   5   6
ATOM      6  O   UNL     1       2.236  -2.143   0.919  1.00  0.00    -0.463 OA
BRANCH   6   7
ATOM      7  C   UNL     1       1.231  -2.748   0.248  1.00  0.00     0.313 C 
ATOM      8  O   UNL     1       0.981  -3.919   0.482  1.00  0.00    -0.252 OA
BRANCH   7   9
ATOM      9  C   UNL     1       0.476  -1.904  -0.786  1.00  0.00     0.127 C 
ATOM     10  C   UNL     1       1.187  -0.562  -1.062  1.00  0.00     0.025 C 
BRANCH   9  11
ATOM     11  C   UNL     1      -1.060  -1.827  -0.543  1.00  0.00    -0.026 A 
ATOM     12  C   UNL     1      -1.683  -0.572  -0.357  1.00  0.00     0.005 A 
ATOM     13  C   UNL     1      -1.911  -2.978  -0.506  1.00  0.00    -0.014 A 
ATOM     14  C   UNL     1      -3.052  -0.454  -0.085  1.00  0.00     0.000 A 
ATOM     15  C   UNL     1      -3.280  -2.840  -0.205  1.00  0.00     0.009 A 
ATOM     16  C   UNL     1      -3.846  -1.588   0.011  1.00  0.00     0.001 A 
BRANCH  13  17
ATOM     17  C   UNL     1      -1.454  -4.367  -0.753  1.00  0.00    -0.011 A 
ATOM     18  C   UNL     1      -1.206  -5.313   0.326  1.00  0.00     0.027 A 
ATOM     19  C   UNL     1      -1.148  -4.724  -2.012  1.00  0.00     0.080 A 
ATOM     20  C   UNL     1      -0.343  -6.320   0.128  1.00  0.00     0.095 A 
ATOM     21  C   UNL     1      -0.352  -5.959  -2.263  1.00  0.00     0.255 A 
ATOM     22  N   UNL     1       0.172  -6.564  -1.133  1.00  0.00    -0.258 N 
ATOM     23  O   UNL     1      -0.138  -6.296  -3.423  1.00  0.00    -0.269 OA
BRANCH  22  24
ATOM     24  C   UNL     1       1.261  -7.488  -1.302  1.00  0.00     0.451 C 
ATOM     25  F   UNL     1       0.811  -8.713  -1.660  1.00  0.00    -0.185 F 
ATOM     26  F   UNL     1       2.139  -7.071  -2.251  1.00  0.00    -0.185 F 
ENDBRANCH  22  24
ENDBRANCH  13  17
ENDBRANCH   9  11
ENDBRANCH   7   9
ENDBRANCH   6   7
ENDBRANCH   5   6
ENDBRANCH   4   5
ENDBRANCH   3   4
ENDBRANCH   2   3
ENDBRANCH   1   2
BRANCH   1  27
ATOM     27  O   UNL     1       2.123   0.047   2.796  1.00  0.00    -0.377 OA
BRANCH  27  28
ATOM     28  C   UNL     1       2.836  -0.246   3.994  1.00  0.00     0.188 C 
BRANCH  28  29
ATOM     29  C   UNL     1       2.108  -0.322   5.354  1.00  0.00     0.188 C 
BRANCH  29  30
ATOM     30  O   UNL     1       0.765   0.128   5.336  1.00  0.00    -0.376 OA
BRANCH  30  31
ATOM     31  C   UNL     1       0.515   1.439   5.814  1.00  0.00     0.202 C 
BRANCH  31  32
ATOM     32  C   UNL     1       1.187   2.602   5.067  1.00  0.00     0.261 C 
BRANCH  32  33
ATOM     33  O   UNL     1       2.620   2.553   4.966  1.00  0.00    -0.460 OA
BRANCH  33  34
ATOM     34  C   UNL     1       3.336   2.550   6.109  1.00  0.00     0.338 C 
ATOM     35  O   UNL     1       2.908   2.638   7.249  1.00  0.00    -0.246 OA
BRANCH  34  36
ATOM     36  C   UNL     1       4.729   2.198   5.763  1.00  0.00     0.060 A 
ATOM     37  C   UNL     1       5.300   1.045   6.322  1.00  0.00     0.016 A 
ATOM     38  C   UNL     1       5.454   2.979   4.860  1.00  0.00     0.016 A 
ATOM     39  C   UNL     1       6.612   0.692   6.010  1.00  0.00     0.010 A 
ATOM     40  C   UNL     1       6.779   2.644   4.574  1.00  0.00     0.010 A 
ATOM     41  C   UNL     1       7.374   1.522   5.178  1.00  0.00    -0.014 A 
BRANCH  41  42
ATOM     42  C   UNL     1       8.846   1.363   5.150  1.00  0.00     0.031 A 
ATOM     43  C   UNL     1       9.659   2.225   6.077  1.00  0.00     0.074 A 
ATOM     44  C   UNL     1       9.449   0.465   4.353  1.00  0.00     0.049 A 
ATOM     45  N   UNL     1      10.956   2.322   6.204  1.00  0.00    -0.248 NA
ATOM     46  C   UNL     1       8.897   3.100   6.985  1.00  0.00     0.031 C 
ATOM     47  C   UNL     1       8.768  -0.461   3.452  1.00  0.00     0.029 A 
ATOM     48  N   UNL     1      10.783   0.197   4.171  1.00  0.00    -0.354 N 
ATOM     49  C   UNL     1      11.165   3.269   7.199  1.00  0.00     0.074 A 
ATOM     50  C   UNL     1       9.865   3.744   7.617  1.00  0.00     0.031 C 
ATOM     51  C   UNL     1       9.692  -1.185   2.796  1.00  0.00     0.029 A 
ATOM     52  C   UNL     1      11.026  -0.748   3.206  1.00  0.00     0.049 A 
ATOM     53  H   UNL     1      11.497   0.640   4.684  1.00  0.00     0.167 HD
ATOM     54  C   UNL     1      12.335   3.700   7.723  1.00  0.00     0.037 A 
ATOM     55  C   UNL     1      12.195  -1.184   2.695  1.00  0.00     0.037 A 
ATOM     56  C   UNL     1      13.626   3.234   7.295  1.00  0.00     0.049 A 
ATOM     57  C   UNL     1      13.489  -0.625   3.230  1.00  0.00     0.074 A 
ATOM     58  C   UNL     1      14.875   3.605   7.761  1.00  0.00     0.029 A 
ATOM     59  N   UNL     1      13.833   2.301   6.290  1.00  0.00    -0.354 N 
ATOM     60  N   UNL     1      13.680   0.260   4.180  1.00  0.00    -0.248 NA
ATOM     61  C   UNL     1      14.730  -1.127   2.624  1.00  0.00     0.031 C 
ATOM     62  C   UNL     1      15.839   2.939   6.998  1.00  0.00     0.029 A 
ATOM     63  C   UNL     1      15.191   2.103   6.102  1.00  0.00     0.049 A 
ATOM     64  H   UNL     1      13.120   1.847   5.785  1.00  0.00     0.167 HD
ATOM     65  C   UNL     1      15.058   0.396   4.307  1.00  0.00     0.074 A 
ATOM     66  C   UNL     1      15.655  -0.507   3.345  1.00  0.00     0.031 C 
ATOM     67  C   UNL     1      15.767   1.193   5.145  1.00  0.00     0.037 A 
BRANCH  54  68
ATOM     68  C   UNL     1      12.266   4.753   8.791  1.00  0.00     0.057 A 
ATOM     69  C   UNL     1      11.765   4.481  10.072  1.00  0.00     0.134 A 
ATOM     70  C   UNL     1      12.717   6.054   8.538  1.00  0.00     0.134 A 
ATOM     71  F   UNL     1      11.298   3.260  10.375  1.00  0.00    -0.206 F 
ATOM     72  C   UNL     1      11.691   5.472  11.053  1.00  0.00     0.040 A 
ATOM     73  C   UNL     1      12.677   7.046   9.520  1.00  0.00     0.040 A 
ATOM     74  F   UNL     1      13.207   6.383   7.334  1.00  0.00    -0.206 F 
ATOM     75  C   UNL     1      12.155   6.757  10.779  1.00  0.00     0.006 A 
ENDBRANCH  54  68
BRANCH  55  76
ATOM     76  C   UNL     1      12.201  -2.187   1.597  1.00  0.00     0.057 A 
ATOM     77  C   UNL     1      12.703  -3.479   1.792  1.00  0.00     0.134 A 
ATOM     78  C   UNL     1      11.730  -1.867   0.318  1.00  0.00     0.134 A 
ATOM     79  F   UNL     1      13.193  -3.839   2.988  1.00  0.00    -0.206 F 
ATOM     80  C   UNL     1      12.755  -4.409   0.752  1.00  0.00     0.040 A 
ATOM     81  C   UNL     1      11.748  -2.796  -0.724  1.00  0.00     0.040 A 
ATOM     82  F   UNL     1      11.237  -0.646   0.063  1.00  0.00    -0.206 F 
ATOM     83  C   UNL     1      12.270  -4.070  -0.510  1.00  0.00     0.006 A 
ENDBRANCH  55  76
BRANCH  67  84
ATOM     84  C   UNL     1      17.266   1.094   5.093  1.00  0.00     0.057 A 
ATOM     85  C   UNL     1      18.008   1.580   4.010  1.00  0.00     0.134 A 
ATOM     86  C   UNL     1      17.978   0.546   6.169  1.00  0.00     0.134 A 
ATOM     87  F   UNL     1      17.389   2.108   2.943  1.00  0.00    -0.206 F 
ATOM     88  C   UNL     1      19.402   1.500   3.987  1.00  0.00     0.040 A 
ATOM     89  C   UNL     1      19.372   0.491   6.172  1.00  0.00     0.040 A 
ATOM     90  F   UNL     1      17.331   0.074   7.245  1.00  0.00    -0.206 F 
ATOM     91  C   UNL     1      20.088   0.962   5.074  1.00  0.00     0.006 A 
ENDBRANCH  67  84
ENDBRANCH  41  42
ENDBRANCH  34  36
ENDBRANCH  33  34
ENDBRANCH  32  33
ENDBRANCH  31  32
ENDBRANCH  30  31
ENDBRANCH  29  30
ENDBRANCH  28  29
ENDBRANCH  27  28
ENDBRANCH   1  27
TORSDOF 23
