REMARK SMILES Cc1ccnc(C(=O)c2[nH]c3ccc(OC(F)(F)F)cc3c2CC(=O)OCCOCCOCCOCCOC(=O)c2ccc(-c3c4nc(c(-c5c(F)cccc5F)c5ccc([nH]5)c(-c5c(F)cccc5F)c5nc(c(-c6c(F)cccc6F)c6ccc3[nH]6)C=C5)C=C4)cc2)c1
REMARK SMILES IDX 31 1 30 2 29 3 28 4 27 5 26 6 24 7 25 8 23 9 22 10 9 11
REMARK SMILES IDX 10 12 11 13 21 15 12 16 20 17 13 18 14 19 7 20 8 21 6 22
REMARK SMILES IDX 1 23 2 24 3 25 95 26 4 27 5 28 15 29 16 30 17 31 18 32 19 33
REMARK SMILES IDX 32 34 33 35 34 36 35 37 36 38 37 39 38 40 39 41 40 42 41 43
REMARK SMILES IDX 42 44 94 45 43 46 93 47 44 48 45 49 46 50 87 51 47 52 92 53
REMARK SMILES IDX 86 54 88 55 48 56 91 57 85 58 84 59 49 61 75 62 58 63 74 64
REMARK SMILES IDX 59 65 62 66 73 67 89 68 60 69 61 70 72 72 90 73 63 74 50 75
REMARK SMILES IDX 51 76 56 77 52 78 53 79 55 80 57 81 54 82 76 83 77 84 82 85
REMARK SMILES IDX 78 86 79 87 81 88 83 89 80 90 64 91 65 92 70 93 66 94 67 95
REMARK SMILES IDX 69 96 71 97 68 98
REMARK H PARENT 10 14 88 60 62 71
REMARK Flexibility Score: inf
ROOT
ATOM      1  C   UNL     1       4.163  -2.887   0.347  1.00  0.00     0.188 C 
ENDROOT
BRANCH   1   2
ATOM      2  C   UNL     1       5.389  -2.923   1.258  1.00  0.00     0.188 C 
BRANCH   2   3
ATOM      3  O   UNL     1       6.527  -3.618   0.789  1.00  0.00    -0.376 OA
BRANCH   3   4
ATOM      4  C   UNL     1       6.414  -5.031   0.637  1.00  0.00     0.202 C 
BRANCH   4   5
ATOM      5  C   UNL     1       5.524  -5.853   1.593  1.00  0.00     0.261 C 
BRANCH   5   6
ATOM      6  O   UNL     1       4.101  -5.563   1.526  1.00  0.00    -0.463 OA
BRANCH   6   7
ATOM      7  C   UNL     1       3.451  -5.522   2.716  1.00  0.00     0.310 C 
ATOM      8  O   UNL     1       4.011  -5.774   3.785  1.00  0.00    -0.252 OA
BRANCH   7   9
ATOM      9  C   UNL     1       1.990  -5.105   2.724  1.00  0.00     0.161 C 
BRANCH   9  10
ATOM     10  C   UNL     1       1.172  -4.956   1.459  1.00  0.00     0.000 A 
ATOM     11  C   UNL     1       0.763  -3.768   0.826  1.00  0.00     0.093 A 
ATOM     12  N   UNL     1       0.099  -4.156  -0.322  1.00  0.00    -0.352 N 
ATOM     13  C   UNL     1      -0.327  -5.457  -0.197  1.00  0.00     0.046 A 
ATOM     14  H   UNL     1      -0.048  -3.585  -1.111  1.00  0.00     0.167 HD
ATOM     15  C   UNL     1       0.346  -5.991   0.896  1.00  0.00     0.008 A 
ATOM     16  C   UNL     1      -1.266  -6.184  -0.939  1.00  0.00     0.030 A 
ATOM     17  C   UNL     1       0.034  -7.310   1.289  1.00  0.00     0.057 A 
ATOM     18  C   UNL     1      -1.598  -7.471  -0.489  1.00  0.00     0.049 A 
ATOM     19  C   UNL     1      -0.979  -8.023   0.631  1.00  0.00     0.130 A 
BRANCH  11  20
ATOM     20  C   UNL     1       0.970  -2.389   1.273  1.00  0.00     0.227 C 
ATOM     21  O   UNL     1       1.593  -2.115   2.301  1.00  0.00    -0.285 OA
BRANCH  20  22
ATOM     22  C   UNL     1       0.380  -1.223   0.552  1.00  0.00     0.113 A 
ATOM     23  C   UNL     1      -3.005   0.300  -0.182  1.00  0.00     0.044 C 
ATOM     24  C   UNL     1      -1.523   0.095  -0.065  1.00  0.00    -0.047 A 
ATOM     25  C   UNL     1      -0.656   1.175  -0.257  1.00  0.00     0.023 A 
ATOM     26  C   UNL     1      -0.993  -1.131   0.353  1.00  0.00     0.036 A 
ATOM     27  C   UNL     1       0.701   0.983  -0.061  1.00  0.00     0.112 A 
ATOM     28  N   UNL     1       1.237  -0.193   0.323  1.00  0.00    -0.253 NA
ENDBRANCH  20  22
ENDBRANCH  11  20
BRANCH  19  29
ATOM     29  O   UNL     1      -1.270  -9.229   1.206  1.00  0.00    -0.406 OA
BRANCH  29  30
ATOM     30  C   UNL     1      -2.458  -9.887   0.802  1.00  0.00     0.573 C 
ATOM     31  F   UNL     1      -3.535  -9.076   0.891  1.00  0.00    -0.132 F 
ATOM     32  F   UNL     1      -2.344 -10.347  -0.462  1.00  0.00    -0.132 F 
ATOM     33  F   UNL     1      -2.665 -10.945   1.618  1.00  0.00    -0.132 F 
ENDBRANCH  29  30
ENDBRANCH  19  29
ENDBRANCH   9  10
ENDBRANCH   7   9
ENDBRANCH   6   7
ENDBRANCH   5   6
ENDBRANCH   4   5
ENDBRANCH   3   4
ENDBRANCH   2   3
ENDBRANCH   1   2
BRANCH   1  34
ATOM     34  O   UNL     1       3.956  -3.955  -0.563  1.00  0.00    -0.377 OA
BRANCH  34  35
ATOM     35  C   UNL     1       4.447  -3.855  -1.892  1.00  0.00     0.188 C 
BRANCH  35  36
ATOM     36  C   UNL     1       5.117  -2.550  -2.321  1.00  0.00     0.188 C 
BRANCH  36  37
ATOM     37  O   UNL     1       4.328  -1.360  -2.337  1.00  0.00    -0.376 OA
BRANCH  37  38
ATOM     38  C   UNL     1       2.917  -1.462  -2.498  1.00  0.00     0.202 C 
BRANCH  38  39
ATOM     39  C   UNL     1       2.448  -1.508  -3.949  1.00  0.00     0.261 C 
BRANCH  39  40
ATOM     40  O   UNL     1       2.734  -2.783  -4.542  1.00  0.00    -0.460 OA
BRANCH  40  41
ATOM     41  C   UNL     1       3.824  -2.819  -5.341  1.00  0.00     0.338 C 
ATOM     42  O   UNL     1       4.532  -1.887  -5.682  1.00  0.00    -0.246 OA
BRANCH  41  43
ATOM     43  C   UNL     1       4.150  -4.228  -5.619  1.00  0.00     0.060 A 
ATOM     44  C   UNL     1       5.472  -4.651  -5.431  1.00  0.00     0.016 A 
ATOM     45  C   UNL     1       3.172  -5.114  -6.074  1.00  0.00     0.016 A 
ATOM     46  C   UNL     1       5.826  -5.967  -5.713  1.00  0.00     0.010 A 
ATOM     47  C   UNL     1       3.532  -6.426  -6.378  1.00  0.00     0.010 A 
ATOM     48  C   UNL     1       4.864  -6.848  -6.218  1.00  0.00    -0.014 A 
BRANCH  48  49
ATOM     49  C   UNL     1       5.271  -8.171  -6.731  1.00  0.00     0.031 A 
ATOM     50  C   UNL     1       5.506  -8.323  -8.204  1.00  0.00     0.074 A 
ATOM     51  C   UNL     1       5.405  -9.213  -5.894  1.00  0.00     0.049 A 
ATOM     52  N   UNL     1       5.748  -9.404  -8.898  1.00  0.00    -0.248 NA
ATOM     53  C   UNL     1       5.454  -7.089  -9.006  1.00  0.00     0.031 C 
ATOM     54  C   UNL     1       5.250  -9.157  -4.442  1.00  0.00     0.029 A 
ATOM     55  N   UNL     1       5.684 -10.530  -6.155  1.00  0.00    -0.354 N 
ATOM     56  C   UNL     1       5.864  -8.983 -10.216  1.00  0.00     0.074 A 
ATOM     57  C   UNL     1       5.649  -7.554 -10.231  1.00  0.00     0.031 C 
ATOM     58  C   UNL     1       5.415 -10.394  -3.940  1.00  0.00     0.029 A 
ATOM     59  C   UNL     1       5.641 -11.328  -5.040  1.00  0.00     0.049 A 
ATOM     60  H   UNL     1       5.895 -10.869  -7.055  1.00  0.00     0.167 HD
ATOM     61  C   UNL     1       6.126  -9.731 -11.313  1.00  0.00     0.037 A 
ATOM     62  C   UNL     1       5.736 -12.668  -4.933  1.00  0.00     0.037 A 
ATOM     63  C   UNL     1       6.335 -11.154 -11.280  1.00  0.00     0.049 A 
ATOM     64  C   UNL     1       5.931 -13.485  -6.184  1.00  0.00     0.074 A 
ATOM     65  C   UNL     1       6.636 -12.005 -12.328  1.00  0.00     0.029 A 
ATOM     66  N   UNL     1       6.249 -11.936 -10.138  1.00  0.00    -0.354 N 
ATOM     67  N   UNL     1       6.072 -13.081  -7.425  1.00  0.00    -0.248 NA
ATOM     68  C   UNL     1       5.972 -14.945  -6.021  1.00  0.00     0.031 C 
ATOM     69  C   UNL     1       6.670 -13.311 -11.830  1.00  0.00     0.029 A 
ATOM     70  C   UNL     1       6.449 -13.266 -10.462  1.00  0.00     0.049 A 
ATOM     71  H   UNL     1       6.072 -11.595  -9.232  1.00  0.00     0.167 HD
ATOM     72  C   UNL     1       6.244 -14.232  -8.184  1.00  0.00     0.074 A 
ATOM     73  C   UNL     1       6.209 -15.348  -7.261  1.00  0.00     0.031 C 
ATOM     74  C   UNL     1       6.413 -14.359  -9.524  1.00  0.00     0.037 A 
BRANCH  61  75
ATOM     75  C   UNL     1       6.162  -9.034 -12.641  1.00  0.00     0.057 A 
ATOM     76  C   UNL     1       7.206  -8.173 -13.002  1.00  0.00     0.134 A 
ATOM     77  C   UNL     1       5.157  -9.265 -13.589  1.00  0.00     0.134 A 
ATOM     78  F   UNL     1       8.190  -7.894 -12.134  1.00  0.00    -0.206 F 
ATOM     79  C   UNL     1       7.241  -7.556 -14.255  1.00  0.00     0.040 A 
ATOM     80  C   UNL     1       5.196  -8.675 -14.853  1.00  0.00     0.040 A 
ATOM     81  F   UNL     1       4.128 -10.078 -13.307  1.00  0.00    -0.206 F 
ATOM     82  C   UNL     1       6.239  -7.814 -15.188  1.00  0.00     0.006 A 
ENDBRANCH  61  75
BRANCH  62  83
ATOM     83  C   UNL     1       5.611 -13.329  -3.609  1.00  0.00     0.057 A 
ATOM     84  C   UNL     1       6.691 -14.010  -3.036  1.00  0.00     0.134 A 
ATOM     85  C   UNL     1       4.402 -13.330  -2.901  1.00  0.00     0.134 A 
ATOM     86  F   UNL     1       7.869 -14.066  -3.676  1.00  0.00    -0.206 F 
ATOM     87  C   UNL     1       6.569 -14.688  -1.822  1.00  0.00     0.040 A 
ATOM     88  C   UNL     1       4.274 -13.979  -1.672  1.00  0.00     0.040 A 
ATOM     89  F   UNL     1       3.327 -12.697  -3.394  1.00  0.00    -0.206 F 
ATOM     90  C   UNL     1       5.357 -14.670  -1.135  1.00  0.00     0.006 A 
ENDBRANCH  62  83
BRANCH  74  91
ATOM     91  C   UNL     1       6.597 -15.747 -10.065  1.00  0.00     0.057 A 
ATOM     92  C   UNL     1       5.541 -16.665 -10.119  1.00  0.00     0.134 A 
ATOM     93  C   UNL     1       7.835 -16.153 -10.582  1.00  0.00     0.134 A 
ATOM     94  F   UNL     1       4.334 -16.344  -9.630  1.00  0.00    -0.206 F 
ATOM     95  C   UNL     1       5.715 -17.945 -10.648  1.00  0.00     0.040 A 
ATOM     96  C   UNL     1       8.012 -17.418 -11.142  1.00  0.00     0.040 A 
ATOM     97  F   UNL     1       8.885 -15.318 -10.572  1.00  0.00    -0.206 F 
ATOM     98  C   UNL     1       6.952 -18.321 -11.169  1.00  0.00     0.006 A 
ENDBRANCH  74  91
ENDBRANCH  48  49
ENDBRANCH  41  43
ENDBRANCH  40  41
ENDBRANCH  39  40
ENDBRANCH  38  39
ENDBRANCH  37  38
ENDBRANCH  36  37
ENDBRANCH  35  36
ENDBRANCH  34  35
ENDBRANCH   1  34
TORSDOF 25
