REMARK SMILES NC(=O)CC[N@@H+]1[C@@H](C(=O)OCCOCCOCCOCCOC(=O)c2ccc(-c3c4nc(c(-c5c(F)cccc5F)c5ccc([nH]5)c(-c5c(F)cccc5F)c5nc(c(-c6c(F)cccc6F)c6ccc3[nH]6)C=C5)C=C4)cc2)CC[C@@H]2CCCC[C@H]21
REMARK SMILES IDX 15 1 14 2 13 3 12 4 11 5 10 6 8 7 9 8 7 9 6 10 86 11 79 13
REMARK SMILES IDX 81 14 85 15 80 16 82 17 84 18 83 19 5 20 4 21 2 22 1 23 3 26
REMARK SMILES IDX 16 27 17 28 18 29 19 30 20 31 21 32 22 33 23 34 24 35 25 36
REMARK SMILES IDX 26 37 78 38 27 39 77 40 28 41 29 42 30 43 71 44 31 45 76 46
REMARK SMILES IDX 70 47 72 48 32 49 75 50 69 51 68 52 33 54 59 55 42 56 58 57
REMARK SMILES IDX 43 58 46 59 57 60 73 61 44 62 45 63 56 65 74 66 47 67 34 68
REMARK SMILES IDX 35 69 40 70 36 71 37 72 39 73 41 74 38 75 60 76 61 77 66 78
REMARK SMILES IDX 62 79 63 80 65 81 67 82 64 83 48 84 49 85 54 86 50 87 51 88
REMARK SMILES IDX 53 89 55 90 52 91
REMARK H PARENT 6 12 1 24 1 25 72 53 46 64
REMARK Flexibility Score: inf
ROOT
ATOM      1  C   UNL     1       3.813  -2.590   1.384  1.00  0.00     0.188 C 
ENDROOT
BRANCH   1   2
ATOM      2  C   UNL     1       3.081  -3.664   0.566  1.00  0.00     0.188 C 
BRANCH   2   3
ATOM      3  O   UNL     1       3.931  -4.726   0.184  1.00  0.00    -0.376 OA
BRANCH   3   4
ATOM      4  C   UNL     1       4.262  -4.888  -1.185  1.00  0.00     0.202 C 
BRANCH   4   5
ATOM      5  C   UNL     1       4.950  -3.755  -1.976  1.00  0.00     0.261 C 
BRANCH   5   6
ATOM      6  O   UNL     1       4.623  -2.414  -1.588  1.00  0.00    -0.459 OA
BRANCH   6   7
ATOM      7  C   UNL     1       3.513  -1.887  -2.160  1.00  0.00     0.364 C 
ATOM      8  O   UNL     1       2.843  -2.516  -2.974  1.00  0.00    -0.245 OA
BRANCH   7   9
ATOM      9  C   UNL     1       3.078  -0.538  -1.498  1.00  0.00     0.295 C 
ATOM     10  N   UNL     1       2.333   0.300  -2.472  1.00  0.00    -0.320 N 
ATOM     11  C   UNL     1       2.161   1.731  -2.169  1.00  0.00     0.187 C 
ATOM     12  H   UNL     1       3.008   0.306  -3.236  1.00  0.00     0.349 HD
ATOM     13  C   UNL     1       4.213   0.225  -0.792  1.00  0.00     0.078 C 
ATOM     14  C   UNL     1       3.273   2.396  -1.327  1.00  0.00     0.048 C 
ATOM     15  C   UNL     1       2.095   2.549  -3.480  1.00  0.00     0.065 C 
ATOM     16  C   UNL     1       3.682   1.514  -0.167  1.00  0.00     0.016 C 
ATOM     17  C   UNL     1       2.817   3.797  -0.906  1.00  0.00     0.010 C 
ATOM     18  C   UNL     1       1.724   4.006  -3.196  1.00  0.00     0.006 C 
ATOM     19  C   UNL     1       2.627   4.664  -2.153  1.00  0.00     0.001 C 
BRANCH  10  20
ATOM     20  C   UNL     1       1.072  -0.313  -2.979  1.00  0.00     0.273 C 
BRANCH  20  21
ATOM     21  C   UNL     1       0.202  -1.198  -2.070  1.00  0.00     0.161 C 
BRANCH  21  22
ATOM     22  C   UNL     1      -0.734  -0.433  -1.166  1.00  0.00     0.223 C 
ATOM     23  N   UNL     1      -0.180   0.155  -0.070  1.00  0.00    -0.369 N 
ATOM     24  H   UNL     1      -0.746   0.666   0.553  1.00  0.00     0.159 HD
ATOM     25  H   UNL     1       0.785   0.069   0.100  1.00  0.00     0.159 HD
ATOM     26  O   UNL     1      -1.943  -0.364  -1.358  1.00  0.00    -0.275 OA
ENDBRANCH  21  22
ENDBRANCH  20  21
ENDBRANCH  10  20
ENDBRANCH   7   9
ENDBRANCH   6   7
ENDBRANCH   5   6
ENDBRANCH   4   5
ENDBRANCH   3   4
ENDBRANCH   2   3
ENDBRANCH   1   2
BRANCH   1  27
ATOM     27  O   UNL     1       5.174  -2.352   1.067  1.00  0.00    -0.377 OA
BRANCH  27  28
ATOM     28  C   UNL     1       6.160  -3.360   1.277  1.00  0.00     0.188 C 
BRANCH  28  29
ATOM     29  C   UNL     1       5.877  -4.608   2.138  1.00  0.00     0.188 C 
BRANCH  29  30
ATOM     30  O   UNL     1       4.827  -4.462   3.075  1.00  0.00    -0.376 OA
BRANCH  30  31
ATOM     31  C   UNL     1       5.181  -4.112   4.405  1.00  0.00     0.202 C 
BRANCH  31  32
ATOM     32  C   UNL     1       5.912  -2.775   4.604  1.00  0.00     0.261 C 
BRANCH  32  33
ATOM     33  O   UNL     1       7.207  -2.658   3.986  1.00  0.00    -0.460 OA
BRANCH  33  34
ATOM     34  C   UNL     1       8.138  -3.592   4.267  1.00  0.00     0.338 C 
ATOM     35  O   UNL     1       8.053  -4.505   5.073  1.00  0.00    -0.246 OA
BRANCH  34  36
ATOM     36  C   UNL     1       9.224  -3.460   3.275  1.00  0.00     0.060 A 
ATOM     37  C   UNL     1       9.516  -4.547   2.439  1.00  0.00     0.016 A 
ATOM     38  C   UNL     1       9.948  -2.271   3.169  1.00  0.00     0.016 A 
ATOM     39  C   UNL     1      10.562  -4.463   1.522  1.00  0.00     0.010 A 
ATOM     40  C   UNL     1      11.014  -2.197   2.268  1.00  0.00     0.010 A 
ATOM     41  C   UNL     1      11.348  -3.305   1.470  1.00  0.00    -0.014 A 
BRANCH  41  42
ATOM     42  C   UNL     1      12.648  -3.340   0.758  1.00  0.00     0.031 A 
ATOM     43  C   UNL     1      13.889  -3.602   1.566  1.00  0.00     0.074 A 
ATOM     44  C   UNL     1      12.729  -3.177  -0.573  1.00  0.00     0.049 A 
ATOM     45  N   UNL     1      15.141  -3.633   1.187  1.00  0.00    -0.248 NA
ATOM     46  C   UNL     1      13.688  -3.864   3.001  1.00  0.00     0.031 C 
ATOM     47  C   UNL     1      11.596  -2.972  -1.472  1.00  0.00     0.029 A 
ATOM     48  N   UNL     1      13.825  -3.152  -1.398  1.00  0.00    -0.354 N 
ATOM     49  C   UNL     1      15.874  -3.906   2.335  1.00  0.00     0.074 A 
ATOM     50  C   UNL     1      14.933  -3.999   3.429  1.00  0.00     0.031 C 
ATOM     51  C   UNL     1      12.058  -2.829  -2.727  1.00  0.00     0.029 A 
ATOM     52  C   UNL     1      13.519  -2.897  -2.712  1.00  0.00     0.049 A 
ATOM     53  H   UNL     1      14.744  -3.302  -1.078  1.00  0.00     0.167 HD
ATOM     54  C   UNL     1      17.211  -4.073   2.465  1.00  0.00     0.037 A 
ATOM     55  C   UNL     1      14.330  -2.715  -3.772  1.00  0.00     0.037 A 
ATOM     56  C   UNL     1      18.145  -3.972   1.375  1.00  0.00     0.049 A 
ATOM     57  C   UNL     1      15.823  -2.814  -3.588  1.00  0.00     0.074 A 
ATOM     58  C   UNL     1      19.518  -4.134   1.399  1.00  0.00     0.029 A 
ATOM     59  N   UNL     1      17.800  -3.669   0.066  1.00  0.00    -0.354 N 
ATOM     60  N   UNL     1      16.509  -3.091  -2.504  1.00  0.00    -0.248 NA
ATOM     61  C   UNL     1      16.655  -2.576  -4.776  1.00  0.00     0.031 C 
ATOM     62  C   UNL     1      20.011  -3.867   0.118  1.00  0.00     0.029 A 
ATOM     63  C   UNL     1      18.938  -3.607  -0.720  1.00  0.00     0.049 A 
ATOM     64  H   UNL     1      16.882  -3.520  -0.256  1.00  0.00     0.167 HD
ATOM     65  C   UNL     1      17.846  -3.093  -2.886  1.00  0.00     0.074 A 
ATOM     66  C   UNL     1      17.873  -2.801  -4.304  1.00  0.00     0.031 C 
ATOM     67  C   UNL     1      18.951  -3.321  -2.133  1.00  0.00     0.037 A 
BRANCH  54  68
ATOM     68  C   UNL     1      17.740  -4.341   3.845  1.00  0.00     0.057 A 
ATOM     69  C   UNL     1      17.494  -5.546   4.518  1.00  0.00     0.134 A 
ATOM     70  C   UNL     1      18.514  -3.380   4.508  1.00  0.00     0.134 A 
ATOM     71  F   UNL     1      16.745  -6.503   3.948  1.00  0.00    -0.206 F 
ATOM     72  C   UNL     1      17.971  -5.772   5.810  1.00  0.00     0.040 A 
ATOM     73  C   UNL     1      19.023  -3.607   5.787  1.00  0.00     0.040 A 
ATOM     74  F   UNL     1      18.790  -2.205   3.922  1.00  0.00    -0.206 F 
ATOM     75  C   UNL     1      18.744  -4.802   6.446  1.00  0.00     0.006 A 
ENDBRANCH  54  68
BRANCH  55  76
ATOM     76  C   UNL     1      13.753  -2.404  -5.106  1.00  0.00     0.057 A 
ATOM     77  C   UNL     1      13.847  -3.312  -6.168  1.00  0.00     0.134 A 
ATOM     78  C   UNL     1      13.113  -1.184  -5.358  1.00  0.00     0.134 A 
ATOM     79  F   UNL     1      14.471  -4.487  -5.998  1.00  0.00    -0.206 F 
ATOM     80  C   UNL     1      13.341  -3.012  -7.434  1.00  0.00     0.040 A 
ATOM     81  C   UNL     1      12.578  -0.883  -6.611  1.00  0.00     0.040 A 
ATOM     82  F   UNL     1      12.992  -0.270  -4.385  1.00  0.00    -0.206 F 
ATOM     83  C   UNL     1      12.698  -1.796  -7.656  1.00  0.00     0.006 A 
ENDBRANCH  55  76
BRANCH  67  84
ATOM     84  C   UNL     1      20.282  -3.310  -2.832  1.00  0.00     0.057 A 
ATOM     85  C   UNL     1      20.859  -2.131  -3.319  1.00  0.00     0.134 A 
ATOM     86  C   UNL     1      21.017  -4.495  -2.977  1.00  0.00     0.134 A 
ATOM     87  F   UNL     1      20.205  -0.963  -3.222  1.00  0.00    -0.206 F 
ATOM     88  C   UNL     1      22.105  -2.133  -3.948  1.00  0.00     0.040 A 
ATOM     89  C   UNL     1      22.278  -4.505  -3.575  1.00  0.00     0.040 A 
ATOM     90  F   UNL     1      20.531  -5.659  -2.522  1.00  0.00    -0.206 F 
ATOM     91  C   UNL     1      22.822  -3.322  -4.070  1.00  0.00     0.006 A 
ENDBRANCH  67  84
ENDBRANCH  41  42
ENDBRANCH  34  36
ENDBRANCH  33  34
ENDBRANCH  32  33
ENDBRANCH  31  32
ENDBRANCH  30  31
ENDBRANCH  29  30
ENDBRANCH  28  29
ENDBRANCH  27  28
ENDBRANCH   1  27
TORSDOF 23
