REMARK SMILES C[C@H]1[C@H](C(=O)OCCOCCOCCOCCOC(=O)c2ccc(-c3c4nc(c(-c5c(F)cccc5F)c5ccc([nH]5)c(-c5c(F)cccc5F)c5nc(c(-c6c(F)cccc6F)c6ccc3[nH]6)C=C5)C=C4)cc2)CC[N@@H+]1Cc1cscn1
REMARK SMILES IDX 12 1 11 2 10 3 9 4 8 5 7 6 6 7 4 8 5 9 3 10 1 11 2 12 77 13
REMARK SMILES IDX 75 14 76 15 78 17 79 18 80 19 83 20 81 21 82 22 13 23 14 24
REMARK SMILES IDX 15 25 16 26 17 27 18 28 19 29 20 30 21 31 22 32 74 33 23 34
REMARK SMILES IDX 73 35 24 36 25 37 26 38 67 39 27 40 72 41 66 42 68 43 28 44
REMARK SMILES IDX 71 45 65 46 64 47 29 49 55 50 38 51 54 52 39 53 42 54 53 55
REMARK SMILES IDX 69 56 40 57 41 58 52 60 70 61 43 62 30 63 31 64 36 65 32 66
REMARK SMILES IDX 33 67 35 68 37 69 34 70 56 71 57 72 62 73 58 74 59 75 61 76
REMARK SMILES IDX 63 77 60 78 44 79 45 80 50 81 46 82 47 83 49 84 51 85 48 86
REMARK H PARENT 77 16 68 48 42 59
REMARK Flexibility Score: inf
ROOT
ATOM      1  O   UNL     1       2.870   1.742   2.947  1.00  0.00    -0.377 OA
ENDROOT
BRANCH   1   2
ATOM      2  C   UNL     1       1.908   2.102   1.992  1.00  0.00     0.188 C 
BRANCH   2   3
ATOM      3  C   UNL     1       1.756   3.562   1.557  1.00  0.00     0.188 C 
BRANCH   3   4
ATOM      4  O   UNL     1       1.141   4.506   2.415  1.00  0.00    -0.376 OA
BRANCH   4   5
ATOM      5  C   UNL     1      -0.031   4.240   3.160  1.00  0.00     0.202 C 
BRANCH   5   6
ATOM      6  C   UNL     1      -1.228   3.422   2.641  1.00  0.00     0.261 C 
BRANCH   6   7
ATOM      7  O   UNL     1      -0.937   2.259   1.846  1.00  0.00    -0.463 OA
BRANCH   7   8
ATOM      8  C   UNL     1      -1.130   2.378   0.514  1.00  0.00     0.315 C 
ATOM      9  O   UNL     1      -1.578   3.392  -0.014  1.00  0.00    -0.252 OA
BRANCH   8  10
ATOM     10  C   UNL     1      -0.795   1.144  -0.316  1.00  0.00     0.162 C 
ATOM     11  C   UNL     1       1.341  -0.154  -0.740  1.00  0.00     0.076 C 
ATOM     12  C   UNL     1       0.131   0.027   0.197  1.00  0.00     0.195 C 
ATOM     13  N   UNL     1      -0.620  -1.230   0.138  1.00  0.00    -0.327 N 
ATOM     14  C   UNL     1      -2.096   0.445  -0.683  1.00  0.00     0.083 C 
ATOM     15  C   UNL     1      -1.776  -1.036  -0.716  1.00  0.00     0.263 C 
ATOM     16  H   UNL     1      -0.044  -1.947  -0.305  1.00  0.00     0.348 HD
BRANCH  13  17
ATOM     17  C   UNL     1      -0.828  -1.907   1.423  1.00  0.00     0.320 C 
BRANCH  17  18
ATOM     18  C   UNL     1      -1.511  -1.088   2.484  1.00  0.00     0.105 A 
ATOM     19  C   UNL     1      -2.853  -0.756   2.550  1.00  0.00     0.096 A 
ATOM     20  N   UNL     1      -0.763  -0.651   3.576  1.00  0.00    -0.244 NA
ATOM     21  S   UNL     1      -3.186   0.122   3.982  1.00  0.00    -0.130 S 
ATOM     22  C   UNL     1      -1.539  -0.019   4.428  1.00  0.00     0.176 A 
ENDBRANCH  17  18
ENDBRANCH  13  17
ENDBRANCH   8  10
ENDBRANCH   7   8
ENDBRANCH   6   7
ENDBRANCH   5   6
ENDBRANCH   4   5
ENDBRANCH   3   4
ENDBRANCH   2   3
ENDBRANCH   1   2
BRANCH   1  23
ATOM     23  C   UNL     1       2.636   2.281   4.222  1.00  0.00     0.188 C 
BRANCH  23  24
ATOM     24  C   UNL     1       3.560   3.463   4.485  1.00  0.00     0.188 C 
BRANCH  24  25
ATOM     25  O   UNL     1       4.532   3.832   3.522  1.00  0.00    -0.376 OA
BRANCH  25  26
ATOM     26  C   UNL     1       5.257   2.901   2.732  1.00  0.00     0.202 C 
BRANCH  26  27
ATOM     27  C   UNL     1       5.683   1.473   3.151  1.00  0.00     0.261 C 
BRANCH  27  28
ATOM     28  O   UNL     1       5.096   0.873   4.305  1.00  0.00    -0.460 OA
BRANCH  28  29
ATOM     29  C   UNL     1       5.629   1.215   5.491  1.00  0.00     0.338 C 
ATOM     30  O   UNL     1       6.561   1.976   5.694  1.00  0.00    -0.246 OA
BRANCH  29  31
ATOM     31  C   UNL     1       4.775   0.645   6.553  1.00  0.00     0.060 A 
ATOM     32  C   UNL     1       4.211   1.525   7.485  1.00  0.00     0.016 A 
ATOM     33  C   UNL     1       4.533  -0.730   6.638  1.00  0.00     0.016 A 
ATOM     34  C   UNL     1       3.450   1.032   8.537  1.00  0.00     0.010 A 
ATOM     35  C   UNL     1       3.798  -1.230   7.719  1.00  0.00     0.010 A 
ATOM     36  C   UNL     1       3.302  -0.351   8.697  1.00  0.00    -0.014 A 
BRANCH  36  37
ATOM     37  C   UNL     1       2.880  -0.847  10.027  1.00  0.00     0.031 A 
ATOM     38  C   UNL     1       3.959  -1.218  11.010  1.00  0.00     0.074 A 
ATOM     39  C   UNL     1       1.588  -0.862  10.394  1.00  0.00     0.049 A 
ATOM     40  N   UNL     1       3.854  -1.613  12.252  1.00  0.00    -0.248 NA
ATOM     41  C   UNL     1       5.346  -1.125  10.523  1.00  0.00     0.031 C 
ATOM     42  C   UNL     1       0.462  -0.473   9.548  1.00  0.00     0.029 A 
ATOM     43  N   UNL     1       1.011  -1.212  11.588  1.00  0.00    -0.354 N 
ATOM     44  C   UNL     1       5.157  -1.813  12.692  1.00  0.00     0.074 A 
ATOM     45  C   UNL     1       6.033  -1.538  11.575  1.00  0.00     0.031 C 
ATOM     46  C   UNL     1      -0.676  -0.608  10.252  1.00  0.00     0.029 A 
ATOM     47  C   UNL     1      -0.358  -1.114  11.587  1.00  0.00     0.049 A 
ATOM     48  H   UNL     1       1.530  -1.506  12.371  1.00  0.00     0.167 HD
ATOM     49  C   UNL     1       5.588  -2.180  13.921  1.00  0.00     0.037 A 
ATOM     50  C   UNL     1      -1.247  -1.412  12.553  1.00  0.00     0.037 A 
ATOM     51  C   UNL     1       4.714  -2.458  15.029  1.00  0.00     0.049 A 
ATOM     52  C   UNL     1      -0.746  -1.894  13.891  1.00  0.00     0.074 A 
ATOM     53  C   UNL     1       5.048  -2.836  16.317  1.00  0.00     0.029 A 
ATOM     54  N   UNL     1       3.329  -2.398  14.973  1.00  0.00    -0.354 N 
ATOM     55  N   UNL     1       0.487  -2.061  14.306  1.00  0.00    -0.248 NA
ATOM     56  C   UNL     1      -1.765  -2.220  14.899  1.00  0.00     0.031 C 
ATOM     57  C   UNL     1       3.862  -3.061  17.025  1.00  0.00     0.029 A 
ATOM     58  C   UNL     1       2.792  -2.757  16.198  1.00  0.00     0.049 A 
ATOM     59  H   UNL     1       2.806  -2.139  14.181  1.00  0.00     0.167 HD
ATOM     60  C   UNL     1       0.394  -2.474  15.630  1.00  0.00     0.074 A 
ATOM     61  C   UNL     1      -1.017  -2.517  15.952  1.00  0.00     0.031 C 
ATOM     62  C   UNL     1       1.384  -2.788  16.503  1.00  0.00     0.037 A 
BRANCH  49  63
ATOM     63  C   UNL     1       7.069  -2.333  14.115  1.00  0.00     0.057 A 
ATOM     64  C   UNL     1       7.939  -1.234  14.117  1.00  0.00     0.134 A 
ATOM     65  C   UNL     1       7.632  -3.600  14.313  1.00  0.00     0.134 A 
ATOM     66  F   UNL     1       7.469   0.006  13.912  1.00  0.00    -0.206 F 
ATOM     67  C   UNL     1       9.316  -1.393  14.283  1.00  0.00     0.040 A 
ATOM     68  C   UNL     1       9.003  -3.769  14.511  1.00  0.00     0.040 A 
ATOM     69  F   UNL     1       6.857  -4.696  14.322  1.00  0.00    -0.206 F 
ATOM     70  C   UNL     1       9.850  -2.663  14.489  1.00  0.00     0.006 A 
ENDBRANCH  49  63
BRANCH  50  71
ATOM     71  C   UNL     1      -2.704  -1.273  12.297  1.00  0.00     0.057 A 
ATOM     72  C   UNL     1      -3.478  -0.323  12.974  1.00  0.00     0.134 A 
ATOM     73  C   UNL     1      -3.365  -2.116  11.395  1.00  0.00     0.134 A 
ATOM     74  F   UNL     1      -2.908   0.499  13.868  1.00  0.00    -0.206 F 
ATOM     75  C   UNL     1      -4.857  -0.231  12.781  1.00  0.00     0.040 A 
ATOM     76  C   UNL     1      -4.739  -2.016  11.171  1.00  0.00     0.040 A 
ATOM     77  F   UNL     1      -2.683  -3.047  10.713  1.00  0.00    -0.206 F 
ATOM     78  C   UNL     1      -5.491  -1.077  11.874  1.00  0.00     0.006 A 
ENDBRANCH  50  71
BRANCH  62  79
ATOM     79  C   UNL     1       0.977  -3.157  17.903  1.00  0.00     0.057 A 
ATOM     80  C   UNL     1       0.305  -4.351  18.196  1.00  0.00     0.134 A 
ATOM     81  C   UNL     1       1.282  -2.310  18.977  1.00  0.00     0.134 A 
ATOM     82  F   UNL     1      -0.026  -5.204  17.214  1.00  0.00    -0.206 F 
ATOM     83  C   UNL     1      -0.082  -4.670  19.499  1.00  0.00     0.040 A 
ATOM     84  C   UNL     1       0.932  -2.634  20.288  1.00  0.00     0.040 A 
ATOM     85  F   UNL     1       1.937  -1.157  18.772  1.00  0.00    -0.206 F 
ATOM     86  C   UNL     1       0.237  -3.813  20.550  1.00  0.00     0.006 A 
ENDBRANCH  62  79
ENDBRANCH  36  37
ENDBRANCH  29  31
ENDBRANCH  28  29
ENDBRANCH  27  28
ENDBRANCH  26  27
ENDBRANCH  25  26
ENDBRANCH  24  25
ENDBRANCH  23  24
ENDBRANCH   1  23
TORSDOF 22
