REMARK SMILES C[C@@H](CC(=O)OCCOCCOCCOCCOC(=O)c1ccc(-c2c3nc(c(-c4c(F)cccc4F)c4ccc([nH]4)c(-c4c(F)cccc4F)c4nc(c(-c5c(F)cccc5F)c5ccc2[nH]5)C=C4)C=C3)cc1)NC(=O)c1ccc(O)cc1
REMARK SMILES IDX 11 1 10 2 9 3 8 4 7 5 6 6 4 7 5 8 3 9 2 10 1 11 75 12 76 13
REMARK SMILES IDX 77 15 78 16 79 17 84 18 80 19 83 20 81 21 82 22 12 24 13 25
REMARK SMILES IDX 14 26 15 27 16 28 17 29 18 30 19 31 20 32 21 33 22 34 74 35
REMARK SMILES IDX 23 36 73 37 24 38 25 39 26 40 67 41 27 42 72 43 66 44 68 45
REMARK SMILES IDX 28 46 71 47 65 48 64 49 29 51 55 52 38 53 54 54 39 55 42 56
REMARK SMILES IDX 53 57 69 58 40 59 41 60 52 62 70 63 43 64 30 65 31 66 36 67
REMARK SMILES IDX 32 68 33 69 35 70 37 71 34 72 56 73 57 74 62 75 58 76 59 77
REMARK SMILES IDX 61 78 63 79 60 80 44 81 45 82 50 83 46 84 47 85 49 86 51 87
REMARK SMILES IDX 48 88
REMARK H PARENT 75 14 82 23 68 50 42 61
REMARK Flexibility Score: inf
ROOT
ATOM      1  C   UNL     1      -1.555  -2.043  -1.572  1.00  0.00     0.188 C 
ENDROOT
BRANCH   1   2
ATOM      2  C   UNL     1      -1.409  -3.374  -2.307  1.00  0.00     0.188 C 
BRANCH   2   3
ATOM      3  O   UNL     1      -1.250  -4.565  -1.561  1.00  0.00    -0.376 OA
BRANCH   3   4
ATOM      4  C   UNL     1      -0.171  -4.691  -0.643  1.00  0.00     0.202 C 
BRANCH   4   5
ATOM      5  C   UNL     1       1.204  -4.057  -0.924  1.00  0.00     0.261 C 
BRANCH   5   6
ATOM      6  O   UNL     1       1.228  -2.607  -0.927  1.00  0.00    -0.463 OA
BRANCH   6   7
ATOM      7  C   UNL     1       1.777  -2.014  -2.008  1.00  0.00     0.307 C 
ATOM      8  O   UNL     1       2.290  -2.642  -2.934  1.00  0.00    -0.252 OA
BRANCH   7   9
ATOM      9  C   UNL     1       1.689  -0.496  -2.097  1.00  0.00     0.147 C 
BRANCH   9  10
ATOM     10  C   UNL     1       1.193   0.475  -1.008  1.00  0.00     0.090 C 
ATOM     11  C   UNL     1       1.672   0.161   0.401  1.00  0.00     0.031 C 
BRANCH  10  12
ATOM     12  N   UNL     1      -0.258   0.684  -1.016  1.00  0.00    -0.349 N 
ATOM     13  C   UNL     1      -1.056   1.638  -1.603  1.00  0.00     0.251 C 
ATOM     14  H   UNL     1      -0.758   0.011  -0.500  1.00  0.00     0.164 HD
ATOM     15  O   UNL     1      -2.279   1.560  -1.500  1.00  0.00    -0.269 OA
BRANCH  13  16
ATOM     16  C   UNL     1      -0.484   2.812  -2.296  1.00  0.00     0.040 A 
ATOM     17  C   UNL     1      -0.952   4.078  -1.919  1.00  0.00     0.017 A 
ATOM     18  C   UNL     1       0.453   2.699  -3.327  1.00  0.00     0.017 A 
ATOM     19  C   UNL     1      -0.415   5.226  -2.502  1.00  0.00     0.047 A 
ATOM     20  C   UNL     1       1.000   3.849  -3.903  1.00  0.00     0.047 A 
ATOM     21  C   UNL     1       0.578   5.102  -3.468  1.00  0.00     0.115 A 
BRANCH  21  22
ATOM     22  O   UNL     1       1.120   6.247  -3.969  1.00  0.00    -0.508 OA
ATOM     23  H   UNL     1       0.822   7.080  -3.662  1.00  0.00     0.293 HD
ENDBRANCH  21  22
ENDBRANCH  13  16
ENDBRANCH  10  12
ENDBRANCH   9  10
ENDBRANCH   7   9
ENDBRANCH   6   7
ENDBRANCH   5   6
ENDBRANCH   4   5
ENDBRANCH   3   4
ENDBRANCH   2   3
ENDBRANCH   1   2
BRANCH   1  24
ATOM     24  O   UNL     1      -1.151  -2.003  -0.212  1.00  0.00    -0.377 OA
BRANCH  24  25
ATOM     25  C   UNL     1      -2.074  -2.364   0.812  1.00  0.00     0.188 C 
BRANCH  25  26
ATOM     26  C   UNL     1      -3.413  -3.003   0.430  1.00  0.00     0.188 C 
BRANCH  26  27
ATOM     27  O   UNL     1      -4.080  -2.313  -0.609  1.00  0.00    -0.376 OA
BRANCH  27  28
ATOM     28  C   UNL     1      -4.989  -1.267  -0.304  1.00  0.00     0.202 C 
BRANCH  28  29
ATOM     29  C   UNL     1      -4.576  -0.088   0.595  1.00  0.00     0.261 C 
BRANCH  29  30
ATOM     30  O   UNL     1      -4.028  -0.383   1.889  1.00  0.00    -0.460 OA
BRANCH  30  31
ATOM     31  C   UNL     1      -4.759  -1.098   2.759  1.00  0.00     0.338 C 
ATOM     32  O   UNL     1      -5.893  -1.524   2.602  1.00  0.00    -0.246 OA
BRANCH  31  33
ATOM     33  C   UNL     1      -3.881  -1.445   3.897  1.00  0.00     0.060 A 
ATOM     34  C   UNL     1      -3.659  -2.795   4.194  1.00  0.00     0.016 A 
ATOM     35  C   UNL     1      -3.297  -0.445   4.681  1.00  0.00     0.016 A 
ATOM     36  C   UNL     1      -2.906  -3.149   5.314  1.00  0.00     0.010 A 
ATOM     37  C   UNL     1      -2.553  -0.802   5.811  1.00  0.00     0.010 A 
ATOM     38  C   UNL     1      -2.393  -2.155   6.158  1.00  0.00    -0.014 A 
BRANCH  38  39
ATOM     39  C   UNL     1      -1.867  -2.529   7.495  1.00  0.00     0.031 A 
ATOM     40  C   UNL     1      -2.763  -2.359   8.693  1.00  0.00     0.074 A 
ATOM     41  C   UNL     1      -0.634  -3.045   7.644  1.00  0.00     0.049 A 
ATOM     42  N   UNL     1      -2.518  -2.594   9.957  1.00  0.00    -0.248 NA
ATOM     43  C   UNL     1      -4.119  -1.852   8.427  1.00  0.00     0.031 C 
ATOM     44  C   UNL     1       0.313  -3.299   6.561  1.00  0.00     0.029 A 
ATOM     45  N   UNL     1       0.031  -3.445   8.776  1.00  0.00    -0.354 N 
ATOM     46  C   UNL     1      -3.684  -2.260  10.635  1.00  0.00     0.074 A 
ATOM     47  C   UNL     1      -4.622  -1.769   9.649  1.00  0.00     0.031 C 
ATOM     48  C   UNL     1       1.443  -3.806   7.082  1.00  0.00     0.029 A 
ATOM     49  C   UNL     1       1.311  -3.882   8.536  1.00  0.00     0.049 A 
ATOM     50  H   UNL     1      -0.371  -3.421   9.674  1.00  0.00     0.167 HD
ATOM     51  C   UNL     1      -3.955  -2.362  11.959  1.00  0.00     0.037 A 
ATOM     52  C   UNL     1       2.270  -4.277   9.396  1.00  0.00     0.037 A 
ATOM     53  C   UNL     1      -3.019  -2.844  12.940  1.00  0.00     0.049 A 
ATOM     54  C   UNL     1       1.972  -4.307  10.874  1.00  0.00     0.074 A 
ATOM     55  C   UNL     1      -3.200  -2.997  14.303  1.00  0.00     0.029 A 
ATOM     56  N   UNL     1      -1.719  -3.241  12.663  1.00  0.00    -0.354 N 
ATOM     57  N   UNL     1       0.860  -4.012  11.503  1.00  0.00    -0.248 NA
ATOM     58  C   UNL     1       3.065  -4.732  11.760  1.00  0.00     0.031 C 
ATOM     59  C   UNL     1      -1.991  -3.429  14.859  1.00  0.00     0.029 A 
ATOM     60  C   UNL     1      -1.077  -3.612  13.834  1.00  0.00     0.049 A 
ATOM     61  H   UNL     1      -1.312  -3.257  11.766  1.00  0.00     0.167 HD
ATOM     62  C   UNL     1       1.107  -4.249  12.851  1.00  0.00     0.074 A 
ATOM     63  C   UNL     1       2.471  -4.726  12.945  1.00  0.00     0.031 C 
ATOM     64  C   UNL     1       0.280  -4.089  13.914  1.00  0.00     0.037 A 
BRANCH  51  65
ATOM     65  C   UNL     1      -5.311  -1.911  12.424  1.00  0.00     0.057 A 
ATOM     66  C   UNL     1      -6.480  -2.616  12.106  1.00  0.00     0.134 A 
ATOM     67  C   UNL     1      -5.447  -0.766  13.220  1.00  0.00     0.134 A 
ATOM     68  F   UNL     1      -6.425  -3.713  11.335  1.00  0.00    -0.206 F 
ATOM     69  C   UNL     1      -7.736  -2.184  12.539  1.00  0.00     0.040 A 
ATOM     70  C   UNL     1      -6.693  -0.341  13.684  1.00  0.00     0.040 A 
ATOM     71  F   UNL     1      -4.370  -0.045  13.566  1.00  0.00    -0.206 F 
ATOM     72  C   UNL     1      -7.843  -1.046  13.336  1.00  0.00     0.006 A 
ENDBRANCH  51  65
BRANCH  52  73
ATOM     73  C   UNL     1       3.610  -4.671   8.890  1.00  0.00     0.057 A 
ATOM     74  C   UNL     1       4.067  -5.990   8.989  1.00  0.00     0.134 A 
ATOM     75  C   UNL     1       4.480  -3.731   8.322  1.00  0.00     0.134 A 
ATOM     76  F   UNL     1       3.292  -6.933   9.546  1.00  0.00    -0.206 F 
ATOM     77  C   UNL     1       5.345  -6.357   8.563  1.00  0.00     0.040 A 
ATOM     78  C   UNL     1       5.749  -4.089   7.865  1.00  0.00     0.040 A 
ATOM     79  F   UNL     1       4.104  -2.450   8.197  1.00  0.00    -0.206 F 
ATOM     80  C   UNL     1       6.188  -5.405   7.993  1.00  0.00     0.006 A 
ENDBRANCH  52  73
BRANCH  64  81
ATOM     81  C   UNL     1       0.812  -4.478  15.266  1.00  0.00     0.057 A 
ATOM     82  C   UNL     1       1.817  -3.747  15.912  1.00  0.00     0.134 A 
ATOM     83  C   UNL     1       0.289  -5.589  15.942  1.00  0.00     0.134 A 
ATOM     84  F   UNL     1       2.369  -2.678  15.319  1.00  0.00    -0.206 F 
ATOM     85  C   UNL     1       2.308  -4.128  17.163  1.00  0.00     0.040 A 
ATOM     86  C   UNL     1       0.747  -5.959  17.207  1.00  0.00     0.040 A 
ATOM     87  F   UNL     1      -0.685  -6.328  15.389  1.00  0.00    -0.206 F 
ATOM     88  C   UNL     1       1.767  -5.233  17.817  1.00  0.00     0.006 A 
ENDBRANCH  64  81
ENDBRANCH  38  39
ENDBRANCH  31  33
ENDBRANCH  30  31
ENDBRANCH  29  30
ENDBRANCH  28  29
ENDBRANCH  27  28
ENDBRANCH  26  27
ENDBRANCH  25  26
ENDBRANCH  24  25
ENDBRANCH   1  24
TORSDOF 24
