REMARK SMILES CC(=O)N[C@@H](C(=O)N(CC(=O)OCCOCCOCCOCCOC(=O)c1ccc(-c2c3nc(c(-c4c(F)cccc4F)c4ccc([nH]4)c(-c4c(F)cccc4F)c4nc(c(-c5c(F)cccc5F)c5ccc2[nH]5)C=C4)C=C3)cc1)C(C)(C)C)C(C)C
REMARK SMILES IDX 17 1 16 2 15 3 14 4 13 5 12 6 10 7 11 8 9 9 8 10 6 11 7 12
REMARK SMILES IDX 5 13 4 14 1 15 2 16 3 17 85 19 86 20 87 21 81 22 82 23 83 24
REMARK SMILES IDX 84 25 18 26 19 27 20 28 21 29 22 30 23 31 24 32 25 33 26 34
REMARK SMILES IDX 27 35 28 36 80 37 29 38 79 39 30 40 31 41 32 42 73 43 33 44
REMARK SMILES IDX 78 45 72 46 74 47 34 48 77 49 71 50 70 51 35 53 61 54 44 55
REMARK SMILES IDX 60 56 45 57 48 58 59 59 75 60 46 61 47 62 58 64 76 65 49 66
REMARK SMILES IDX 36 67 37 68 42 69 38 70 39 71 41 72 43 73 40 74 62 75 63 76
REMARK SMILES IDX 68 77 64 78 65 79 67 80 69 81 66 82 50 83 51 84 56 85 52 86
REMARK SMILES IDX 53 87 55 88 57 89 54 90
REMARK H PARENT 4 18 74 52 48 63
REMARK Flexibility Score: inf
ROOT
ATOM      1  C   UNL     1       4.490   0.850   5.028  1.00  0.00     0.188 C 
ENDROOT
BRANCH   1   2
ATOM      2  C   UNL     1       4.853   2.160   4.308  1.00  0.00     0.188 C 
BRANCH   2   3
ATOM      3  O   UNL     1       3.985   3.286   4.384  1.00  0.00    -0.376 OA
BRANCH   3   4
ATOM      4  C   UNL     1       2.620   3.088   4.717  1.00  0.00     0.202 C 
BRANCH   4   5
ATOM      5  C   UNL     1       1.759   2.249   3.750  1.00  0.00     0.261 C 
BRANCH   5   6
ATOM      6  O   UNL     1       2.334   1.001   3.280  1.00  0.00    -0.462 OA
BRANCH   6   7
ATOM      7  C   UNL     1       2.841   0.988   2.021  1.00  0.00     0.325 C 
ATOM      8  O   UNL     1       2.767   1.938   1.244  1.00  0.00    -0.250 OA
BRANCH   7   9
ATOM      9  C   UNL     1       3.598  -0.310   1.597  1.00  0.00     0.242 C 
BRANCH   9  10
ATOM     10  N   UNL     1       3.742  -1.570   2.384  1.00  0.00    -0.325 N 
BRANCH  10  11
ATOM     11  C   UNL     1       2.690  -2.501   2.482  1.00  0.00     0.246 C 
ATOM     12  O   UNL     1       2.725  -3.419   3.307  1.00  0.00    -0.272 OA
BRANCH  11  13
ATOM     13  C   UNL     1       1.473  -2.398   1.515  1.00  0.00     0.174 C 
BRANCH  13  14
ATOM     14  N   UNL     1       0.632  -1.308   2.003  1.00  0.00    -0.344 N 
ATOM     15  C   UNL     1       0.256  -0.200  -0.173  1.00  0.00     0.114 C 
ATOM     16  C   UNL     1       0.025  -0.305   1.310  1.00  0.00     0.217 C 
ATOM     17  O   UNL     1      -0.672   0.506   1.917  1.00  0.00    -0.275 OA
ATOM     18  H   UNL     1       0.481  -1.297   2.976  1.00  0.00     0.164 HD
ENDBRANCH  13  14
BRANCH  13  19
ATOM     19  C   UNL     1       0.688  -3.747   1.484  1.00  0.00     0.015 C 
ATOM     20  C   UNL     1      -0.632  -3.653   0.714  1.00  0.00     0.010 C 
ATOM     21  C   UNL     1       1.527  -4.878   0.864  1.00  0.00     0.010 C 
ENDBRANCH  13  19
ENDBRANCH  11  13
ENDBRANCH  10  11
BRANCH  10  22
ATOM     22  C   UNL     1       5.101  -2.026   2.908  1.00  0.00     0.035 C 
ATOM     23  C   UNL     1       5.036  -2.433   4.404  1.00  0.00     0.034 C 
ATOM     24  C   UNL     1       5.580  -3.270   2.112  1.00  0.00     0.034 C 
ATOM     25  C   UNL     1       6.247  -0.998   2.725  1.00  0.00     0.034 C 
ENDBRANCH  10  22
ENDBRANCH   9  10
ENDBRANCH   7   9
ENDBRANCH   6   7
ENDBRANCH   5   6
ENDBRANCH   4   5
ENDBRANCH   3   4
ENDBRANCH   2   3
ENDBRANCH   1   2
BRANCH   1  26
ATOM     26  O   UNL     1       3.650   1.029   6.149  1.00  0.00    -0.377 OA
BRANCH  26  27
ATOM     27  C   UNL     1       4.244   0.738   7.397  1.00  0.00     0.188 C 
BRANCH  27  28
ATOM     28  C   UNL     1       5.529   1.529   7.693  1.00  0.00     0.188 C 
BRANCH  28  29
ATOM     29  O   UNL     1       6.506   1.373   6.677  1.00  0.00    -0.376 OA
BRANCH  29  30
ATOM     30  C   UNL     1       7.593   0.481   6.805  1.00  0.00     0.202 C 
BRANCH  30  31
ATOM     31  C   UNL     1       7.452  -0.988   7.246  1.00  0.00     0.261 C 
BRANCH  31  32
ATOM     32  O   UNL     1       6.268  -1.365   7.947  1.00  0.00    -0.460 OA
BRANCH  32  33
ATOM     33  C   UNL     1       6.304  -1.238   9.290  1.00  0.00     0.338 C 
ATOM     34  O   UNL     1       7.236  -0.818   9.961  1.00  0.00    -0.246 OA
BRANCH  33  35
ATOM     35  C   UNL     1       4.954  -1.492   9.829  1.00  0.00     0.060 A 
ATOM     36  C   UNL     1       4.295  -0.431  10.464  1.00  0.00     0.016 A 
ATOM     37  C   UNL     1       4.346  -2.746   9.727  1.00  0.00     0.016 A 
ATOM     38  C   UNL     1       3.036  -0.624  11.023  1.00  0.00     0.010 A 
ATOM     39  C   UNL     1       3.098  -2.951  10.328  1.00  0.00     0.010 A 
ATOM     40  C   UNL     1       2.459  -1.899  11.008  1.00  0.00    -0.014 A 
BRANCH  40  41
ATOM     41  C   UNL     1       1.321  -2.164  11.918  1.00  0.00     0.031 A 
ATOM     42  C   UNL     1       1.627  -2.701  13.289  1.00  0.00     0.074 A 
ATOM     43  C   UNL     1       0.057  -1.868  11.570  1.00  0.00     0.049 A 
ATOM     44  N   UNL     1       0.815  -3.002  14.268  1.00  0.00    -0.248 NA
ATOM     45  C   UNL     1       3.050  -2.924  13.596  1.00  0.00     0.031 C 
ATOM     46  C   UNL     1      -0.355  -1.284  10.297  1.00  0.00     0.029 A 
ATOM     47  N   UNL     1      -1.113  -2.020  12.270  1.00  0.00    -0.354 N 
ATOM     48  C   UNL     1       1.626  -3.447  15.304  1.00  0.00     0.074 A 
ATOM     49  C   UNL     1       2.989  -3.412  14.825  1.00  0.00     0.031 C 
ATOM     50  C   UNL     1      -1.692  -1.134  10.302  1.00  0.00     0.029 A 
ATOM     51  C   UNL     1      -2.227  -1.639  11.566  1.00  0.00     0.049 A 
ATOM     52  H   UNL     1      -1.149  -2.368  13.190  1.00  0.00     0.167 HD
ATOM     53  C   UNL     1       1.268  -3.843  16.548  1.00  0.00     0.037 A 
ATOM     54  C   UNL     1      -3.530  -1.712  11.902  1.00  0.00     0.037 A 
ATOM     55  C   UNL     1      -0.092  -3.892  17.015  1.00  0.00     0.049 A 
ATOM     56  C   UNL     1      -3.913  -2.251  13.256  1.00  0.00     0.074 A 
ATOM     57  C   UNL     1      -0.565  -4.281  18.256  1.00  0.00     0.029 A 
ATOM     58  N   UNL     1      -1.200  -3.554  16.251  1.00  0.00    -0.354 N 
ATOM     59  N   UNL     1      -3.142  -2.656  14.237  1.00  0.00    -0.248 NA
ATOM     60  C   UNL     1      -5.351  -2.338  13.552  1.00  0.00     0.031 C 
ATOM     61  C   UNL     1      -1.962  -4.235  18.223  1.00  0.00     0.029 A 
ATOM     62  C   UNL     1      -2.358  -3.753  16.985  1.00  0.00     0.049 A 
ATOM     63  H   UNL     1      -1.168  -3.221  15.325  1.00  0.00     0.167 HD
ATOM     64  C   UNL     1      -3.996  -3.012  15.275  1.00  0.00     0.074 A 
ATOM     65  C   UNL     1      -5.344  -2.765  14.806  1.00  0.00     0.031 C 
ATOM     66  C   UNL     1      -3.693  -3.495  16.506  1.00  0.00     0.037 A 
BRANCH  53  67
ATOM     67  C   UNL     1       2.365  -4.293  17.468  1.00  0.00     0.057 A 
ATOM     68  C   UNL     1       3.308  -3.400  17.996  1.00  0.00     0.134 A 
ATOM     69  C   UNL     1       2.480  -5.641  17.831  1.00  0.00     0.134 A 
ATOM     70  F   UNL     1       3.268  -2.099  17.673  1.00  0.00    -0.206 F 
ATOM     71  C   UNL     1       4.342  -3.837  18.827  1.00  0.00     0.040 A 
ATOM     72  C   UNL     1       3.491  -6.084  18.685  1.00  0.00     0.040 A 
ATOM     73  F   UNL     1       1.612  -6.550  17.362  1.00  0.00    -0.206 F 
ATOM     74  C   UNL     1       4.431  -5.182  19.178  1.00  0.00     0.006 A 
ENDBRANCH  53  67
BRANCH  54  75
ATOM     75  C   UNL     1      -4.573  -1.275  10.938  1.00  0.00     0.057 A 
ATOM     76  C   UNL     1      -5.369  -0.151  11.188  1.00  0.00     0.134 A 
ATOM     77  C   UNL     1      -4.816  -1.985   9.756  1.00  0.00     0.134 A 
ATOM     78  F   UNL     1      -5.203   0.557  12.315  1.00  0.00    -0.206 F 
ATOM     79  C   UNL     1      -6.379   0.241  10.307  1.00  0.00     0.040 A 
ATOM     80  C   UNL     1      -5.804  -1.589   8.853  1.00  0.00     0.040 A 
ATOM     81  F   UNL     1      -4.091  -3.074   9.459  1.00  0.00    -0.206 F 
ATOM     82  C   UNL     1      -6.595  -0.477   9.132  1.00  0.00     0.006 A 
ENDBRANCH  54  75
BRANCH  66  83
ATOM     83  C   UNL     1      -4.834  -3.745  17.451  1.00  0.00     0.057 A 
ATOM     84  C   UNL     1      -5.744  -4.793  17.262  1.00  0.00     0.134 A 
ATOM     85  C   UNL     1      -4.997  -2.948  18.593  1.00  0.00     0.134 A 
ATOM     86  F   UNL     1      -5.651  -5.589  16.186  1.00  0.00    -0.206 F 
ATOM     87  C   UNL     1      -6.791  -5.021  18.158  1.00  0.00     0.040 A 
ATOM     88  C   UNL     1      -6.020  -3.186  19.512  1.00  0.00     0.040 A 
ATOM     89  F   UNL     1      -4.154  -1.935  18.843  1.00  0.00    -0.206 F 
ATOM     90  C   UNL     1      -6.926  -4.221  19.291  1.00  0.00     0.006 A 
ENDBRANCH  66  83
ENDBRANCH  40  41
ENDBRANCH  33  35
ENDBRANCH  32  33
ENDBRANCH  31  32
ENDBRANCH  30  31
ENDBRANCH  29  30
ENDBRANCH  28  29
ENDBRANCH  27  28
ENDBRANCH  26  27
ENDBRANCH   1  26
TORSDOF 26
