REMARK SMILES Cn1ncc(C(=O)OCCOCCOCCOCCOC(=O)c2ccc(-c3c4nc(c(-c5c(F)cccc5F)c5ccc([nH]5)c(-c5c(F)cccc5F)c5nc(c(-c6c(F)cccc6F)c6ccc3[nH]6)C=C5)C=C4)cc2)c1C(=O)N1CCN(S(C)(=O)=O)CC1
REMARK SMILES IDX 14 1 13 2 12 3 11 4 10 5 9 6 8 7 6 8 7 9 5 10 1 11 2 12 3 13
REMARK SMILES IDX 77 14 4 15 78 16 79 17 80 18 81 19 89 20 82 21 88 22 83 23
REMARK SMILES IDX 84 24 85 25 86 26 87 27 15 28 16 29 17 30 18 31 19 32 20 33
REMARK SMILES IDX 21 34 22 35 23 36 24 37 76 38 25 39 75 40 26 41 27 42 28 43
REMARK SMILES IDX 69 44 29 45 74 46 68 47 70 48 30 49 73 50 67 51 66 52 31 54
REMARK SMILES IDX 57 55 40 56 56 57 41 58 44 59 55 60 71 61 42 62 43 63 54 65
REMARK SMILES IDX 72 66 45 67 32 68 33 69 38 70 34 71 35 72 37 73 39 74 36 75
REMARK SMILES IDX 58 76 59 77 64 78 60 79 61 80 63 81 65 82 62 83 46 84 47 85
REMARK SMILES IDX 52 86 48 87 49 88 51 89 53 90 50 91
REMARK H PARENT 70 53 44 64
REMARK Flexibility Score: inf
ROOT
ATOM      1  O   UNL     1       2.565  -2.693  -2.547  1.00  0.00    -0.377 OA
ENDROOT
BRANCH   1   2
ATOM      2  C   UNL     1       2.912  -1.376  -2.150  1.00  0.00     0.188 C 
BRANCH   2   3
ATOM      3  C   UNL     1       4.224  -1.116  -1.383  1.00  0.00     0.188 C 
BRANCH   3   4
ATOM      4  O   UNL     1       4.973  -2.280  -1.045  1.00  0.00    -0.376 OA
BRANCH   4   5
ATOM      5  C   UNL     1       5.067  -2.572   0.345  1.00  0.00     0.202 C 
BRANCH   5   6
ATOM      6  C   UNL     1       3.841  -3.325   0.865  1.00  0.00     0.261 C 
BRANCH   6   7
ATOM      7  O   UNL     1       2.632  -2.574   0.702  1.00  0.00    -0.460 OA
BRANCH   7   8
ATOM      8  C   UNL     1       2.483  -1.497   1.513  1.00  0.00     0.342 C 
ATOM      9  O   UNL     1       3.287  -1.161   2.377  1.00  0.00    -0.246 OA
BRANCH   8  10
ATOM     10  C   UNL     1       1.376  -0.656   1.110  1.00  0.00     0.111 A 
ATOM     11  C   UNL     1      -1.963   0.520   0.456  1.00  0.00     0.174 C 
ATOM     12  N   UNL     1      -0.561   0.200   0.567  1.00  0.00    -0.262 N 
ATOM     13  N   UNL     1       0.284   1.252   0.555  1.00  0.00    -0.180 NA
ATOM     14  C   UNL     1       0.056  -1.012   0.802  1.00  0.00     0.140 A 
ATOM     15  C   UNL     1       1.440   0.739   0.959  1.00  0.00     0.151 A 
BRANCH  14  16
ATOM     16  C   UNL     1      -0.500  -2.349   0.932  1.00  0.00     0.273 C 
ATOM     17  O   UNL     1       0.152  -3.267   1.433  1.00  0.00    -0.267 OA
ATOM     18  N   UNL     1      -1.846  -2.577   0.665  1.00  0.00    -0.335 N 
ATOM     19  C   UNL     1      -2.488  -3.579   1.513  1.00  0.00     0.136 C 
ATOM     20  C   UNL     1      -2.448  -2.454  -0.668  1.00  0.00     0.136 C 
ATOM     21  C   UNL     1      -3.972  -3.280   1.681  1.00  0.00     0.123 C 
ATOM     22  C   UNL     1      -3.975  -2.229  -0.597  1.00  0.00     0.123 C 
ATOM     23  N   UNL     1      -4.641  -3.147   0.365  1.00  0.00    -0.199 NA
BRANCH  23  24
ATOM     24  S   UNL     1      -5.665  -4.358  -0.176  1.00  0.00     0.211 S 
ATOM     25  C   UNL     1      -4.537  -5.537  -0.888  1.00  0.00     0.176 C 
ATOM     26  O   UNL     1      -6.280  -4.977   0.978  1.00  0.00    -0.213 OA
ATOM     27  O   UNL     1      -6.463  -3.810  -1.251  1.00  0.00    -0.213 OA
ENDBRANCH  23  24
ENDBRANCH  14  16
ENDBRANCH   8  10
ENDBRANCH   7   8
ENDBRANCH   6   7
ENDBRANCH   5   6
ENDBRANCH   4   5
ENDBRANCH   3   4
ENDBRANCH   2   3
ENDBRANCH   1   2
BRANCH   1  28
ATOM     28  C   UNL     1       3.565  -3.556  -3.070  1.00  0.00     0.188 C 
BRANCH  28  29
ATOM     29  C   UNL     1       4.734  -2.985  -3.896  1.00  0.00     0.188 C 
BRANCH  29  30
ATOM     30  O   UNL     1       4.533  -1.659  -4.372  1.00  0.00    -0.376 OA
BRANCH  30  31
ATOM     31  C   UNL     1       4.295  -1.532  -5.768  1.00  0.00     0.202 C 
BRANCH  31  32
ATOM     32  C   UNL     1       2.868  -1.912  -6.177  1.00  0.00     0.261 C 
BRANCH  32  33
ATOM     33  O   UNL     1       2.550  -3.303  -6.005  1.00  0.00    -0.460 OA
BRANCH  33  34
ATOM     34  C   UNL     1       3.283  -4.188  -6.715  1.00  0.00     0.338 C 
ATOM     35  O   UNL     1       4.160  -3.950  -7.525  1.00  0.00    -0.246 OA
BRANCH  34  36
ATOM     36  C   UNL     1       2.953  -5.535  -6.221  1.00  0.00     0.060 A 
ATOM     37  C   UNL     1       3.980  -6.342  -5.718  1.00  0.00     0.016 A 
ATOM     38  C   UNL     1       1.634  -5.994  -6.261  1.00  0.00     0.016 A 
ATOM     39  C   UNL     1       3.691  -7.634  -5.281  1.00  0.00     0.010 A 
ATOM     40  C   UNL     1       1.350  -7.293  -5.841  1.00  0.00     0.010 A 
ATOM     41  C   UNL     1       2.382  -8.127  -5.380  1.00  0.00    -0.014 A 
BRANCH  41  42
ATOM     42  C   UNL     1       2.122  -9.572  -5.196  1.00  0.00     0.031 A 
ATOM     43  C   UNL     1       2.157 -10.457  -6.410  1.00  0.00     0.074 A 
ATOM     44  C   UNL     1       1.850 -10.085  -3.985  1.00  0.00     0.049 A 
ATOM     45  N   UNL     1       1.917 -11.738  -6.510  1.00  0.00    -0.248 NA
ATOM     46  C   UNL     1       2.507  -9.805  -7.684  1.00  0.00     0.031 C 
ATOM     47  C   UNL     1       1.812  -9.334  -2.733  1.00  0.00     0.029 A 
ATOM     48  N   UNL     1       1.542 -11.371  -3.619  1.00  0.00    -0.354 N 
ATOM     49  C   UNL     1       2.092 -12.047  -7.853  1.00  0.00     0.074 A 
ATOM     50  C   UNL     1       2.427 -10.816  -8.535  1.00  0.00     0.031 C 
ATOM     51  C   UNL     1       1.482 -10.172  -1.734  1.00  0.00     0.029 A 
ATOM     52  C   UNL     1       1.265 -11.510  -2.281  1.00  0.00     0.049 A 
ATOM     53  H   UNL     1       1.521 -12.122  -4.255  1.00  0.00     0.167 HD
ATOM     54  C   UNL     1       1.991 -13.250  -8.463  1.00  0.00     0.037 A 
ATOM     55  C   UNL     1       0.866 -12.594  -1.589  1.00  0.00     0.037 A 
ATOM     56  C   UNL     1       1.644 -14.471  -7.791  1.00  0.00     0.049 A 
ATOM     57  C   UNL     1       0.687 -13.908  -2.304  1.00  0.00     0.074 A 
ATOM     58  C   UNL     1       1.529 -15.745  -8.319  1.00  0.00     0.029 A 
ATOM     59  N   UNL     1       1.346 -14.567  -6.441  1.00  0.00    -0.354 N 
ATOM     60  N   UNL     1       0.890 -14.197  -3.567  1.00  0.00    -0.248 NA
ATOM     61  C   UNL     1       0.223 -15.046  -1.496  1.00  0.00     0.031 C 
ATOM     62  C   UNL     1       1.121 -16.605  -7.295  1.00  0.00     0.029 A 
ATOM     63  C   UNL     1       1.022 -15.874  -6.122  1.00  0.00     0.049 A 
ATOM     64  H   UNL     1       1.362 -13.817  -5.803  1.00  0.00     0.167 HD
ATOM     65  C   UNL     1       0.603 -15.551  -3.699  1.00  0.00     0.074 A 
ATOM     66  C   UNL     1       0.222 -16.028  -2.387  1.00  0.00     0.031 C 
ATOM     67  C   UNL     1       0.652 -16.331  -4.807  1.00  0.00     0.037 A 
BRANCH  54  68
ATOM     68  C   UNL     1       2.242 -13.291  -9.939  1.00  0.00     0.057 A 
ATOM     69  C   UNL     1       3.535 -13.179 -10.467  1.00  0.00     0.134 A 
ATOM     70  C   UNL     1       1.184 -13.458 -10.839  1.00  0.00     0.134 A 
ATOM     71  F   UNL     1       4.588 -12.997  -9.655  1.00  0.00    -0.206 F 
ATOM     72  C   UNL     1       3.764 -13.215 -11.843  1.00  0.00     0.040 A 
ATOM     73  C   UNL     1       1.403 -13.516 -12.216  1.00  0.00     0.040 A 
ATOM     74  F   UNL     1      -0.077 -13.567 -10.396  1.00  0.00    -0.206 F 
ATOM     75  C   UNL     1       2.696 -13.390 -12.721  1.00  0.00     0.006 A 
ENDBRANCH  54  68
BRANCH  55  76
ATOM     76  C   UNL     1       0.591 -12.491  -0.134  1.00  0.00     0.057 A 
ATOM     77  C   UNL     1       1.427 -13.104   0.806  1.00  0.00     0.134 A 
ATOM     78  C   UNL     1      -0.534 -11.811   0.348  1.00  0.00     0.134 A 
ATOM     79  F   UNL     1       2.506 -13.791   0.402  1.00  0.00    -0.206 F 
ATOM     80  C   UNL     1       1.146 -13.060   2.172  1.00  0.00     0.040 A 
ATOM     81  C   UNL     1      -0.816 -11.742   1.713  1.00  0.00     0.040 A 
ATOM     82  F   UNL     1      -1.375 -11.205  -0.503  1.00  0.00    -0.206 F 
ATOM     83  C   UNL     1       0.022 -12.374   2.629  1.00  0.00     0.006 A 
ENDBRANCH  55  76
BRANCH  67  84
ATOM     84  C   UNL     1       0.313 -17.782  -4.644  1.00  0.00     0.057 A 
ATOM     85  C   UNL     1      -1.007 -18.216  -4.476  1.00  0.00     0.134 A 
ATOM     86  C   UNL     1       1.314 -18.760  -4.710  1.00  0.00     0.134 A 
ATOM     87  F   UNL     1      -2.009 -17.328  -4.395  1.00  0.00    -0.206 F 
ATOM     88  C   UNL     1      -1.319 -19.572  -4.362  1.00  0.00     0.040 A 
ATOM     89  C   UNL     1       1.013 -20.119  -4.619  1.00  0.00     0.040 A 
ATOM     90  F   UNL     1       2.598 -18.410  -4.879  1.00  0.00    -0.206 F 
ATOM     91  C   UNL     1      -0.307 -20.528  -4.441  1.00  0.00     0.006 A 
ENDBRANCH  67  84
ENDBRANCH  41  42
ENDBRANCH  34  36
ENDBRANCH  33  34
ENDBRANCH  32  33
ENDBRANCH  31  32
ENDBRANCH  30  31
ENDBRANCH  29  30
ENDBRANCH  28  29
ENDBRANCH   1  28
TORSDOF 22
