REMARK SMILES CC(C)COc1cccc(N2C[C@@H](C(=O)OCCOCCOCCOCCOC(=O)c3ccc(-c4c5nc(c(-c6c(F)cccc6F)c6ccc([nH]6)c(-c6c(F)cccc6F)c6nc(c(-c7c(F)cccc7F)c7ccc4[nH]7)C=C6)C=C5)cc3)CC2=O)c1
REMARK SMILES IDX 21 1 20 2 19 3 18 4 17 5 16 6 14 7 15 8 13 9 11 10 12 11
REMARK SMILES IDX 86 12 85 13 87 14 10 15 6 16 7 17 88 18 8 19 9 20 5 21 4 22
REMARK SMILES IDX 2 23 1 24 3 25 22 26 23 27 24 28 25 29 26 30 27 31 28 32
REMARK SMILES IDX 29 33 30 34 31 35 32 36 84 37 33 38 83 39 34 40 35 41 36 42
REMARK SMILES IDX 77 43 37 44 82 45 76 46 78 47 38 48 81 49 75 50 74 51 39 53
REMARK SMILES IDX 65 54 48 55 64 56 49 57 52 58 63 59 79 60 50 61 51 62 62 64
REMARK SMILES IDX 80 65 53 66 40 67 41 68 46 69 42 70 43 71 45 72 47 73 44 74
REMARK SMILES IDX 66 75 67 76 72 77 68 78 69 79 71 80 73 81 70 82 54 83 55 84
REMARK SMILES IDX 60 85 56 86 57 87 59 88 61 89 58 90
REMARK H PARENT 78 52 52 63
REMARK Flexibility Score: inf
ROOT
ATOM      1  C   UNL     1       6.948   3.450  -0.971  1.00  0.00     0.188 C 
ENDROOT
BRANCH   1   2
ATOM      2  C   UNL     1       6.871   4.981  -0.899  1.00  0.00     0.188 C 
BRANCH   2   3
ATOM      3  O   UNL     1       7.167   5.671   0.305  1.00  0.00    -0.376 OA
BRANCH   3   4
ATOM      4  C   UNL     1       6.675   5.204   1.554  1.00  0.00     0.202 C 
BRANCH   4   5
ATOM      5  C   UNL     1       5.204   4.787   1.734  1.00  0.00     0.261 C 
BRANCH   5   6
ATOM      6  O   UNL     1       4.666   3.968   0.681  1.00  0.00    -0.463 OA
BRANCH   6   7
ATOM      7  C   UNL     1       3.669   4.504  -0.054  1.00  0.00     0.311 C 
ATOM      8  O   UNL     1       3.123   5.574   0.192  1.00  0.00    -0.252 OA
BRANCH   7   9
ATOM      9  C   UNL     1       3.322   3.706  -1.291  1.00  0.00     0.128 C 
ATOM     10  N   UNL     1       1.559   2.384  -2.088  1.00  0.00    -0.311 N 
ATOM     11  C   UNL     1       1.816   3.564  -1.301  1.00  0.00     0.141 C 
ATOM     12  C   UNL     1       2.694   1.583  -2.184  1.00  0.00     0.227 C 
ATOM     13  C   UNL     1       3.803   2.269  -1.451  1.00  0.00     0.117 C 
ATOM     14  O   UNL     1       2.837   0.502  -2.734  1.00  0.00    -0.274 OA
BRANCH  10  15
ATOM     15  C   UNL     1       0.236   1.924  -2.259  1.00  0.00     0.047 A 
ATOM     16  C   UNL     1      -1.284   0.142  -1.745  1.00  0.00     0.121 A 
ATOM     17  C   UNL     1      -2.365   1.012  -1.814  1.00  0.00     0.046 A 
ATOM     18  C   UNL     1      -0.021   0.564  -2.121  1.00  0.00     0.072 A 
ATOM     19  C   UNL     1      -2.143   2.350  -2.146  1.00  0.00     0.006 A 
ATOM     20  C   UNL     1      -0.838   2.816  -2.315  1.00  0.00     0.026 A 
BRANCH  16  21
ATOM     21  O   UNL     1      -1.419  -1.129  -1.256  1.00  0.00    -0.493 OA
BRANCH  21  22
ATOM     22  C   UNL     1      -1.033  -1.209   0.141  1.00  0.00     0.232 C 
BRANCH  22  23
ATOM     23  C   UNL     1       0.489  -1.409   0.382  1.00  0.00     0.020 C 
ATOM     24  C   UNL     1       1.180  -0.127   0.874  1.00  0.00     0.011 C 
ATOM     25  C   UNL     1       0.745  -2.483   1.445  1.00  0.00     0.011 C 
ENDBRANCH  22  23
ENDBRANCH  21  22
ENDBRANCH  16  21
ENDBRANCH  10  15
ENDBRANCH   7   9
ENDBRANCH   6   7
ENDBRANCH   5   6
ENDBRANCH   4   5
ENDBRANCH   3   4
ENDBRANCH   2   3
ENDBRANCH   1   2
BRANCH   1  26
ATOM     26  O   UNL     1       6.973   2.777   0.270  1.00  0.00    -0.377 OA
BRANCH  26  27
ATOM     27  C   UNL     1       8.240   2.318   0.718  1.00  0.00     0.188 C 
BRANCH  27  28
ATOM     28  C   UNL     1       9.474   3.177   0.378  1.00  0.00     0.188 C 
BRANCH  28  29
ATOM     29  O   UNL     1       9.583   3.529  -0.995  1.00  0.00    -0.376 OA
BRANCH  29  30
ATOM     30  C   UNL     1      10.364   2.717  -1.861  1.00  0.00     0.202 C 
BRANCH  30  31
ATOM     31  C   UNL     1       9.936   1.256  -2.092  1.00  0.00     0.261 C 
BRANCH  31  32
ATOM     32  O   UNL     1       9.853   0.413  -0.933  1.00  0.00    -0.460 OA
BRANCH  32  33
ATOM     33  C   UNL     1      10.952   0.288  -0.158  1.00  0.00     0.338 C 
ATOM     34  O   UNL     1      12.052   0.753  -0.362  1.00  0.00    -0.246 OA
BRANCH  33  35
ATOM     35  C   UNL     1      10.530  -0.346   1.113  1.00  0.00     0.060 A 
ATOM     36  C   UNL     1      10.743   0.345   2.313  1.00  0.00     0.016 A 
ATOM     37  C   UNL     1       9.934  -1.609   1.122  1.00  0.00     0.016 A 
ATOM     38  C   UNL     1      10.398  -0.241   3.530  1.00  0.00     0.010 A 
ATOM     39  C   UNL     1       9.613  -2.208   2.344  1.00  0.00     0.010 A 
ATOM     40  C   UNL     1       9.878  -1.542   3.554  1.00  0.00    -0.014 A 
BRANCH  40  41
ATOM     41  C   UNL     1       9.816  -2.280   4.839  1.00  0.00     0.031 A 
ATOM     42  C   UNL     1      10.937  -3.228   5.169  1.00  0.00     0.074 A 
ATOM     43  C   UNL     1       8.810  -2.093   5.712  1.00  0.00     0.049 A 
ATOM     44  N   UNL     1      11.083  -4.019   6.200  1.00  0.00    -0.248 NA
ATOM     45  C   UNL     1      12.042  -3.293   4.198  1.00  0.00     0.031 C 
ATOM     46  C   UNL     1       7.696  -1.166   5.534  1.00  0.00     0.029 A 
ATOM     47  N   UNL     1       8.566  -2.689   6.924  1.00  0.00    -0.354 N 
ATOM     48  C   UNL     1      12.290  -4.679   5.999  1.00  0.00     0.074 A 
ATOM     49  C   UNL     1      12.818  -4.223   4.733  1.00  0.00     0.031 C 
ATOM     50  C   UNL     1       6.876  -1.264   6.596  1.00  0.00     0.029 A 
ATOM     51  C   UNL     1       7.389  -2.286   7.507  1.00  0.00     0.049 A 
ATOM     52  H   UNL     1       9.175  -3.343   7.336  1.00  0.00     0.167 HD
ATOM     53  C   UNL     1      12.906  -5.579   6.801  1.00  0.00     0.037 A 
ATOM     54  C   UNL     1       6.787  -2.715   8.634  1.00  0.00     0.037 A 
ATOM     55  C   UNL     1      12.375  -6.037   8.057  1.00  0.00     0.049 A 
ATOM     56  C   UNL     1       7.448  -3.785   9.465  1.00  0.00     0.074 A 
ATOM     57  C   UNL     1      12.927  -6.939   8.949  1.00  0.00     0.029 A 
ATOM     58  N   UNL     1      11.161  -5.635   8.595  1.00  0.00    -0.354 N 
ATOM     59  N   UNL     1       8.598  -4.389   9.280  1.00  0.00    -0.248 NA
ATOM     60  C   UNL     1       6.727  -4.233  10.666  1.00  0.00     0.031 C 
ATOM     61  C   UNL     1      12.020  -7.129   9.995  1.00  0.00     0.029 A 
ATOM     62  C   UNL     1      10.934  -6.293   9.791  1.00  0.00     0.049 A 
ATOM     63  H   UNL     1      10.552  -4.978   8.186  1.00  0.00     0.167 HD
ATOM     64  C   UNL     1       8.753  -5.257  10.355  1.00  0.00     0.074 A 
ATOM     65  C   UNL     1       7.586  -5.093  11.195  1.00  0.00     0.031 C 
ATOM     66  C   UNL     1       9.772  -6.112  10.625  1.00  0.00     0.037 A 
BRANCH  53  67
ATOM     67  C   UNL     1      14.210  -6.152   6.324  1.00  0.00     0.057 A 
ATOM     68  C   UNL     1      15.380  -5.385   6.260  1.00  0.00     0.134 A 
ATOM     69  C   UNL     1      14.300  -7.499   5.949  1.00  0.00     0.134 A 
ATOM     70  F   UNL     1      15.360  -4.084   6.588  1.00  0.00    -0.206 F 
ATOM     71  C   UNL     1      16.587  -5.929   5.816  1.00  0.00     0.040 A 
ATOM     72  C   UNL     1      15.507  -8.062   5.534  1.00  0.00     0.040 A 
ATOM     73  F   UNL     1      13.219  -8.291   5.990  1.00  0.00    -0.206 F 
ATOM     74  C   UNL     1      16.654  -7.274   5.459  1.00  0.00     0.006 A 
ENDBRANCH  53  67
BRANCH  54  75
ATOM     75  C   UNL     1       5.473  -2.151   9.042  1.00  0.00     0.057 A 
ATOM     76  C   UNL     1       5.341  -1.384  10.206  1.00  0.00     0.134 A 
ATOM     77  C   UNL     1       4.311  -2.398   8.300  1.00  0.00     0.134 A 
ATOM     78  F   UNL     1       6.411  -1.134  10.974  1.00  0.00    -0.206 F 
ATOM     79  C   UNL     1       4.101  -0.902  10.629  1.00  0.00     0.040 A 
ATOM     80  C   UNL     1       3.070  -1.897   8.695  1.00  0.00     0.040 A 
ATOM     81  F   UNL     1       4.367  -3.126   7.175  1.00  0.00    -0.206 F 
ATOM     82  C   UNL     1       2.960  -1.155   9.869  1.00  0.00     0.006 A 
ENDBRANCH  54  75
BRANCH  66  83
ATOM     83  C   UNL     1       9.698  -6.899  11.903  1.00  0.00     0.057 A 
ATOM     84  C   UNL     1       8.778  -7.938  12.088  1.00  0.00     0.134 A 
ATOM     85  C   UNL     1      10.596  -6.639  12.948  1.00  0.00     0.134 A 
ATOM     86  F   UNL     1       7.884  -8.233  11.132  1.00  0.00    -0.206 F 
ATOM     87  C   UNL     1       8.735  -8.672  13.275  1.00  0.00     0.040 A 
ATOM     88  C   UNL     1      10.584  -7.387  14.126  1.00  0.00     0.040 A 
ATOM     89  F   UNL     1      11.512  -5.666  12.834  1.00  0.00    -0.206 F 
ATOM     90  C   UNL     1       9.646  -8.403  14.295  1.00  0.00     0.006 A 
ENDBRANCH  66  83
ENDBRANCH  40  41
ENDBRANCH  33  35
ENDBRANCH  32  33
ENDBRANCH  31  32
ENDBRANCH  30  31
ENDBRANCH  29  30
ENDBRANCH  28  29
ENDBRANCH  27  28
ENDBRANCH  26  27
ENDBRANCH   1  26
TORSDOF 24
