REMARK SMILES C[C@@H]1Cc2ccccc2N1S(=O)(=O)c1cccc(C(=O)OCCOCCOCCOCCOC(=O)c2ccc(-c3c4nc(c(-c5c(F)cccc5F)c5ccc([nH]5)c(-c5c(F)cccc5F)c5nc(c(-c6c(F)cccc6F)c6ccc3[nH]6)C=C5)C=C4)cc2)c1
REMARK SMILES IDX 27 1 26 2 25 3 24 4 23 5 22 6 21 7 19 8 20 9 18 10 14 11
REMARK SMILES IDX 15 12 90 13 16 14 17 15 11 16 12 17 13 18 10 19 1 20 2 21
REMARK SMILES IDX 3 22 4 23 9 24 5 25 8 26 6 27 7 28 28 29 29 30 30 31 31 32
REMARK SMILES IDX 32 33 33 34 34 35 35 36 36 37 37 38 89 39 38 40 88 41 39 42
REMARK SMILES IDX 40 43 41 44 82 45 42 46 87 47 81 48 83 49 43 50 86 51 80 52
REMARK SMILES IDX 79 53 44 55 70 56 53 57 69 58 54 59 57 60 68 61 84 62 55 63
REMARK SMILES IDX 56 64 67 66 85 67 58 68 45 69 46 70 51 71 47 72 48 73 50 74
REMARK SMILES IDX 52 75 49 76 71 77 72 78 77 79 73 80 74 81 76 82 78 83 75 84
REMARK SMILES IDX 59 85 60 86 65 87 61 88 62 89 64 90 66 91 63 92
REMARK H PARENT 83 54 57 65
REMARK Flexibility Score: inf
ROOT
ATOM      1  O   UNL     1      -3.374   6.301   3.448  1.00  0.00    -0.377 OA
ENDROOT
BRANCH   1   2
ATOM      2  C   UNL     1      -2.365   7.196   3.015  1.00  0.00     0.188 C 
BRANCH   2   3
ATOM      3  C   UNL     1      -2.803   8.597   2.557  1.00  0.00     0.188 C 
BRANCH   3   4
ATOM      4  O   UNL     1      -4.153   8.902   2.878  1.00  0.00    -0.376 OA
BRANCH   4   5
ATOM      5  C   UNL     1      -5.070   8.969   1.796  1.00  0.00     0.202 C 
BRANCH   5   6
ATOM      6  C   UNL     1      -5.400   7.647   1.083  1.00  0.00     0.261 C 
BRANCH   6   7
ATOM      7  O   UNL     1      -4.269   6.877   0.648  1.00  0.00    -0.460 OA
BRANCH   7   8
ATOM      8  C   UNL     1      -3.580   7.351  -0.411  1.00  0.00     0.338 C 
ATOM      9  O   UNL     1      -3.847   8.350  -1.057  1.00  0.00    -0.246 OA
BRANCH   8  10
ATOM     10  C   UNL     1      -2.306   6.591  -0.537  1.00  0.00     0.061 A 
ATOM     11  C   UNL     1      -0.954   4.594  -0.370  1.00  0.00     0.088 A 
ATOM     12  C   UNL     1       0.174   5.329  -0.770  1.00  0.00     0.022 A 
ATOM     13  C   UNL     1      -2.207   5.216  -0.267  1.00  0.00     0.038 A 
ATOM     14  C   UNL     1       0.075   6.697  -0.999  1.00  0.00     0.002 A 
ATOM     15  C   UNL     1      -1.162   7.326  -0.888  1.00  0.00     0.016 A 
BRANCH  11  16
ATOM     16  S   UNL     1      -0.772   2.831  -0.211  1.00  0.00     0.264 S 
ATOM     17  O   UNL     1       0.254   2.457  -1.168  1.00  0.00    -0.201 OA
ATOM     18  O   UNL     1      -2.098   2.254  -0.330  1.00  0.00    -0.201 OA
BRANCH  16  19
ATOM     19  N   UNL     1      -0.195   2.443   1.362  1.00  0.00    -0.263 N 
ATOM     20  C   UNL     1      -0.735   0.035   1.849  1.00  0.00     0.032 C 
ATOM     21  C   UNL     1       0.345   1.008   1.409  1.00  0.00     0.101 C 
ATOM     22  C   UNL     1       1.554   1.013   2.368  1.00  0.00     0.063 C 
ATOM     23  C   UNL     1       1.801   2.467   2.583  1.00  0.00    -0.021 A 
ATOM     24  C   UNL     1       0.797   3.249   2.018  1.00  0.00     0.055 A 
ATOM     25  C   UNL     1       2.827   3.026   3.336  1.00  0.00     0.006 A 
ATOM     26  C   UNL     1       0.739   4.600   2.316  1.00  0.00     0.027 A 
ATOM     27  C   UNL     1       2.819   4.403   3.554  1.00  0.00     0.000 A 
ATOM     28  C   UNL     1       1.771   5.185   3.059  1.00  0.00     0.002 A 
ENDBRANCH  16  19
ENDBRANCH  11  16
ENDBRANCH   8  10
ENDBRANCH   7   8
ENDBRANCH   6   7
ENDBRANCH   5   6
ENDBRANCH   4   5
ENDBRANCH   3   4
ENDBRANCH   2   3
ENDBRANCH   1   2
BRANCH   1  29
ATOM     29  C   UNL     1      -4.235   6.678   4.520  1.00  0.00     0.188 C 
BRANCH  29  30
ATOM     30  C   UNL     1      -3.910   7.851   5.474  1.00  0.00     0.188 C 
BRANCH  30  31
ATOM     31  O   UNL     1      -2.548   8.253   5.486  1.00  0.00    -0.376 OA
BRANCH  31  32
ATOM     32  C   UNL     1      -1.815   7.984   6.670  1.00  0.00     0.202 C 
BRANCH  32  33
ATOM     33  C   UNL     1      -1.445   6.510   6.864  1.00  0.00     0.261 C 
BRANCH  33  34
ATOM     34  O   UNL     1      -2.554   5.601   6.929  1.00  0.00    -0.460 OA
BRANCH  34  35
ATOM     35  C   UNL     1      -3.429   5.751   7.955  1.00  0.00     0.338 C 
ATOM     36  O   UNL     1      -3.390   6.561   8.844  1.00  0.00    -0.246 OA
BRANCH  35  37
ATOM     37  C   UNL     1      -4.564   4.837   7.675  1.00  0.00     0.060 A 
ATOM     38  C   UNL     1      -4.324   3.488   7.408  1.00  0.00     0.016 A 
ATOM     39  C   UNL     1      -5.866   5.352   7.630  1.00  0.00     0.016 A 
ATOM     40  C   UNL     1      -5.395   2.643   7.118  1.00  0.00     0.010 A 
ATOM     41  C   UNL     1      -6.938   4.504   7.332  1.00  0.00     0.010 A 
ATOM     42  C   UNL     1      -6.710   3.140   7.096  1.00  0.00    -0.014 A 
BRANCH  42  43
ATOM     43  C   UNL     1      -7.842   2.186   7.006  1.00  0.00     0.031 A 
ATOM     44  C   UNL     1      -8.602   1.960   5.735  1.00  0.00     0.074 A 
ATOM     45  C   UNL     1      -8.167   1.500   8.118  1.00  0.00     0.049 A 
ATOM     46  N   UNL     1      -9.551   1.090   5.491  1.00  0.00    -0.248 NA
ATOM     47  C   UNL     1      -8.262   2.820   4.594  1.00  0.00     0.031 C 
ATOM     48  C   UNL     1      -7.516   1.659   9.421  1.00  0.00     0.029 A 
ATOM     49  N   UNL     1      -9.112   0.532   8.333  1.00  0.00    -0.354 N 
ATOM     50  C   UNL     1      -9.905   1.274   4.161  1.00  0.00     0.074 A 
ATOM     51  C   UNL     1      -9.104   2.377   3.667  1.00  0.00     0.031 C 
ATOM     52  C   UNL     1      -8.066   0.801  10.293  1.00  0.00     0.029 A 
ATOM     53  C   UNL     1      -9.121   0.052   9.619  1.00  0.00     0.049 A 
ATOM     54  H   UNL     1      -9.726   0.212   7.633  1.00  0.00     0.167 HD
ATOM     55  C   UNL     1     -10.800   0.574   3.421  1.00  0.00     0.037 A 
ATOM     56  C   UNL     1      -9.892  -0.889  10.192  1.00  0.00     0.037 A 
ATOM     57  C   UNL     1     -11.615  -0.505   3.928  1.00  0.00     0.049 A 
ATOM     58  C   UNL     1     -10.917  -1.605   9.360  1.00  0.00     0.074 A 
ATOM     59  C   UNL     1     -12.530  -1.292   3.246  1.00  0.00     0.029 A 
ATOM     60  N   UNL     1     -11.627  -0.940   5.245  1.00  0.00    -0.354 N 
ATOM     61  N   UNL     1     -11.183  -1.478   8.083  1.00  0.00    -0.248 NA
ATOM     62  C   UNL     1     -11.745  -2.602  10.051  1.00  0.00     0.031 C 
ATOM     63  C   UNL     1     -13.130  -2.165   4.160  1.00  0.00     0.029 A 
ATOM     64  C   UNL     1     -12.554  -1.961   5.402  1.00  0.00     0.049 A 
ATOM     65  H   UNL     1     -11.062  -0.576   5.964  1.00  0.00     0.167 HD
ATOM     66  C   UNL     1     -12.188  -2.397   7.812  1.00  0.00     0.074 A 
ATOM     67  C   UNL     1     -12.465  -3.091   9.053  1.00  0.00     0.031 C 
ATOM     68  C   UNL     1     -12.827  -2.642   6.642  1.00  0.00     0.037 A 
BRANCH  55  69
ATOM     69  C   UNL     1     -10.947   0.946   1.973  1.00  0.00     0.057 A 
ATOM     70  C   UNL     1     -12.124   1.535   1.493  1.00  0.00     0.134 A 
ATOM     71  C   UNL     1      -9.943   0.661   1.038  1.00  0.00     0.134 A 
ATOM     72  F   UNL     1     -13.133   1.822   2.329  1.00  0.00    -0.206 F 
ATOM     73  C   UNL     1     -12.297   1.825   0.138  1.00  0.00     0.040 A 
ATOM     74  C   UNL     1     -10.094   0.969  -0.316  1.00  0.00     0.040 A 
ATOM     75  F   UNL     1      -8.790   0.097   1.431  1.00  0.00    -0.206 F 
ATOM     76  C   UNL     1     -11.277   1.547  -0.770  1.00  0.00     0.006 A 
ENDBRANCH  55  69
BRANCH  56  77
ATOM     77  C   UNL     1      -9.722  -1.221  11.628  1.00  0.00     0.057 A 
ATOM     78  C   UNL     1     -10.081  -0.313  12.632  1.00  0.00     0.134 A 
ATOM     79  C   UNL     1      -9.236  -2.470  12.030  1.00  0.00     0.134 A 
ATOM     80  F   UNL     1     -10.544   0.904  12.311  1.00  0.00    -0.206 F 
ATOM     81  C   UNL     1      -9.968  -0.638  13.983  1.00  0.00     0.040 A 
ATOM     82  C   UNL     1      -9.146  -2.819  13.378  1.00  0.00     0.040 A 
ATOM     83  F   UNL     1      -8.891  -3.387  11.114  1.00  0.00    -0.206 F 
ATOM     84  C   UNL     1      -9.511  -1.900  14.359  1.00  0.00     0.006 A 
ENDBRANCH  56  77
BRANCH  68  85
ATOM     85  C   UNL     1     -13.870  -3.723   6.654  1.00  0.00     0.057 A 
ATOM     86  C   UNL     1     -13.646  -4.941   5.998  1.00  0.00     0.134 A 
ATOM     87  C   UNL     1     -15.094  -3.565   7.319  1.00  0.00     0.134 A 
ATOM     88  F   UNL     1     -12.499  -5.158   5.337  1.00  0.00    -0.206 F 
ATOM     89  C   UNL     1     -14.597  -5.962   6.008  1.00  0.00     0.040 A 
ATOM     90  C   UNL     1     -16.040  -4.590   7.362  1.00  0.00     0.040 A 
ATOM     91  F   UNL     1     -15.365  -2.431   7.983  1.00  0.00    -0.206 F 
ATOM     92  C   UNL     1     -15.794  -5.792   6.701  1.00  0.00     0.006 A 
ENDBRANCH  68  85
ENDBRANCH  42  43
ENDBRANCH  35  37
ENDBRANCH  34  35
ENDBRANCH  33  34
ENDBRANCH  32  33
ENDBRANCH  31  32
ENDBRANCH  30  31
ENDBRANCH  29  30
ENDBRANCH   1  29
TORSDOF 22
