REMARK SMILES O=C(OCCOCCOCCOCCOC(=O)[C@H](c1ccccc1)C(c1ccccc1)c1ccccc1)c1ccc(-c2c3nc(c(-c4c(F)cccc4F)c4ccc([nH]4)c(-c4c(F)cccc4F)c4nc(c(-c5c(F)cccc5F)c5ccc2[nH]5)C=C4)C=C3)cc1
REMARK SMILES IDX 9 1 8 2 7 3 6 4 5 5 4 6 3 7 2 8 1 9 38 10 39 11 91 12 40 13
REMARK SMILES IDX 90 14 41 15 42 16 43 17 84 18 44 19 89 20 83 21 85 22 45 23
REMARK SMILES IDX 88 24 82 25 81 26 46 28 72 29 55 30 71 31 56 32 59 33 70 34
REMARK SMILES IDX 86 35 57 36 58 37 69 39 87 40 60 41 47 42 48 43 53 44 49 45
REMARK SMILES IDX 50 46 52 47 54 48 51 49 73 50 74 51 79 52 75 53 76 54 78 55
REMARK SMILES IDX 80 56 77 57 61 58 62 59 67 60 63 61 64 62 66 63 68 64 65 65
REMARK SMILES IDX 10 66 11 67 12 68 13 69 14 70 15 71 16 72 17 73 18 74 25 75
REMARK SMILES IDX 26 76 27 77 31 78 28 79 30 80 29 81 32 82 33 83 37 84 34 85
REMARK SMILES IDX 36 86 35 87 19 88 20 89 24 90 21 91 23 92 22 93
REMARK H PARENT 85 27 59 38
REMARK Flexibility Score: inf
ROOT
ATOM      1  O   UNL     1       6.632   4.557  -1.603  1.00  0.00    -0.377 OA
ENDROOT
BRANCH   1   2
ATOM      2  C   UNL     1       7.306   3.768  -2.578  1.00  0.00     0.188 C 
BRANCH   2   3
ATOM      3  C   UNL     1       8.004   2.550  -1.981  1.00  0.00     0.188 C 
BRANCH   3   4
ATOM      4  O   UNL     1       7.011   1.664  -1.471  1.00  0.00    -0.376 OA
BRANCH   4   5
ATOM      5  C   UNL     1       7.359   0.917  -0.311  1.00  0.00     0.202 C 
BRANCH   5   6
ATOM      6  C   UNL     1       8.174  -0.335  -0.623  1.00  0.00     0.261 C 
BRANCH   6   7
ATOM      7  O   UNL     1       8.861  -0.258  -1.886  1.00  0.00    -0.460 OA
BRANCH   7   8
ATOM      8  C   UNL     1       8.390  -0.578  -3.118  1.00  0.00     0.338 C 
ATOM      9  O   UNL     1       9.135  -0.460  -4.089  1.00  0.00    -0.246 OA
BRANCH   8  10
ATOM     10  C   UNL     1       7.027  -1.137  -3.354  1.00  0.00     0.060 A 
ATOM     11  C   UNL     1       5.886  -0.752  -2.660  1.00  0.00     0.016 A 
ATOM     12  C   UNL     1       6.873  -2.061  -4.399  1.00  0.00     0.016 A 
ATOM     13  C   UNL     1       4.661  -1.350  -2.873  1.00  0.00     0.010 A 
ATOM     14  C   UNL     1       5.620  -2.623  -4.678  1.00  0.00     0.010 A 
ATOM     15  C   UNL     1       4.519  -2.297  -3.877  1.00  0.00    -0.014 A 
BRANCH  15  16
ATOM     16  C   UNL     1       3.248  -3.042  -3.901  1.00  0.00     0.031 A 
ATOM     17  C   UNL     1       3.269  -4.466  -3.437  1.00  0.00     0.074 A 
ATOM     18  C   UNL     1       2.092  -2.385  -4.113  1.00  0.00     0.049 A 
ATOM     19  N   UNL     1       2.301  -5.339  -3.396  1.00  0.00    -0.248 NA
ATOM     20  C   UNL     1       4.559  -4.974  -2.931  1.00  0.00     0.031 C 
ATOM     21  C   UNL     1       1.974  -0.950  -4.401  1.00  0.00     0.029 A 
ATOM     22  N   UNL     1       0.795  -2.818  -4.062  1.00  0.00    -0.354 N 
ATOM     23  C   UNL     1       2.873  -6.504  -2.902  1.00  0.00     0.074 A 
ATOM     24  C   UNL     1       4.271  -6.236  -2.662  1.00  0.00     0.031 C 
ATOM     25  C   UNL     1       0.675  -0.619  -4.461  1.00  0.00     0.029 A 
ATOM     26  C   UNL     1      -0.124  -1.828  -4.315  1.00  0.00     0.049 A 
ATOM     27  H   UNL     1       0.545  -3.749  -3.863  1.00  0.00     0.167 HD
ATOM     28  C   UNL     1       2.272  -7.693  -2.673  1.00  0.00     0.037 A 
ATOM     29  C   UNL     1      -1.459  -1.913  -4.460  1.00  0.00     0.037 A 
ATOM     30  C   UNL     1       0.874  -7.917  -2.913  1.00  0.00     0.049 A 
ATOM     31  C   UNL     1      -2.086  -3.272  -4.313  1.00  0.00     0.074 A 
ATOM     32  C   UNL     1       0.156  -9.093  -2.840  1.00  0.00     0.029 A 
ATOM     33  N   UNL     1      -0.021  -6.914  -3.267  1.00  0.00    -0.354 N 
ATOM     34  N   UNL     1      -1.522  -4.409  -3.976  1.00  0.00    -0.248 NA
ATOM     35  C   UNL     1      -3.523  -3.370  -4.587  1.00  0.00     0.031 C 
ATOM     36  C   UNL     1      -1.171  -8.807  -3.182  1.00  0.00     0.029 A 
ATOM     37  C   UNL     1      -1.287  -7.445  -3.421  1.00  0.00     0.049 A 
ATOM     38  H   UNL     1       0.213  -5.966  -3.389  1.00  0.00     0.167 HD
ATOM     39  C   UNL     1      -2.533  -5.357  -3.993  1.00  0.00     0.074 A 
ATOM     40  C   UNL     1      -3.753  -4.651  -4.338  1.00  0.00     0.031 C 
ATOM     41  C   UNL     1      -2.469  -6.692  -3.761  1.00  0.00     0.037 A 
BRANCH  28  42
ATOM     42  C   UNL     1       3.150  -8.820  -2.221  1.00  0.00     0.057 A 
ATOM     43  C   UNL     1       3.691  -8.876  -0.930  1.00  0.00     0.134 A 
ATOM     44  C   UNL     1       3.512  -9.835  -3.116  1.00  0.00     0.134 A 
ATOM     45  F   UNL     1       3.417  -7.912  -0.036  1.00  0.00    -0.206 F 
ATOM     46  C   UNL     1       4.579  -9.886  -0.553  1.00  0.00     0.040 A 
ATOM     47  C   UNL     1       4.381 -10.862  -2.745  1.00  0.00     0.040 A 
ATOM     48  F   UNL     1       3.044  -9.832  -4.373  1.00  0.00    -0.206 F 
ATOM     49  C   UNL     1       4.924 -10.884  -1.462  1.00  0.00     0.006 A 
ENDBRANCH  28  42
BRANCH  29  50
ATOM     50  C   UNL     1      -2.260  -0.721  -4.850  1.00  0.00     0.057 A 
ATOM     51  C   UNL     1      -3.270  -0.209  -4.028  1.00  0.00     0.134 A 
ATOM     52  C   UNL     1      -2.058  -0.084  -6.083  1.00  0.00     0.134 A 
ATOM     53  F   UNL     1      -3.532  -0.781  -2.843  1.00  0.00    -0.206 F 
ATOM     54  C   UNL     1      -4.062   0.873  -4.425  1.00  0.00     0.040 A 
ATOM     55  C   UNL     1      -2.819   1.018  -6.478  1.00  0.00     0.040 A 
ATOM     56  F   UNL     1      -1.109  -0.520  -6.924  1.00  0.00    -0.206 F 
ATOM     57  C   UNL     1      -3.834   1.492  -5.653  1.00  0.00     0.006 A 
ENDBRANCH  29  50
BRANCH  41  58
ATOM     58  C   UNL     1      -3.759  -7.446  -3.848  1.00  0.00     0.057 A 
ATOM     59  C   UNL     1      -4.377  -7.707  -5.077  1.00  0.00     0.134 A 
ATOM     60  C   UNL     1      -4.371  -7.939  -2.690  1.00  0.00     0.134 A 
ATOM     61  F   UNL     1      -3.844  -7.245  -6.219  1.00  0.00    -0.206 F 
ATOM     62  C   UNL     1      -5.577  -8.411  -5.149  1.00  0.00     0.040 A 
ATOM     63  C   UNL     1      -5.556  -8.670  -2.752  1.00  0.00     0.040 A 
ATOM     64  F   UNL     1      -3.820  -7.729  -1.485  1.00  0.00    -0.206 F 
ATOM     65  C   UNL     1      -6.166  -8.901  -3.983  1.00  0.00     0.006 A 
ENDBRANCH  41  58
ENDBRANCH  15  16
ENDBRANCH   8  10
ENDBRANCH   7   8
ENDBRANCH   6   7
ENDBRANCH   5   6
ENDBRANCH   4   5
ENDBRANCH   3   4
ENDBRANCH   2   3
ENDBRANCH   1   2
BRANCH   1  66
ATOM     66  C   UNL     1       5.668   3.867  -0.819  1.00  0.00     0.188 C 
BRANCH  66  67
ATOM     67  C   UNL     1       4.457   3.214  -1.515  1.00  0.00     0.188 C 
BRANCH  67  68
ATOM     68  O   UNL     1       4.319   3.563  -2.886  1.00  0.00    -0.376 OA
BRANCH  68  69
ATOM     69  C   UNL     1       3.227   4.436  -3.161  1.00  0.00     0.202 C 
BRANCH  69  70
ATOM     70  C   UNL     1       3.427   5.883  -2.701  1.00  0.00     0.261 C 
BRANCH  70  71
ATOM     71  O   UNL     1       3.872   6.003  -1.338  1.00  0.00    -0.463 OA
BRANCH  71  72
ATOM     72  C   UNL     1       3.004   6.206  -0.310  1.00  0.00     0.314 C 
ATOM     73  O   UNL     1       1.790   6.214  -0.422  1.00  0.00    -0.252 OA
BRANCH  72  74
ATOM     74  C   UNL     1       3.805   6.424   0.994  1.00  0.00     0.141 C 
BRANCH  74  75
ATOM     75  C   UNL     1       4.016   7.962   1.212  1.00  0.00     0.068 C 
BRANCH  75  76
ATOM     76  C   UNL     1       4.796   8.368   2.474  1.00  0.00    -0.039 A 
ATOM     77  C   UNL     1       5.662   7.506   3.167  1.00  0.00     0.004 A 
ATOM     78  C   UNL     1       4.570   9.648   3.012  1.00  0.00     0.004 A 
ATOM     79  C   UNL     1       6.172   7.862   4.418  1.00  0.00     0.000 A 
ATOM     80  C   UNL     1       5.109  10.015   4.245  1.00  0.00     0.000 A 
ATOM     81  C   UNL     1       5.884   9.110   4.963  1.00  0.00     0.000 A 
ENDBRANCH  75  76
BRANCH  75  82
ATOM     82  C   UNL     1       4.618   8.666  -0.022  1.00  0.00    -0.039 A 
ATOM     83  C   UNL     1       5.778   8.202  -0.670  1.00  0.00     0.004 A 
ATOM     84  C   UNL     1       3.989   9.811  -0.537  1.00  0.00     0.004 A 
ATOM     85  C   UNL     1       6.256   8.832  -1.824  1.00  0.00     0.000 A 
ATOM     86  C   UNL     1       4.484  10.455  -1.674  1.00  0.00     0.000 A 
ATOM     87  C   UNL     1       5.610   9.959  -2.325  1.00  0.00     0.000 A 
ENDBRANCH  75  82
ENDBRANCH  74  75
BRANCH  74  88
ATOM     88  C   UNL     1       3.316   5.511   2.142  1.00  0.00    -0.033 A 
ATOM     89  C   UNL     1       2.854   5.991   3.372  1.00  0.00     0.004 A 
ATOM     90  C   UNL     1       3.483   4.114   2.031  1.00  0.00     0.004 A 
ATOM     91  C   UNL     1       2.675   5.127   4.463  1.00  0.00     0.000 A 
ATOM     92  C   UNL     1       3.281   3.246   3.107  1.00  0.00     0.000 A 
ATOM     93  C   UNL     1       2.900   3.759   4.336  1.00  0.00     0.000 A 
ENDBRANCH  74  88
ENDBRANCH  72  74
ENDBRANCH  71  72
ENDBRANCH  70  71
ENDBRANCH  69  70
ENDBRANCH  68  69
ENDBRANCH  67  68
ENDBRANCH  66  67
ENDBRANCH   1  66
TORSDOF 24
