REMARK SMILES CCOC(=O)C1=C(C)N(c2ccccc2)C(=O)[C@@H]1CC(=O)OCCOCCOCCOCCOC(=O)c1ccc(-c2c3nc(c(-c4c(F)cccc4F)c4ccc([nH]4)c(-c4c(F)cccc4F)c4nc(c(-c5c(F)cccc5F)c5ccc2[nH]5)C=C4)C=C3)cc1
REMARK SMILES IDX 27 1 26 2 25 3 24 4 23 5 22 6 20 7 21 8 19 9 18 10 6 11 7 12
REMARK SMILES IDX 8 13 9 14 16 15 17 16 4 17 5 18 3 19 2 20 1 21 10 22 11 23
REMARK SMILES IDX 15 24 12 25 14 26 13 27 28 28 29 29 30 30 31 31 32 32 33 33
REMARK SMILES IDX 34 34 35 35 36 36 37 37 38 38 90 39 39 40 89 41 40 42 41 43
REMARK SMILES IDX 42 44 83 45 43 46 88 47 82 48 84 49 44 50 87 51 81 52 80 53
REMARK SMILES IDX 45 55 71 56 54 57 70 58 55 59 58 60 69 61 85 62 56 63 57 64
REMARK SMILES IDX 68 66 86 67 59 68 46 69 47 70 52 71 48 72 49 73 51 74 53 75
REMARK SMILES IDX 50 76 72 77 73 78 78 79 74 80 75 81 77 82 79 83 76 84 60 85
REMARK SMILES IDX 61 86 66 87 62 88 63 89 65 90 67 91 64 92
REMARK H PARENT 84 54 58 65
REMARK Flexibility Score: inf
ROOT
ATOM      1  C   UNL     1      -0.242   2.638  -6.269  1.00  0.00     0.188 C 
ENDROOT
BRANCH   1   2
ATOM      2  C   UNL     1      -0.384   4.155  -6.459  1.00  0.00     0.188 C 
BRANCH   2   3
ATOM      3  O   UNL     1      -0.328   4.574  -7.802  1.00  0.00    -0.376 OA
BRANCH   3   4
ATOM      4  C   UNL     1       0.865   5.135  -8.322  1.00  0.00     0.202 C 
BRANCH   4   5
ATOM      5  C   UNL     1       2.274   4.872  -7.752  1.00  0.00     0.261 C 
BRANCH   5   6
ATOM      6  O   UNL     1       2.391   3.916  -6.690  1.00  0.00    -0.463 OA
BRANCH   6   7
ATOM      7  C   UNL     1       2.953   4.355  -5.543  1.00  0.00     0.307 C 
ATOM      8  O   UNL     1       3.208   5.532  -5.306  1.00  0.00    -0.252 OA
BRANCH   7   9
ATOM      9  C   UNL     1       3.178   3.289  -4.492  1.00  0.00     0.141 C 
BRANCH   9  10
ATOM     10  C   UNL     1       3.017   1.825  -4.866  1.00  0.00     0.130 C 
ATOM     11  C   UNL     1       3.317   0.871  -3.743  1.00  0.00     0.070 C 
ATOM     12  C   UNL     1       4.173  -0.094  -4.104  1.00  0.00     0.034 C 
ATOM     13  C   UNL     1       4.771  -1.144  -3.224  1.00  0.00     0.065 C 
ATOM     14  N   UNL     1       4.577   0.123  -5.412  1.00  0.00    -0.284 N 
ATOM     15  C   UNL     1       4.030   1.335  -5.896  1.00  0.00     0.239 C 
ATOM     16  O   UNL     1       4.257   1.893  -6.960  1.00  0.00    -0.273 OA
BRANCH  11  17
ATOM     17  C   UNL     1       2.805   1.063  -2.387  1.00  0.00     0.336 C 
ATOM     18  O   UNL     1       3.511   1.355  -1.437  1.00  0.00    -0.246 OA
BRANCH  17  19
ATOM     19  O   UNL     1       1.463   0.888  -2.381  1.00  0.00    -0.463 OA
BRANCH  19  20
ATOM     20  C   UNL     1       0.823   1.098  -1.111  1.00  0.00     0.230 C 
ATOM     21  C   UNL     1       0.993  -0.101  -0.192  1.00  0.00     0.049 C 
ENDBRANCH  19  20
ENDBRANCH  17  19
ENDBRANCH  11  17
BRANCH  14  22
ATOM     22  C   UNL     1       5.421  -0.687  -6.218  1.00  0.00     0.049 A 
ATOM     23  C   UNL     1       5.313  -2.084  -6.199  1.00  0.00     0.027 A 
ATOM     24  C   UNL     1       6.349  -0.105  -7.091  1.00  0.00     0.027 A 
ATOM     25  C   UNL     1       6.122  -2.876  -7.021  1.00  0.00     0.002 A 
ATOM     26  C   UNL     1       7.167  -0.894  -7.902  1.00  0.00     0.002 A 
ATOM     27  C   UNL     1       7.054  -2.280  -7.865  1.00  0.00     0.000 A 
ENDBRANCH  14  22
ENDBRANCH   9  10
ENDBRANCH   7   9
ENDBRANCH   6   7
ENDBRANCH   5   6
ENDBRANCH   4   5
ENDBRANCH   3   4
ENDBRANCH   2   3
ENDBRANCH   1   2
BRANCH   1  28
ATOM     28  O   UNL     1       0.572   1.899  -7.170  1.00  0.00    -0.377 OA
BRANCH  28  29
ATOM     29  C   UNL     1       0.253   1.856  -8.561  1.00  0.00     0.188 C 
BRANCH  29  30
ATOM     30  C   UNL     1      -1.185   2.128  -9.051  1.00  0.00     0.188 C 
BRANCH  30  31
ATOM     31  O   UNL     1      -2.192   1.960  -8.070  1.00  0.00    -0.376 OA
BRANCH  31  32
ATOM     32  C   UNL     1      -2.856   0.706  -8.010  1.00  0.00     0.202 C 
BRANCH  32  33
ATOM     33  C   UNL     1      -1.984  -0.536  -7.776  1.00  0.00     0.261 C 
BRANCH  33  34
ATOM     34  O   UNL     1      -1.058  -0.859  -8.829  1.00  0.00    -0.460 OA
BRANCH  34  35
ATOM     35  C   UNL     1      -1.552  -1.036 -10.074  1.00  0.00     0.338 C 
ATOM     36  O   UNL     1      -2.712  -1.024 -10.424  1.00  0.00    -0.246 OA
BRANCH  35  37
ATOM     37  C   UNL     1      -0.403  -1.087 -10.999  1.00  0.00     0.060 A 
ATOM     38  C   UNL     1      -0.266  -0.087 -11.971  1.00  0.00     0.016 A 
ATOM     39  C   UNL     1       0.519  -2.131 -10.916  1.00  0.00     0.016 A 
ATOM     40  C   UNL     1       0.784  -0.148 -12.887  1.00  0.00     0.010 A 
ATOM     41  C   UNL     1       1.558  -2.201 -11.846  1.00  0.00     0.010 A 
ATOM     42  C   UNL     1       1.677  -1.228 -12.854  1.00  0.00    -0.014 A 
BRANCH  42  43
ATOM     43  C   UNL     1       2.622  -1.442 -13.975  1.00  0.00     0.031 A 
ATOM     44  C   UNL     1       2.244  -2.422 -15.051  1.00  0.00     0.074 A 
ATOM     45  C   UNL     1       3.792  -0.784 -14.038  1.00  0.00     0.049 A 
ATOM     46  N   UNL     1       2.938  -2.837 -16.079  1.00  0.00    -0.248 NA
ATOM     47  C   UNL     1       0.902  -3.019 -14.949  1.00  0.00     0.031 C 
ATOM     48  C   UNL     1       4.254   0.215 -13.077  1.00  0.00     0.029 A 
ATOM     49  N   UNL     1       4.815  -0.877 -14.949  1.00  0.00    -0.354 N 
ATOM     50  C   UNL     1       2.125  -3.752 -16.736  1.00  0.00     0.074 A 
ATOM     51  C   UNL     1       0.895  -3.849 -15.981  1.00  0.00     0.031 C 
ATOM     52  C   UNL     1       5.481   0.630 -13.439  1.00  0.00     0.029 A 
ATOM     53  C   UNL     1       5.904  -0.103 -14.631  1.00  0.00     0.049 A 
ATOM     54  H   UNL     1       4.772  -1.444 -15.753  1.00  0.00     0.167 HD
ATOM     55  C   UNL     1       2.381  -4.446 -17.870  1.00  0.00     0.037 A 
ATOM     56  C   UNL     1       7.115  -0.023 -15.219  1.00  0.00     0.037 A 
ATOM     57  C   UNL     1       3.604  -4.345 -18.620  1.00  0.00     0.049 A 
ATOM     58  C   UNL     1       7.401  -0.859 -16.441  1.00  0.00     0.074 A 
ATOM     59  C   UNL     1       3.946  -4.982 -19.800  1.00  0.00     0.029 A 
ATOM     60  N   UNL     1       4.691  -3.564 -18.257  1.00  0.00    -0.354 N 
ATOM     61  N   UNL     1       6.615  -1.695 -17.077  1.00  0.00    -0.248 NA
ATOM     62  C   UNL     1       8.744  -0.741 -17.028  1.00  0.00     0.031 C 
ATOM     63  C   UNL     1       5.262  -4.635 -20.118  1.00  0.00     0.029 A 
ATOM     64  C   UNL     1       5.718  -3.732 -19.171  1.00  0.00     0.049 A 
ATOM     65  H   UNL     1       4.727  -2.977 -17.467  1.00  0.00     0.167 HD
ATOM     66  C   UNL     1       7.356  -2.177 -18.150  1.00  0.00     0.074 A 
ATOM     67  C   UNL     1       8.649  -1.531 -18.088  1.00  0.00     0.031 C 
ATOM     68  C   UNL     1       6.998  -3.075 -19.102  1.00  0.00     0.037 A 
BRANCH  55  69
ATOM     69  C   UNL     1       1.332  -5.406 -18.350  1.00  0.00     0.057 A 
ATOM     70  C   UNL     1       0.124  -4.970 -18.909  1.00  0.00     0.134 A 
ATOM     71  C   UNL     1       1.557  -6.787 -18.292  1.00  0.00     0.134 A 
ATOM     72  F   UNL     1      -0.160  -3.661 -18.980  1.00  0.00    -0.206 F 
ATOM     73  C   UNL     1      -0.831  -5.875 -19.375  1.00  0.00     0.040 A 
ATOM     74  C   UNL     1       0.622  -7.701 -18.780  1.00  0.00     0.040 A 
ATOM     75  F   UNL     1       2.694  -7.272 -17.771  1.00  0.00    -0.206 F 
ATOM     76  C   UNL     1      -0.579  -7.245 -19.320  1.00  0.00     0.006 A 
ENDBRANCH  55  69
BRANCH  56  77
ATOM     77  C   UNL     1       8.167   0.855 -14.645  1.00  0.00     0.057 A 
ATOM     78  C   UNL     1       8.633   1.981 -15.334  1.00  0.00     0.134 A 
ATOM     79  C   UNL     1       8.761   0.567 -13.409  1.00  0.00     0.134 A 
ATOM     80  F   UNL     1       8.125   2.295 -16.535  1.00  0.00    -0.206 F 
ATOM     81  C   UNL     1       9.664   2.775 -14.827  1.00  0.00     0.040 A 
ATOM     82  C   UNL     1       9.771   1.368 -12.877  1.00  0.00     0.040 A 
ATOM     83  F   UNL     1       8.364  -0.500 -12.699  1.00  0.00    -0.206 F 
ATOM     84  C   UNL     1      10.233   2.471 -13.592  1.00  0.00     0.006 A 
ENDBRANCH  56  77
BRANCH  68  85
ATOM     85  C   UNL     1       8.000  -3.385 -20.177  1.00  0.00     0.057 A 
ATOM     86  C   UNL     1       9.151  -4.141 -19.923  1.00  0.00     0.134 A 
ATOM     87  C   UNL     1       7.779  -2.968 -21.497  1.00  0.00     0.134 A 
ATOM     88  F   UNL     1       9.428  -4.563 -18.680  1.00  0.00    -0.206 F 
ATOM     89  C   UNL     1      10.057  -4.454 -20.939  1.00  0.00     0.040 A 
ATOM     90  C   UNL     1       8.662  -3.300 -22.526  1.00  0.00     0.040 A 
ATOM     91  F   UNL     1       6.690  -2.251 -21.812  1.00  0.00    -0.206 F 
ATOM     92  C   UNL     1       9.808  -4.040 -22.246  1.00  0.00     0.006 A 
ENDBRANCH  68  85
ENDBRANCH  42  43
ENDBRANCH  35  37
ENDBRANCH  34  35
ENDBRANCH  33  34
ENDBRANCH  32  33
ENDBRANCH  31  32
ENDBRANCH  30  31
ENDBRANCH  29  30
ENDBRANCH  28  29
ENDBRANCH   1  28
TORSDOF 25
