REMARK SMILES CS(=O)(=O)c1ccc(/C=C(/C(=O)OCCOCCOCCOCCOC(=O)c2ccc(-c3c4nc(c(-c5c(F)cccc5F)c5ccc([nH]5)c(-c5c(F)cccc5F)c5nc(c(-c6c(F)cccc6F)c6ccc3[nH]6)C=C5)C=C4)cc2)c2cccc(-c3ccc(S(C)(=O)=O)cc3)c2)cc1
REMARK SMILES IDX 18 1 17 2 16 3 15 4 14 5 13 6 11 7 12 8 10 9 9 10 8 11 5 12
REMARK SMILES IDX 6 13 99 14 7 15 98 16 2 17 1 18 3 19 4 20 82 21 83 22 97 23
REMARK SMILES IDX 84 24 86 25 85 26 87 27 88 28 96 29 89 30 95 31 90 32 91 33
REMARK SMILES IDX 92 34 93 35 94 36 19 37 20 38 21 39 22 40 23 41 24 42 25 43
REMARK SMILES IDX 26 44 27 45 28 46 29 47 81 48 30 49 80 50 31 51 32 52 33 53
REMARK SMILES IDX 74 54 34 55 79 56 73 57 75 58 35 59 78 60 72 61 71 62 36 64
REMARK SMILES IDX 62 65 45 66 61 67 46 68 49 69 60 70 76 71 47 72 48 73 59 75
REMARK SMILES IDX 77 76 50 77 37 78 38 79 43 80 39 81 40 82 42 83 44 84 41 85
REMARK SMILES IDX 63 86 64 87 69 88 65 89 66 90 68 91 70 92 67 93 51 94 52 95
REMARK SMILES IDX 57 96 53 97 54 98 56 99 58 100 55 101
REMARK H PARENT 75 63 49 74
REMARK Flexibility Score: inf
ROOT
ATOM      1  C   UNL     1       4.858   8.248  -1.974  1.00  0.00     0.188 C 
ENDROOT
BRANCH   1   2
ATOM      2  C   UNL     1       5.661   8.643  -3.237  1.00  0.00     0.188 C 
BRANCH   2   3
ATOM      3  O   UNL     1       5.413   9.966  -3.683  1.00  0.00    -0.376 OA
BRANCH   3   4
ATOM      4  C   UNL     1       4.665  10.122  -4.876  1.00  0.00     0.202 C 
BRANCH   4   5
ATOM      5  C   UNL     1       3.216   9.608  -4.886  1.00  0.00     0.261 C 
BRANCH   5   6
ATOM      6  O   UNL     1       3.002   8.328  -4.274  1.00  0.00    -0.460 OA
BRANCH   6   7
ATOM      7  C   UNL     1       3.394   7.241  -4.979  1.00  0.00     0.338 C 
ATOM      8  O   UNL     1       3.846   7.262  -6.114  1.00  0.00    -0.246 OA
BRANCH   7   9
ATOM      9  C   UNL     1       3.353   6.013  -4.115  1.00  0.00     0.067 C 
ATOM     10  C   UNL     1       2.277   5.814  -3.311  1.00  0.00     0.024 C 
BRANCH  10  11
ATOM     11  C   UNL     1       1.859   4.582  -2.591  1.00  0.00    -0.025 A 
ATOM     12  C   UNL     1       0.877   2.072  -1.804  1.00  0.00     0.067 A 
ATOM     13  C   UNL     1       2.250   2.287  -1.870  1.00  0.00     0.021 A 
ATOM     14  C   UNL     1      -0.013   3.125  -2.006  1.00  0.00     0.021 A 
ATOM     15  C   UNL     1       2.730   3.554  -2.204  1.00  0.00     0.009 A 
ATOM     16  C   UNL     1       0.482   4.375  -2.400  1.00  0.00     0.009 A 
BRANCH  12  17
ATOM     17  S   UNL     1       0.281   0.416  -1.573  1.00  0.00     0.175 S 
ATOM     18  C   UNL     1       0.910  -0.054   0.014  1.00  0.00     0.163 C 
ATOM     19  O   UNL     1       0.933  -0.405  -2.575  1.00  0.00    -0.224 OA
ATOM     20  O   UNL     1      -1.165   0.476  -1.473  1.00  0.00    -0.224 OA
ENDBRANCH  12  17
ENDBRANCH  10  11
BRANCH   9  21
ATOM     21  C   UNL     1       4.441   5.030  -4.284  1.00  0.00    -0.010 A 
ATOM     22  C   UNL     1       5.659   5.112  -3.592  1.00  0.00     0.009 A 
ATOM     23  C   UNL     1       4.191   3.902  -5.055  1.00  0.00     0.017 A 
ATOM     24  C   UNL     1       6.602   4.087  -3.672  1.00  0.00     0.001 A 
ATOM     25  C   UNL     1       5.099   2.833  -5.099  1.00  0.00    -0.018 A 
ATOM     26  C   UNL     1       6.317   2.945  -4.415  1.00  0.00     0.009 A 
BRANCH  25  27
ATOM     27  C   UNL     1       4.676   1.607  -5.773  1.00  0.00    -0.018 A 
ATOM     28  C   UNL     1       4.666   0.380  -5.090  1.00  0.00     0.010 A 
ATOM     29  C   UNL     1       4.116   1.677  -7.060  1.00  0.00     0.010 A 
ATOM     30  C   UNL     1       4.077  -0.743  -5.667  1.00  0.00     0.021 A 
ATOM     31  C   UNL     1       3.524   0.564  -7.642  1.00  0.00     0.021 A 
ATOM     32  C   UNL     1       3.510  -0.639  -6.940  1.00  0.00     0.067 A 
BRANCH  32  33
ATOM     33  S   UNL     1       2.754  -2.065  -7.670  1.00  0.00     0.175 S 
ATOM     34  C   UNL     1       4.149  -3.098  -8.025  1.00  0.00     0.163 C 
ATOM     35  O   UNL     1       1.954  -2.709  -6.647  1.00  0.00    -0.224 OA
ATOM     36  O   UNL     1       2.171  -1.660  -8.935  1.00  0.00    -0.224 OA
ENDBRANCH  32  33
ENDBRANCH  25  27
ENDBRANCH   9  21
ENDBRANCH   7   9
ENDBRANCH   6   7
ENDBRANCH   5   6
ENDBRANCH   4   5
ENDBRANCH   3   4
ENDBRANCH   2   3
ENDBRANCH   1   2
BRANCH   1  37
ATOM     37  O   UNL     1       3.931   9.168  -1.426  1.00  0.00    -0.377 OA
BRANCH  37  38
ATOM     38  C   UNL     1       4.314  10.531  -1.292  1.00  0.00     0.188 C 
BRANCH  38  39
ATOM     39  C   UNL     1       5.798  10.912  -1.075  1.00  0.00     0.188 C 
BRANCH  39  40
ATOM     40  O   UNL     1       6.676   9.817  -0.867  1.00  0.00    -0.376 OA
BRANCH  40  41
ATOM     41  C   UNL     1       7.137   9.575   0.451  1.00  0.00     0.202 C 
BRANCH  41  42
ATOM     42  C   UNL     1       6.085   9.195   1.501  1.00  0.00     0.261 C 
BRANCH  42  43
ATOM     43  O   UNL     1       4.981  10.100   1.646  1.00  0.00    -0.460 OA
BRANCH  43  44
ATOM     44  C   UNL     1       5.253  11.351   2.071  1.00  0.00     0.338 C 
ATOM     45  O   UNL     1       6.342  11.811   2.372  1.00  0.00    -0.246 OA
BRANCH  44  46
ATOM     46  C   UNL     1       4.017  12.145   1.922  1.00  0.00     0.060 A 
ATOM     47  C   UNL     1       4.010  13.247   1.055  1.00  0.00     0.016 A 
ATOM     48  C   UNL     1       2.859  11.774   2.608  1.00  0.00     0.016 A 
ATOM     49  C   UNL     1       2.846  13.997   0.891  1.00  0.00     0.010 A 
ATOM     50  C   UNL     1       1.703  12.543   2.466  1.00  0.00     0.010 A 
ATOM     51  C   UNL     1       1.703  13.675   1.632  1.00  0.00    -0.014 A 
BRANCH  51  52
ATOM     52  C   UNL     1       0.580  14.639   1.700  1.00  0.00     0.031 A 
ATOM     53  C   UNL     1       0.519  15.572   2.877  1.00  0.00     0.074 A 
ATOM     54  C   UNL     1      -0.358  14.695   0.740  1.00  0.00     0.049 A 
ATOM     55  N   UNL     1      -0.385  16.463   3.188  1.00  0.00    -0.248 NA
ATOM     56  C   UNL     1       1.632  15.478   3.836  1.00  0.00     0.031 C 
ATOM     57  C   UNL     1      -0.386  13.870  -0.465  1.00  0.00     0.029 A 
ATOM     58  N   UNL     1      -1.478  15.481   0.642  1.00  0.00    -0.354 N 
ATOM     59  C   UNL     1       0.043  17.027   4.383  1.00  0.00     0.074 A 
ATOM     60  C   UNL     1       1.268  16.355   4.757  1.00  0.00     0.031 C 
ATOM     61  C   UNL     1      -1.483  14.183  -1.177  1.00  0.00     0.029 A 
ATOM     62  C   UNL     1      -2.248  15.203  -0.460  1.00  0.00     0.049 A 
ATOM     63  H   UNL     1      -1.708  16.177   1.299  1.00  0.00     0.167 HD
ATOM     64  C   UNL     1      -0.532  18.021   5.102  1.00  0.00     0.037 A 
ATOM     65  C   UNL     1      -3.445  15.699  -0.830  1.00  0.00     0.037 A 
ATOM     66  C   UNL     1      -1.756  18.678   4.729  1.00  0.00     0.049 A 
ATOM     67  C   UNL     1      -4.105  16.752   0.021  1.00  0.00     0.074 A 
ATOM     68  C   UNL     1      -2.409  19.714   5.373  1.00  0.00     0.029 A 
ATOM     69  N   UNL     1      -2.523  18.349   3.621  1.00  0.00    -0.354 N 
ATOM     70  N   UNL     1      -3.680  17.307   1.131  1.00  0.00    -0.248 NA
ATOM     71  C   UNL     1      -5.411  17.251  -0.434  1.00  0.00     0.031 C 
ATOM     72  C   UNL     1      -3.603  19.967   4.691  1.00  0.00     0.029 A 
ATOM     73  C   UNL     1      -3.662  19.137   3.582  1.00  0.00     0.049 A 
ATOM     74  H   UNL     1      -2.292  17.658   2.959  1.00  0.00     0.167 HD
ATOM     75  C   UNL     1      -4.649  18.237   1.491  1.00  0.00     0.074 A 
ATOM     76  C   UNL     1      -5.678  18.180   0.474  1.00  0.00     0.031 C 
ATOM     77  C   UNL     1      -4.681  19.067   2.564  1.00  0.00     0.037 A 
BRANCH  64  78
ATOM     78  C   UNL     1       0.141  18.416   6.385  1.00  0.00     0.057 A 
ATOM     79  C   UNL     1       1.385  19.063   6.408  1.00  0.00     0.134 A 
ATOM     80  C   UNL     1      -0.465  18.142   7.617  1.00  0.00     0.134 A 
ATOM     81  F   UNL     1       2.030  19.341   5.265  1.00  0.00    -0.206 F 
ATOM     82  C   UNL     1       2.017  19.388   7.610  1.00  0.00     0.040 A 
ATOM     83  C   UNL     1       0.141  18.491   8.824  1.00  0.00     0.040 A 
ATOM     84  F   UNL     1      -1.656  17.527   7.669  1.00  0.00    -0.206 F 
ATOM     85  C   UNL     1       1.391  19.107   8.823  1.00  0.00     0.006 A 
ENDBRANCH  64  78
BRANCH  65  86
ATOM     86  C   UNL     1      -4.102  15.193  -2.062  1.00  0.00     0.057 A 
ATOM     87  C   UNL     1      -4.248  16.003  -3.194  1.00  0.00     0.134 A 
ATOM     88  C   UNL     1      -4.600  13.886  -2.136  1.00  0.00     0.134 A 
ATOM     89  F   UNL     1      -3.815  17.271  -3.177  1.00  0.00    -0.206 F 
ATOM     90  C   UNL     1      -4.872  15.534  -4.352  1.00  0.00     0.040 A 
ATOM     91  C   UNL     1      -5.202  13.396  -3.296  1.00  0.00     0.040 A 
ATOM     92  F   UNL     1      -4.492  13.060  -1.085  1.00  0.00    -0.206 F 
ATOM     93  C   UNL     1      -5.344  14.224  -4.407  1.00  0.00     0.006 A 
ENDBRANCH  65  86
BRANCH  77  94
ATOM     94  C   UNL     1      -5.848  20.008   2.678  1.00  0.00     0.057 A 
ATOM     95  C   UNL     1      -7.139  19.559   2.987  1.00  0.00     0.134 A 
ATOM     96  C   UNL     1      -5.667  21.389   2.522  1.00  0.00     0.134 A 
ATOM     97  F   UNL     1      -7.386  18.249   3.139  1.00  0.00    -0.206 F 
ATOM     98  C   UNL     1      -8.210  20.447   3.110  1.00  0.00     0.040 A 
ATOM     99  C   UNL     1      -6.723  22.288   2.675  1.00  0.00     0.040 A 
ATOM    100  F   UNL     1      -4.455  21.889   2.238  1.00  0.00    -0.206 F 
ATOM    101  C   UNL     1      -8.001  21.817   2.962  1.00  0.00     0.006 A 
ENDBRANCH  77  94
ENDBRANCH  51  52
ENDBRANCH  44  46
ENDBRANCH  43  44
ENDBRANCH  42  43
ENDBRANCH  41  42
ENDBRANCH  40  41
ENDBRANCH  39  40
ENDBRANCH  38  39
ENDBRANCH  37  38
ENDBRANCH   1  37
TORSDOF 25
