REMARK SMILES CCC1CN(c2cccc(F)c2C(=O)OCCOCCOCCOCCOC(=O)c2ccc(-c3c4nc(c(-c5c(F)cccc5F)c5ccc([nH]5)c(-c5c(F)cccc5F)c5nc(c(-c6c(F)cccc6F)c6ccc3[nH]6)C=C5)C=C4)cc2)C1
REMARK SMILES IDX 21 1 20 2 19 3 18 4 17 5 16 6 15 7 13 8 14 9 12 10 6 11 7 12
REMARK SMILES IDX 8 13 10 14 9 15 11 16 5 17 3 18 4 19 84 20 2 21 1 22 22 23
REMARK SMILES IDX 23 24 24 25 25 26 26 27 27 28 28 29 29 30 30 31 31 32 83 33
REMARK SMILES IDX 32 34 82 35 33 36 34 37 35 38 76 39 36 40 81 41 75 42 77 43
REMARK SMILES IDX 37 44 80 45 74 46 73 47 38 49 64 50 47 51 63 52 48 53 51 54
REMARK SMILES IDX 62 55 78 56 49 57 50 58 61 60 79 61 52 62 39 63 40 64 45 65
REMARK SMILES IDX 41 66 42 67 44 68 46 69 43 70 65 71 66 72 71 73 67 74 68 75
REMARK SMILES IDX 70 76 72 77 69 78 53 79 54 80 59 81 55 82 56 83 58 84 60 85
REMARK SMILES IDX 57 86
REMARK H PARENT 77 48 51 59
REMARK Flexibility Score: inf
ROOT
ATOM      1  O   UNL     1      -1.482   8.518   1.145  1.00  0.00    -0.377 OA
ENDROOT
BRANCH   1   2
ATOM      2  C   UNL     1      -0.540   7.449   1.113  1.00  0.00     0.188 C 
BRANCH   2   3
ATOM      3  C   UNL     1      -0.733   6.173   1.966  1.00  0.00     0.188 C 
BRANCH   3   4
ATOM      4  O   UNL     1      -1.233   6.390   3.279  1.00  0.00    -0.376 OA
BRANCH   4   5
ATOM      5  C   UNL     1      -0.370   6.112   4.367  1.00  0.00     0.202 C 
BRANCH   5   6
ATOM      6  C   UNL     1       0.817   7.070   4.503  1.00  0.00     0.261 C 
BRANCH   6   7
ATOM      7  O   UNL     1       1.591   7.202   3.303  1.00  0.00    -0.460 OA
BRANCH   7   8
ATOM      8  C   UNL     1       2.426   6.187   2.967  1.00  0.00     0.343 C 
ATOM      9  O   UNL     1       2.650   5.197   3.640  1.00  0.00    -0.246 OA
BRANCH   8  10
ATOM     10  C   UNL     1       2.893   6.434   1.580  1.00  0.00     0.119 A 
ATOM     11  C   UNL     1       2.825   5.439   0.580  1.00  0.00     0.054 A 
ATOM     12  C   UNL     1       3.273   5.767  -0.715  1.00  0.00     0.027 A 
ATOM     13  C   UNL     1       3.740   7.049  -1.022  1.00  0.00     0.005 A 
ATOM     14  C   UNL     1       3.360   7.716   1.256  1.00  0.00     0.139 A 
ATOM     15  C   UNL     1       3.770   8.029  -0.037  1.00  0.00     0.040 A 
ATOM     16  F   UNL     1       3.409   8.689   2.178  1.00  0.00    -0.206 F 
BRANCH  11  17
ATOM     17  N   UNL     1       2.250   4.165   0.818  1.00  0.00    -0.370 N 
ATOM     18  C   UNL     1       1.446   2.446  -0.074  1.00  0.00     0.028 C 
ATOM     19  C   UNL     1       0.920   3.785   0.421  1.00  0.00     0.122 C 
ATOM     20  C   UNL     1       2.812   2.886   0.472  1.00  0.00     0.122 C 
BRANCH  18  21
ATOM     21  C   UNL     1       0.741   1.262   0.581  1.00  0.00     0.004 C 
ATOM     22  C   UNL     1       1.190  -0.045  -0.043  1.00  0.00     0.004 C 
ENDBRANCH  18  21
ENDBRANCH  11  17
ENDBRANCH   8  10
ENDBRANCH   7   8
ENDBRANCH   6   7
ENDBRANCH   5   6
ENDBRANCH   4   5
ENDBRANCH   3   4
ENDBRANCH   2   3
ENDBRANCH   1   2
BRANCH   1  23
ATOM     23  C   UNL     1      -2.314   8.608   2.292  1.00  0.00     0.188 C 
BRANCH  23  24
ATOM     24  C   UNL     1      -3.505   7.628   2.238  1.00  0.00     0.188 C 
BRANCH  24  25
ATOM     25  O   UNL     1      -3.366   6.625   1.246  1.00  0.00    -0.376 OA
BRANCH  25  26
ATOM     26  C   UNL     1      -3.845   6.838  -0.070  1.00  0.00     0.202 C 
BRANCH  26  27
ATOM     27  C   UNL     1      -3.760   8.184  -0.817  1.00  0.00     0.261 C 
BRANCH  27  28
ATOM     28  O   UNL     1      -3.893   9.392  -0.063  1.00  0.00    -0.460 OA
BRANCH  28  29
ATOM     29  C   UNL     1      -5.106   9.700   0.429  1.00  0.00     0.338 C 
ATOM     30  O   UNL     1      -6.143   9.069   0.295  1.00  0.00    -0.246 OA
BRANCH  29  31
ATOM     31  C   UNL     1      -4.920  10.842   1.349  1.00  0.00     0.060 A 
ATOM     32  C   UNL     1      -5.272  10.689   2.697  1.00  0.00     0.016 A 
ATOM     33  C   UNL     1      -4.357  12.038   0.895  1.00  0.00     0.016 A 
ATOM     34  C   UNL     1      -5.100  11.746   3.586  1.00  0.00     0.010 A 
ATOM     35  C   UNL     1      -4.215  13.109   1.779  1.00  0.00     0.010 A 
ATOM     36  C   UNL     1      -4.625  12.977   3.117  1.00  0.00    -0.014 A 
BRANCH  36  37
ATOM     37  C   UNL     1      -4.774  14.172   3.977  1.00  0.00     0.031 A 
ATOM     38  C   UNL     1      -5.980  15.046   3.768  1.00  0.00     0.074 A 
ATOM     39  C   UNL     1      -3.900  14.437   4.962  1.00  0.00     0.049 A 
ATOM     40  N   UNL     1      -6.340  16.130   4.405  1.00  0.00    -0.248 NA
ATOM     41  C   UNL     1      -6.907  14.640   2.698  1.00  0.00     0.031 C 
ATOM     42  C   UNL     1      -2.723  13.635   5.286  1.00  0.00     0.029 A 
ATOM     43  N   UNL     1      -3.878  15.458   5.878  1.00  0.00    -0.354 N 
ATOM     44  C   UNL     1      -7.532  16.531   3.815  1.00  0.00     0.074 A 
ATOM     45  C   UNL     1      -7.816  15.602   2.745  1.00  0.00     0.031 C 
ATOM     46  C   UNL     1      -2.092  14.194   6.333  1.00  0.00     0.029 A 
ATOM     47  C   UNL     1      -2.805  15.407   6.732  1.00  0.00     0.049 A 
ATOM     48  H   UNL     1      -4.567  16.161   5.919  1.00  0.00     0.167 HD
ATOM     49  C   UNL     1      -8.328  17.572   4.150  1.00  0.00     0.037 A 
ATOM     50  C   UNL     1      -2.439  16.252   7.716  1.00  0.00     0.037 A 
ATOM     51  C   UNL     1      -8.040  18.494   5.216  1.00  0.00     0.049 A 
ATOM     52  C   UNL     1      -3.303  17.448   8.019  1.00  0.00     0.074 A 
ATOM     53  C   UNL     1      -8.788  19.578   5.639  1.00  0.00     0.029 A 
ATOM     54  N   UNL     1      -6.915  18.442   6.025  1.00  0.00    -0.354 N 
ATOM     55  N   UNL     1      -4.435  17.813   7.468  1.00  0.00    -0.248 NA
ATOM     56  C   UNL     1      -2.841  18.345   9.088  1.00  0.00     0.031 C 
ATOM     57  C   UNL     1      -8.086  20.217   6.664  1.00  0.00     0.029 A 
ATOM     58  C   UNL     1      -6.934  19.492   6.927  1.00  0.00     0.049 A 
ATOM     59  H   UNL     1      -6.208  17.759   5.966  1.00  0.00     0.167 HD
ATOM     60  C   UNL     1      -4.832  18.966   8.134  1.00  0.00     0.074 A 
ATOM     61  C   UNL     1      -3.830  19.226   9.147  1.00  0.00     0.031 C 
ATOM     62  C   UNL     1      -5.926  19.742   7.926  1.00  0.00     0.037 A 
BRANCH  49  63
ATOM     63  C   UNL     1      -9.578  17.783   3.347  1.00  0.00     0.057 A 
ATOM     64  C   UNL     1      -9.707  18.898   2.509  1.00  0.00     0.134 A 
ATOM     65  C   UNL     1     -10.678  16.921   3.449  1.00  0.00     0.134 A 
ATOM     66  F   UNL     1      -8.691  19.762   2.364  1.00  0.00    -0.206 F 
ATOM     67  C   UNL     1     -10.892  19.160   1.820  1.00  0.00     0.040 A 
ATOM     68  C   UNL     1     -11.858  17.158   2.743  1.00  0.00     0.040 A 
ATOM     69  F   UNL     1     -10.613  15.824   4.219  1.00  0.00    -0.206 F 
ATOM     70  C   UNL     1     -11.971  18.288   1.935  1.00  0.00     0.006 A 
ENDBRANCH  49  63
BRANCH  50  71
ATOM     71  C   UNL     1      -1.199  15.989   8.490  1.00  0.00     0.057 A 
ATOM     72  C   UNL     1       0.066  16.084   7.896  1.00  0.00     0.134 A 
ATOM     73  C   UNL     1      -1.248  15.631   9.842  1.00  0.00     0.134 A 
ATOM     74  F   UNL     1       0.184  16.424   6.604  1.00  0.00    -0.206 F 
ATOM     75  C   UNL     1       1.234  15.812   8.611  1.00  0.00     0.040 A 
ATOM     76  C   UNL     1      -0.088  15.384  10.577  1.00  0.00     0.040 A 
ATOM     77  F   UNL     1      -2.428  15.548  10.476  1.00  0.00    -0.206 F 
ATOM     78  C   UNL     1       1.158  15.465   9.958  1.00  0.00     0.006 A 
ENDBRANCH  50  71
BRANCH  62  79
ATOM     79  C   UNL     1      -6.110  20.936   8.821  1.00  0.00     0.057 A 
ATOM     80  C   UNL     1      -7.169  20.987   9.738  1.00  0.00     0.134 A 
ATOM     81  C   UNL     1      -5.275  22.058   8.739  1.00  0.00     0.134 A 
ATOM     82  F   UNL     1      -8.018  19.955   9.857  1.00  0.00    -0.206 F 
ATOM     83  C   UNL     1      -7.392  22.109  10.536  1.00  0.00     0.040 A 
ATOM     84  C   UNL     1      -5.467  23.173   9.557  1.00  0.00     0.040 A 
ATOM     85  F   UNL     1      -4.239  22.074   7.887  1.00  0.00    -0.206 F 
ATOM     86  C   UNL     1      -6.534  23.203  10.453  1.00  0.00     0.006 A 
ENDBRANCH  62  79
ENDBRANCH  36  37
ENDBRANCH  29  31
ENDBRANCH  28  29
ENDBRANCH  27  28
ENDBRANCH  26  27
ENDBRANCH  25  26
ENDBRANCH  24  25
ENDBRANCH  23  24
ENDBRANCH   1  23
TORSDOF 22
