REMARK SMILES CS(=O)(=O)c1ccc(/C=C(/C(=O)OCCOCCOCCOCCOC(=O)c2ccc(-c3c4nc(c(-c5c(F)cccc5F)c5ccc([nH]5)c(-c5c(F)cccc5F)c5nc(c(-c6c(F)cccc6F)c6ccc3[nH]6)C=C5)C=C4)cc2)c2ccc(F)cc2)cc1
REMARK SMILES IDX 19 1 18 2 17 3 16 4 15 5 14 6 13 7 11 8 12 9 10 10 9 11 8 12
REMARK SMILES IDX 5 13 6 14 90 15 7 16 89 17 2 18 1 19 3 20 4 21 82 22 83 23
REMARK SMILES IDX 88 24 84 25 87 26 85 27 86 28 20 29 21 30 22 31 23 32 24 33
REMARK SMILES IDX 25 34 26 35 27 36 28 37 29 38 81 39 30 40 80 41 31 42 32 43
REMARK SMILES IDX 33 44 74 45 34 46 79 47 73 48 75 49 35 50 78 51 72 52 71 53
REMARK SMILES IDX 36 55 62 56 45 57 61 58 46 59 49 60 60 61 76 62 47 63 48 64
REMARK SMILES IDX 59 66 77 67 50 68 37 69 38 70 43 71 39 72 40 73 42 74 44 75
REMARK SMILES IDX 41 76 63 77 64 78 69 79 65 80 66 81 68 82 70 83 67 84 51 85
REMARK SMILES IDX 52 86 57 87 53 88 54 89 56 90 58 91 55 92
REMARK H PARENT 75 54 49 65
REMARK Flexibility Score: inf
ROOT
ATOM      1  O   UNL     1       0.883  -8.690   5.855  1.00  0.00    -0.377 OA
ENDROOT
BRANCH   1   2
ATOM      2  C   UNL     1       0.367  -8.755   4.538  1.00  0.00     0.188 C 
BRANCH   2   3
ATOM      3  C   UNL     1       0.809  -9.918   3.628  1.00  0.00     0.188 C 
BRANCH   3   4
ATOM      4  O   UNL     1       1.808 -10.755   4.199  1.00  0.00    -0.376 OA
BRANCH   4   5
ATOM      5  C   UNL     1       3.108 -10.631   3.640  1.00  0.00     0.202 C 
BRANCH   5   6
ATOM      6  C   UNL     1       3.846  -9.346   4.032  1.00  0.00     0.261 C 
BRANCH   6   7
ATOM      7  O   UNL     1       3.173  -8.127   3.667  1.00  0.00    -0.460 OA
BRANCH   7   8
ATOM      8  C   UNL     1       3.044  -7.859   2.346  1.00  0.00     0.338 C 
ATOM      9  O   UNL     1       3.508  -8.534   1.440  1.00  0.00    -0.246 OA
BRANCH   8  10
ATOM     10  C   UNL     1       2.139  -6.679   2.132  1.00  0.00     0.067 C 
ATOM     11  C   UNL     1       2.209  -5.642   3.001  1.00  0.00     0.024 C 
BRANCH  11  12
ATOM     12  C   UNL     1       1.573  -4.306   2.917  1.00  0.00    -0.025 A 
ATOM     13  C   UNL     1       0.728  -1.676   2.454  1.00  0.00     0.067 A 
ATOM     14  C   UNL     1      -0.063  -2.738   2.026  1.00  0.00     0.021 A 
ATOM     15  C   UNL     1       1.861  -1.904   3.231  1.00  0.00     0.021 A 
ATOM     16  C   UNL     1       0.349  -4.046   2.287  1.00  0.00     0.009 A 
ATOM     17  C   UNL     1       2.279  -3.218   3.458  1.00  0.00     0.009 A 
BRANCH  13  18
ATOM     18  S   UNL     1       0.308  -0.029   1.944  1.00  0.00     0.175 S 
ATOM     19  C   UNL     1       0.977   0.045   0.298  1.00  0.00     0.163 C 
ATOM     20  O   UNL     1       1.056   0.897   2.774  1.00  0.00    -0.224 OA
ATOM     21  O   UNL     1      -1.137   0.045   1.854  1.00  0.00    -0.224 OA
ENDBRANCH  13  18
ENDBRANCH  11  12
BRANCH  10  22
ATOM     22  C   UNL     1       1.240  -6.704   0.960  1.00  0.00    -0.011 A 
ATOM     23  C   UNL     1      -0.013  -7.342   1.053  1.00  0.00     0.012 A 
ATOM     24  C   UNL     1       1.566  -6.016  -0.214  1.00  0.00     0.012 A 
ATOM     25  C   UNL     1      -0.928  -7.277   0.003  1.00  0.00     0.040 A 
ATOM     26  C   UNL     1       0.645  -5.946  -1.263  1.00  0.00     0.040 A 
ATOM     27  C   UNL     1      -0.593  -6.572  -1.143  1.00  0.00     0.123 A 
ATOM     28  F   UNL     1      -1.482  -6.475  -2.139  1.00  0.00    -0.207 F 
ENDBRANCH  10  22
ENDBRANCH   8  10
ENDBRANCH   7   8
ENDBRANCH   6   7
ENDBRANCH   5   6
ENDBRANCH   4   5
ENDBRANCH   3   4
ENDBRANCH   2   3
ENDBRANCH   1   2
BRANCH   1  29
ATOM     29  C   UNL     1       0.892  -9.864   6.655  1.00  0.00     0.188 C 
BRANCH  29  30
ATOM     30  C   UNL     1      -0.121 -11.001   6.404  1.00  0.00     0.188 C 
BRANCH  30  31
ATOM     31  O   UNL     1      -1.245 -10.642   5.611  1.00  0.00    -0.376 OA
BRANCH  31  32
ATOM     32  C   UNL     1      -2.487 -10.510   6.286  1.00  0.00     0.202 C 
BRANCH  32  33
ATOM     33  C   UNL     1      -2.614  -9.233   7.123  1.00  0.00     0.261 C 
BRANCH  33  34
ATOM     34  O   UNL     1      -1.682  -9.127   8.210  1.00  0.00    -0.460 OA
BRANCH  34  35
ATOM     35  C   UNL     1      -1.725 -10.088   9.157  1.00  0.00     0.338 C 
ATOM     36  O   UNL     1      -2.494 -11.029   9.229  1.00  0.00    -0.246 OA
BRANCH  35  37
ATOM     37  C   UNL     1      -0.541  -9.913  10.017  1.00  0.00     0.060 A 
ATOM     38  C   UNL     1       0.372 -10.969  10.140  1.00  0.00     0.016 A 
ATOM     39  C   UNL     1      -0.326  -8.702  10.678  1.00  0.00     0.016 A 
ATOM     40  C   UNL     1       1.493 -10.823  10.955  1.00  0.00     0.010 A 
ATOM     41  C   UNL     1       0.783  -8.566  11.511  1.00  0.00     0.010 A 
ATOM     42  C   UNL     1       1.677  -9.637  11.679  1.00  0.00    -0.014 A 
BRANCH  42  43
ATOM     43  C   UNL     1       2.672  -9.592  12.774  1.00  0.00     0.031 A 
ATOM     44  C   UNL     1       2.198  -9.893  14.168  1.00  0.00     0.074 A 
ATOM     45  C   UNL     1       3.961  -9.292  12.542  1.00  0.00     0.049 A 
ATOM     46  N   UNL     1       2.860  -9.870  15.295  1.00  0.00    -0.248 NA
ATOM     47  C   UNL     1       0.781 -10.267  14.306  1.00  0.00     0.031 C 
ATOM     48  C   UNL     1       4.545  -9.012  11.232  1.00  0.00     0.029 A 
ATOM     49  N   UNL     1       5.010  -9.163  13.417  1.00  0.00    -0.354 N 
ATOM     50  C   UNL     1       1.941 -10.221  16.275  1.00  0.00     0.074 A 
ATOM     51  C   UNL     1       0.669 -10.422  15.616  1.00  0.00     0.031 C 
ATOM     52  C   UNL     1       5.850  -8.728  11.392  1.00  0.00     0.029 A 
ATOM     53  C   UNL     1       6.183  -8.780  12.815  1.00  0.00     0.049 A 
ATOM     54  H   UNL     1       4.930  -9.330  14.384  1.00  0.00     0.167 HD
ATOM     55  C   UNL     1       2.140 -10.371  17.605  1.00  0.00     0.037 A 
ATOM     56  C   UNL     1       7.379  -8.484  13.359  1.00  0.00     0.037 A 
ATOM     57  C   UNL     1       3.402 -10.161  18.259  1.00  0.00     0.049 A 
ATOM     58  C   UNL     1       7.560  -8.587  14.852  1.00  0.00     0.074 A 
ATOM     59  C   UNL     1       3.713 -10.304  19.600  1.00  0.00     0.029 A 
ATOM     60  N   UNL     1       4.561  -9.748  17.620  1.00  0.00    -0.354 N 
ATOM     61  N   UNL     1       6.696  -8.955  15.768  1.00  0.00    -0.248 NA
ATOM     62  C   UNL     1       8.884  -8.236  15.386  1.00  0.00     0.031 C 
ATOM     63  C   UNL     1       5.048  -9.930  19.779  1.00  0.00     0.029 A 
ATOM     64  C   UNL     1       5.583  -9.606  18.543  1.00  0.00     0.049 A 
ATOM     65  H   UNL     1       4.645  -9.582  16.653  1.00  0.00     0.167 HD
ATOM     66  C   UNL     1       7.378  -8.908  16.979  1.00  0.00     0.074 A 
ATOM     67  C   UNL     1       8.730  -8.486  16.679  1.00  0.00     0.031 C 
ATOM     68  C   UNL     1       6.927  -9.191  18.226  1.00  0.00     0.037 A 
BRANCH  55  69
ATOM     69  C   UNL     1       0.951 -10.751  18.437  1.00  0.00     0.057 A 
ATOM     70  C   UNL     1       0.384 -12.031  18.377  1.00  0.00     0.134 A 
ATOM     71  C   UNL     1       0.372  -9.827  19.315  1.00  0.00     0.134 A 
ATOM     72  F   UNL     1       0.879 -12.956  17.541  1.00  0.00    -0.206 F 
ATOM     73  C   UNL     1      -0.733 -12.370  19.143  1.00  0.00     0.040 A 
ATOM     74  C   UNL     1      -0.728 -10.163  20.105  1.00  0.00     0.040 A 
ATOM     75  F   UNL     1       0.866  -8.585  19.419  1.00  0.00    -0.206 F 
ATOM     76  C   UNL     1      -1.288 -11.436  20.015  1.00  0.00     0.006 A 
ENDBRANCH  55  69
BRANCH  56  77
ATOM     77  C   UNL     1       8.504  -8.049  12.492  1.00  0.00     0.057 A 
ATOM     78  C   UNL     1       9.628  -8.860  12.300  1.00  0.00     0.134 A 
ATOM     79  C   UNL     1       8.492  -6.801  11.857  1.00  0.00     0.134 A 
ATOM     80  F   UNL     1       9.710 -10.054  12.903  1.00  0.00    -0.206 F 
ATOM     81  C   UNL     1      10.707  -8.441  11.518  1.00  0.00     0.040 A 
ATOM     82  C   UNL     1       9.553  -6.380  11.053  1.00  0.00     0.040 A 
ATOM     83  F   UNL     1       7.445  -5.976  12.003  1.00  0.00    -0.206 F 
ATOM     84  C   UNL     1      10.668  -7.198  10.888  1.00  0.00     0.006 A 
ENDBRANCH  56  77
BRANCH  68  85
ATOM     85  C   UNL     1       7.910  -9.092  19.356  1.00  0.00     0.057 A 
ATOM     86  C   UNL     1       8.368  -7.859  19.835  1.00  0.00     0.134 A 
ATOM     87  C   UNL     1       8.364 -10.248  20.006  1.00  0.00     0.134 A 
ATOM     88  F   UNL     1       7.980  -6.716  19.250  1.00  0.00    -0.206 F 
ATOM     89  C   UNL     1       9.260  -7.779  20.906  1.00  0.00     0.040 A 
ATOM     90  C   UNL     1       9.235 -10.179  21.095  1.00  0.00     0.040 A 
ATOM     91  F   UNL     1       7.955 -11.461  19.605  1.00  0.00    -0.206 F 
ATOM     92  C   UNL     1       9.690  -8.942  21.544  1.00  0.00     0.006 A 
ENDBRANCH  68  85
ENDBRANCH  42  43
ENDBRANCH  35  37
ENDBRANCH  34  35
ENDBRANCH  33  34
ENDBRANCH  32  33
ENDBRANCH  31  32
ENDBRANCH  30  31
ENDBRANCH  29  30
ENDBRANCH   1  29
TORSDOF 23
