REMARK SMILES COCCCC(=O)N[C@H]1CC[C@@H](C(=O)OCCOCCOCCOCCOC(=O)c2ccc(-c3c4nc(c(-c5c(F)cccc5F)c5ccc([nH]5)c(-c5c(F)cccc5F)c5nc(c(-c6c(F)cccc6F)c6ccc3[nH]6)C=C5)C=C4)cc2)CC1
REMARK SMILES IDX 19 1 18 2 17 3 16 4 15 5 13 6 14 7 12 8 9 9 10 10 85 11
REMARK SMILES IDX 11 12 84 13 8 14 6 15 7 16 5 18 4 19 3 20 2 21 1 22 20 23
REMARK SMILES IDX 21 24 22 25 23 26 24 27 25 28 26 29 27 30 28 31 29 32 30 33
REMARK SMILES IDX 31 34 83 35 32 36 82 37 33 38 34 39 35 40 76 41 36 42 81 43
REMARK SMILES IDX 75 44 77 45 37 46 80 47 74 48 73 49 38 51 64 52 47 53 63 54
REMARK SMILES IDX 48 55 51 56 62 57 78 58 49 59 50 60 61 62 79 63 52 64 39 65
REMARK SMILES IDX 40 66 45 67 41 68 42 69 44 70 46 71 43 72 65 73 66 74 71 75
REMARK SMILES IDX 67 76 68 77 70 78 72 79 69 80 53 81 54 82 59 83 55 84 56 85
REMARK SMILES IDX 58 86 60 87 57 88
REMARK H PARENT 8 17 77 50 51 61
REMARK Flexibility Score: inf
ROOT
ATOM      1  C   UNL     1       5.144  -3.782   3.676  1.00  0.00     0.188 C 
ENDROOT
BRANCH   1   2
ATOM      2  O   UNL     1       6.479  -3.377   3.490  1.00  0.00    -0.376 OA
BRANCH   2   3
ATOM      3  C   UNL     1       7.112  -3.562   2.242  1.00  0.00     0.202 C 
BRANCH   3   4
ATOM      4  C   UNL     1       6.419  -3.283   0.899  1.00  0.00     0.261 C 
BRANCH   4   5
ATOM      5  O   UNL     1       5.036  -2.926   0.912  1.00  0.00    -0.463 OA
BRANCH   5   6
ATOM      6  C   UNL     1       4.156  -3.903   0.594  1.00  0.00     0.309 C 
ATOM      7  O   UNL     1       4.455  -5.087   0.481  1.00  0.00    -0.252 OA
BRANCH   6   8
ATOM      8  C   UNL     1       2.768  -3.378   0.250  1.00  0.00     0.099 C 
ATOM      9  C   UNL     1       2.867  -0.803  -1.196  1.00  0.00     0.082 C 
ATOM     10  C   UNL     1       3.360  -2.093  -1.857  1.00  0.00     0.026 C 
ATOM     11  C   UNL     1       3.029  -0.818   0.312  1.00  0.00     0.026 C 
ATOM     12  C   UNL     1       2.666  -3.328  -1.278  1.00  0.00     0.017 C 
ATOM     13  C   UNL     1       2.292  -2.046   0.850  1.00  0.00     0.017 C 
BRANCH   9  14
ATOM     14  N   UNL     1       3.420   0.356  -1.844  1.00  0.00    -0.353 N 
ATOM     15  C   UNL     1       2.754   1.320  -2.538  1.00  0.00     0.220 C 
ATOM     16  O   UNL     1       3.425   2.096  -3.224  1.00  0.00    -0.275 OA
ATOM     17  H   UNL     1       4.396   0.465  -1.778  1.00  0.00     0.163 HD
BRANCH  15  18
ATOM     18  C   UNL     1       1.248   1.525  -2.377  1.00  0.00     0.102 C 
BRANCH  18  19
ATOM     19  C   UNL     1       0.233   0.581  -3.038  1.00  0.00     0.038 C 
BRANCH  19  20
ATOM     20  C   UNL     1      -0.249  -0.742  -2.414  1.00  0.00     0.160 C 
BRANCH  20  21
ATOM     21  O   UNL     1      -0.776  -0.843  -1.097  1.00  0.00    -0.385 OA
ATOM     22  C   UNL     1      -0.613   0.208  -0.172  1.00  0.00     0.194 C 
ENDBRANCH  20  21
ENDBRANCH  19  20
ENDBRANCH  18  19
ENDBRANCH  15  18
ENDBRANCH   9  14
ENDBRANCH   6   8
ENDBRANCH   5   6
ENDBRANCH   4   5
ENDBRANCH   3   4
ENDBRANCH   2   3
ENDBRANCH   1   2
BRANCH   1  23
ATOM     23  C   UNL     1       4.155  -2.610   3.778  1.00  0.00     0.188 C 
BRANCH  23  24
ATOM     24  O   UNL     1       4.491  -1.344   3.220  1.00  0.00    -0.377 OA
BRANCH  24  25
ATOM     25  C   UNL     1       5.742  -0.736   3.545  1.00  0.00     0.188 C 
BRANCH  25  26
ATOM     26  C   UNL     1       6.413  -1.010   4.910  1.00  0.00     0.188 C 
BRANCH  26  27
ATOM     27  O   UNL     1       5.604  -1.711   5.835  1.00  0.00    -0.376 OA
BRANCH  27  28
ATOM     28  C   UNL     1       4.896  -0.959   6.806  1.00  0.00     0.202 C 
BRANCH  28  29
ATOM     29  C   UNL     1       3.972   0.174   6.333  1.00  0.00     0.261 C 
BRANCH  29  30
ATOM     30  O   UNL     1       4.566   1.195   5.517  1.00  0.00    -0.460 OA
BRANCH  30  31
ATOM     31  C   UNL     1       5.590   1.905   6.031  1.00  0.00     0.338 C 
ATOM     32  O   UNL     1       6.088   1.801   7.141  1.00  0.00    -0.246 OA
BRANCH  31  33
ATOM     33  C   UNL     1       6.126   2.742   4.944  1.00  0.00     0.060 A 
ATOM     34  C   UNL     1       7.425   2.520   4.466  1.00  0.00     0.016 A 
ATOM     35  C   UNL     1       5.333   3.759   4.410  1.00  0.00     0.016 A 
ATOM     36  C   UNL     1       7.954   3.347   3.475  1.00  0.00     0.010 A 
ATOM     37  C   UNL     1       5.870   4.600   3.438  1.00  0.00     0.010 A 
ATOM     38  C   UNL     1       7.195   4.423   2.999  1.00  0.00    -0.014 A 
BRANCH  38  39
ATOM     39  C   UNL     1       7.844   5.524   2.252  1.00  0.00     0.031 A 
ATOM     40  C   UNL     1       8.246   6.745   3.029  1.00  0.00     0.074 A 
ATOM     41  C   UNL     1       8.032   5.468   0.924  1.00  0.00     0.049 A 
ATOM     42  N   UNL     1       8.652   7.912   2.602  1.00  0.00    -0.248 NA
ATOM     43  C   UNL     1       8.159   6.635   4.495  1.00  0.00     0.031 C 
ATOM     44  C   UNL     1       7.732   4.321   0.073  1.00  0.00     0.029 A 
ATOM     45  N   UNL     1       8.494   6.426   0.057  1.00  0.00    -0.354 N 
ATOM     46  C   UNL     1       8.846   8.679   3.744  1.00  0.00     0.074 A 
ATOM     47  C   UNL     1       8.486   7.858   4.878  1.00  0.00     0.031 C 
ATOM     48  C   UNL     1       7.983   4.654  -1.205  1.00  0.00     0.029 A 
ATOM     49  C   UNL     1       8.415   6.050  -1.261  1.00  0.00     0.049 A 
ATOM     50  H   UNL     1       8.847   7.297   0.351  1.00  0.00     0.167 HD
ATOM     51  C   UNL     1       9.285   9.956   3.837  1.00  0.00     0.037 A 
ATOM     52  C   UNL     1       8.622   6.771  -2.381  1.00  0.00     0.037 A 
ATOM     53  C   UNL     1       9.623  10.768   2.700  1.00  0.00     0.049 A 
ATOM     54  C   UNL     1       9.027   8.218  -2.266  1.00  0.00     0.074 A 
ATOM     55  C   UNL     1      10.077  12.074   2.677  1.00  0.00     0.029 A 
ATOM     56  N   UNL     1       9.530  10.350   1.380  1.00  0.00    -0.354 N 
ATOM     57  N   UNL     1       9.213   8.942  -1.188  1.00  0.00    -0.248 NA
ATOM     58  C   UNL     1       9.251   8.950  -3.521  1.00  0.00     0.031 C 
ATOM     59  C   UNL     1      10.202  12.466   1.341  1.00  0.00     0.029 A 
ATOM     60  C   UNL     1       9.898  11.381   0.533  1.00  0.00     0.049 A 
ATOM     61  H   UNL     1       9.245   9.454   1.089  1.00  0.00     0.167 HD
ATOM     62  C   UNL     1       9.614  10.197  -1.632  1.00  0.00     0.074 A 
ATOM     63  C   UNL     1       9.639  10.138  -3.078  1.00  0.00     0.031 C 
ATOM     64  C   UNL     1       9.941  11.296  -0.906  1.00  0.00     0.037 A 
BRANCH  51  65
ATOM     65  C   UNL     1       9.371  10.553   5.212  1.00  0.00     0.057 A 
ATOM     66  C   UNL     1      10.301  10.106   6.162  1.00  0.00     0.134 A 
ATOM     67  C   UNL     1       8.502  11.582   5.597  1.00  0.00     0.134 A 
ATOM     68  F   UNL     1      11.151   9.111   5.866  1.00  0.00    -0.206 F 
ATOM     69  C   UNL     1      10.335  10.632   7.455  1.00  0.00     0.040 A 
ATOM     70  C   UNL     1       8.550  12.139   6.875  1.00  0.00     0.040 A 
ATOM     71  F   UNL     1       7.589  12.060   4.738  1.00  0.00    -0.206 F 
ATOM     72  C   UNL     1       9.460  11.656   7.812  1.00  0.00     0.006 A 
ENDBRANCH  51  65
BRANCH  52  73
ATOM     73  C   UNL     1       8.422   6.138  -3.710  1.00  0.00     0.057 A 
ATOM     74  C   UNL     1       9.501   5.880  -4.563  1.00  0.00     0.134 A 
ATOM     75  C   UNL     1       7.146   5.768  -4.155  1.00  0.00     0.134 A 
ATOM     76  F   UNL     1      10.744   6.233  -4.204  1.00  0.00    -0.206 F 
ATOM     77  C   UNL     1       9.319   5.285  -5.813  1.00  0.00     0.040 A 
ATOM     78  C   UNL     1       6.953   5.145  -5.389  1.00  0.00     0.040 A 
ATOM     79  F   UNL     1       6.071   5.993  -3.386  1.00  0.00    -0.206 F 
ATOM     80  C   UNL     1       8.042   4.908  -6.225  1.00  0.00     0.006 A 
ENDBRANCH  52  73
BRANCH  64  81
ATOM     81  C   UNL     1      10.428  12.508  -1.648  1.00  0.00     0.057 A 
ATOM     82  C   UNL     1       9.571  13.326  -2.392  1.00  0.00     0.134 A 
ATOM     83  C   UNL     1      11.767  12.908  -1.534  1.00  0.00     0.134 A 
ATOM     84  F   UNL     1       8.280  12.996  -2.549  1.00  0.00    -0.206 F 
ATOM     85  C   UNL     1      10.030  14.494  -3.005  1.00  0.00     0.040 A 
ATOM     86  C   UNL     1      12.231  14.087  -2.116  1.00  0.00     0.040 A 
ATOM     87  F   UNL     1      12.639  12.175  -0.824  1.00  0.00    -0.206 F 
ATOM     88  C   UNL     1      11.361  14.883  -2.857  1.00  0.00     0.006 A 
ENDBRANCH  64  81
ENDBRANCH  38  39
ENDBRANCH  31  33
ENDBRANCH  30  31
ENDBRANCH  29  30
ENDBRANCH  28  29
ENDBRANCH  27  28
ENDBRANCH  26  27
ENDBRANCH  25  26
ENDBRANCH  24  25
ENDBRANCH  23  24
ENDBRANCH   1  23
TORSDOF 25
