REMARK SMILES Cc1ncc(C(=O)OCCOCCOCCOCCOC(=O)c2ccc(-c3c4nc(c(-c5c(F)cccc5F)c5ccc([nH]5)c(-c5c(F)cccc5F)c5nc(c(-c6c(F)cccc6F)c6ccc3[nH]6)C=C5)C=C4)cc2)cc1C#N
REMARK SMILES IDX 15 1 14 2 13 3 12 4 11 5 10 6 9 7 8 8 6 9 7 10 5 11 1 12
REMARK SMILES IDX 2 13 3 14 78 15 4 16 77 17 79 18 80 19 16 20 17 21 18 22
REMARK SMILES IDX 19 23 20 24 21 25 22 26 23 27 24 28 76 29 25 30 75 31 26 32
REMARK SMILES IDX 27 33 28 34 69 35 29 36 74 37 68 38 70 39 30 40 73 41 67 42
REMARK SMILES IDX 66 43 31 45 57 46 40 47 56 48 41 49 44 50 55 51 71 52 42 53
REMARK SMILES IDX 43 54 54 56 72 57 45 58 32 59 33 60 38 61 34 62 35 63 37 64
REMARK SMILES IDX 39 65 36 66 58 67 59 68 64 69 60 70 61 71 63 72 65 73 62 74
REMARK SMILES IDX 46 75 47 76 52 77 48 78 49 79 51 80 53 81 50 82
REMARK H PARENT 70 44 44 55
REMARK Flexibility Score: inf
ROOT
ATOM      1  C   UNL     1      -4.072   0.285   6.415  1.00  0.00     0.188 C 
ENDROOT
BRANCH   1   2
ATOM      2  O   UNL     1      -3.073   0.287   5.396  1.00  0.00    -0.377 OA
BRANCH   2   3
ATOM      3  C   UNL     1      -2.698  -0.929   4.776  1.00  0.00     0.188 C 
BRANCH   3   4
ATOM      4  C   UNL     1      -2.052  -2.006   5.674  1.00  0.00     0.188 C 
BRANCH   4   5
ATOM      5  O   UNL     1      -2.350  -1.891   7.048  1.00  0.00    -0.376 OA
BRANCH   5   6
ATOM      6  C   UNL     1      -1.509  -1.223   7.966  1.00  0.00     0.202 C 
BRANCH   6   7
ATOM      7  C   UNL     1      -0.636   0.001   7.636  1.00  0.00     0.261 C 
BRANCH   7   8
ATOM      8  O   UNL     1      -0.352   0.267   6.263  1.00  0.00    -0.460 OA
BRANCH   8   9
ATOM      9  C   UNL     1       0.692  -0.404   5.735  1.00  0.00     0.339 C 
ATOM     10  O   UNL     1       1.417  -1.198   6.306  1.00  0.00    -0.246 OA
BRANCH   9  11
ATOM     11  C   UNL     1       0.697  -0.193   4.278  1.00  0.00     0.079 A 
ATOM     12  C   UNL     1       0.936  -0.015   0.043  1.00  0.00     0.068 C 
ATOM     13  C   UNL     1       0.735  -0.026   1.532  1.00  0.00     0.055 A 
ATOM     14  N   UNL     1       0.899  -1.243   2.116  1.00  0.00    -0.259 NA
ATOM     15  C   UNL     1       0.513   1.137   2.278  1.00  0.00     0.074 A 
ATOM     16  C   UNL     1       0.889  -1.300   3.467  1.00  0.00     0.127 A 
ATOM     17  C   UNL     1       0.469   1.043   3.675  1.00  0.00     0.038 A 
BRANCH  15  18
ATOM     18  C   UNL     1       0.364   2.419   1.653  1.00  0.00     0.101 C 
ATOM     19  N   UNL     1       0.259   3.454   1.148  1.00  0.00    -0.192 NA
ENDBRANCH  15  18
ENDBRANCH   9  11
ENDBRANCH   8   9
ENDBRANCH   7   8
ENDBRANCH   6   7
ENDBRANCH   5   6
ENDBRANCH   4   5
ENDBRANCH   3   4
ENDBRANCH   2   3
ENDBRANCH   1   2
BRANCH   1  20
ATOM     20  C   UNL     1      -4.907  -0.968   6.797  1.00  0.00     0.188 C 
BRANCH  20  21
ATOM     21  O   UNL     1      -4.853  -2.027   5.867  1.00  0.00    -0.376 OA
BRANCH  21  22
ATOM     22  C   UNL     1      -5.928  -2.261   4.985  1.00  0.00     0.202 C 
BRANCH  22  23
ATOM     23  C   UNL     1      -6.543  -1.111   4.173  1.00  0.00     0.261 C 
BRANCH  23  24
ATOM     24  O   UNL     1      -6.627   0.172   4.806  1.00  0.00    -0.460 OA
BRANCH  24  25
ATOM     25  C   UNL     1      -7.623   0.369   5.699  1.00  0.00     0.338 C 
ATOM     26  O   UNL     1      -8.454  -0.435   6.073  1.00  0.00    -0.246 OA
BRANCH  25  27
ATOM     27  C   UNL     1      -7.416   1.717   6.274  1.00  0.00     0.060 A 
ATOM     28  C   UNL     1      -6.923   1.848   7.580  1.00  0.00     0.016 A 
ATOM     29  C   UNL     1      -7.658   2.847   5.491  1.00  0.00     0.016 A 
ATOM     30  C   UNL     1      -6.651   3.114   8.100  1.00  0.00     0.010 A 
ATOM     31  C   UNL     1      -7.428   4.116   6.029  1.00  0.00     0.010 A 
ATOM     32  C   UNL     1      -6.938   4.254   7.340  1.00  0.00    -0.014 A 
BRANCH  32  33
ATOM     33  C   UNL     1      -6.932   5.582   7.996  1.00  0.00     0.031 A 
ATOM     34  C   UNL     1      -8.223   6.087   8.573  1.00  0.00     0.074 A 
ATOM     35  C   UNL     1      -5.808   6.310   8.108  1.00  0.00     0.049 A 
ATOM     36  N   UNL     1      -8.476   7.210   9.194  1.00  0.00    -0.248 NA
ATOM     37  C   UNL     1      -9.389   5.199   8.428  1.00  0.00     0.031 C 
ATOM     38  C   UNL     1      -4.487   5.912   7.628  1.00  0.00     0.029 A 
ATOM     39  N   UNL     1      -5.607   7.549   8.664  1.00  0.00    -0.354 N 
ATOM     40  C   UNL     1      -9.825   7.159   9.522  1.00  0.00     0.074 A 
ATOM     41  C   UNL     1     -10.346   5.919   8.990  1.00  0.00     0.031 C 
ATOM     42  C   UNL     1      -3.611   6.896   7.904  1.00  0.00     0.029 A 
ATOM     43  C   UNL     1      -4.315   8.000   8.553  1.00  0.00     0.049 A 
ATOM     44  H   UNL     1      -6.323   8.065   9.101  1.00  0.00     0.167 HD
ATOM     45  C   UNL     1     -10.562   8.058  10.216  1.00  0.00     0.037 A 
ATOM     46  C   UNL     1      -3.776   9.179   8.921  1.00  0.00     0.037 A 
ATOM     47  C   UNL     1     -10.053   9.310  10.707  1.00  0.00     0.049 A 
ATOM     48  C   UNL     1      -4.649  10.216   9.585  1.00  0.00     0.074 A 
ATOM     49  C   UNL     1     -10.719  10.295  11.414  1.00  0.00     0.029 A 
ATOM     50  N   UNL     1      -8.754   9.760  10.523  1.00  0.00    -0.354 N 
ATOM     51  N   UNL     1      -5.914  10.149   9.922  1.00  0.00    -0.248 NA
ATOM     52  C   UNL     1      -4.009  11.496   9.926  1.00  0.00     0.031 C 
ATOM     53  C   UNL     1      -9.844  11.371  11.594  1.00  0.00     0.029 A 
ATOM     54  C   UNL     1      -8.608  11.022  11.075  1.00  0.00     0.049 A 
ATOM     55  H   UNL     1      -8.041   9.257  10.067  1.00  0.00     0.167 HD
ATOM     56  C   UNL     1      -6.208  11.354  10.553  1.00  0.00     0.074 A 
ATOM     57  C   UNL     1      -4.984  12.127  10.562  1.00  0.00     0.031 C 
ATOM     58  C   UNL     1      -7.382  11.781  11.082  1.00  0.00     0.037 A 
BRANCH  45  59
ATOM     59  C   UNL     1     -12.009   7.726  10.440  1.00  0.00     0.057 A 
ATOM     60  C   UNL     1     -13.018   8.473   9.818  1.00  0.00     0.134 A 
ATOM     61  C   UNL     1     -12.409   6.667  11.268  1.00  0.00     0.134 A 
ATOM     62  F   UNL     1     -12.708   9.503   9.017  1.00  0.00    -0.206 F 
ATOM     63  C   UNL     1     -14.368   8.177  10.007  1.00  0.00     0.040 A 
ATOM     64  C   UNL     1     -13.755   6.339  11.436  1.00  0.00     0.040 A 
ATOM     65  F   UNL     1     -11.494   5.901  11.882  1.00  0.00    -0.206 F 
ATOM     66  C   UNL     1     -14.739   7.099  10.808  1.00  0.00     0.006 A 
ENDBRANCH  45  59
BRANCH  46  67
ATOM     67  C   UNL     1      -2.339   9.467   8.668  1.00  0.00     0.057 A 
ATOM     68  C   UNL     1      -1.843   9.625   7.368  1.00  0.00     0.134 A 
ATOM     69  C   UNL     1      -1.441   9.661   9.725  1.00  0.00     0.134 A 
ATOM     70  F   UNL     1      -2.648   9.453   6.309  1.00  0.00    -0.206 F 
ATOM     71  C   UNL     1      -0.511   9.971   7.129  1.00  0.00     0.040 A 
ATOM     72  C   UNL     1      -0.116  10.040   9.502  1.00  0.00     0.040 A 
ATOM     73  F   UNL     1      -1.859   9.547  10.995  1.00  0.00    -0.206 F 
ATOM     74  C   UNL     1       0.353  10.194   8.199  1.00  0.00     0.006 A 
ENDBRANCH  46  67
BRANCH  58  75
ATOM     75  C   UNL     1      -7.383  13.118  11.774  1.00  0.00     0.057 A 
ATOM     76  C   UNL     1      -7.577  13.198  13.160  1.00  0.00     0.134 A 
ATOM     77  C   UNL     1      -7.208  14.324  11.081  1.00  0.00     0.134 A 
ATOM     78  F   UNL     1      -7.769  12.086  13.887  1.00  0.00    -0.206 F 
ATOM     79  C   UNL     1      -7.589  14.421  13.830  1.00  0.00     0.040 A 
ATOM     80  C   UNL     1      -7.178  15.552  11.746  1.00  0.00     0.040 A 
ATOM     81  F   UNL     1      -7.011  14.324   9.754  1.00  0.00    -0.206 F 
ATOM     82  C   UNL     1      -7.374  15.602  13.125  1.00  0.00     0.006 A 
ENDBRANCH  58  75
ENDBRANCH  32  33
ENDBRANCH  25  27
ENDBRANCH  24  25
ENDBRANCH  23  24
ENDBRANCH  22  23
ENDBRANCH  21  22
ENDBRANCH  20  21
ENDBRANCH   1  20
TORSDOF 21
