REMARK SMILES NC(=O)c1c(-c2ccc(Cl)cc2)csc1NC(=O)[C@H]1[C@@H](C(=O)OCCOCCOCCOCCOC(=O)c2ccc(-c3c4nc(c(-c5c(F)cccc5F)c5ccc([nH]5)c(-c5c(F)cccc5F)c5nc(c(-c6c(F)cccc6F)c6ccc3[nH]6)C=C5)C=C4)cc2)[C@@H]2CC[C@H]1O2
REMARK SMILES IDX 28 1 27 2 26 3 25 4 24 5 23 6 21 7 22 8 20 9 19 10 95 11
REMARK SMILES IDX 92 12 94 13 96 14 93 15 17 16 16 17 18 19 15 20 4 21 5 22
REMARK SMILES IDX 13 23 14 24 2 25 1 26 3 29 6 30 7 31 12 32 8 33 11 34 9 35
REMARK SMILES IDX 10 36 29 37 30 38 31 39 32 40 33 41 34 42 35 43 36 44 37 45
REMARK SMILES IDX 38 46 39 47 91 48 40 49 90 50 41 51 42 52 43 53 84 54 44 55
REMARK SMILES IDX 89 56 83 57 85 58 45 59 88 60 82 61 81 62 46 64 72 65 55 66
REMARK SMILES IDX 71 67 56 68 59 69 70 70 86 71 57 72 58 73 69 75 87 76 60 77
REMARK SMILES IDX 47 78 48 79 53 80 49 81 50 82 52 83 54 84 51 85 73 86 74 87
REMARK SMILES IDX 79 88 75 89 76 90 78 91 80 92 77 93 61 94 62 95 67 96 63 97
REMARK SMILES IDX 64 98 66 99 68 100 65 101
REMARK H PARENT 16 18 1 27 1 28 85 63 59 74
REMARK Flexibility Score: inf
ROOT
ATOM      1  C   UNL     1      -1.948  -0.234   8.766  1.00  0.00     0.188 C 
ENDROOT
BRANCH   1   2
ATOM      2  C   UNL     1      -0.793  -0.167   9.787  1.00  0.00     0.188 C 
BRANCH   2   3
ATOM      3  O   UNL     1      -1.131   0.524  10.997  1.00  0.00    -0.376 OA
BRANCH   3   4
ATOM      4  C   UNL     1      -0.584   1.833  11.136  1.00  0.00     0.202 C 
BRANCH   4   5
ATOM      5  C   UNL     1      -1.188   2.855  10.178  1.00  0.00     0.261 C 
BRANCH   5   6
ATOM      6  O   UNL     1      -0.949   2.485   8.808  1.00  0.00    -0.463 OA
BRANCH   6   7
ATOM      7  C   UNL     1       0.233   2.813   8.223  1.00  0.00     0.312 C 
ATOM      8  O   UNL     1       1.058   3.539   8.748  1.00  0.00    -0.252 OA
BRANCH   7   9
ATOM      9  C   UNL     1       0.242   2.245   6.817  1.00  0.00     0.143 C 
ATOM     10  C   UNL     1       0.863   0.899   6.411  1.00  0.00     0.124 C 
ATOM     11  C   UNL     1       1.766   1.293   5.238  1.00  0.00     0.132 C 
ATOM     12  C   UNL     1       0.895   3.204   5.813  1.00  0.00     0.133 C 
ATOM     13  C   UNL     1       0.913   1.637   4.011  1.00  0.00     0.035 C 
ATOM     14  O   UNL     1       2.197   2.617   5.617  1.00  0.00    -0.373 OA
ATOM     15  C   UNL     1       0.300   2.985   4.416  1.00  0.00     0.036 C 
BRANCH  10  16
ATOM     16  C   UNL     1       1.468  -0.242   7.226  1.00  0.00     0.231 C 
ATOM     17  N   UNL     1       2.257  -0.208   8.319  1.00  0.00    -0.317 N 
ATOM     18  H   UNL     1       2.433  -1.097   8.703  1.00  0.00     0.170 HD
ATOM     19  O   UNL     1       1.151  -1.391   6.864  1.00  0.00    -0.274 OA
BRANCH  17  20
ATOM     20  C   UNL     1       2.864   0.813   9.003  1.00  0.00     0.108 A 
ATOM     21  C   UNL     1       3.028   0.901  10.382  1.00  0.00     0.082 A 
ATOM     22  C   UNL     1       3.564   2.202  10.710  1.00  0.00     0.007 A 
ATOM     23  C   UNL     1       3.976   2.889   9.582  1.00  0.00     0.076 A 
ATOM     24  S   UNL     1       3.705   2.002   8.156  1.00  0.00    -0.125 S 
BRANCH  21  25
ATOM     25  C   UNL     1       2.576  -0.181  11.262  1.00  0.00     0.252 C 
ATOM     26  N   UNL     1       2.287   0.119  12.560  1.00  0.00    -0.365 N 
ATOM     27  H   UNL     1       1.982  -0.588  13.173  1.00  0.00     0.159 HD
ATOM     28  H   UNL     1       2.383   1.044  12.884  1.00  0.00     0.159 HD
ATOM     29  O   UNL     1       2.416  -1.330  10.858  1.00  0.00    -0.269 OA
ENDBRANCH  21  25
BRANCH  22  30
ATOM     30  C   UNL     1       3.743   2.837  12.002  1.00  0.00    -0.017 A 
ATOM     31  C   UNL     1       2.863   3.851  12.408  1.00  0.00     0.010 A 
ATOM     32  C   UNL     1       4.810   2.466  12.823  1.00  0.00     0.010 A 
ATOM     33  C   UNL     1       3.065   4.504  13.625  1.00  0.00     0.021 A 
ATOM     34  C   UNL     1       5.013   3.123  14.038  1.00  0.00     0.021 A 
ATOM     35  C   UNL     1       4.145   4.143  14.430  1.00  0.00     0.041 A 
ATOM     36  Cl  UNL     1       4.419   4.971  15.912  1.00  0.00    -0.084 Cl
ENDBRANCH  22  30
ENDBRANCH  17  20
ENDBRANCH  10  16
ENDBRANCH   7   9
ENDBRANCH   6   7
ENDBRANCH   5   6
ENDBRANCH   4   5
ENDBRANCH   3   4
ENDBRANCH   2   3
ENDBRANCH   1   2
BRANCH   1  37
ATOM     37  O   UNL     1      -3.134  -0.935   9.109  1.00  0.00    -0.377 OA
BRANCH  37  38
ATOM     38  C   UNL     1      -3.502  -0.872  10.478  1.00  0.00     0.188 C 
BRANCH  38  39
ATOM     39  C   UNL     1      -2.834  -1.988  11.300  1.00  0.00     0.188 C 
BRANCH  39  40
ATOM     40  O   UNL     1      -1.981  -2.815  10.513  1.00  0.00    -0.376 OA
BRANCH  40  41
ATOM     41  C   UNL     1      -2.524  -4.027  10.002  1.00  0.00     0.202 C 
BRANCH  41  42
ATOM     42  C   UNL     1      -3.710  -3.947   9.026  1.00  0.00     0.261 C 
BRANCH  42  43
ATOM     43  O   UNL     1      -4.896  -3.290   9.504  1.00  0.00    -0.460 OA
BRANCH  43  44
ATOM     44  C   UNL     1      -5.495  -3.736  10.627  1.00  0.00     0.338 C 
ATOM     45  O   UNL     1      -5.213  -4.728  11.275  1.00  0.00    -0.246 OA
BRANCH  44  46
ATOM     46  C   UNL     1      -6.407  -2.655  11.076  1.00  0.00     0.060 A 
ATOM     47  C   UNL     1      -6.305  -2.191  12.395  1.00  0.00     0.016 A 
ATOM     48  C   UNL     1      -7.258  -2.011  10.168  1.00  0.00     0.016 A 
ATOM     49  C   UNL     1      -7.062  -1.093  12.812  1.00  0.00     0.010 A 
ATOM     50  C   UNL     1      -8.037  -0.932  10.593  1.00  0.00     0.010 A 
ATOM     51  C   UNL     1      -7.963  -0.488  11.923  1.00  0.00    -0.014 A 
BRANCH  51  52
ATOM     52  C   UNL     1      -9.027   0.398  12.452  1.00  0.00     0.031 A 
ATOM     53  C   UNL     1     -10.287  -0.266  12.938  1.00  0.00     0.074 A 
ATOM     54  C   UNL     1      -8.903   1.736  12.498  1.00  0.00     0.049 A 
ATOM     55  N   UNL     1     -11.377   0.267  13.424  1.00  0.00    -0.248 NA
ATOM     56  C   UNL     1     -10.315  -1.737  12.862  1.00  0.00     0.031 C 
ATOM     57  C   UNL     1      -7.729   2.499  12.081  1.00  0.00     0.029 A 
ATOM     58  N   UNL     1      -9.796   2.692  12.915  1.00  0.00    -0.354 N 
ATOM     59  C   UNL     1     -12.211  -0.802  13.721  1.00  0.00     0.074 A 
ATOM     60  C   UNL     1     -11.520  -2.011  13.335  1.00  0.00     0.031 C 
ATOM     61  C   UNL     1      -7.981   3.811  12.249  1.00  0.00     0.029 A 
ATOM     62  C   UNL     1      -9.340   3.979  12.765  1.00  0.00     0.049 A 
ATOM     63  H   UNL     1     -10.682   2.476  13.286  1.00  0.00     0.167 HD
ATOM     64  C   UNL     1     -13.445  -0.785  14.273  1.00  0.00     0.037 A 
ATOM     65  C   UNL     1      -9.961   5.152  13.003  1.00  0.00     0.037 A 
ATOM     66  C   UNL     1     -14.153   0.412  14.627  1.00  0.00     0.049 A 
ATOM     67  C   UNL     1     -11.372   5.150  13.537  1.00  0.00     0.074 A 
ATOM     68  C   UNL     1     -15.409   0.537  15.191  1.00  0.00     0.029 A 
ATOM     69  N   UNL     1     -13.667   1.695  14.430  1.00  0.00    -0.354 N 
ATOM     70  N   UNL     1     -12.136   4.133  13.856  1.00  0.00    -0.248 NA
ATOM     71  C   UNL     1     -12.008   6.462  13.741  1.00  0.00     0.031 C 
ATOM     72  C   UNL     1     -15.701   1.900  15.297  1.00  0.00     0.029 A 
ATOM     73  C   UNL     1     -14.610   2.621  14.839  1.00  0.00     0.049 A 
ATOM     74  H   UNL     1     -12.784   1.915  14.055  1.00  0.00     0.167 HD
ATOM     75  C   UNL     1     -13.327   4.680  14.323  1.00  0.00     0.074 A 
ATOM     76  C   UNL     1     -13.182   6.119  14.253  1.00  0.00     0.031 C 
ATOM     77  C   UNL     1     -14.440   4.049  14.771  1.00  0.00     0.037 A 
BRANCH  64  78
ATOM     78  C   UNL     1     -14.106  -2.110  14.495  1.00  0.00     0.057 A 
ATOM     79  C   UNL     1     -13.690  -2.976  15.515  1.00  0.00     0.134 A 
ATOM     80  C   UNL     1     -15.159  -2.530  13.675  1.00  0.00     0.134 A 
ATOM     81  F   UNL     1     -12.667  -2.641  16.317  1.00  0.00    -0.206 F 
ATOM     82  C   UNL     1     -14.287  -4.223  15.699  1.00  0.00     0.040 A 
ATOM     83  C   UNL     1     -15.778  -3.766  13.862  1.00  0.00     0.040 A 
ATOM     84  F   UNL     1     -15.596  -1.749  12.675  1.00  0.00    -0.206 F 
ATOM     85  C   UNL     1     -15.338  -4.619  14.873  1.00  0.00     0.006 A 
ENDBRANCH  64  78
BRANCH  65  86
ATOM     86  C   UNL     1      -9.270   6.439  12.729  1.00  0.00     0.057 A 
ATOM     87  C   UNL     1      -8.877   7.288  13.771  1.00  0.00     0.134 A 
ATOM     88  C   UNL     1      -9.029   6.872  11.420  1.00  0.00     0.134 A 
ATOM     89  F   UNL     1      -9.107   6.942  15.046  1.00  0.00    -0.206 F 
ATOM     90  C   UNL     1      -8.286   8.528  13.521  1.00  0.00     0.040 A 
ATOM     91  C   UNL     1      -8.420   8.101  11.156  1.00  0.00     0.040 A 
ATOM     92  F   UNL     1      -9.388   6.109  10.377  1.00  0.00    -0.206 F 
ATOM     93  C   UNL     1      -8.053   8.936  12.209  1.00  0.00     0.006 A 
ENDBRANCH  65  86
BRANCH  77  94
ATOM     94  C   UNL     1     -15.575   4.904  15.252  1.00  0.00     0.057 A 
ATOM     95  C   UNL     1     -16.406   5.595  14.363  1.00  0.00     0.134 A 
ATOM     96  C   UNL     1     -15.877   4.981  16.618  1.00  0.00     0.134 A 
ATOM     97  F   UNL     1     -16.164   5.568  13.044  1.00  0.00    -0.206 F 
ATOM     98  C   UNL     1     -17.490   6.348  14.818  1.00  0.00     0.040 A 
ATOM     99  C   UNL     1     -16.971   5.711  17.082  1.00  0.00     0.040 A 
ATOM    100  F   UNL     1     -15.125   4.332  17.519  1.00  0.00    -0.206 F 
ATOM    101  C   UNL     1     -17.780   6.400  16.180  1.00  0.00     0.006 A 
ENDBRANCH  77  94
ENDBRANCH  51  52
ENDBRANCH  44  46
ENDBRANCH  43  44
ENDBRANCH  42  43
ENDBRANCH  41  42
ENDBRANCH  40  41
ENDBRANCH  39  40
ENDBRANCH  38  39
ENDBRANCH  37  38
ENDBRANCH   1  37
TORSDOF 24
