REMARK SMILES COc1cc2ccccc2cc1C(=O)Nc1cc(C(=O)OCCOCCOCCOCCOC(=O)c2ccc(-c3c4nc(c(-c5c(F)cccc5F)c5ccc([nH]5)c(-c5c(F)cccc5F)c5nc(c(-c6c(F)cccc6F)c6ccc3[nH]6)C=C5)C=C4)cc2)ccc1C
REMARK SMILES IDX 26 1 25 2 24 3 23 4 22 5 21 6 19 7 20 8 18 9 16 10 17 11
REMARK SMILES IDX 92 12 91 13 93 14 90 15 15 16 13 17 14 18 12 20 3 21 4 22
REMARK SMILES IDX 5 23 11 24 6 25 10 26 7 27 9 28 8 29 2 30 1 31 27 32 28 33
REMARK SMILES IDX 29 34 30 35 31 36 32 37 33 38 34 39 35 40 36 41 37 42 89 43
REMARK SMILES IDX 38 44 88 45 39 46 40 47 41 48 82 49 42 50 87 51 81 52 83 53
REMARK SMILES IDX 43 54 86 55 80 56 79 57 44 59 70 60 53 61 69 62 54 63 57 64
REMARK SMILES IDX 68 65 84 66 55 67 56 68 67 70 85 71 58 72 45 73 46 74 51 75
REMARK SMILES IDX 47 76 48 77 50 78 52 79 49 80 71 81 72 82 77 83 73 84 74 85
REMARK SMILES IDX 76 86 78 87 75 88 59 89 60 90 65 91 61 92 62 93 64 94 66 95
REMARK SMILES IDX 63 96
REMARK H PARENT 15 19 83 58 57 69
REMARK Flexibility Score: inf
ROOT
ATOM      1  C   UNL     1      -0.459  -0.943   4.112  1.00  0.00     0.188 C 
ENDROOT
BRANCH   1   2
ATOM      2  C   UNL     1      -1.976  -0.784   3.870  1.00  0.00     0.188 C 
BRANCH   2   3
ATOM      3  O   UNL     1      -2.869  -1.874   3.996  1.00  0.00    -0.376 OA
BRANCH   3   4
ATOM      4  C   UNL     1      -2.868  -2.809   2.925  1.00  0.00     0.202 C 
BRANCH   4   5
ATOM      5  C   UNL     1      -3.229  -2.343   1.525  1.00  0.00     0.261 C 
BRANCH   5   6
ATOM      6  O   UNL     1      -2.037  -1.832   0.937  1.00  0.00    -0.460 OA
BRANCH   6   7
ATOM      7  C   UNL     1      -2.171  -0.607   0.429  1.00  0.00     0.338 C 
ATOM      8  O   UNL     1      -3.204  -0.060   0.057  1.00  0.00    -0.246 OA
BRANCH   7   9
ATOM      9  C   UNL     1      -0.920   0.107   0.709  1.00  0.00     0.062 A 
ATOM     10  C   UNL     1       1.438   0.367   0.421  1.00  0.00     0.045 A 
ATOM     11  C   UNL     1       0.339  -0.474   0.525  1.00  0.00     0.042 A 
ATOM     12  C   UNL     1       1.305   1.727   0.801  1.00  0.00    -0.027 A 
ATOM     13  C   UNL     1       0.065   2.217   1.244  1.00  0.00     0.006 A 
ATOM     14  C   UNL     1       2.326   2.787   0.487  1.00  0.00     0.046 C 
ATOM     15  C   UNL     1      -1.058   1.426   1.134  1.00  0.00     0.016 A 
BRANCH  10  16
ATOM     16  N   UNL     1       2.648  -0.058  -0.145  1.00  0.00    -0.322 N 
ATOM     17  C   UNL     1       3.017  -0.974  -1.106  1.00  0.00     0.259 C 
ATOM     18  O   UNL     1       4.242  -1.091  -1.260  1.00  0.00    -0.269 OA
ATOM     19  H   UNL     1       3.423   0.413   0.238  1.00  0.00     0.170 HD
BRANCH  17  20
ATOM     20  C   UNL     1       2.136  -1.767  -2.027  1.00  0.00     0.082 A 
ATOM     21  C   UNL     1       0.820  -1.506  -2.413  1.00  0.00     0.132 A 
ATOM     22  C   UNL     1       0.106  -2.432  -3.185  1.00  0.00     0.056 A 
ATOM     23  C   UNL     1       0.713  -3.568  -3.726  1.00  0.00    -0.015 A 
ATOM     24  C   UNL     1       2.763  -2.887  -2.633  1.00  0.00     0.026 A 
ATOM     25  C   UNL     1      -0.013  -4.478  -4.513  1.00  0.00     0.009 A 
ATOM     26  C   UNL     1       2.082  -3.773  -3.498  1.00  0.00    -0.017 A 
ATOM     27  C   UNL     1       0.619  -5.559  -5.118  1.00  0.00     0.001 A 
ATOM     28  C   UNL     1       2.714  -4.853  -4.144  1.00  0.00     0.009 A 
ATOM     29  C   UNL     1       1.989  -5.732  -4.956  1.00  0.00     0.001 A 
BRANCH  21  30
ATOM     30  O   UNL     1       0.052  -0.440  -2.054  1.00  0.00    -0.496 OA
ATOM     31  C   UNL     1       0.442   0.791  -2.640  1.00  0.00     0.278 C 
ENDBRANCH  21  30
ENDBRANCH  17  20
ENDBRANCH  10  16
ENDBRANCH   7   9
ENDBRANCH   6   7
ENDBRANCH   5   6
ENDBRANCH   4   5
ENDBRANCH   3   4
ENDBRANCH   2   3
ENDBRANCH   1   2
BRANCH   1  32
ATOM     32  O   UNL     1       0.222  -2.110   3.682  1.00  0.00    -0.377 OA
BRANCH  32  33
ATOM     33  C   UNL     1       0.337  -3.172   4.623  1.00  0.00     0.188 C 
BRANCH  33  34
ATOM     34  C   UNL     1       0.357  -2.889   6.101  1.00  0.00     0.188 C 
BRANCH  34  35
ATOM     35  O   UNL     1      -0.985  -2.605   6.477  1.00  0.00    -0.376 OA
BRANCH  35  36
ATOM     36  C   UNL     1      -1.139  -2.091   7.789  1.00  0.00     0.202 C 
BRANCH  36  37
ATOM     37  C   UNL     1      -0.575  -3.020   8.871  1.00  0.00     0.261 C 
BRANCH  37  38
ATOM     38  O   UNL     1      -1.322  -4.256   8.863  1.00  0.00    -0.460 OA
BRANCH  38  39
ATOM     39  C   UNL     1      -0.652  -5.356   8.425  1.00  0.00     0.338 C 
ATOM     40  O   UNL     1       0.457  -5.704   8.799  1.00  0.00    -0.246 OA
BRANCH  39  41
ATOM     41  C   UNL     1      -1.327  -5.915   7.216  1.00  0.00     0.060 A 
ATOM     42  C   UNL     1      -0.711  -6.928   6.462  1.00  0.00     0.016 A 
ATOM     43  C   UNL     1      -2.391  -5.216   6.667  1.00  0.00     0.016 A 
ATOM     44  C   UNL     1      -1.032  -7.101   5.103  1.00  0.00     0.010 A 
ATOM     45  C   UNL     1      -2.637  -5.334   5.314  1.00  0.00     0.010 A 
ATOM     46  C   UNL     1      -1.927  -6.227   4.494  1.00  0.00    -0.014 A 
BRANCH  46  47
ATOM     47  C   UNL     1      -2.126  -6.065   3.034  1.00  0.00     0.031 A 
ATOM     48  C   UNL     1      -3.532  -6.080   2.521  1.00  0.00     0.074 A 
ATOM     49  C   UNL     1      -1.125  -5.533   2.272  1.00  0.00     0.049 A 
ATOM     50  N   UNL     1      -3.867  -5.769   1.321  1.00  0.00    -0.248 NA
ATOM     51  C   UNL     1      -4.711  -6.334   3.345  1.00  0.00     0.031 C 
ATOM     52  C   UNL     1      -1.204  -4.845   0.974  1.00  0.00     0.029 A 
ATOM     53  N   UNL     1       0.245  -5.423   2.546  1.00  0.00    -0.354 N 
ATOM     54  C   UNL     1      -5.223  -5.513   1.257  1.00  0.00     0.074 A 
ATOM     55  C   UNL     1      -5.705  -5.908   2.554  1.00  0.00     0.031 C 
ATOM     56  C   UNL     1       0.019  -4.620   0.466  1.00  0.00     0.029 A 
ATOM     57  C   UNL     1       0.928  -5.349   1.312  1.00  0.00     0.049 A 
ATOM     58  H   UNL     1       0.658  -5.401   3.439  1.00  0.00     0.167 HD
ATOM     59  C   UNL     1      -5.698  -4.908   0.122  1.00  0.00     0.037 A 
ATOM     60  C   UNL     1       1.680  -6.410   0.924  1.00  0.00     0.037 A 
ATOM     61  C   UNL     1      -4.637  -4.903  -0.908  1.00  0.00     0.049 A 
ATOM     62  C   UNL     1       0.922  -7.093  -0.210  1.00  0.00     0.074 A 
ATOM     63  C   UNL     1      -3.968  -3.914  -1.602  1.00  0.00     0.029 A 
ATOM     64  N   UNL     1      -3.926  -6.091  -1.155  1.00  0.00    -0.354 N 
ATOM     65  N   UNL     1      -0.391  -7.065  -0.355  1.00  0.00    -0.248 NA
ATOM     66  C   UNL     1       1.593  -7.571  -1.410  1.00  0.00     0.031 C 
ATOM     67  C   UNL     1      -2.783  -4.497  -2.129  1.00  0.00     0.029 A 
ATOM     68  C   UNL     1      -2.732  -5.848  -1.805  1.00  0.00     0.049 A 
ATOM     69  H   UNL     1      -4.241  -6.987  -0.896  1.00  0.00     0.167 HD
ATOM     70  C   UNL     1      -0.711  -7.264  -1.678  1.00  0.00     0.074 A 
ATOM     71  C   UNL     1       0.560  -7.675  -2.266  1.00  0.00     0.031 C 
ATOM     72  C   UNL     1      -1.902  -6.951  -2.298  1.00  0.00     0.037 A 
BRANCH  59  73
ATOM     73  C   UNL     1      -7.032  -4.169  -0.059  1.00  0.00     0.057 A 
ATOM     74  C   UNL     1      -7.314  -3.438  -1.241  1.00  0.00     0.134 A 
ATOM     75  C   UNL     1      -8.062  -4.069   0.898  1.00  0.00     0.134 A 
ATOM     76  F   UNL     1      -6.483  -3.443  -2.291  1.00  0.00    -0.206 F 
ATOM     77  C   UNL     1      -8.472  -2.659  -1.428  1.00  0.00     0.040 A 
ATOM     78  C   UNL     1      -9.240  -3.318   0.712  1.00  0.00     0.040 A 
ATOM     79  F   UNL     1      -8.002  -4.687   2.077  1.00  0.00    -0.206 F 
ATOM     80  C   UNL     1      -9.446  -2.597  -0.449  1.00  0.00     0.006 A 
ENDBRANCH  59  73
BRANCH  60  81
ATOM     81  C   UNL     1       2.514  -6.848   2.099  1.00  0.00     0.057 A 
ATOM     82  C   UNL     1       3.438  -5.874   2.571  1.00  0.00     0.134 A 
ATOM     83  C   UNL     1       2.047  -7.745   3.065  1.00  0.00     0.134 A 
ATOM     84  F   UNL     1       3.961  -4.981   1.713  1.00  0.00    -0.206 F 
ATOM     85  C   UNL     1       3.689  -5.659   3.936  1.00  0.00     0.040 A 
ATOM     86  C   UNL     1       2.328  -7.560   4.437  1.00  0.00     0.040 A 
ATOM     87  F   UNL     1       1.173  -8.706   2.735  1.00  0.00    -0.206 F 
ATOM     88  C   UNL     1       3.086  -6.476   4.880  1.00  0.00     0.006 A 
ENDBRANCH  60  81
BRANCH  72  89
ATOM     89  C   UNL     1      -2.395  -7.604  -3.579  1.00  0.00     0.057 A 
ATOM     90  C   UNL     1      -1.879  -8.802  -4.084  1.00  0.00     0.134 A 
ATOM     91  C   UNL     1      -3.562  -7.140  -4.245  1.00  0.00     0.134 A 
ATOM     92  F   UNL     1      -0.881  -9.456  -3.478  1.00  0.00    -0.206 F 
ATOM     93  C   UNL     1      -2.415  -9.434  -5.211  1.00  0.00     0.040 A 
ATOM     94  C   UNL     1      -4.144  -7.801  -5.325  1.00  0.00     0.040 A 
ATOM     95  F   UNL     1      -4.238  -6.048  -3.864  1.00  0.00    -0.206 F 
ATOM     96  C   UNL     1      -3.556  -8.942  -5.829  1.00  0.00     0.006 A 
ENDBRANCH  72  89
ENDBRANCH  46  47
ENDBRANCH  39  41
ENDBRANCH  38  39
ENDBRANCH  37  38
ENDBRANCH  36  37
ENDBRANCH  35  36
ENDBRANCH  34  35
ENDBRANCH  33  34
ENDBRANCH  32  33
ENDBRANCH   1  32
TORSDOF 23
