REMARK SMILES CC(C)CN(C)c1cc2c(cc1Cl)C=C(C(=O)OCCOCCOCCOCCOC(=O)c1ccc(-c3c4nc(c(-c5c(F)cccc5F)c5ccc([nH]5)c(-c5c(F)cccc5F)c5nc(c(-c6c(F)cccc6F)c6ccc3[nH]6)C=C5)C=C4)cc1)[C@@H](C(F)(F)F)O2
REMARK SMILES IDX 23 1 22 2 21 3 20 4 19 5 18 6 16 7 17 8 15 9 7 10 8 11 12 12
REMARK SMILES IDX 9 13 11 14 13 15 10 16 92 17 14 18 87 19 5 20 6 21 4 22 2 23
REMARK SMILES IDX 1 24 3 25 88 26 89 27 90 28 91 29 24 30 25 31 26 32 27 33
REMARK SMILES IDX 28 34 29 35 30 36 31 37 32 38 33 39 34 40 86 41 35 42 85 43
REMARK SMILES IDX 36 44 37 45 38 46 79 47 39 48 84 49 78 50 80 51 40 52 83 53
REMARK SMILES IDX 77 54 76 55 41 57 67 58 50 59 66 60 51 61 54 62 65 63 81 64
REMARK SMILES IDX 52 65 53 66 64 68 82 69 55 70 42 71 43 72 48 73 44 74 45 75
REMARK SMILES IDX 47 76 49 77 46 78 68 79 69 80 74 81 70 82 71 83 73 84 75 85
REMARK SMILES IDX 72 86 56 87 57 88 62 89 58 90 59 91 61 92 63 93 60 94
REMARK H PARENT 80 56 54 67
REMARK Flexibility Score: inf
ROOT
ATOM      1  C   UNL     1      -0.982   7.670  -0.740  1.00  0.00     0.188 C 
ENDROOT
BRANCH   1   2
ATOM      2  C   UNL     1       0.358   8.110  -1.355  1.00  0.00     0.188 C 
BRANCH   2   3
ATOM      3  O   UNL     1       0.307   9.409  -1.940  1.00  0.00    -0.376 OA
BRANCH   3   4
ATOM      4  C   UNL     1       0.246   9.484  -3.358  1.00  0.00     0.202 C 
BRANCH   4   5
ATOM      5  C   UNL     1      -1.058   9.012  -4.025  1.00  0.00     0.261 C 
BRANCH   5   6
ATOM      6  O   UNL     1      -1.437   7.659  -3.727  1.00  0.00    -0.460 OA
BRANCH   6   7
ATOM      7  C   UNL     1      -0.617   6.696  -4.184  1.00  0.00     0.338 C 
ATOM      8  O   UNL     1       0.346   6.855  -4.915  1.00  0.00    -0.246 OA
BRANCH   7   9
ATOM      9  C   UNL     1      -0.961   5.416  -3.531  1.00  0.00     0.087 C 
ATOM     10  C   UNL     1      -0.814   0.680  -1.831  1.00  0.00     0.059 A 
ATOM     11  C   UNL     1      -1.813   1.677  -1.871  1.00  0.00     0.074 A 
ATOM     12  C   UNL     1       0.478   1.048  -2.267  1.00  0.00     0.065 A 
ATOM     13  C   UNL     1      -1.536   2.970  -2.341  1.00  0.00     0.130 A 
ATOM     14  C   UNL     1       0.777   2.363  -2.625  1.00  0.00     0.034 A 
ATOM     15  Cl  UNL     1       1.749  -0.100  -2.520  1.00  0.00    -0.082 Cl
ATOM     16  C   UNL     1      -0.233   3.317  -2.687  1.00  0.00     0.019 A 
ATOM     17  O   UNL     1      -2.583   3.848  -2.445  1.00  0.00    -0.475 OA
ATOM     18  C   UNL     1       0.072   4.637  -3.197  1.00  0.00     0.027 C 
ATOM     19  C   UNL     1      -2.398   5.035  -3.284  1.00  0.00     0.316 C 
BRANCH  10  20
ATOM     20  N   UNL     1      -1.116  -0.629  -1.435  1.00  0.00    -0.373 N 
ATOM     21  C   UNL     1      -2.163  -1.295  -2.205  1.00  0.00     0.143 C 
BRANCH  20  22
ATOM     22  C   UNL     1      -0.993  -0.998  -0.009  1.00  0.00     0.119 C 
BRANCH  22  23
ATOM     23  C   UNL     1       0.468  -1.237   0.428  1.00  0.00     0.002 C 
ATOM     24  C   UNL     1       1.083   0.015   1.059  1.00  0.00     0.009 C 
ATOM     25  C   UNL     1       0.592  -2.403   1.413  1.00  0.00     0.009 C 
ENDBRANCH  22  23
ENDBRANCH  20  22
ENDBRANCH  10  20
BRANCH  19  26
ATOM     26  C   UNL     1      -3.161   4.875  -4.606  1.00  0.00     0.430 C 
ATOM     27  F   UNL     1      -4.446   4.502  -4.399  1.00  0.00    -0.167 F 
ATOM     28  F   UNL     1      -3.200   6.038  -5.300  1.00  0.00    -0.167 F 
ATOM     29  F   UNL     1      -2.593   3.948  -5.411  1.00  0.00    -0.167 F 
ENDBRANCH  19  26
ENDBRANCH   7   9
ENDBRANCH   6   7
ENDBRANCH   5   6
ENDBRANCH   4   5
ENDBRANCH   3   4
ENDBRANCH   2   3
ENDBRANCH   1   2
BRANCH   1  30
ATOM     30  O   UNL     1      -2.078   8.478  -1.136  1.00  0.00    -0.377 OA
BRANCH  30  31
ATOM     31  C   UNL     1      -2.239   9.748  -0.503  1.00  0.00     0.188 C 
BRANCH  31  32
ATOM     32  C   UNL     1      -1.111  10.421   0.316  1.00  0.00     0.188 C 
BRANCH  32  33
ATOM     33  O   UNL     1      -0.399   9.531   1.169  1.00  0.00    -0.376 OA
BRANCH  33  34
ATOM     34  C   UNL     1      -0.621   9.670   2.566  1.00  0.00     0.202 C 
BRANCH  34  35
ATOM     35  C   UNL     1      -1.941   9.055   3.045  1.00  0.00     0.261 C 
BRANCH  35  36
ATOM     36  O   UNL     1      -3.126   9.650   2.494  1.00  0.00    -0.460 OA
BRANCH  36  37
ATOM     37  C   UNL     1      -3.333  10.967   2.716  1.00  0.00     0.338 C 
ATOM     38  O   UNL     1      -2.651  11.721   3.386  1.00  0.00    -0.246 OA
BRANCH  37  39
ATOM     39  C   UNL     1      -4.437  11.391   1.829  1.00  0.00     0.060 A 
ATOM     40  C   UNL     1      -5.637  10.676   1.808  1.00  0.00     0.016 A 
ATOM     41  C   UNL     1      -4.251  12.490   0.980  1.00  0.00     0.016 A 
ATOM     42  C   UNL     1      -6.667  11.082   0.960  1.00  0.00     0.010 A 
ATOM     43  C   UNL     1      -5.280  12.891   0.125  1.00  0.00     0.010 A 
ATOM     44  C   UNL     1      -6.504  12.205   0.130  1.00  0.00    -0.014 A 
BRANCH  44  45
ATOM     45  C   UNL     1      -7.682  12.762  -0.577  1.00  0.00     0.031 A 
ATOM     46  C   UNL     1      -7.938  12.510  -2.030  1.00  0.00     0.074 A 
ATOM     47  C   UNL     1      -8.540  13.509   0.144  1.00  0.00     0.049 A 
ATOM     48  N   UNL     1      -8.969  12.869  -2.754  1.00  0.00    -0.248 NA
ATOM     49  C   UNL     1      -6.910  11.765  -2.769  1.00  0.00     0.031 C 
ATOM     50  C   UNL     1      -8.377  13.841   1.562  1.00  0.00     0.029 A 
ATOM     51  N   UNL     1      -9.716  14.117  -0.209  1.00  0.00    -0.354 N 
ATOM     52  C   UNL     1      -8.735  12.366  -4.027  1.00  0.00     0.074 A 
ATOM     53  C   UNL     1      -7.437  11.722  -3.988  1.00  0.00     0.031 C 
ATOM     54  C   UNL     1      -9.422  14.582   1.960  1.00  0.00     0.029 A 
ATOM     55  C   UNL     1     -10.314  14.793   0.826  1.00  0.00     0.049 A 
ATOM     56  H   UNL     1     -10.095  14.074  -1.117  1.00  0.00     0.167 HD
ATOM     57  C   UNL     1      -9.542  12.420  -5.116  1.00  0.00     0.037 A 
ATOM     58  C   UNL     1     -11.454  15.506   0.856  1.00  0.00     0.037 A 
ATOM     59  C   UNL     1     -10.818  13.093  -5.157  1.00  0.00     0.049 A 
ATOM     60  C   UNL     1     -12.290  15.604  -0.388  1.00  0.00     0.074 A 
ATOM     61  C   UNL     1     -11.711  13.188  -6.212  1.00  0.00     0.029 A 
ATOM     62  N   UNL     1     -11.377  13.797  -4.101  1.00  0.00    -0.354 N 
ATOM     63  N   UNL     1     -12.094  15.057  -1.562  1.00  0.00    -0.248 NA
ATOM     64  C   UNL     1     -13.512  16.414  -0.296  1.00  0.00     0.031 C 
ATOM     65  C   UNL     1     -12.788  13.986  -5.808  1.00  0.00     0.029 A 
ATOM     66  C   UNL     1     -12.590  14.350  -4.487  1.00  0.00     0.049 A 
ATOM     67  H   UNL     1     -10.973  13.892  -3.208  1.00  0.00     0.167 HD
ATOM     68  C   UNL     1     -13.180  15.434  -2.340  1.00  0.00     0.074 A 
ATOM     69  C   UNL     1     -14.043  16.235  -1.496  1.00  0.00     0.031 C 
ATOM     70  C   UNL     1     -13.439  15.146  -3.639  1.00  0.00     0.037 A 
BRANCH  57  71
ATOM     71  C   UNL     1      -9.078  11.718  -6.360  1.00  0.00     0.057 A 
ATOM     72  C   UNL     1      -8.705  12.437  -7.502  1.00  0.00     0.134 A 
ATOM     73  C   UNL     1      -9.077  10.320  -6.448  1.00  0.00     0.134 A 
ATOM     74  F   UNL     1      -8.696  13.779  -7.490  1.00  0.00    -0.206 F 
ATOM     75  C   UNL     1      -8.355  11.791  -8.690  1.00  0.00     0.040 A 
ATOM     76  C   UNL     1      -8.708   9.662  -7.623  1.00  0.00     0.040 A 
ATOM     77  F   UNL     1      -9.422   9.572  -5.389  1.00  0.00    -0.206 F 
ATOM     78  C   UNL     1      -8.353  10.399  -8.751  1.00  0.00     0.006 A 
ENDBRANCH  57  71
BRANCH  58  79
ATOM     79  C   UNL     1     -11.881  16.181   2.106  1.00  0.00     0.057 A 
ATOM     80  C   UNL     1     -11.185  17.286   2.608  1.00  0.00     0.134 A 
ATOM     81  C   UNL     1     -13.022  15.764   2.800  1.00  0.00     0.134 A 
ATOM     82  F   UNL     1     -10.078  17.727   1.993  1.00  0.00    -0.206 F 
ATOM     83  C   UNL     1     -11.613  17.959   3.752  1.00  0.00     0.040 A 
ATOM     84  C   UNL     1     -13.478  16.445   3.929  1.00  0.00     0.040 A 
ATOM     85  F   UNL     1     -13.739  14.720   2.356  1.00  0.00    -0.206 F 
ATOM     86  C   UNL     1     -12.772  17.546   4.408  1.00  0.00     0.006 A 
ENDBRANCH  58  79
BRANCH  70  87
ATOM     87  C   UNL     1     -14.721  15.683  -4.208  1.00  0.00     0.057 A 
ATOM     88  C   UNL     1     -15.790  14.826  -4.497  1.00  0.00     0.134 A 
ATOM     89  C   UNL     1     -14.900  17.049  -4.464  1.00  0.00     0.134 A 
ATOM     90  F   UNL     1     -15.684  13.506  -4.280  1.00  0.00    -0.206 F 
ATOM     91  C   UNL     1     -16.992  15.309  -5.016  1.00  0.00     0.040 A 
ATOM     92  C   UNL     1     -16.108  17.547  -4.956  1.00  0.00     0.040 A 
ATOM     93  F   UNL     1     -13.921  17.926  -4.191  1.00  0.00    -0.206 F 
ATOM     94  C   UNL     1     -17.157  16.675  -5.237  1.00  0.00     0.006 A 
ENDBRANCH  70  87
ENDBRANCH  44  45
ENDBRANCH  37  39
ENDBRANCH  36  37
ENDBRANCH  35  36
ENDBRANCH  34  35
ENDBRANCH  33  34
ENDBRANCH  32  33
ENDBRANCH  31  32
ENDBRANCH  30  31
ENDBRANCH   1  30
TORSDOF 24
