REMARK SMILES CCOc1ccc(-c2nc(C(=O)OCCOCCOCCOCCOC(=O)c3ccc(-c4c5nc(c(-c6c(F)cccc6F)c6ccc([nH]6)c(-c6c(F)cccc6F)c6nc(c(-c7c(F)cccc7F)c7ccc4[nH]7)C=C6)C=C5)cc3)cc(=O)[nH]2)cc1
REMARK SMILES IDX 18 1 17 2 16 3 15 4 14 5 13 6 11 7 12 8 10 9 8 10 9 11 85 12
REMARK SMILES IDX 83 13 82 15 84 16 7 17 4 18 5 19 87 20 6 21 86 22 3 23 2 24
REMARK SMILES IDX 1 25 19 26 20 27 21 28 22 29 23 30 24 31 25 32 26 33 27 34
REMARK SMILES IDX 28 35 29 36 81 37 30 38 80 39 31 40 32 41 33 42 74 43 34 44
REMARK SMILES IDX 79 45 73 46 75 47 35 48 78 49 72 50 71 51 36 53 62 54 45 55
REMARK SMILES IDX 61 56 46 57 49 58 60 59 76 60 47 61 48 62 59 64 77 65 50 66
REMARK SMILES IDX 37 67 38 68 43 69 39 70 40 71 42 72 44 73 41 74 63 75 64 76
REMARK SMILES IDX 69 77 65 78 66 79 68 80 70 81 67 82 51 83 52 84 57 85 53 86
REMARK SMILES IDX 54 87 56 88 58 89 55 90
REMARK H PARENT 85 14 75 52 49 63
REMARK Flexibility Score: inf
ROOT
ATOM      1  C   UNL     1       9.546   0.550  -2.688  1.00  0.00     0.188 C 
ENDROOT
BRANCH   1   2
ATOM      2  C   UNL     1       8.849   0.469  -4.060  1.00  0.00     0.188 C 
BRANCH   2   3
ATOM      3  O   UNL     1       9.753   0.207  -5.120  1.00  0.00    -0.376 OA
BRANCH   3   4
ATOM      4  C   UNL     1      10.115   1.258  -5.997  1.00  0.00     0.202 C 
BRANCH   4   5
ATOM      5  C   UNL     1      10.702   2.568  -5.443  1.00  0.00     0.261 C 
BRANCH   5   6
ATOM      6  O   UNL     1      10.113   3.072  -4.240  1.00  0.00    -0.459 OA
BRANCH   6   7
ATOM      7  C   UNL     1       8.922   3.712  -4.339  1.00  0.00     0.357 C 
ATOM      8  O   UNL     1       8.339   3.969  -5.380  1.00  0.00    -0.244 OA
BRANCH   7   9
ATOM      9  C   UNL     1       8.350   3.876  -2.955  1.00  0.00     0.156 A 
ATOM     10  C   UNL     1       6.585   3.579  -1.541  1.00  0.00     0.141 A 
ATOM     11  N   UNL     1       7.035   3.509  -2.751  1.00  0.00    -0.223 NA
ATOM     12  N   UNL     1       7.341   3.997  -0.479  1.00  0.00    -0.306 N 
ATOM     13  C   UNL     1       8.646   4.363  -0.621  1.00  0.00     0.251 A 
ATOM     14  H   UNL     1       6.930   4.034   0.415  1.00  0.00     0.171 HD
ATOM     15  C   UNL     1       9.179   4.287  -1.985  1.00  0.00     0.107 A 
ATOM     16  O   UNL     1       9.338   4.728   0.321  1.00  0.00    -0.269 OA
BRANCH  10  17
ATOM     17  C   UNL     1       5.200   3.196  -1.224  1.00  0.00     0.018 A 
ATOM     18  C   UNL     1       2.547   2.489  -0.785  1.00  0.00     0.119 A 
ATOM     19  C   UNL     1       2.931   3.829  -0.708  1.00  0.00     0.047 A 
ATOM     20  C   UNL     1       3.486   1.503  -1.089  1.00  0.00     0.047 A 
ATOM     21  C   UNL     1       4.265   4.187  -0.916  1.00  0.00     0.016 A 
ATOM     22  C   UNL     1       4.821   1.854  -1.307  1.00  0.00     0.016 A 
BRANCH  18  23
ATOM     23  O   UNL     1       1.212   2.203  -0.734  1.00  0.00    -0.494 OA
BRANCH  23  24
ATOM     24  C   UNL     1       0.810   1.494   0.443  1.00  0.00     0.226 C 
ATOM     25  C   UNL     1       0.813  -0.009   0.218  1.00  0.00     0.049 C 
ENDBRANCH  23  24
ENDBRANCH  18  23
ENDBRANCH  10  17
ENDBRANCH   7   9
ENDBRANCH   6   7
ENDBRANCH   5   6
ENDBRANCH   4   5
ENDBRANCH   3   4
ENDBRANCH   2   3
ENDBRANCH   1   2
BRANCH   1  26
ATOM     26  O   UNL     1      10.952   0.748  -2.712  1.00  0.00    -0.377 OA
BRANCH  26  27
ATOM     27  C   UNL     1      11.796  -0.267  -3.260  1.00  0.00     0.188 C 
BRANCH  27  28
ATOM     28  C   UNL     1      11.266  -1.637  -3.756  1.00  0.00     0.188 C 
BRANCH  28  29
ATOM     29  O   UNL     1      10.019  -2.030  -3.208  1.00  0.00    -0.376 OA
BRANCH  29  30
ATOM     30  C   UNL     1      10.014  -3.080  -2.257  1.00  0.00     0.202 C 
BRANCH  30  31
ATOM     31  C   UNL     1      10.692  -2.778  -0.915  1.00  0.00     0.261 C 
BRANCH  31  32
ATOM     32  O   UNL     1      12.058  -2.346  -0.990  1.00  0.00    -0.460 OA
BRANCH  32  33
ATOM     33  C   UNL     1      12.961  -3.237  -1.460  1.00  0.00     0.338 C 
ATOM     34  O   UNL     1      12.756  -4.376  -1.819  1.00  0.00    -0.246 OA
BRANCH  33  35
ATOM     35  C   UNL     1      14.241  -2.515  -1.632  1.00  0.00     0.060 A 
ATOM     36  C   UNL     1      14.815  -2.436  -2.907  1.00  0.00     0.016 A 
ATOM     37  C   UNL     1      14.861  -1.914  -0.535  1.00  0.00     0.016 A 
ATOM     38  C   UNL     1      16.036  -1.782  -3.081  1.00  0.00     0.010 A 
ATOM     39  C   UNL     1      16.090  -1.275  -0.708  1.00  0.00     0.010 A 
ATOM     40  C   UNL     1      16.700  -1.237  -1.974  1.00  0.00    -0.014 A 
BRANCH  40  41
ATOM     41  C   UNL     1      18.113  -0.804  -2.095  1.00  0.00     0.031 A 
ATOM     42  C   UNL     1      19.189  -1.755  -1.650  1.00  0.00     0.074 A 
ATOM     43  C   UNL     1      18.440   0.399  -2.595  1.00  0.00     0.049 A 
ATOM     44  N   UNL     1      20.486  -1.589  -1.609  1.00  0.00    -0.248 NA
ATOM     45  C   UNL     1      18.736  -3.075  -1.182  1.00  0.00     0.031 C 
ATOM     46  C   UNL     1      17.495   1.391  -3.104  1.00  0.00     0.029 A 
ATOM     47  N   UNL     1      19.669   0.991  -2.750  1.00  0.00    -0.354 N 
ATOM     48  C   UNL     1      21.002  -2.776  -1.105  1.00  0.00     0.074 A 
ATOM     49  C   UNL     1      19.876  -3.639  -0.818  1.00  0.00     0.031 C 
ATOM     50  C   UNL     1      18.181   2.472  -3.516  1.00  0.00     0.029 A 
ATOM     51  C   UNL     1      19.606   2.262  -3.265  1.00  0.00     0.049 A 
ATOM     52  H   UNL     1      20.514   0.546  -2.514  1.00  0.00     0.167 HD
ATOM     53  C   UNL     1      22.296  -3.122  -0.906  1.00  0.00     0.037 A 
ATOM     54  C   UNL     1      20.588   3.157  -3.488  1.00  0.00     0.037 A 
ATOM     55  C   UNL     1      23.412  -2.256  -1.179  1.00  0.00     0.049 A 
ATOM     56  C   UNL     1      22.013   2.789  -3.162  1.00  0.00     0.074 A 
ATOM     57  C   UNL     1      24.763  -2.514  -1.026  1.00  0.00     0.029 A 
ATOM     58  N   UNL     1      23.305  -0.955  -1.649  1.00  0.00    -0.354 N 
ATOM     59  N   UNL     1      22.497   1.656  -2.712  1.00  0.00    -0.248 NA
ATOM     60  C   UNL     1      23.030   3.830  -3.374  1.00  0.00     0.031 C 
ATOM     61  C   UNL     1      25.469  -1.348  -1.341  1.00  0.00     0.029 A 
ATOM     62  C   UNL     1      24.563  -0.385  -1.757  1.00  0.00     0.049 A 
ATOM     63  H   UNL     1      22.459  -0.503  -1.872  1.00  0.00     0.167 HD
ATOM     64  C   UNL     1      23.873   1.834  -2.625  1.00  0.00     0.074 A 
ATOM     65  C   UNL     1      24.148   3.182  -3.076  1.00  0.00     0.031 C 
ATOM     66  C   UNL     1      24.825   0.958  -2.215  1.00  0.00     0.037 A 
BRANCH  53  67
ATOM     67  C   UNL     1      22.560  -4.483  -0.327  1.00  0.00     0.057 A 
ATOM     68  C   UNL     1      22.305  -5.661  -1.043  1.00  0.00     0.134 A 
ATOM     69  C   UNL     1      23.068  -4.617   0.972  1.00  0.00     0.134 A 
ATOM     70  F   UNL     1      21.802  -5.606  -2.286  1.00  0.00    -0.206 F 
ATOM     71  C   UNL     1      22.507  -6.920  -0.475  1.00  0.00     0.040 A 
ATOM     72  C   UNL     1      23.306  -5.870   1.538  1.00  0.00     0.040 A 
ATOM     73  F   UNL     1      23.340  -3.533   1.713  1.00  0.00    -0.206 F 
ATOM     74  C   UNL     1      23.014  -7.027   0.818  1.00  0.00     0.006 A 
ENDBRANCH  53  67
BRANCH  54  75
ATOM     75  C   UNL     1      20.268   4.492  -4.056  1.00  0.00     0.057 A 
ATOM     76  C   UNL     1      20.691   4.847  -5.343  1.00  0.00     0.134 A 
ATOM     77  C   UNL     1      19.556   5.450  -3.326  1.00  0.00     0.134 A 
ATOM     78  F   UNL     1      21.400   3.982  -6.083  1.00  0.00    -0.206 F 
ATOM     79  C   UNL     1      20.431   6.110  -5.877  1.00  0.00     0.040 A 
ATOM     80  C   UNL     1      19.265   6.708  -3.857  1.00  0.00     0.040 A 
ATOM     81  F   UNL     1      19.125   5.175  -2.086  1.00  0.00    -0.206 F 
ATOM     82  C   UNL     1      19.710   7.043  -5.135  1.00  0.00     0.006 A 
ENDBRANCH  54  75
BRANCH  66  83
ATOM     83  C   UNL     1      26.257   1.409  -2.280  1.00  0.00     0.057 A 
ATOM     84  C   UNL     1      26.774   2.379  -1.411  1.00  0.00     0.134 A 
ATOM     85  C   UNL     1      27.142   0.833  -3.202  1.00  0.00     0.134 A 
ATOM     86  F   UNL     1      25.981   2.979  -0.511  1.00  0.00    -0.206 F 
ATOM     87  C   UNL     1      28.112   2.777  -1.474  1.00  0.00     0.040 A 
ATOM     88  C   UNL     1      28.488   1.200  -3.253  1.00  0.00     0.040 A 
ATOM     89  F   UNL     1      26.717  -0.109  -4.057  1.00  0.00    -0.206 F 
ATOM     90  C   UNL     1      28.974   2.181  -2.393  1.00  0.00     0.006 A 
ENDBRANCH  66  83
ENDBRANCH  40  41
ENDBRANCH  33  35
ENDBRANCH  32  33
ENDBRANCH  31  32
ENDBRANCH  30  31
ENDBRANCH  29  30
ENDBRANCH  28  29
ENDBRANCH  27  28
ENDBRANCH  26  27
ENDBRANCH   1  26
TORSDOF 23
