REMARK SMILES O=C(OCCOCCOCCOCCOC(=O)c1cccc([C@@H]2CCC[N@@H+](Cc3cccc(OCCO)c3)C2)c1)c1ccc(-c2c3nc(c(-c4c(F)cccc4F)c4ccc([nH]4)c(-c4c(F)cccc4F)c4nc(c(-c5c(F)cccc5F)c5ccc2[nH]5)C=C4)C=C3)cc1
REMARK SMILES IDX 11 1 10 2 9 3 8 4 7 5 6 6 5 7 4 8 3 9 2 10 1 11 41 12 42 13
REMARK SMILES IDX 94 14 43 15 93 16 44 17 45 18 46 19 87 20 47 21 92 22 86 23
REMARK SMILES IDX 88 24 48 25 91 26 85 27 84 28 49 30 75 31 58 32 74 33 59 34
REMARK SMILES IDX 62 35 73 36 89 37 60 38 61 39 72 41 90 42 63 43 50 44 51 45
REMARK SMILES IDX 56 46 52 47 53 48 55 49 57 50 54 51 76 52 77 53 82 54 78 55
REMARK SMILES IDX 79 56 81 57 83 58 80 59 64 60 65 61 70 62 66 63 67 64 69 65
REMARK SMILES IDX 71 66 68 67 12 68 13 69 14 70 15 71 16 72 17 73 18 74 19 75
REMARK SMILES IDX 40 76 20 77 22 78 21 79 23 80 24 81 39 82 25 83 27 84 26 85
REMARK SMILES IDX 28 87 29 88 30 89 38 90 31 91 33 92 32 93 34 94 35 95 36 96
REMARK SMILES IDX 37 97
REMARK H PARENT 88 29 62 40 27 86 37 98
REMARK Flexibility Score: inf
ROOT
ATOM      1  C   UNL     1       4.679   3.342   0.642  1.00  0.00     0.188 C 
ENDROOT
BRANCH   1   2
ATOM      2  C   UNL     1       3.982   3.768  -0.670  1.00  0.00     0.188 C 
BRANCH   2   3
ATOM      3  O   UNL     1       2.557   3.819  -0.710  1.00  0.00    -0.377 OA
BRANCH   3   4
ATOM      4  C   UNL     1       1.841   2.683  -0.232  1.00  0.00     0.188 C 
BRANCH   4   5
ATOM      5  C   UNL     1       2.178   1.372  -0.939  1.00  0.00     0.188 C 
BRANCH   5   6
ATOM      6  O   UNL     1       3.515   0.977  -0.628  1.00  0.00    -0.376 OA
BRANCH   6   7
ATOM      7  C   UNL     1       4.226   0.350  -1.690  1.00  0.00     0.202 C 
BRANCH   7   8
ATOM      8  C   UNL     1       4.137  -1.175  -1.646  1.00  0.00     0.261 C 
BRANCH   8   9
ATOM      9  O   UNL     1       2.814  -1.617  -1.307  1.00  0.00    -0.460 OA
BRANCH   9  10
ATOM     10  C   UNL     1       2.293  -1.847  -0.076  1.00  0.00     0.338 C 
ATOM     11  O   UNL     1       1.107  -2.171  -0.007  1.00  0.00    -0.246 OA
BRANCH  10  12
ATOM     12  C   UNL     1       3.069  -1.792   1.208  1.00  0.00     0.060 A 
ATOM     13  C   UNL     1       4.252  -1.082   1.430  1.00  0.00     0.016 A 
ATOM     14  C   UNL     1       2.523  -2.498   2.298  1.00  0.00     0.016 A 
ATOM     15  C   UNL     1       4.926  -1.151   2.646  1.00  0.00     0.010 A 
ATOM     16  C   UNL     1       3.175  -2.549   3.535  1.00  0.00     0.010 A 
ATOM     17  C   UNL     1       4.407  -1.909   3.693  1.00  0.00    -0.014 A 
BRANCH  17  18
ATOM     18  C   UNL     1       5.275  -2.166   4.858  1.00  0.00     0.031 A 
ATOM     19  C   UNL     1       6.004  -3.477   4.912  1.00  0.00     0.074 A 
ATOM     20  C   UNL     1       5.519  -1.192   5.752  1.00  0.00     0.049 A 
ATOM     21  N   UNL     1       6.830  -3.933   5.814  1.00  0.00    -0.248 NA
ATOM     22  C   UNL     1       5.790  -4.391   3.775  1.00  0.00     0.031 C 
ATOM     23  C   UNL     1       4.946   0.154   5.709  1.00  0.00     0.029 A 
ATOM     24  N   UNL     1       6.337  -1.175   6.850  1.00  0.00    -0.354 N 
ATOM     25  C   UNL     1       7.229  -5.183   5.357  1.00  0.00     0.074 A 
ATOM     26  C   UNL     1       6.541  -5.426   4.110  1.00  0.00     0.031 C 
ATOM     27  C   UNL     1       5.443   0.872   6.731  1.00  0.00     0.029 A 
ATOM     28  C   UNL     1       6.327   0.022   7.523  1.00  0.00     0.049 A 
ATOM     29  H   UNL     1       6.880  -1.947   7.130  1.00  0.00     0.167 HD
ATOM     30  C   UNL     1       8.096  -6.048   5.929  1.00  0.00     0.037 A 
ATOM     31  C   UNL     1       6.948   0.372   8.665  1.00  0.00     0.037 A 
ATOM     32  C   UNL     1       8.752  -5.796   7.182  1.00  0.00     0.049 A 
ATOM     33  C   UNL     1       7.824  -0.651   9.341  1.00  0.00     0.074 A 
ATOM     34  C   UNL     1       9.566  -6.633   7.921  1.00  0.00     0.029 A 
ATOM     35  N   UNL     1       8.662  -4.599   7.879  1.00  0.00    -0.354 N 
ATOM     36  N   UNL     1       8.135  -1.864   8.945  1.00  0.00    -0.248 NA
ATOM     37  C   UNL     1       8.425  -0.265  10.623  1.00  0.00     0.031 C 
ATOM     38  C   UNL     1       9.946  -5.949   9.083  1.00  0.00     0.029 A 
ATOM     39  C   UNL     1       9.402  -4.674   9.044  1.00  0.00     0.049 A 
ATOM     40  H   UNL     1       8.148  -3.812   7.586  1.00  0.00     0.167 HD
ATOM     41  C   UNL     1       8.976  -2.381   9.921  1.00  0.00     0.074 A 
ATOM     42  C   UNL     1       9.147  -1.339  10.914  1.00  0.00     0.031 C 
ATOM     43  C   UNL     1       9.550  -3.607  10.001  1.00  0.00     0.037 A 
BRANCH  30  44
ATOM     44  C   UNL     1       8.320  -7.350   5.221  1.00  0.00     0.057 A 
ATOM     45  C   UNL     1       9.070  -7.430   4.040  1.00  0.00     0.134 A 
ATOM     46  C   UNL     1       7.737  -8.530   5.697  1.00  0.00     0.134 A 
ATOM     47  F   UNL     1       9.628  -6.329   3.513  1.00  0.00    -0.206 F 
ATOM     48  C   UNL     1       9.209  -8.633   3.344  1.00  0.00     0.040 A 
ATOM     49  C   UNL     1       7.886  -9.742   5.021  1.00  0.00     0.040 A 
ATOM     50  F   UNL     1       6.998  -8.521   6.816  1.00  0.00    -0.206 F 
ATOM     51  C   UNL     1       8.617  -9.794   3.836  1.00  0.00     0.006 A 
ENDBRANCH  30  44
BRANCH  31  52
ATOM     52  C   UNL     1       6.728   1.714   9.266  1.00  0.00     0.057 A 
ATOM     53  C   UNL     1       7.768   2.643   9.394  1.00  0.00     0.134 A 
ATOM     54  C   UNL     1       5.471   2.090   9.760  1.00  0.00     0.134 A 
ATOM     55  F   UNL     1       9.002   2.339   8.965  1.00  0.00    -0.206 F 
ATOM     56  C   UNL     1       7.572   3.883  10.008  1.00  0.00     0.040 A 
ATOM     57  C   UNL     1       5.255   3.336  10.349  1.00  0.00     0.040 A 
ATOM     58  F   UNL     1       4.430   1.249   9.673  1.00  0.00    -0.206 F 
ATOM     59  C   UNL     1       6.310   4.234  10.484  1.00  0.00     0.006 A 
ENDBRANCH  31  52
BRANCH  43  60
ATOM     60  C   UNL     1      10.427  -3.865  11.187  1.00  0.00     0.057 A 
ATOM     61  C   UNL     1       9.892  -4.082  12.463  1.00  0.00     0.134 A 
ATOM     62  C   UNL     1      11.817  -3.937  11.041  1.00  0.00     0.134 A 
ATOM     63  F   UNL     1       8.568  -4.014  12.665  1.00  0.00    -0.206 F 
ATOM     64  C   UNL     1      10.714  -4.342  13.559  1.00  0.00     0.040 A 
ATOM     65  C   UNL     1      12.647  -4.219  12.126  1.00  0.00     0.040 A 
ATOM     66  F   UNL     1      12.388  -3.746   9.842  1.00  0.00    -0.206 F 
ATOM     67  C   UNL     1      12.095  -4.418  13.390  1.00  0.00     0.006 A 
ENDBRANCH  43  60
ENDBRANCH  17  18
ENDBRANCH  10  12
ENDBRANCH   9  10
ENDBRANCH   8   9
ENDBRANCH   7   8
ENDBRANCH   6   7
ENDBRANCH   5   6
ENDBRANCH   4   5
ENDBRANCH   3   4
ENDBRANCH   2   3
ENDBRANCH   1   2
BRANCH   1  68
ATOM     68  O   UNL     1       3.864   3.444   1.803  1.00  0.00    -0.376 OA
BRANCH  68  69
ATOM     69  C   UNL     1       4.170   4.517   2.686  1.00  0.00     0.202 C 
BRANCH  69  70
ATOM     70  C   UNL     1       3.753   5.883   2.151  1.00  0.00     0.261 C 
BRANCH  70  71
ATOM     71  O   UNL     1       4.497   6.334   1.013  1.00  0.00    -0.460 OA
BRANCH  71  72
ATOM     72  C   UNL     1       5.850   6.405   1.012  1.00  0.00     0.338 C 
ATOM     73  O   UNL     1       6.613   6.161   1.926  1.00  0.00    -0.246 OA
BRANCH  72  74
ATOM     74  C   UNL     1       6.217   6.652  -0.403  1.00  0.00     0.060 A 
ATOM     75  C   UNL     1       7.128   5.846  -1.081  1.00  0.00     0.016 A 
ATOM     76  C   UNL     1       5.441   7.568  -1.109  1.00  0.00     0.020 A 
ATOM     77  C   UNL     1       7.202   5.937  -2.475  1.00  0.00     0.001 A 
ATOM     78  C   UNL     1       5.475   7.657  -2.499  1.00  0.00    -0.038 A 
ATOM     79  C   UNL     1       6.372   6.824  -3.180  1.00  0.00     0.004 A 
BRANCH  78  80
ATOM     80  C   UNL     1       4.445   8.505  -3.235  1.00  0.00     0.074 C 
ATOM     81  C   UNL     1       4.340   9.966  -2.756  1.00  0.00     0.020 C 
ATOM     82  C   UNL     1       3.051   7.840  -3.187  1.00  0.00     0.270 C 
ATOM     83  C   UNL     1       3.505  10.175  -1.489  1.00  0.00     0.062 C 
ATOM     84  N   UNL     1       2.434   7.919  -1.856  1.00  0.00    -0.331 N 
ATOM     85  C   UNL     1       2.244   9.305  -1.413  1.00  0.00     0.262 C 
ATOM     86  H   UNL     1       3.106   7.513  -1.205  1.00  0.00     0.348 HD
BRANCH  84  87
ATOM     87  C   UNL     1       1.232   7.068  -1.710  1.00  0.00     0.299 C 
BRANCH  87  88
ATOM     88  C   UNL     1      -0.064   7.711  -2.170  1.00  0.00     0.010 A 
ATOM     89  C   UNL     1      -1.006   8.162  -1.237  1.00  0.00     0.010 A 
ATOM     90  C   UNL     1      -0.260   8.000  -3.529  1.00  0.00     0.056 A 
ATOM     91  C   UNL     1      -2.081   8.945  -1.653  1.00  0.00     0.004 A 
ATOM     92  C   UNL     1      -1.270   8.865  -3.938  1.00  0.00     0.119 A 
ATOM     93  C   UNL     1      -2.196   9.315  -2.994  1.00  0.00     0.046 A 
BRANCH  92  94
ATOM     94  O   UNL     1      -1.413   9.386  -5.194  1.00  0.00    -0.491 OA
BRANCH  94  95
ATOM     95  C   UNL     1      -0.320   9.277  -6.117  1.00  0.00     0.257 C 
BRANCH  95  96
ATOM     96  C   UNL     1       0.669  10.443  -5.998  1.00  0.00     0.197 C 
BRANCH  96  97
ATOM     97  O   UNL     1       1.315  10.501  -4.732  1.00  0.00    -0.393 OA
ATOM     98  H   UNL     1       0.652  10.636  -4.037  1.00  0.00     0.210 HD
ENDBRANCH  96  97
ENDBRANCH  95  96
ENDBRANCH  94  95
ENDBRANCH  92  94
ENDBRANCH  87  88
ENDBRANCH  84  87
ENDBRANCH  78  80
ENDBRANCH  72  74
ENDBRANCH  71  72
ENDBRANCH  70  71
ENDBRANCH  69  70
ENDBRANCH  68  69
ENDBRANCH   1  68
TORSDOF 27
