REMARK SMILES O=C(OCCOCCOCCOCCOC(=O)[C@@H]1CCCC[C@@H]1C(=O)Nc1cc(C(F)(F)F)cc(C(F)(F)F)c1)c1ccc(-c2c3nc(c(-c4c(F)cccc4F)c4ccc([nH]4)c(-c4c(F)cccc4F)c4nc(c(-c5c(F)cccc5F)c5ccc2[nH]5)C=C4)C=C3)cc1
REMARK SMILES IDX 10 1 9 2 8 3 7 4 6 5 5 6 4 7 3 8 2 9 1 10 41 11 42 12 94 13
REMARK SMILES IDX 43 14 93 15 44 16 45 17 46 18 87 19 47 20 92 21 86 22 88 23
REMARK SMILES IDX 48 24 91 25 85 26 84 27 49 29 75 30 58 31 74 32 59 33 62 34
REMARK SMILES IDX 73 35 89 36 60 37 61 38 72 40 90 41 63 42 50 43 51 44 56 45
REMARK SMILES IDX 52 46 53 47 55 48 57 49 54 50 76 51 77 52 82 53 78 54 79 55
REMARK SMILES IDX 81 56 83 57 80 58 64 59 65 60 70 61 66 62 67 63 69 64 71 65
REMARK SMILES IDX 68 66 11 67 12 68 13 69 14 70 15 71 16 72 17 73 18 74 19 75
REMARK SMILES IDX 23 76 20 77 22 78 21 79 24 80 25 81 26 82 27 84 28 85 40 86
REMARK SMILES IDX 29 87 35 88 34 89 30 90 31 91 32 92 33 93 36 94 37 95 38 96
REMARK SMILES IDX 39 97
REMARK H PARENT 88 28 62 39 26 83
REMARK Flexibility Score: inf
ROOT
ATOM      1  C   UNL     1       4.039   3.429  -0.560  1.00  0.00     0.188 C 
ENDROOT
BRANCH   1   2
ATOM      2  O   UNL     1       2.647   3.690  -0.653  1.00  0.00    -0.377 OA
BRANCH   2   3
ATOM      3  C   UNL     1       1.804   2.616  -0.226  1.00  0.00     0.188 C 
BRANCH   3   4
ATOM      4  C   UNL     1       2.194   1.227  -0.750  1.00  0.00     0.188 C 
BRANCH   4   5
ATOM      5  O   UNL     1       3.498   0.843  -0.313  1.00  0.00    -0.376 OA
BRANCH   5   6
ATOM      6  C   UNL     1       4.380   0.284  -1.290  1.00  0.00     0.202 C 
BRANCH   6   7
ATOM      7  C   UNL     1       4.111  -1.180  -1.608  1.00  0.00     0.261 C 
BRANCH   7   8
ATOM      8  O   UNL     1       2.764  -1.578  -1.318  1.00  0.00    -0.460 OA
BRANCH   8   9
ATOM      9  C   UNL     1       2.226  -1.912  -0.119  1.00  0.00     0.338 C 
ATOM     10  O   UNL     1       1.025  -2.178  -0.076  1.00  0.00    -0.246 OA
BRANCH   9  11
ATOM     11  C   UNL     1       3.001  -2.022   1.154  1.00  0.00     0.060 A 
ATOM     12  C   UNL     1       4.135  -1.283   1.484  1.00  0.00     0.016 A 
ATOM     13  C   UNL     1       2.496  -2.901   2.127  1.00  0.00     0.016 A 
ATOM     14  C   UNL     1       4.802  -1.452   2.678  1.00  0.00     0.010 A 
ATOM     15  C   UNL     1       3.143  -3.063   3.356  1.00  0.00     0.010 A 
ATOM     16  C   UNL     1       4.323  -2.358   3.611  1.00  0.00    -0.014 A 
BRANCH  16  17
ATOM     17  C   UNL     1       5.236  -2.681   4.714  1.00  0.00     0.031 A 
ATOM     18  C   UNL     1       5.996  -3.967   4.614  1.00  0.00     0.074 A 
ATOM     19  C   UNL     1       5.539  -1.736   5.621  1.00  0.00     0.049 A 
ATOM     20  N   UNL     1       6.850  -4.492   5.447  1.00  0.00    -0.248 NA
ATOM     21  C   UNL     1       5.783  -4.763   3.390  1.00  0.00     0.031 C 
ATOM     22  C   UNL     1       4.973  -0.382   5.653  1.00  0.00     0.029 A 
ATOM     23  N   UNL     1       6.433  -1.746   6.654  1.00  0.00    -0.354 N 
ATOM     24  C   UNL     1       7.251  -5.686   4.863  1.00  0.00     0.074 A 
ATOM     25  C   UNL     1       6.542  -5.822   3.614  1.00  0.00     0.031 C 
ATOM     26  C   UNL     1       5.547   0.310   6.650  1.00  0.00     0.029 A 
ATOM     27  C   UNL     1       6.451  -0.575   7.371  1.00  0.00     0.049 A 
ATOM     28  H   UNL     1       7.008  -2.518   6.864  1.00  0.00     0.167 HD
ATOM     29  C   UNL     1       8.138  -6.585   5.341  1.00  0.00     0.037 A 
ATOM     30  C   UNL     1       7.096  -0.287   8.516  1.00  0.00     0.037 A 
ATOM     31  C   UNL     1       8.819  -6.407   6.593  1.00  0.00     0.049 A 
ATOM     32  C   UNL     1       7.964  -1.365   9.105  1.00  0.00     0.074 A 
ATOM     33  C   UNL     1       9.652  -7.279   7.262  1.00  0.00     0.029 A 
ATOM     34  N   UNL     1       8.735  -5.251   7.362  1.00  0.00    -0.354 N 
ATOM     35  N   UNL     1       8.254  -2.551   8.617  1.00  0.00    -0.248 NA
ATOM     36  C   UNL     1       8.583  -1.080  10.402  1.00  0.00     0.031 C 
ATOM     37  C   UNL     1      10.039  -6.666   8.460  1.00  0.00     0.029 A 
ATOM     38  C   UNL     1       9.494  -5.390   8.507  1.00  0.00     0.049 A 
ATOM     39  H   UNL     1       8.212  -4.451   7.125  1.00  0.00     0.167 HD
ATOM     40  C   UNL     1       9.102  -3.147   9.538  1.00  0.00     0.074 A 
ATOM     41  C   UNL     1       9.301  -2.176  10.599  1.00  0.00     0.031 C 
ATOM     42  C   UNL     1       9.663  -4.382   9.525  1.00  0.00     0.037 A 
BRANCH  29  43
ATOM     43  C   UNL     1       8.332  -7.840   4.545  1.00  0.00     0.057 A 
ATOM     44  C   UNL     1       8.999  -7.848   3.312  1.00  0.00     0.134 A 
ATOM     45  C   UNL     1       7.788  -9.050   4.991  1.00  0.00     0.134 A 
ATOM     46  F   UNL     1       9.508  -6.714   2.805  1.00  0.00    -0.206 F 
ATOM     47  C   UNL     1       9.095  -9.010   2.542  1.00  0.00     0.040 A 
ATOM     48  C   UNL     1       7.899 -10.223   4.242  1.00  0.00     0.040 A 
ATOM     49  F   UNL     1       7.121  -9.109   6.154  1.00  0.00    -0.206 F 
ATOM     50  C   UNL     1       8.547 -10.203   3.009  1.00  0.00     0.006 A 
ENDBRANCH  29  43
BRANCH  30  51
ATOM     51  C   UNL     1       6.874   1.009   9.212  1.00  0.00     0.057 A 
ATOM     52  C   UNL     1       7.917   1.910   9.449  1.00  0.00     0.134 A 
ATOM     53  C   UNL     1       5.607   1.358   9.704  1.00  0.00     0.134 A 
ATOM     54  F   UNL     1       9.158   1.634   9.021  1.00  0.00    -0.206 F 
ATOM     55  C   UNL     1       7.719   3.089  10.173  1.00  0.00     0.040 A 
ATOM     56  C   UNL     1       5.387   2.548  10.399  1.00  0.00     0.040 A 
ATOM     57  F   UNL     1       4.557   0.545   9.514  1.00  0.00    -0.206 F 
ATOM     58  C   UNL     1       6.449   3.412  10.648  1.00  0.00     0.006 A 
ENDBRANCH  30  51
BRANCH  42  59
ATOM     59  C   UNL     1      10.571  -4.715  10.668  1.00  0.00     0.057 A 
ATOM     60  C   UNL     1      10.079  -4.952  11.958  1.00  0.00     0.134 A 
ATOM     61  C   UNL     1      11.950  -4.835  10.462  1.00  0.00     0.134 A 
ATOM     62  F   UNL     1       8.768  -4.838  12.218  1.00  0.00    -0.206 F 
ATOM     63  C   UNL     1      10.935  -5.266  13.012  1.00  0.00     0.040 A 
ATOM     64  C   UNL     1      12.811  -5.183  11.500  1.00  0.00     0.040 A 
ATOM     65  F   UNL     1      12.478  -4.632   9.245  1.00  0.00    -0.206 F 
ATOM     66  C   UNL     1      12.305  -5.391  12.781  1.00  0.00     0.006 A 
ENDBRANCH  42  59
ENDBRANCH  16  17
ENDBRANCH   9  11
ENDBRANCH   8   9
ENDBRANCH   7   8
ENDBRANCH   6   7
ENDBRANCH   5   6
ENDBRANCH   4   5
ENDBRANCH   3   4
ENDBRANCH   2   3
ENDBRANCH   1   2
BRANCH   1  67
ATOM     67  C   UNL     1       4.658   3.166   0.830  1.00  0.00     0.188 C 
BRANCH  67  68
ATOM     68  O   UNL     1       3.710   2.907   1.854  1.00  0.00    -0.376 OA
BRANCH  68  69
ATOM     69  C   UNL     1       3.622   3.897   2.875  1.00  0.00     0.202 C 
BRANCH  69  70
ATOM     70  C   UNL     1       2.995   5.250   2.491  1.00  0.00     0.261 C 
BRANCH  70  71
ATOM     71  O   UNL     1       3.466   5.849   1.276  1.00  0.00    -0.463 OA
BRANCH  71  72
ATOM     72  C   UNL     1       4.742   6.306   1.212  1.00  0.00     0.309 C 
ATOM     73  O   UNL     1       5.539   6.325   2.147  1.00  0.00    -0.252 OA
BRANCH  72  74
ATOM     74  C   UNL     1       5.089   6.562  -0.248  1.00  0.00     0.111 C 
ATOM     75  C   UNL     1       6.464   5.965  -0.622  1.00  0.00     0.016 C 
ATOM     76  C   UNL     1       4.885   7.981  -0.774  1.00  0.00     0.093 C 
ATOM     77  C   UNL     1       6.657   5.902  -2.135  1.00  0.00     0.001 C 
ATOM     78  C   UNL     1       5.125   7.897  -2.304  1.00  0.00     0.014 C 
ATOM     79  C   UNL     1       6.454   7.275  -2.745  1.00  0.00     0.001 C 
BRANCH  76  80
ATOM     80  C   UNL     1       5.551   8.959   0.218  1.00  0.00     0.228 C 
ATOM     81  O   UNL     1       5.054   9.122   1.336  1.00  0.00    -0.274 OA
ATOM     82  N   UNL     1       6.776   9.500  -0.029  1.00  0.00    -0.326 N 
ATOM     83  H   UNL     1       7.453   9.418   0.682  1.00  0.00     0.169 HD
BRANCH  82  84
ATOM     84  C   UNL     1       7.159  10.157  -1.196  1.00  0.00     0.042 A 
ATOM     85  C   UNL     1       8.501  10.171  -1.561  1.00  0.00     0.039 A 
ATOM     86  C   UNL     1       6.196  10.712  -2.033  1.00  0.00     0.039 A 
ATOM     87  C   UNL     1       8.857  10.572  -2.859  1.00  0.00     0.058 A 
ATOM     88  C   UNL     1       6.510  11.049  -3.350  1.00  0.00     0.058 A 
ATOM     89  C   UNL     1       7.850  10.980  -3.756  1.00  0.00     0.026 A 
BRANCH  87  90
ATOM     90  C   UNL     1      10.296  10.454  -3.299  1.00  0.00     0.416 C 
ATOM     91  F   UNL     1      11.144  11.150  -2.495  1.00  0.00    -0.166 F 
ATOM     92  F   UNL     1      10.733   9.165  -3.281  1.00  0.00    -0.166 F 
ATOM     93  F   UNL     1      10.513  10.907  -4.563  1.00  0.00    -0.166 F 
ENDBRANCH  87  90
BRANCH  88  94
ATOM     94  C   UNL     1       5.396  11.331  -4.332  1.00  0.00     0.416 C 
ATOM     95  F   UNL     1       5.446  12.584  -4.848  1.00  0.00    -0.166 F 
ATOM     96  F   UNL     1       5.428  10.475  -5.392  1.00  0.00    -0.166 F 
ATOM     97  F   UNL     1       4.152  11.190  -3.790  1.00  0.00    -0.166 F 
ENDBRANCH  88  94
ENDBRANCH  82  84
ENDBRANCH  76  80
ENDBRANCH  72  74
ENDBRANCH  71  72
ENDBRANCH  70  71
ENDBRANCH  69  70
ENDBRANCH  68  69
ENDBRANCH  67  68
ENDBRANCH   1  67
TORSDOF 24
