REMARK SMILES CC(C)(C)c1cc2c(cc1Cl)C=C(C(=O)OCCOCCOCCOCCOC(=O)c1ccc(-c3c4nc(c(-c5c(F)cccc5F)c5ccc([nH]5)c(-c5c(F)cccc5F)c5nc(c(-c6c(F)cccc6F)c6ccc3[nH]6)C=C5)C=C4)cc1)[C@@H](C(F)(F)F)O2
REMARK SMILES IDX 23 1 22 2 21 3 20 4 19 5 18 6 17 7 16 8 14 9 15 10 13 11
REMARK SMILES IDX 5 12 6 13 10 14 7 15 9 16 11 17 8 18 90 19 12 20 85 21 2 22
REMARK SMILES IDX 1 23 3 24 4 25 86 26 87 27 88 28 89 29 24 30 25 31 26 32
REMARK SMILES IDX 27 33 28 34 29 35 30 36 31 37 32 38 84 39 33 40 83 41 34 42
REMARK SMILES IDX 35 43 36 44 77 45 37 46 82 47 76 48 78 49 38 50 81 51 75 52
REMARK SMILES IDX 74 53 39 55 65 56 48 57 64 58 49 59 52 60 63 61 79 62 50 63
REMARK SMILES IDX 51 64 62 66 80 67 53 68 40 69 41 70 46 71 42 72 43 73 45 74
REMARK SMILES IDX 47 75 44 76 66 77 67 78 72 79 68 80 69 81 71 82 73 83 70 84
REMARK SMILES IDX 54 85 55 86 60 87 56 88 57 89 59 90 61 91 58 92
REMARK H PARENT 78 54 52 65
REMARK Flexibility Score: inf
ROOT
ATOM      1  C   UNL     1       0.038   5.982   9.737  1.00  0.00     0.188 C 
ENDROOT
BRANCH   1   2
ATOM      2  O   UNL     1       0.719   5.627   8.533  1.00  0.00    -0.377 OA
BRANCH   2   3
ATOM      3  C   UNL     1       0.803   4.248   8.210  1.00  0.00     0.188 C 
BRANCH   3   4
ATOM      4  C   UNL     1       1.954   3.533   8.941  1.00  0.00     0.188 C 
BRANCH   4   5
ATOM      5  O   UNL     1       2.520   4.317   9.990  1.00  0.00    -0.376 OA
BRANCH   5   6
ATOM      6  C   UNL     1       3.760   4.963   9.725  1.00  0.00     0.202 C 
BRANCH   6   7
ATOM      7  C   UNL     1       3.756   6.090   8.679  1.00  0.00     0.261 C 
BRANCH   7   8
ATOM      8  O   UNL     1       3.283   5.711   7.377  1.00  0.00    -0.460 OA
BRANCH   8   9
ATOM      9  C   UNL     1       4.016   4.820   6.684  1.00  0.00     0.338 C 
ATOM     10  O   UNL     1       5.091   4.349   7.009  1.00  0.00    -0.246 OA
BRANCH   9  11
ATOM     11  C   UNL     1       3.211   4.370   5.528  1.00  0.00     0.087 C 
ATOM     12  C   UNL     1       1.091   1.701   1.785  1.00  0.00    -0.020 A 
ATOM     13  C   UNL     1       1.102   3.062   2.187  1.00  0.00     0.053 A 
ATOM     14  C   UNL     1       1.606   0.784   2.724  1.00  0.00     0.045 A 
ATOM     15  C   UNL     1       1.735   3.502   3.355  1.00  0.00     0.128 A 
ATOM     16  C   UNL     1       2.250   1.230   3.894  1.00  0.00     0.032 A 
ATOM     17  Cl  UNL     1       1.487  -0.935   2.601  1.00  0.00    -0.084 Cl
ATOM     18  C   UNL     1       2.365   2.587   4.182  1.00  0.00     0.019 A 
ATOM     19  O   UNL     1       1.709   4.846   3.585  1.00  0.00    -0.475 OA
ATOM     20  C   UNL     1       3.161   3.050   5.304  1.00  0.00     0.027 C 
ATOM     21  C   UNL     1       2.434   5.385   4.726  1.00  0.00     0.316 C 
BRANCH  12  22
ATOM     22  C   UNL     1       0.539   1.376   0.372  1.00  0.00    -0.012 C 
ATOM     23  C   UNL     1       0.959   0.018  -0.234  1.00  0.00     0.016 C 
ATOM     24  C   UNL     1       1.047   2.428  -0.658  1.00  0.00     0.016 C 
ATOM     25  C   UNL     1      -1.000   1.426   0.409  1.00  0.00     0.016 C 
ENDBRANCH  12  22
BRANCH  21  26
ATOM     26  C   UNL     1       3.320   6.533   4.219  1.00  0.00     0.430 C 
ATOM     27  F   UNL     1       2.608   7.407   3.467  1.00  0.00    -0.167 F 
ATOM     28  F   UNL     1       3.862   7.248   5.232  1.00  0.00    -0.167 F 
ATOM     29  F   UNL     1       4.341   6.079   3.456  1.00  0.00    -0.167 F 
ENDBRANCH  21  26
ENDBRANCH   9  11
ENDBRANCH   8   9
ENDBRANCH   7   8
ENDBRANCH   6   7
ENDBRANCH   5   6
ENDBRANCH   4   5
ENDBRANCH   3   4
ENDBRANCH   2   3
ENDBRANCH   1   2
BRANCH   1  30
ATOM     30  C   UNL     1      -0.122   4.984  10.908  1.00  0.00     0.188 C 
BRANCH  30  31
ATOM     31  O   UNL     1      -0.571   3.692  10.508  1.00  0.00    -0.376 OA
BRANCH  31  32
ATOM     32  C   UNL     1      -1.899   3.335  10.864  1.00  0.00     0.202 C 
BRANCH  32  33
ATOM     33  C   UNL     1      -2.967   3.950   9.954  1.00  0.00     0.261 C 
BRANCH  33  34
ATOM     34  O   UNL     1      -3.028   5.385   9.972  1.00  0.00    -0.460 OA
BRANCH  34  35
ATOM     35  C   UNL     1      -3.280   5.989  11.154  1.00  0.00     0.338 C 
ATOM     36  O   UNL     1      -3.525   5.455  12.221  1.00  0.00    -0.246 OA
BRANCH  35  37
ATOM     37  C   UNL     1      -3.008   7.431  10.976  1.00  0.00     0.060 A 
ATOM     38  C   UNL     1      -3.568   8.125   9.900  1.00  0.00     0.016 A 
ATOM     39  C   UNL     1      -2.152   8.082  11.873  1.00  0.00     0.016 A 
ATOM     40  C   UNL     1      -3.299   9.483   9.743  1.00  0.00     0.010 A 
ATOM     41  C   UNL     1      -1.878   9.442  11.710  1.00  0.00     0.010 A 
ATOM     42  C   UNL     1      -2.471  10.156  10.659  1.00  0.00    -0.014 A 
BRANCH  42  43
ATOM     43  C   UNL     1      -2.396  11.635  10.617  1.00  0.00     0.031 A 
ATOM     44  C   UNL     1      -1.237  12.361  10.009  1.00  0.00     0.074 A 
ATOM     45  C   UNL     1      -3.424  12.323  11.146  1.00  0.00     0.049 A 
ATOM     46  N   UNL     1      -1.088  13.647   9.813  1.00  0.00    -0.248 NA
ATOM     47  C   UNL     1      -0.097  11.545   9.571  1.00  0.00     0.031 C 
ATOM     48  C   UNL     1      -4.591  11.719  11.794  1.00  0.00     0.029 A 
ATOM     49  N   UNL     1      -3.660  13.670  11.219  1.00  0.00    -0.354 N 
ATOM     50  C   UNL     1       0.150  13.799   9.205  1.00  0.00     0.074 A 
ATOM     51  C   UNL     1       0.733  12.474   9.110  1.00  0.00     0.031 C 
ATOM     52  C   UNL     1      -5.430  12.692  12.178  1.00  0.00     0.029 A 
ATOM     53  C   UNL     1      -4.852  13.983  11.823  1.00  0.00     0.049 A 
ATOM     54  H   UNL     1      -3.035  14.347  10.872  1.00  0.00     0.167 HD
ATOM     55  C   UNL     1       0.734  14.937   8.755  1.00  0.00     0.037 A 
ATOM     56  C   UNL     1      -5.420  15.179  12.059  1.00  0.00     0.037 A 
ATOM     57  C   UNL     1       0.160  16.256   8.882  1.00  0.00     0.049 A 
ATOM     58  C   UNL     1      -4.724  16.426  11.596  1.00  0.00     0.074 A 
ATOM     59  C   UNL     1       0.658  17.464   8.422  1.00  0.00     0.029 A 
ATOM     60  N   UNL     1      -1.031  16.543   9.534  1.00  0.00    -0.354 N 
ATOM     61  N   UNL     1      -3.597  16.549  10.940  1.00  0.00    -0.248 NA
ATOM     62  C   UNL     1      -5.388  17.700  11.900  1.00  0.00     0.031 C 
ATOM     63  C   UNL     1      -0.204  18.485   8.840  1.00  0.00     0.029 A 
ATOM     64  C   UNL     1      -1.267  17.910   9.516  1.00  0.00     0.049 A 
ATOM     65  H   UNL     1      -1.623  15.874   9.948  1.00  0.00     0.167 HD
ATOM     66  C   UNL     1      -3.429  17.910  10.728  1.00  0.00     0.074 A 
ATOM     67  C   UNL     1      -4.580  18.569  11.311  1.00  0.00     0.031 C 
ATOM     68  C   UNL     1      -2.412  18.556  10.107  1.00  0.00     0.037 A 
BRANCH  55  69
ATOM     69  C   UNL     1       2.071  14.810   8.082  1.00  0.00     0.057 A 
ATOM     70  C   UNL     1       3.232  15.312   8.682  1.00  0.00     0.134 A 
ATOM     71  C   UNL     1       2.200  14.235   6.810  1.00  0.00     0.134 A 
ATOM     72  F   UNL     1       3.180  15.887   9.893  1.00  0.00    -0.206 F 
ATOM     73  C   UNL     1       4.472  15.246   8.043  1.00  0.00     0.040 A 
ATOM     74  C   UNL     1       3.438  14.141   6.172  1.00  0.00     0.040 A 
ATOM     75  F   UNL     1       1.127  13.732   6.180  1.00  0.00    -0.206 F 
ATOM     76  C   UNL     1       4.578  14.653   6.787  1.00  0.00     0.006 A 
ENDBRANCH  55  69
BRANCH  56  77
ATOM     77  C   UNL     1      -6.732  15.252  12.745  1.00  0.00     0.057 A 
ATOM     78  C   UNL     1      -6.863  14.939  14.102  1.00  0.00     0.134 A 
ATOM     79  C   UNL     1      -7.884  15.650  12.057  1.00  0.00     0.134 A 
ATOM     80  F   UNL     1      -5.797  14.541  14.812  1.00  0.00    -0.206 F 
ATOM     81  C   UNL     1      -8.095  15.017  14.753  1.00  0.00     0.040 A 
ATOM     82  C   UNL     1      -9.117  15.757  12.701  1.00  0.00     0.040 A 
ATOM     83  F   UNL     1      -7.816  15.976  10.758  1.00  0.00    -0.206 F 
ATOM     84  C   UNL     1      -9.224  15.437  14.053  1.00  0.00     0.006 A 
ENDBRANCH  56  77
BRANCH  68  85
ATOM     85  C   UNL     1      -2.520  20.051  10.009  1.00  0.00     0.057 A 
ATOM     86  C   UNL     1      -2.778  20.670   8.779  1.00  0.00     0.134 A 
ATOM     87  C   UNL     1      -2.373  20.879  11.130  1.00  0.00     0.134 A 
ATOM     88  F   UNL     1      -2.926  19.938   7.665  1.00  0.00    -0.206 F 
ATOM     89  C   UNL     1      -2.890  22.057   8.669  1.00  0.00     0.040 A 
ATOM     90  C   UNL     1      -2.510  22.265  11.037  1.00  0.00     0.040 A 
ATOM     91  F   UNL     1      -2.144  20.349  12.341  1.00  0.00    -0.206 F 
ATOM     92  C   UNL     1      -2.765  22.858   9.802  1.00  0.00     0.006 A 
ENDBRANCH  68  85
ENDBRANCH  42  43
ENDBRANCH  35  37
ENDBRANCH  34  35
ENDBRANCH  33  34
ENDBRANCH  32  33
ENDBRANCH  31  32
ENDBRANCH  30  31
ENDBRANCH   1  30
TORSDOF 22
