REMARK SMILES CC(C)C[C@@H](CNC(=O)[C@@H]1CCOC1)C(=O)OCCOCCOCCOCCOC(=O)c1ccc(-c2c3nc(c(-c4c(F)cccc4F)c4ccc([nH]4)c(-c4c(F)cccc4F)c4nc(c(-c5c(F)cccc5F)c5ccc2[nH]5)C=C4)C=C3)cc1
REMARK SMILES IDX 22 1 21 2 20 3 19 4 18 5 17 6 15 7 16 8 5 9 4 10 2 11 1 12
REMARK SMILES IDX 3 13 6 14 7 15 8 16 9 18 10 19 11 20 14 21 12 22 13 23 23 24
REMARK SMILES IDX 24 25 25 26 26 27 27 28 28 29 29 30 30 31 31 32 32 33 33 34
REMARK SMILES IDX 85 35 34 36 84 37 35 38 36 39 37 40 78 41 38 42 83 43 77 44
REMARK SMILES IDX 79 45 39 46 82 47 76 48 75 49 40 51 66 52 49 53 65 54 50 55
REMARK SMILES IDX 53 56 64 57 80 58 51 59 52 60 63 62 81 63 54 64 41 65 42 66
REMARK SMILES IDX 47 67 43 68 44 69 46 70 48 71 45 72 67 73 68 74 73 75 69 76
REMARK SMILES IDX 70 77 72 78 74 79 71 80 55 81 56 82 61 83 57 84 58 85 60 86
REMARK SMILES IDX 62 87 59 88
REMARK H PARENT 7 17 79 50 53 61
REMARK Flexibility Score: inf
ROOT
ATOM      1  C   UNL     1      -3.470  -0.910  -0.117  1.00  0.00     0.188 C 
ENDROOT
BRANCH   1   2
ATOM      2  C   UNL     1      -4.308  -0.212   0.960  1.00  0.00     0.188 C 
BRANCH   2   3
ATOM      3  O   UNL     1      -5.582   0.326   0.662  1.00  0.00    -0.376 OA
BRANCH   3   4
ATOM      4  C   UNL     1      -5.804   1.231  -0.407  1.00  0.00     0.202 C 
BRANCH   4   5
ATOM      5  C   UNL     1      -4.805   2.305  -0.869  1.00  0.00     0.261 C 
BRANCH   5   6
ATOM      6  O   UNL     1      -3.458   1.894  -1.163  1.00  0.00    -0.463 OA
BRANCH   6   7
ATOM      7  C   UNL     1      -2.546   2.186  -0.212  1.00  0.00     0.310 C 
ATOM      8  O   UNL     1      -2.822   2.720   0.861  1.00  0.00    -0.252 OA
BRANCH   7   9
ATOM      9  C   UNL     1      -1.097   1.935  -0.587  1.00  0.00     0.118 C 
BRANCH   9  10
ATOM     10  C   UNL     1      -0.697   0.814  -1.572  1.00  0.00     0.020 C 
BRANCH  10  11
ATOM     11  C   UNL     1       0.812   0.444  -1.503  1.00  0.00    -0.017 C 
ATOM     12  C   UNL     1       1.276   0.046  -0.095  1.00  0.00     0.007 C 
ATOM     13  C   UNL     1       1.134  -0.706  -2.462  1.00  0.00     0.007 C 
ENDBRANCH  10  11
ENDBRANCH   9  10
BRANCH   9  14
ATOM     14  C   UNL     1      -0.519   3.292  -0.991  1.00  0.00     0.131 C 
BRANCH  14  15
ATOM     15  N   UNL     1      -1.013   3.729  -2.289  1.00  0.00    -0.355 N 
ATOM     16  C   UNL     1      -2.030   4.595  -2.572  1.00  0.00     0.225 C 
ATOM     17  H   UNL     1      -0.550   3.348  -3.070  1.00  0.00     0.163 HD
ATOM     18  O   UNL     1      -2.446   4.644  -3.729  1.00  0.00    -0.275 OA
BRANCH  16  19
ATOM     19  C   UNL     1      -2.614   5.438  -1.448  1.00  0.00     0.106 C 
ATOM     20  C   UNL     1      -3.742   6.332  -1.914  1.00  0.00     0.044 C 
ATOM     21  C   UNL     1      -1.594   6.444  -0.940  1.00  0.00     0.173 C 
ATOM     22  C   UNL     1      -2.991   7.532  -2.444  1.00  0.00     0.161 C 
ATOM     23  O   UNL     1      -1.855   7.699  -1.586  1.00  0.00    -0.381 OA
ENDBRANCH  16  19
ENDBRANCH  14  15
ENDBRANCH   9  14
ENDBRANCH   7   9
ENDBRANCH   6   7
ENDBRANCH   5   6
ENDBRANCH   4   5
ENDBRANCH   3   4
ENDBRANCH   2   3
ENDBRANCH   1   2
BRANCH   1  24
ATOM     24  O   UNL     1      -3.820  -0.626  -1.456  1.00  0.00    -0.377 OA
BRANCH  24  25
ATOM     25  C   UNL     1      -4.829  -1.408  -2.085  1.00  0.00     0.188 C 
BRANCH  25  26
ATOM     26  C   UNL     1      -5.805  -2.227  -1.218  1.00  0.00     0.188 C 
BRANCH  26  27
ATOM     27  O   UNL     1      -5.187  -2.945  -0.164  1.00  0.00    -0.376 OA
BRANCH  27  28
ATOM     28  C   UNL     1      -4.780  -4.287  -0.388  1.00  0.00     0.202 C 
BRANCH  28  29
ATOM     29  C   UNL     1      -3.779  -4.570  -1.520  1.00  0.00     0.261 C 
BRANCH  29  30
ATOM     30  O   UNL     1      -4.194  -4.230  -2.855  1.00  0.00    -0.460 OA
BRANCH  30  31
ATOM     31  C   UNL     1      -5.359  -4.721  -3.317  1.00  0.00     0.338 C 
ATOM     32  O   UNL     1      -6.103  -5.513  -2.760  1.00  0.00    -0.246 OA
BRANCH  31  33
ATOM     33  C   UNL     1      -5.698  -3.981  -4.550  1.00  0.00     0.060 A 
ATOM     34  C   UNL     1      -6.884  -3.235  -4.596  1.00  0.00     0.016 A 
ATOM     35  C   UNL     1      -4.851  -4.029  -5.658  1.00  0.00     0.016 A 
ATOM     36  C   UNL     1      -7.242  -2.561  -5.764  1.00  0.00     0.010 A 
ATOM     37  C   UNL     1      -5.223  -3.375  -6.835  1.00  0.00     0.010 A 
ATOM     38  C   UNL     1      -6.436  -2.665  -6.903  1.00  0.00    -0.014 A 
BRANCH  38  39
ATOM     39  C   UNL     1      -6.943  -2.203  -8.218  1.00  0.00     0.031 A 
ATOM     40  C   UNL     1      -7.530  -3.224  -9.153  1.00  0.00     0.074 A 
ATOM     41  C   UNL     1      -6.884  -0.909  -8.578  1.00  0.00     0.049 A 
ATOM     42  N   UNL     1      -7.940  -3.084 -10.387  1.00  0.00    -0.248 NA
ATOM     43  C   UNL     1      -7.667  -4.591  -8.623  1.00  0.00     0.031 C 
ATOM     44  C   UNL     1      -6.385   0.180  -7.744  1.00  0.00     0.029 A 
ATOM     45  N   UNL     1      -7.233  -0.300  -9.758  1.00  0.00    -0.354 N 
ATOM     46  C   UNL     1      -8.367  -4.345 -10.786  1.00  0.00     0.074 A 
ATOM     47  C   UNL     1      -8.145  -5.241  -9.673  1.00  0.00     0.031 C 
ATOM     48  C   UNL     1      -6.438   1.325  -8.447  1.00  0.00     0.029 A 
ATOM     49  C   UNL     1      -6.934   1.040  -9.793  1.00  0.00     0.049 A 
ATOM     50  H   UNL     1      -7.657  -0.777 -10.508  1.00  0.00     0.167 HD
ATOM     51  C   UNL     1      -8.898  -4.720 -11.973  1.00  0.00     0.037 A 
ATOM     52  C   UNL     1      -7.017   1.924 -10.807  1.00  0.00     0.037 A 
ATOM     53  C   UNL     1      -9.117  -3.824 -13.077  1.00  0.00     0.049 A 
ATOM     54  C   UNL     1      -7.530   1.464 -12.149  1.00  0.00     0.074 A 
ATOM     55  C   UNL     1      -9.675  -4.100 -14.312  1.00  0.00     0.029 A 
ATOM     56  N   UNL     1      -8.776  -2.480 -13.082  1.00  0.00    -0.354 N 
ATOM     57  N   UNL     1      -7.959   0.278 -12.510  1.00  0.00    -0.248 NA
ATOM     58  C   UNL     1      -7.568   2.465 -13.226  1.00  0.00     0.031 C 
ATOM     59  C   UNL     1      -9.611  -2.939 -15.089  1.00  0.00     0.029 A 
ATOM     60  C   UNL     1      -9.076  -1.923 -14.314  1.00  0.00     0.049 A 
ATOM     61  H   UNL     1      -8.379  -1.994 -12.324  1.00  0.00     0.167 HD
ATOM     62  C   UNL     1      -8.345   0.398 -13.841  1.00  0.00     0.074 A 
ATOM     63  C   UNL     1      -8.112   1.776 -14.220  1.00  0.00     0.031 C 
ATOM     64  C   UNL     1      -8.848  -0.546 -14.674  1.00  0.00     0.037 A 
BRANCH  51  65
ATOM     65  C   UNL     1      -9.242  -6.170 -12.154  1.00  0.00     0.057 A 
ATOM     66  C   UNL     1     -10.313  -6.772 -11.481  1.00  0.00     0.134 A 
ATOM     67  C   UNL     1      -8.510  -6.966 -13.045  1.00  0.00     0.134 A 
ATOM     68  F   UNL     1     -11.046  -6.071 -10.603  1.00  0.00    -0.206 F 
ATOM     69  C   UNL     1     -10.629  -8.119 -11.671  1.00  0.00     0.040 A 
ATOM     70  C   UNL     1      -8.835  -8.305 -13.265  1.00  0.00     0.040 A 
ATOM     71  F   UNL     1      -7.474  -6.452 -13.724  1.00  0.00    -0.206 F 
ATOM     72  C   UNL     1      -9.893  -8.887 -12.571  1.00  0.00     0.006 A 
ENDBRANCH  51  65
BRANCH  52  73
ATOM     73  C   UNL     1      -6.571   3.329 -10.614  1.00  0.00     0.057 A 
ATOM     74  C   UNL     1      -7.478   4.394 -10.664  1.00  0.00     0.134 A 
ATOM     75  C   UNL     1      -5.222   3.643 -10.408  1.00  0.00     0.134 A 
ATOM     76  F   UNL     1      -8.781   4.161 -10.885  1.00  0.00    -0.206 F 
ATOM     77  C   UNL     1      -7.059   5.720 -10.538  1.00  0.00     0.040 A 
ATOM     78  C   UNL     1      -4.793   4.962 -10.249  1.00  0.00     0.040 A 
ATOM     79  F   UNL     1      -4.300   2.671 -10.354  1.00  0.00    -0.206 F 
ATOM     80  C   UNL     1      -5.712   6.006 -10.324  1.00  0.00     0.006 A 
ENDBRANCH  52  73
BRANCH  64  81
ATOM     81  C   UNL     1      -9.221  -0.120 -16.066  1.00  0.00     0.057 A 
ATOM     82  C   UNL     1      -8.257   0.193 -17.032  1.00  0.00     0.134 A 
ATOM     83  C   UNL     1     -10.566  -0.083 -16.462  1.00  0.00     0.134 A 
ATOM     84  F   UNL     1      -6.952   0.187 -16.717  1.00  0.00    -0.206 F 
ATOM     85  C   UNL     1      -8.616   0.544 -18.334  1.00  0.00     0.040 A 
ATOM     86  C   UNL     1     -10.935   0.236 -17.768  1.00  0.00     0.040 A 
ATOM     87  F   UNL     1     -11.541  -0.383 -15.590  1.00  0.00    -0.206 F 
ATOM     88  C   UNL     1      -9.958   0.557 -18.708  1.00  0.00     0.006 A 
ENDBRANCH  64  81
ENDBRANCH  38  39
ENDBRANCH  31  33
ENDBRANCH  30  31
ENDBRANCH  29  30
ENDBRANCH  28  29
ENDBRANCH  27  28
ENDBRANCH  26  27
ENDBRANCH  25  26
ENDBRANCH  24  25
ENDBRANCH   1  24
TORSDOF 25
