REMARK SMILES O=C(OCCOCCOCCOCCOC(=O)[C@@H]1C[N@@H+](CC(=O)c2ccc[nH]2)CC[NH2+]1)c1ccc(-c2c3nc(c(-c4c(F)cccc4F)c4ccc([nH]4)c(-c4c(F)cccc4F)c4nc(c(-c5c(F)cccc5F)c5ccc2[nH]5)C=C4)C=C3)cc1
REMARK SMILES IDX 10 1 9 2 8 3 7 4 6 5 5 6 4 7 3 8 2 9 1 10 32 11 33 12 85 13
REMARK SMILES IDX 34 14 84 15 35 16 36 17 37 18 78 19 38 20 83 21 77 22 79 23
REMARK SMILES IDX 39 24 82 25 76 26 75 27 40 29 66 30 49 31 65 32 50 33 53 34
REMARK SMILES IDX 64 35 80 36 51 37 52 38 63 40 81 41 54 42 41 43 42 44 47 45
REMARK SMILES IDX 43 46 44 47 46 48 48 49 45 50 67 51 68 52 73 53 69 54 70 55
REMARK SMILES IDX 72 56 74 57 71 58 55 59 56 60 61 61 57 62 58 63 60 64 62 65
REMARK SMILES IDX 59 66 11 67 12 68 13 69 14 70 15 71 16 72 17 73 18 74 19 75
REMARK SMILES IDX 31 76 20 77 30 78 29 81 21 83 22 84 23 85 24 86 25 87 28 88
REMARK SMILES IDX 26 89 27 90
REMARK H PARENT 79 28 53 39 31 79 31 80 20 82 28 91
REMARK Flexibility Score: inf
ROOT
ATOM      1  C   UNL     1       4.044   3.244   1.056  1.00  0.00     0.188 C 
ENDROOT
BRANCH   1   2
ATOM      2  O   UNL     1       2.678   2.932   1.153  1.00  0.00    -0.377 OA
BRANCH   2   3
ATOM      3  C   UNL     1       2.324   1.670   0.627  1.00  0.00     0.188 C 
BRANCH   3   4
ATOM      4  C   UNL     1       3.122   0.467   1.157  1.00  0.00     0.188 C 
BRANCH   4   5
ATOM      5  O   UNL     1       4.459   0.180   0.749  1.00  0.00    -0.376 OA
BRANCH   5   6
ATOM      6  C   UNL     1       5.048   0.412  -0.521  1.00  0.00     0.202 C 
BRANCH   6   7
ATOM      7  C   UNL     1       4.340   0.189  -1.873  1.00  0.00     0.261 C 
BRANCH   7   8
ATOM      8  O   UNL     1       2.918   0.331  -1.892  1.00  0.00    -0.460 OA
BRANCH   8   9
ATOM      9  C   UNL     1       1.945  -0.552  -1.582  1.00  0.00     0.338 C 
ATOM     10  O   UNL     1       0.774  -0.180  -1.584  1.00  0.00    -0.246 OA
BRANCH   9  11
ATOM     11  C   UNL     1       2.234  -1.963  -1.234  1.00  0.00     0.060 A 
ATOM     12  C   UNL     1       3.491  -2.438  -0.867  1.00  0.00     0.016 A 
ATOM     13  C   UNL     1       1.153  -2.859  -1.260  1.00  0.00     0.016 A 
ATOM     14  C   UNL     1       3.733  -3.778  -0.729  1.00  0.00     0.010 A 
ATOM     15  C   UNL     1       1.367  -4.215  -1.059  1.00  0.00     0.010 A 
ATOM     16  C   UNL     1       2.675  -4.660  -0.862  1.00  0.00    -0.014 A 
BRANCH  16  17
ATOM     17  C   UNL     1       3.046  -6.071  -0.785  1.00  0.00     0.031 A 
ATOM     18  C   UNL     1       3.352  -6.511   0.637  1.00  0.00     0.074 A 
ATOM     19  C   UNL     1       3.180  -6.672  -1.999  1.00  0.00     0.049 A 
ATOM     20  N   UNL     1       4.104  -7.477   1.063  1.00  0.00    -0.248 NA
ATOM     21  C   UNL     1       2.809  -5.698   1.762  1.00  0.00     0.031 C 
ATOM     22  C   UNL     1       2.922  -5.992  -3.284  1.00  0.00     0.029 A 
ATOM     23  N   UNL     1       3.572  -7.921  -2.417  1.00  0.00    -0.354 N 
ATOM     24  C   UNL     1       3.900  -7.554   2.453  1.00  0.00     0.074 A 
ATOM     25  C   UNL     1       3.255  -6.337   2.842  1.00  0.00     0.031 C 
ATOM     26  C   UNL     1       3.200  -6.804  -4.318  1.00  0.00     0.029 A 
ATOM     27  C   UNL     1       3.643  -8.088  -3.823  1.00  0.00     0.049 A 
ATOM     28  H   UNL     1       3.786  -8.646  -1.787  1.00  0.00     0.167 HD
ATOM     29  C   UNL     1       4.081  -8.700   3.168  1.00  0.00     0.037 A 
ATOM     30  C   UNL     1       4.044  -9.178  -4.543  1.00  0.00     0.037 A 
ATOM     31  C   UNL     1       4.623  -9.732   2.345  1.00  0.00     0.049 A 
ATOM     32  C   UNL     1       4.205 -10.261  -3.554  1.00  0.00     0.074 A 
ATOM     33  C   UNL     1       5.864  -9.953   1.810  1.00  0.00     0.029 A 
ATOM     34  N   UNL     1       3.724 -10.566   1.724  1.00  0.00    -0.354 N 
ATOM     35  N   UNL     1       3.220 -10.813  -2.908  1.00  0.00    -0.248 NA
ATOM     36  C   UNL     1       5.550 -10.693  -3.163  1.00  0.00     0.031 C 
ATOM     37  C   UNL     1       5.614 -10.654   0.608  1.00  0.00     0.029 A 
ATOM     38  C   UNL     1       4.242 -10.906   0.496  1.00  0.00     0.049 A 
ATOM     39  H   UNL     1       2.863 -10.868   2.094  1.00  0.00     0.167 HD
ATOM     40  C   UNL     1       3.841 -11.377  -1.818  1.00  0.00     0.074 A 
ATOM     41  C   UNL     1       5.232 -11.531  -2.179  1.00  0.00     0.031 C 
ATOM     42  C   UNL     1       3.313 -11.206  -0.577  1.00  0.00     0.037 A 
BRANCH  29  43
ATOM     43  C   UNL     1       3.547  -9.081   4.519  1.00  0.00     0.057 A 
ATOM     44  C   UNL     1       4.141 -10.169   5.194  1.00  0.00     0.134 A 
ATOM     45  C   UNL     1       2.312  -8.654   5.026  1.00  0.00     0.134 A 
ATOM     46  F   UNL     1       5.338 -10.646   4.815  1.00  0.00    -0.206 F 
ATOM     47  C   UNL     1       3.499 -10.854   6.229  1.00  0.00     0.040 A 
ATOM     48  C   UNL     1       1.682  -9.303   6.095  1.00  0.00     0.040 A 
ATOM     49  F   UNL     1       1.620  -7.660   4.454  1.00  0.00    -0.206 F 
ATOM     50  C   UNL     1       2.256 -10.429   6.673  1.00  0.00     0.006 A 
ENDBRANCH  29  43
BRANCH  30  51
ATOM     51  C   UNL     1       4.363  -9.487  -5.988  1.00  0.00     0.057 A 
ATOM     52  C   UNL     1       4.268  -8.603  -7.071  1.00  0.00     0.134 A 
ATOM     53  C   UNL     1       4.898 -10.754  -6.340  1.00  0.00     0.134 A 
ATOM     54  F   UNL     1       3.716  -7.394  -6.959  1.00  0.00    -0.206 F 
ATOM     55  C   UNL     1       4.740  -8.916  -8.360  1.00  0.00     0.040 A 
ATOM     56  C   UNL     1       5.404 -11.067  -7.607  1.00  0.00     0.040 A 
ATOM     57  F   UNL     1       4.969 -11.761  -5.458  1.00  0.00    -0.206 F 
ATOM     58  C   UNL     1       5.341 -10.137  -8.625  1.00  0.00     0.006 A 
ENDBRANCH  30  51
BRANCH  42  59
ATOM     59  C   UNL     1       1.820 -10.899  -0.586  1.00  0.00     0.057 A 
ATOM     60  C   UNL     1       0.907 -11.793  -1.160  1.00  0.00     0.134 A 
ATOM     61  C   UNL     1       1.268  -9.682  -0.159  1.00  0.00     0.134 A 
ATOM     62  F   UNL     1       1.315 -13.004  -1.568  1.00  0.00    -0.206 F 
ATOM     63  C   UNL     1      -0.447 -11.470  -1.339  1.00  0.00     0.040 A 
ATOM     64  C   UNL     1      -0.078  -9.340  -0.326  1.00  0.00     0.040 A 
ATOM     65  F   UNL     1       2.018  -8.777   0.460  1.00  0.00    -0.206 F 
ATOM     66  C   UNL     1      -0.942 -10.234  -0.934  1.00  0.00     0.006 A 
ENDBRANCH  42  59
ENDBRANCH  16  17
ENDBRANCH   9  11
ENDBRANCH   8   9
ENDBRANCH   7   8
ENDBRANCH   6   7
ENDBRANCH   5   6
ENDBRANCH   4   5
ENDBRANCH   3   4
ENDBRANCH   2   3
ENDBRANCH   1   2
BRANCH   1  67
ATOM     67  C   UNL     1       4.756   3.310   2.407  1.00  0.00     0.188 C 
BRANCH  67  68
ATOM     68  O   UNL     1       4.088   2.794   3.554  1.00  0.00    -0.376 OA
BRANCH  68  69
ATOM     69  C   UNL     1       2.780   3.294   3.856  1.00  0.00     0.202 C 
BRANCH  69  70
ATOM     70  C   UNL     1       2.560   4.816   3.790  1.00  0.00     0.261 C 
BRANCH  70  71
ATOM     71  O   UNL     1       2.705   5.330   2.453  1.00  0.00    -0.459 OA
BRANCH  71  72
ATOM     72  C   UNL     1       3.275   6.556   2.314  1.00  0.00     0.371 C 
ATOM     73  O   UNL     1       3.442   7.343   3.242  1.00  0.00    -0.245 OA
BRANCH  72  74
ATOM     74  C   UNL     1       3.881   6.749   0.911  1.00  0.00     0.348 C 
ATOM     75  C   UNL     1       4.367   8.192   0.708  1.00  0.00     0.341 C 
ATOM     76  N   UNL     1       2.985   6.319  -0.197  1.00  0.00    -0.325 N 
ATOM     77  N   UNL     1       5.047   8.432  -0.577  1.00  0.00    -0.318 N 
ATOM     78  C   UNL     1       3.709   6.446  -1.477  1.00  0.00     0.323 C 
ATOM     79  H   UNL     1       2.154   6.911  -0.214  1.00  0.00     0.347 HD
ATOM     80  H   UNL     1       2.702   5.349  -0.055  1.00  0.00     0.347 HD
ATOM     81  C   UNL     1       4.311   7.853  -1.713  1.00  0.00     0.324 C 
ATOM     82  H   UNL     1       5.011   9.440  -0.726  1.00  0.00     0.348 HD
BRANCH  77  83
ATOM     83  C   UNL     1       6.505   8.196  -0.569  1.00  0.00     0.346 C 
BRANCH  83  84
ATOM     84  C   UNL     1       6.976   6.764  -0.840  1.00  0.00     0.232 C 
ATOM     85  O   UNL     1       6.998   6.321  -1.992  1.00  0.00    -0.286 OA
BRANCH  84  86
ATOM     86  C   UNL     1       7.410   5.929   0.269  1.00  0.00     0.088 A 
ATOM     87  C   UNL     1       7.427   6.125   1.639  1.00  0.00     0.031 A 
ATOM     88  N   UNL     1       7.918   4.663   0.048  1.00  0.00    -0.359 N 
ATOM     89  C   UNL     1       7.912   4.939   2.246  1.00  0.00     0.020 A 
ATOM     90  C   UNL     1       8.205   4.052   1.237  1.00  0.00     0.083 A 
ATOM     91  H   UNL     1       8.053   4.259  -0.839  1.00  0.00     0.166 HD
ENDBRANCH  84  86
ENDBRANCH  83  84
ENDBRANCH  77  83
ENDBRANCH  72  74
ENDBRANCH  71  72
ENDBRANCH  70  71
ENDBRANCH  69  70
ENDBRANCH  68  69
ENDBRANCH  67  68
ENDBRANCH   1  67
TORSDOF 23
