REMARK SMILES C[C@@H]1OCC[C@@H]1C(=O)Nc1ccc(C(=O)OCCOCCOCCOCCOC(=O)c2ccc(-c3c4nc(c(-c5c(F)cccc5F)c5ccc([nH]5)c(-c5c(F)cccc5F)c5nc(c(-c6c(F)cccc6F)c6ccc3[nH]6)C=C5)C=C4)cc2)cc1F
REMARK SMILES IDX 22 1 21 2 20 3 19 4 18 5 17 6 16 7 14 8 15 9 13 10 10 11
REMARK SMILES IDX 11 12 86 13 12 14 85 15 87 16 9 17 7 18 8 19 6 21 1 22 2 23
REMARK SMILES IDX 3 24 4 25 5 26 23 27 24 28 25 29 26 30 27 31 28 32 29 33
REMARK SMILES IDX 30 34 31 35 32 36 84 37 33 38 83 39 34 40 35 41 36 42 77 43
REMARK SMILES IDX 37 44 82 45 76 46 78 47 38 48 81 49 75 50 74 51 39 53 65 54
REMARK SMILES IDX 48 55 64 56 49 57 52 58 63 59 79 60 50 61 51 62 62 64 80 65
REMARK SMILES IDX 53 66 40 67 41 68 46 69 42 70 43 71 45 72 47 73 44 74 66 75
REMARK SMILES IDX 67 76 72 77 68 78 69 79 71 80 73 81 70 82 54 83 55 84 60 85
REMARK SMILES IDX 56 86 57 87 59 88 61 89 58 90
REMARK H PARENT 9 20 78 52 52 63
REMARK Flexibility Score: inf
ROOT
ATOM      1  O   UNL     1       4.257  -2.146   5.138  1.00  0.00    -0.377 OA
ENDROOT
BRANCH   1   2
ATOM      2  C   UNL     1       4.415  -0.748   5.331  1.00  0.00     0.188 C 
BRANCH   2   3
ATOM      3  C   UNL     1       4.283  -0.166   6.755  1.00  0.00     0.188 C 
BRANCH   3   4
ATOM      4  O   UNL     1       4.087  -1.146   7.763  1.00  0.00    -0.376 OA
BRANCH   4   5
ATOM      5  C   UNL     1       2.853  -1.192   8.451  1.00  0.00     0.202 C 
BRANCH   5   6
ATOM      6  C   UNL     1       1.647  -1.625   7.620  1.00  0.00     0.261 C 
BRANCH   6   7
ATOM      7  O   UNL     1       1.417  -0.839   6.449  1.00  0.00    -0.460 OA
BRANCH   7   8
ATOM      8  C   UNL     1       1.171   0.484   6.581  1.00  0.00     0.338 C 
ATOM      9  O   UNL     1       1.092   1.136   7.604  1.00  0.00    -0.246 OA
BRANCH   8  10
ATOM     10  C   UNL     1       1.191   1.027   5.210  1.00  0.00     0.063 A 
ATOM     11  C   UNL     1       1.291   1.883   2.510  1.00  0.00     0.077 A 
ATOM     12  C   UNL     1       1.936   2.608   3.533  1.00  0.00     0.030 A 
ATOM     13  C   UNL     1       0.653   0.696   2.899  1.00  0.00     0.147 A 
ATOM     14  C   UNL     1       1.878   2.195   4.877  1.00  0.00     0.018 A 
ATOM     15  C   UNL     1       0.593   0.278   4.214  1.00  0.00     0.057 A 
ATOM     16  F   UNL     1       0.070  -0.164   2.069  1.00  0.00    -0.205 F 
BRANCH  11  17
ATOM     17  N   UNL     1       1.340   2.474   1.219  1.00  0.00    -0.323 N 
ATOM     18  C   UNL     1       0.733   2.218   0.015  1.00  0.00     0.230 C 
ATOM     19  O   UNL     1       0.899   3.027  -0.901  1.00  0.00    -0.274 OA
ATOM     20  H   UNL     1       1.950   3.246   1.179  1.00  0.00     0.170 HD
BRANCH  18  21
ATOM     21  C   UNL     1      -0.099   0.987  -0.174  1.00  0.00     0.110 C 
ATOM     22  C   UNL     1       1.861  -0.064  -1.498  1.00  0.00     0.039 C 
ATOM     23  C   UNL     1       0.742  -0.260  -0.476  1.00  0.00     0.127 C 
ATOM     24  O   UNL     1      -0.184  -1.227  -1.021  1.00  0.00    -0.378 OA
ATOM     25  C   UNL     1      -1.452  -0.572  -1.180  1.00  0.00     0.161 C 
ATOM     26  C   UNL     1      -1.140   0.913  -1.266  1.00  0.00     0.044 C 
ENDBRANCH  18  21
ENDBRANCH  11  17
ENDBRANCH   8  10
ENDBRANCH   7   8
ENDBRANCH   6   7
ENDBRANCH   5   6
ENDBRANCH   4   5
ENDBRANCH   3   4
ENDBRANCH   2   3
ENDBRANCH   1   2
BRANCH   1  27
ATOM     27  C   UNL     1       4.891  -3.068   6.020  1.00  0.00     0.188 C 
BRANCH  27  28
ATOM     28  C   UNL     1       6.144  -2.682   6.842  1.00  0.00     0.188 C 
BRANCH  28  29
ATOM     29  O   UNL     1       6.739  -1.455   6.458  1.00  0.00    -0.376 OA
BRANCH  29  30
ATOM     30  C   UNL     1       8.020  -1.504   5.859  1.00  0.00     0.202 C 
BRANCH  30  31
ATOM     31  C   UNL     1       8.063  -2.129   4.461  1.00  0.00     0.261 C 
BRANCH  31  32
ATOM     32  O   UNL     1       7.534  -3.459   4.359  1.00  0.00    -0.460 OA
BRANCH  32  33
ATOM     33  C   UNL     1       8.178  -4.436   5.037  1.00  0.00     0.338 C 
ATOM     34  O   UNL     1       9.174  -4.327   5.727  1.00  0.00    -0.246 OA
BRANCH  33  35
ATOM     35  C   UNL     1       7.339  -5.647   4.951  1.00  0.00     0.060 A 
ATOM     36  C   UNL     1       6.832  -6.221   6.125  1.00  0.00     0.016 A 
ATOM     37  C   UNL     1       7.035  -6.192   3.702  1.00  0.00     0.016 A 
ATOM     38  C   UNL     1       6.032  -7.361   6.051  1.00  0.00     0.010 A 
ATOM     39  C   UNL     1       6.256  -7.346   3.632  1.00  0.00     0.010 A 
ATOM     40  C   UNL     1       5.776  -7.950   4.806  1.00  0.00    -0.014 A 
BRANCH  40  41
ATOM     41  C   UNL     1       5.171  -9.299   4.734  1.00  0.00     0.031 A 
ATOM     42  C   UNL     1       6.085 -10.480   4.588  1.00  0.00     0.074 A 
ATOM     43  C   UNL     1       3.841  -9.473   4.798  1.00  0.00     0.049 A 
ATOM     44  N   UNL     1       5.791 -11.745   4.438  1.00  0.00    -0.248 NA
ATOM     45  C   UNL     1       7.528 -10.193   4.614  1.00  0.00     0.031 C 
ATOM     46  C   UNL     1       2.858  -8.410   4.990  1.00  0.00     0.029 A 
ATOM     47  N   UNL     1       3.091 -10.618   4.701  1.00  0.00    -0.354 N 
ATOM     48  C   UNL     1       7.010 -12.404   4.351  1.00  0.00     0.074 A 
ATOM     49  C   UNL     1       8.045 -11.396   4.424  1.00  0.00     0.031 C 
ATOM     50  C   UNL     1       1.629  -8.953   4.992  1.00  0.00     0.029 A 
ATOM     51  C   UNL     1       1.739 -10.395   4.764  1.00  0.00     0.049 A 
ATOM     52  H   UNL     1       3.486 -11.514   4.596  1.00  0.00     0.167 HD
ATOM     53  C   UNL     1       7.245 -13.731   4.234  1.00  0.00     0.037 A 
ATOM     54  C   UNL     1       0.709 -11.253   4.632  1.00  0.00     0.037 A 
ATOM     55  C   UNL     1       6.209 -14.726   4.143  1.00  0.00     0.049 A 
ATOM     56  C   UNL     1       0.986 -12.713   4.391  1.00  0.00     0.074 A 
ATOM     57  C   UNL     1       6.342 -16.097   4.023  1.00  0.00     0.029 A 
ATOM     58  N   UNL     1       4.849 -14.453   4.146  1.00  0.00    -0.354 N 
ATOM     59  N   UNL     1       2.139 -13.333   4.318  1.00  0.00    -0.248 NA
ATOM     60  C   UNL     1      -0.179 -13.591   4.209  1.00  0.00     0.031 C 
ATOM     61  C   UNL     1       5.064 -16.648   3.894  1.00  0.00     0.029 A 
ATOM     62  C   UNL     1       4.131 -15.628   3.997  1.00  0.00     0.049 A 
ATOM     63  H   UNL     1       4.452 -13.557   4.241  1.00  0.00     0.167 HD
ATOM     64  C   UNL     1       1.842 -14.674   4.103  1.00  0.00     0.074 A 
ATOM     65  C   UNL     1       0.398 -14.778   4.065  1.00  0.00     0.031 C 
ATOM     66  C   UNL     1       2.692 -15.721   3.955  1.00  0.00     0.037 A 
BRANCH  53  67
ATOM     67  C   UNL     1       8.678 -14.172   4.170  1.00  0.00     0.057 A 
ATOM     68  C   UNL     1       9.209 -14.704   2.988  1.00  0.00     0.134 A 
ATOM     69  C   UNL     1       9.530 -14.085   5.279  1.00  0.00     0.134 A 
ATOM     70  F   UNL     1       8.449 -14.819   1.889  1.00  0.00    -0.206 F 
ATOM     71  C   UNL     1      10.535 -15.135   2.913  1.00  0.00     0.040 A 
ATOM     72  C   UNL     1      10.867 -14.483   5.206  1.00  0.00     0.040 A 
ATOM     73  F   UNL     1       9.090 -13.568   6.436  1.00  0.00    -0.206 F 
ATOM     74  C   UNL     1      11.370 -15.016   4.022  1.00  0.00     0.006 A 
ENDBRANCH  53  67
BRANCH  54  75
ATOM     75  C   UNL     1      -0.678 -10.739   4.741  1.00  0.00     0.057 A 
ATOM     76  C   UNL     1      -1.232  -9.912   3.756  1.00  0.00     0.134 A 
ATOM     77  C   UNL     1      -1.460 -11.014   5.868  1.00  0.00     0.134 A 
ATOM     78  F   UNL     1      -0.533  -9.612   2.652  1.00  0.00    -0.206 F 
ATOM     79  C   UNL     1      -2.500  -9.347   3.905  1.00  0.00     0.040 A 
ATOM     80  C   UNL     1      -2.738 -10.473   6.020  1.00  0.00     0.040 A 
ATOM     81  F   UNL     1      -0.992 -11.818   6.834  1.00  0.00    -0.206 F 
ATOM     82  C   UNL     1      -3.256  -9.626   5.042  1.00  0.00     0.006 A 
ENDBRANCH  54  75
BRANCH  66  83
ATOM     83  C   UNL     1       2.098 -17.085   3.751  1.00  0.00     0.057 A 
ATOM     84  C   UNL     1       2.213 -18.069   4.743  1.00  0.00     0.134 A 
ATOM     85  C   UNL     1       1.504 -17.458   2.539  1.00  0.00     0.134 A 
ATOM     86  F   UNL     1       2.783 -17.783   5.923  1.00  0.00    -0.206 F 
ATOM     87  C   UNL     1       1.780 -19.378   4.528  1.00  0.00     0.040 A 
ATOM     88  C   UNL     1       1.042 -18.758   2.322  1.00  0.00     0.040 A 
ATOM     89  F   UNL     1       1.355 -16.563   1.551  1.00  0.00    -0.206 F 
ATOM     90  C   UNL     1       1.192 -19.726   3.314  1.00  0.00     0.006 A 
ENDBRANCH  66  83
ENDBRANCH  40  41
ENDBRANCH  33  35
ENDBRANCH  32  33
ENDBRANCH  31  32
ENDBRANCH  30  31
ENDBRANCH  29  30
ENDBRANCH  28  29
ENDBRANCH  27  28
ENDBRANCH   1  27
TORSDOF 22
