REMARK SMILES C[C@]1(C(=O)N2CCC(CC(=O)OCCOCCOCCOCCOC(=O)c3ccc(-c4c5nc(c(-c6c(F)cccc6F)c6ccc([nH]6)c(-c6c(F)cccc6F)c6nc(c(-c7c(F)cccc7F)c7ccc4[nH]7)C=C6)C=C5)cc3)CC2)CCC[NH2+]1
REMARK SMILES IDX 18 1 17 2 16 3 15 4 14 5 13 6 12 7 10 8 11 9 9 10 8 11 3 12
REMARK SMILES IDX 4 13 5 14 6 15 82 16 7 17 81 18 2 19 1 20 83 21 86 22 84 23
REMARK SMILES IDX 85 24 19 27 20 28 21 29 22 30 23 31 24 32 25 33 26 34 27 35
REMARK SMILES IDX 28 36 80 37 29 38 79 39 30 40 31 41 32 42 73 43 33 44 78 45
REMARK SMILES IDX 72 46 74 47 34 48 77 49 71 50 70 51 35 53 61 54 44 55 60 56
REMARK SMILES IDX 45 57 48 58 59 59 75 60 46 61 47 62 58 64 76 65 49 66 36 67
REMARK SMILES IDX 37 68 42 69 38 70 39 71 41 72 43 73 40 74 62 75 63 76 68 77
REMARK SMILES IDX 64 78 65 79 67 80 69 81 66 82 50 83 51 84 56 85 52 86 53 87
REMARK SMILES IDX 55 88 57 89 54 90
REMARK H PARENT 86 25 86 26 74 52 48 63
REMARK Flexibility Score: inf
ROOT
ATOM      1  O   UNL     1       6.500  -0.667   2.563  1.00  0.00    -0.377 OA
ENDROOT
BRANCH   1   2
ATOM      2  C   UNL     1       6.943   0.489   3.251  1.00  0.00     0.188 C 
BRANCH   2   3
ATOM      3  C   UNL     1       7.439   0.327   4.692  1.00  0.00     0.188 C 
BRANCH   3   4
ATOM      4  O   UNL     1       8.071  -0.885   5.032  1.00  0.00    -0.376 OA
BRANCH   4   5
ATOM      5  C   UNL     1       7.310  -2.039   5.353  1.00  0.00     0.202 C 
BRANCH   5   6
ATOM      6  C   UNL     1       5.779  -2.082   5.519  1.00  0.00     0.261 C 
BRANCH   6   7
ATOM      7  O   UNL     1       4.992  -1.190   4.715  1.00  0.00    -0.463 OA
BRANCH   7   8
ATOM      8  C   UNL     1       4.181  -0.345   5.392  1.00  0.00     0.306 C 
ATOM      9  O   UNL     1       4.144  -0.262   6.617  1.00  0.00    -0.252 OA
BRANCH   8  10
ATOM     10  C   UNL     1       3.319   0.564   4.537  1.00  0.00     0.126 C 
BRANCH  10  11
ATOM     11  C   UNL     1       3.328   0.510   3.004  1.00  0.00     0.003 C 
ATOM     12  C   UNL     1       0.836  -0.044  -0.069  1.00  0.00     0.283 C 
ATOM     13  O   UNL     1       0.231  -1.001   0.427  1.00  0.00    -0.268 OA
ATOM     14  N   UNL     1       2.103   0.306   0.386  1.00  0.00    -0.337 N 
ATOM     15  C   UNL     1       2.972  -0.753   0.879  1.00  0.00     0.120 C 
ATOM     16  C   UNL     1       2.369   1.636   0.920  1.00  0.00     0.120 C 
ATOM     17  C   UNL     1       2.938  -0.845   2.404  1.00  0.00     0.026 C 
ATOM     18  C   UNL     1       2.390   1.608   2.452  1.00  0.00     0.026 C 
BRANCH  12  19
ATOM     19  C   UNL     1       0.370   0.575  -1.418  1.00  0.00     0.173 C 
ATOM     20  C   UNL     1       1.143  -0.154  -2.532  1.00  0.00     0.090 C 
ATOM     21  C   UNL     1      -1.142   0.423  -1.578  1.00  0.00     0.084 C 
ATOM     22  N   UNL     1       0.586   2.039  -1.521  1.00  0.00    -0.334 N 
ATOM     23  C   UNL     1      -1.510   1.509  -2.566  1.00  0.00     0.068 C 
ATOM     24  C   UNL     1      -0.538   2.630  -2.251  1.00  0.00     0.261 C 
ATOM     25  H   UNL     1       1.455   2.224  -2.021  1.00  0.00     0.347 HD
ATOM     26  H   UNL     1       0.647   2.447  -0.588  1.00  0.00     0.347 HD
ENDBRANCH  12  19
ENDBRANCH  10  11
ENDBRANCH   8  10
ENDBRANCH   7   8
ENDBRANCH   6   7
ENDBRANCH   5   6
ENDBRANCH   4   5
ENDBRANCH   3   4
ENDBRANCH   2   3
ENDBRANCH   1   2
BRANCH   1  27
ATOM     27  C   UNL     1       7.447  -1.622   2.092  1.00  0.00     0.188 C 
BRANCH  27  28
ATOM     28  C   UNL     1       8.964  -1.362   2.175  1.00  0.00     0.188 C 
BRANCH  28  29
ATOM     29  O   UNL     1       9.350  -0.001   2.087  1.00  0.00    -0.376 OA
BRANCH  29  30
ATOM     30  C   UNL     1       9.710   0.516   0.814  1.00  0.00     0.202 C 
BRANCH  30  31
ATOM     31  C   UNL     1       8.624   0.510  -0.274  1.00  0.00     0.261 C 
BRANCH  31  32
ATOM     32  O   UNL     1       8.176  -0.789  -0.699  1.00  0.00    -0.460 OA
BRANCH  32  33
ATOM     33  C   UNL     1       9.113  -1.643  -1.163  1.00  0.00     0.338 C 
ATOM     34  O   UNL     1      10.292  -1.419  -1.350  1.00  0.00    -0.246 OA
BRANCH  33  35
ATOM     35  C   UNL     1       8.508  -2.986  -1.250  1.00  0.00     0.060 A 
ATOM     36  C   UNL     1       9.089  -4.026  -0.515  1.00  0.00     0.016 A 
ATOM     37  C   UNL     1       7.428  -3.229  -2.101  1.00  0.00     0.016 A 
ATOM     38  C   UNL     1       8.641  -5.332  -0.691  1.00  0.00     0.010 A 
ATOM     39  C   UNL     1       6.990  -4.543  -2.290  1.00  0.00     0.010 A 
ATOM     40  C   UNL     1       7.638  -5.604  -1.630  1.00  0.00    -0.014 A 
BRANCH  40  41
ATOM     41  C   UNL     1       7.478  -6.998  -2.111  1.00  0.00     0.031 A 
ATOM     42  C   UNL     1       8.187  -7.392  -3.381  1.00  0.00     0.074 A 
ATOM     43  C   UNL     1       6.791  -7.914  -1.407  1.00  0.00     0.049 A 
ATOM     44  N   UNL     1       8.225  -8.548  -3.991  1.00  0.00    -0.248 NA
ATOM     45  C   UNL     1       8.963  -6.334  -4.052  1.00  0.00     0.031 C 
ATOM     46  C   UNL     1       6.104  -7.670  -0.142  1.00  0.00     0.029 A 
ATOM     47  N   UNL     1       6.568  -9.243  -1.664  1.00  0.00    -0.354 N 
ATOM     48  C   UNL     1       9.021  -8.355  -5.114  1.00  0.00     0.074 A 
ATOM     49  C   UNL     1       9.413  -6.964  -5.125  1.00  0.00     0.031 C 
ATOM     50  C   UNL     1       5.530  -8.815   0.268  1.00  0.00     0.029 A 
ATOM     51  C   UNL     1       5.790  -9.863  -0.719  1.00  0.00     0.049 A 
ATOM     52  H   UNL     1       6.932  -9.708  -2.452  1.00  0.00     0.167 HD
ATOM     53  C   UNL     1       9.407  -9.258  -6.046  1.00  0.00     0.037 A 
ATOM     54  C   UNL     1       5.331 -11.129  -0.667  1.00  0.00     0.037 A 
ATOM     55  C   UNL     1       9.018 -10.642  -6.035  1.00  0.00     0.049 A 
ATOM     56  C   UNL     1       5.714 -12.100  -1.756  1.00  0.00     0.074 A 
ATOM     57  C   UNL     1       9.357 -11.640  -6.932  1.00  0.00     0.029 A 
ATOM     58  N   UNL     1       8.198 -11.223  -5.080  1.00  0.00    -0.354 N 
ATOM     59  N   UNL     1       6.483 -11.913  -2.802  1.00  0.00    -0.248 NA
ATOM     60  C   UNL     1       5.174 -13.463  -1.648  1.00  0.00     0.031 C 
ATOM     61  C   UNL     1       8.697 -12.812  -6.549  1.00  0.00     0.029 A 
ATOM     62  C   UNL     1       8.002 -12.560  -5.377  1.00  0.00     0.049 A 
ATOM     63  H   UNL     1       7.812 -10.753  -4.305  1.00  0.00     0.167 HD
ATOM     64  C   UNL     1       6.550 -13.141  -3.452  1.00  0.00     0.074 A 
ATOM     65  C   UNL     1       5.751 -14.066  -2.677  1.00  0.00     0.031 C 
ATOM     66  C   UNL     1       7.218 -13.474  -4.585  1.00  0.00     0.037 A 
BRANCH  53  67
ATOM     67  C   UNL     1      10.268  -8.762  -7.171  1.00  0.00     0.057 A 
ATOM     68  C   UNL     1      11.601  -8.376  -6.974  1.00  0.00     0.134 A 
ATOM     69  C   UNL     1       9.760  -8.682  -8.474  1.00  0.00     0.134 A 
ATOM     70  F   UNL     1      12.144  -8.409  -5.748  1.00  0.00    -0.206 F 
ATOM     71  C   UNL     1      12.388  -7.904  -8.026  1.00  0.00     0.040 A 
ATOM     72  C   UNL     1      10.546  -8.241  -9.539  1.00  0.00     0.040 A 
ATOM     73  F   UNL     1       8.493  -9.037  -8.734  1.00  0.00    -0.206 F 
ATOM     74  C   UNL     1      11.862  -7.842  -9.315  1.00  0.00     0.006 A 
ENDBRANCH  53  67
BRANCH  54  75
ATOM     75  C   UNL     1       4.453 -11.561   0.451  1.00  0.00     0.057 A 
ATOM     76  C   UNL     1       4.881 -12.502   1.395  1.00  0.00     0.134 A 
ATOM     77  C   UNL     1       3.148 -11.068   0.582  1.00  0.00     0.134 A 
ATOM     78  F   UNL     1       6.111 -13.030   1.311  1.00  0.00    -0.206 F 
ATOM     79  C   UNL     1       4.039 -12.955   2.412  1.00  0.00     0.040 A 
ATOM     80  C   UNL     1       2.305 -11.490   1.610  1.00  0.00     0.040 A 
ATOM     81  F   UNL     1       2.676 -10.165  -0.290  1.00  0.00    -0.206 F 
ATOM     82  C   UNL     1       2.747 -12.444   2.524  1.00  0.00     0.006 A 
ENDBRANCH  54  75
BRANCH  66  83
ATOM     83  C   UNL     1       7.167 -14.911  -5.022  1.00  0.00     0.057 A 
ATOM     84  C   UNL     1       6.004 -15.496  -5.537  1.00  0.00     0.134 A 
ATOM     85  C   UNL     1       8.318 -15.709  -4.961  1.00  0.00     0.134 A 
ATOM     86  F   UNL     1       4.865 -14.792  -5.616  1.00  0.00    -0.206 F 
ATOM     87  C   UNL     1       5.978 -16.832  -5.945  1.00  0.00     0.040 A 
ATOM     88  C   UNL     1       8.313 -17.035  -5.396  1.00  0.00     0.040 A 
ATOM     89  F   UNL     1       9.471 -15.209  -4.491  1.00  0.00    -0.206 F 
ATOM     90  C   UNL     1       7.138 -17.603  -5.881  1.00  0.00     0.006 A 
ENDBRANCH  66  83
ENDBRANCH  40  41
ENDBRANCH  33  35
ENDBRANCH  32  33
ENDBRANCH  31  32
ENDBRANCH  30  31
ENDBRANCH  29  30
ENDBRANCH  28  29
ENDBRANCH  27  28
ENDBRANCH   1  27
TORSDOF 22
