REMARK SMILES O=C(OCCOCCOCCOCCOC(=O)c1ccc(COc2cccc(C(F)(F)F)c2)nc1)c1ccc(-c2c3nc(c(-c4c(F)cccc4F)c4ccc([nH]4)c(-c4c(F)cccc4F)c4nc(c(-c5c(F)cccc5F)c5ccc2[nH]5)C=C4)C=C3)cc1
REMARK SMILES IDX 10 1 9 2 8 3 7 4 6 5 5 6 4 7 3 8 2 9 1 10 36 11 37 12 89 13
REMARK SMILES IDX 38 14 88 15 39 16 40 17 41 18 82 19 42 20 87 21 81 22 83 23
REMARK SMILES IDX 43 24 86 25 80 26 79 27 44 29 70 30 53 31 69 32 54 33 57 34
REMARK SMILES IDX 68 35 84 36 55 37 56 38 67 40 85 41 58 42 45 43 46 44 51 45
REMARK SMILES IDX 47 46 48 47 50 48 52 49 49 50 71 51 72 52 77 53 73 54 74 55
REMARK SMILES IDX 76 56 78 57 75 58 59 59 60 60 65 61 61 62 62 63 64 64 66 65
REMARK SMILES IDX 63 66 11 67 12 68 13 69 14 70 15 71 16 72 17 73 18 74 19 75
REMARK SMILES IDX 35 76 20 77 34 78 21 79 22 80 23 81 24 82 25 83 33 84 26 85
REMARK SMILES IDX 28 86 27 87 29 88 30 89 31 90 32 91
REMARK H PARENT 83 28 57 39
REMARK Flexibility Score: inf
ROOT
ATOM      1  C   UNL     1       3.934  -3.601  -0.979  1.00  0.00     0.188 C 
ENDROOT
BRANCH   1   2
ATOM      2  O   UNL     1       2.516  -3.674  -0.988  1.00  0.00    -0.377 OA
BRANCH   2   3
ATOM      3  C   UNL     1       1.830  -2.427  -0.942  1.00  0.00     0.188 C 
BRANCH   3   4
ATOM      4  C   UNL     1       2.347  -1.440   0.105  1.00  0.00     0.188 C 
BRANCH   4   5
ATOM      5  O   UNL     1       3.663  -0.970  -0.208  1.00  0.00    -0.376 OA
BRANCH   5   6
ATOM      6  C   UNL     1       4.585  -0.914   0.882  1.00  0.00     0.202 C 
BRANCH   6   7
ATOM      7  C   UNL     1       4.423   0.299   1.794  1.00  0.00     0.261 C 
BRANCH   7   8
ATOM      8  O   UNL     1       3.070   0.757   1.877  1.00  0.00    -0.460 OA
BRANCH   8   9
ATOM      9  C   UNL     1       2.414   1.589   1.034  1.00  0.00     0.338 C 
ATOM     10  O   UNL     1       1.235   1.841   1.283  1.00  0.00    -0.246 OA
BRANCH   9  11
ATOM     11  C   UNL     1       3.011   2.228  -0.185  1.00  0.00     0.060 A 
ATOM     12  C   UNL     1       4.132   1.789  -0.899  1.00  0.00     0.016 A 
ATOM     13  C   UNL     1       2.325   3.351  -0.683  1.00  0.00     0.016 A 
ATOM     14  C   UNL     1       4.582   2.441  -2.039  1.00  0.00     0.010 A 
ATOM     15  C   UNL     1       2.778   4.030  -1.813  1.00  0.00     0.010 A 
ATOM     16  C   UNL     1       3.931   3.588  -2.468  1.00  0.00    -0.014 A 
BRANCH  16  17
ATOM     17  C   UNL     1       4.635   4.465  -3.410  1.00  0.00     0.031 A 
ATOM     18  C   UNL     1       5.386   5.615  -2.819  1.00  0.00     0.074 A 
ATOM     19  C   UNL     1       4.673   4.179  -4.719  1.00  0.00     0.049 A 
ATOM     20  N   UNL     1       5.935   6.641  -3.404  1.00  0.00    -0.248 NA
ATOM     21  C   UNL     1       5.536   5.602  -1.352  1.00  0.00     0.031 C 
ATOM     22  C   UNL     1       4.106   2.982  -5.339  1.00  0.00     0.029 A 
ATOM     23  N   UNL     1       5.212   4.881  -5.760  1.00  0.00    -0.354 N 
ATOM     24  C   UNL     1       6.444   7.421  -2.374  1.00  0.00     0.074 A 
ATOM     25  C   UNL     1       6.154   6.748  -1.131  1.00  0.00     0.031 C 
ATOM     26  C   UNL     1       4.306   3.046  -6.666  1.00  0.00     0.029 A 
ATOM     27  C   UNL     1       4.942   4.321  -6.983  1.00  0.00     0.049 A 
ATOM     28  H   UNL     1       5.740   5.704  -5.645  1.00  0.00     0.167 HD
ATOM     29  C   UNL     1       7.075   8.612  -2.475  1.00  0.00     0.037 A 
ATOM     30  C   UNL     1       5.134   4.831  -8.213  1.00  0.00     0.037 A 
ATOM     31  C   UNL     1       7.329   9.240  -3.741  1.00  0.00     0.049 A 
ATOM     32  C   UNL     1       5.749   6.201  -8.312  1.00  0.00     0.074 A 
ATOM     33  C   UNL     1       7.899  10.468  -4.006  1.00  0.00     0.029 A 
ATOM     34  N   UNL     1       7.011   8.664  -4.967  1.00  0.00    -0.354 N 
ATOM     35  N   UNL     1       6.154   6.993  -7.344  1.00  0.00    -0.248 NA
ATOM     36  C   UNL     1       5.921   6.760  -9.657  1.00  0.00     0.031 C 
ATOM     37  C   UNL     1       7.879  10.656  -5.393  1.00  0.00     0.029 A 
ATOM     38  C   UNL     1       7.355   9.518  -5.995  1.00  0.00     0.049 A 
ATOM     39  H   UNL     1       6.601   7.776  -5.085  1.00  0.00     0.167 HD
ATOM     40  C   UNL     1       6.652   8.132  -7.959  1.00  0.00     0.074 A 
ATOM     41  C   UNL     1       6.495   7.926  -9.388  1.00  0.00     0.031 C 
ATOM     42  C   UNL     1       7.192   9.246  -7.404  1.00  0.00     0.037 A 
BRANCH  29  43
ATOM     43  C   UNL     1       7.403   9.314  -1.190  1.00  0.00     0.057 A 
ATOM     44  C   UNL     1       8.367   8.836  -0.291  1.00  0.00     0.134 A 
ATOM     45  C   UNL     1       6.665  10.440  -0.799  1.00  0.00     0.134 A 
ATOM     46  F   UNL     1       9.085   7.740  -0.584  1.00  0.00    -0.206 F 
ATOM     47  C   UNL     1       8.550   9.420   0.965  1.00  0.00     0.040 A 
ATOM     48  C   UNL     1       6.860  11.050   0.441  1.00  0.00     0.040 A 
ATOM     49  F   UNL     1       5.719  10.947  -1.603  1.00  0.00    -0.206 F 
ATOM     50  C   UNL     1       7.794  10.530   1.334  1.00  0.00     0.006 A 
ENDBRANCH  29  43
BRANCH  30  51
ATOM     51  C   UNL     1       4.679   4.072  -9.405  1.00  0.00     0.057 A 
ATOM     52  C   UNL     1       5.588   3.520 -10.313  1.00  0.00     0.134 A 
ATOM     53  C   UNL     1       3.317   3.833  -9.637  1.00  0.00     0.134 A 
ATOM     54  F   UNL     1       6.904   3.723 -10.159  1.00  0.00    -0.206 F 
ATOM     55  C   UNL     1       5.161   2.756 -11.403  1.00  0.00     0.040 A 
ATOM     56  C   UNL     1       2.877   3.052 -10.707  1.00  0.00     0.040 A 
ATOM     57  F   UNL     1       2.391   4.329  -8.803  1.00  0.00    -0.206 F 
ATOM     58  C   UNL     1       3.803   2.512 -11.597  1.00  0.00     0.006 A 
ENDBRANCH  30  51
BRANCH  42  59
ATOM     59  C   UNL     1       7.705  10.295  -8.341  1.00  0.00     0.057 A 
ATOM     60  C   UNL     1       6.845  11.168  -9.016  1.00  0.00     0.134 A 
ATOM     61  C   UNL     1       9.084  10.496  -8.477  1.00  0.00     0.134 A 
ATOM     62  F   UNL     1       5.515  11.016  -8.930  1.00  0.00    -0.206 F 
ATOM     63  C   UNL     1       7.343  12.209  -9.799  1.00  0.00     0.040 A 
ATOM     64  C   UNL     1       9.592  11.549  -9.235  1.00  0.00     0.040 A 
ATOM     65  F   UNL     1       9.955   9.697  -7.842  1.00  0.00    -0.206 F 
ATOM     66  C   UNL     1       8.720  12.409  -9.899  1.00  0.00     0.006 A 
ENDBRANCH  42  59
ENDBRANCH  16  17
ENDBRANCH   9  11
ENDBRANCH   8   9
ENDBRANCH   7   8
ENDBRANCH   6   7
ENDBRANCH   5   6
ENDBRANCH   4   5
ENDBRANCH   3   4
ENDBRANCH   2   3
ENDBRANCH   1   2
BRANCH   1  67
ATOM     67  C   UNL     1       4.644  -2.837  -2.123  1.00  0.00     0.188 C 
BRANCH  67  68
ATOM     68  O   UNL     1       3.769  -2.155  -3.008  1.00  0.00    -0.376 OA
BRANCH  68  69
ATOM     69  C   UNL     1       3.610  -2.748  -4.293  1.00  0.00     0.202 C 
BRANCH  69  70
ATOM     70  C   UNL     1       2.860  -4.093  -4.348  1.00  0.00     0.261 C 
BRANCH  70  71
ATOM     71  O   UNL     1       3.344  -5.131  -3.477  1.00  0.00    -0.460 OA
BRANCH  71  72
ATOM     72  C   UNL     1       4.581  -5.610  -3.718  1.00  0.00     0.339 C 
ATOM     73  O   UNL     1       5.312  -5.308  -4.646  1.00  0.00    -0.246 OA
BRANCH  72  74
ATOM     74  C   UNL     1       5.028  -6.340  -2.519  1.00  0.00     0.078 A 
ATOM     75  C   UNL     1       4.324  -7.394  -1.941  1.00  0.00     0.019 A 
ATOM     76  C   UNL     1       6.184  -5.898  -1.886  1.00  0.00     0.127 A 
ATOM     77  C   UNL     1       4.890  -8.062  -0.850  1.00  0.00     0.028 A 
ATOM     78  N   UNL     1       6.701  -6.469  -0.773  1.00  0.00    -0.257 NA
ATOM     79  C   UNL     1       6.120  -7.622  -0.350  1.00  0.00     0.078 A 
BRANCH  79  80
ATOM     80  C   UNL     1       6.993  -8.566   0.461  1.00  0.00     0.285 C 
BRANCH  80  81
ATOM     81  O   UNL     1       8.370  -8.681   0.015  1.00  0.00    -0.487 OA
BRANCH  81  82
ATOM     82  C   UNL     1       8.601  -9.237  -1.217  1.00  0.00     0.120 A 
ATOM     83  C   UNL     1       9.556 -10.238  -1.315  1.00  0.00     0.046 A 
ATOM     84  C   UNL     1       8.062  -8.744  -2.401  1.00  0.00     0.059 A 
ATOM     85  C   UNL     1       9.907 -10.758  -2.570  1.00  0.00     0.004 A 
ATOM     86  C   UNL     1       8.365  -9.259  -3.666  1.00  0.00     0.059 A 
ATOM     87  C   UNL     1       9.308 -10.278  -3.741  1.00  0.00     0.013 A 
BRANCH  86  88
ATOM     88  C   UNL     1       7.706  -8.663  -4.886  1.00  0.00     0.416 C 
ATOM     89  F   UNL     1       8.523  -7.814  -5.566  1.00  0.00    -0.166 F 
ATOM     90  F   UNL     1       7.303  -9.606  -5.782  1.00  0.00    -0.166 F 
ATOM     91  F   UNL     1       6.584  -7.947  -4.589  1.00  0.00    -0.166 F 
ENDBRANCH  86  88
ENDBRANCH  81  82
ENDBRANCH  80  81
ENDBRANCH  79  80
ENDBRANCH  72  74
ENDBRANCH  71  72
ENDBRANCH  70  71
ENDBRANCH  69  70
ENDBRANCH  68  69
ENDBRANCH  67  68
ENDBRANCH   1  67
TORSDOF 24
