REMARK SMILES Cc1nccn1C1(C(=O)OCCOCCOCCOCCOC(=O)c2ccc(-c3c4nc(c(-c5c(F)cccc5F)c5ccc([nH]5)c(-c5c(F)cccc5F)c5nc(c(-c6c(F)cccc6F)c6ccc3[nH]6)C=C5)C=C4)cc2)CCN(C(=O)[C@@H]2C[C@H]2c2ccccc2)CC1
REMARK SMILES IDX 16 1 15 2 14 3 13 4 12 5 11 6 10 7 8 8 9 9 7 10 79 11 94 12
REMARK SMILES IDX 80 13 93 14 81 15 82 16 83 17 6 18 1 19 2 20 3 21 4 22 5 23
REMARK SMILES IDX 84 24 85 25 86 26 87 27 88 28 92 29 89 30 91 31 90 32 17 33
REMARK SMILES IDX 18 34 19 35 20 36 21 37 22 38 23 39 24 40 25 41 26 42 78 43
REMARK SMILES IDX 27 44 77 45 28 46 29 47 30 48 71 49 31 50 76 51 70 52 72 53
REMARK SMILES IDX 32 54 75 55 69 56 68 57 33 59 59 60 42 61 58 62 43 63 46 64
REMARK SMILES IDX 57 65 73 66 44 67 45 68 56 70 74 71 47 72 34 73 35 74 40 75
REMARK SMILES IDX 36 76 37 77 39 78 41 79 38 80 60 81 61 82 66 83 62 84 63 85
REMARK SMILES IDX 65 86 67 87 64 88 48 89 49 90 54 91 50 92 51 93 53 94 55 95
REMARK SMILES IDX 52 96
REMARK H PARENT 72 58 46 69
REMARK Flexibility Score: inf
ROOT
ATOM      1  O   UNL     1      -2.133   5.176   2.790  1.00  0.00    -0.377 OA
ENDROOT
BRANCH   1   2
ATOM      2  C   UNL     1      -2.297   3.773   2.802  1.00  0.00     0.188 C 
BRANCH   2   3
ATOM      3  C   UNL     1      -1.771   3.059   4.061  1.00  0.00     0.188 C 
BRANCH   3   4
ATOM      4  O   UNL     1      -1.228   3.788   5.154  1.00  0.00    -0.376 OA
BRANCH   4   5
ATOM      5  C   UNL     1      -0.467   4.960   4.915  1.00  0.00     0.202 C 
BRANCH   5   6
ATOM      6  C   UNL     1       0.682   4.934   3.888  1.00  0.00     0.261 C 
BRANCH   6   7
ATOM      7  O   UNL     1       0.555   3.989   2.804  1.00  0.00    -0.461 OA
BRANCH   7   8
ATOM      8  C   UNL     1       1.323   2.869   2.869  1.00  0.00     0.332 C 
ATOM      9  O   UNL     1       2.142   2.682   3.767  1.00  0.00    -0.249 OA
BRANCH   8  10
ATOM     10  C   UNL     1       1.139   1.864   1.658  1.00  0.00     0.146 C 
ATOM     11  C   UNL     1       0.030   2.320   0.655  1.00  0.00     0.062 C 
ATOM     12  C   UNL     1       2.542   2.011   1.017  1.00  0.00     0.062 C 
ATOM     13  C   UNL     1       0.254   2.057  -0.833  1.00  0.00     0.122 C 
ATOM     14  C   UNL     1       2.614   1.576  -0.425  1.00  0.00     0.122 C 
ATOM     15  N   UNL     1       1.634   2.291  -1.213  1.00  0.00    -0.342 N 
ATOM     16  C   UNL     1       1.884   2.959  -2.406  1.00  0.00     0.226 C 
ATOM     17  O   UNL     1       1.048   2.999  -3.305  1.00  0.00    -0.275 OA
BRANCH  10  18
ATOM     18  N   UNL     1       0.811   0.501   2.194  1.00  0.00    -0.318 N 
ATOM     19  C   UNL     1       1.096  -1.232   0.257  1.00  0.00     0.087 C 
ATOM     20  C   UNL     1       0.613  -0.731   1.565  1.00  0.00     0.106 A 
ATOM     21  N   UNL     1      -0.042  -1.566   2.351  1.00  0.00    -0.242 NA
ATOM     22  C   UNL     1      -0.145  -0.970   3.556  1.00  0.00     0.131 A 
ATOM     23  C   UNL     1       0.420   0.273   3.506  1.00  0.00     0.108 A 
ENDBRANCH  10  18
BRANCH  16  24
ATOM     24  C   UNL     1       3.095   3.815  -2.568  1.00  0.00     0.087 C 
ATOM     25  C   UNL     1       4.467   3.283  -2.873  1.00  0.00     0.023 C 
ATOM     26  C   UNL     1       4.207   3.970  -1.560  1.00  0.00     0.032 C 
BRANCH  26  27
ATOM     27  C   UNL     1       4.699   5.322  -1.155  1.00  0.00    -0.044 A 
ATOM     28  C   UNL     1       6.074   5.557  -1.016  1.00  0.00     0.004 A 
ATOM     29  C   UNL     1       3.809   6.286  -0.653  1.00  0.00     0.004 A 
ATOM     30  C   UNL     1       6.544   6.682  -0.341  1.00  0.00     0.000 A 
ATOM     31  C   UNL     1       4.275   7.415   0.017  1.00  0.00     0.000 A 
ATOM     32  C   UNL     1       5.644   7.602   0.190  1.00  0.00     0.000 A 
ENDBRANCH  26  27
ENDBRANCH  16  24
ENDBRANCH   8  10
ENDBRANCH   7   8
ENDBRANCH   6   7
ENDBRANCH   5   6
ENDBRANCH   4   5
ENDBRANCH   3   4
ENDBRANCH   2   3
ENDBRANCH   1   2
BRANCH   1  33
ATOM     33  C   UNL     1      -3.301   5.908   3.135  1.00  0.00     0.188 C 
BRANCH  33  34
ATOM     34  C   UNL     1      -4.108   5.434   4.372  1.00  0.00     0.188 C 
BRANCH  34  35
ATOM     35  O   UNL     1      -4.245   4.023   4.507  1.00  0.00    -0.376 OA
BRANCH  35  36
ATOM     36  C   UNL     1      -5.443   3.322   4.212  1.00  0.00     0.202 C 
BRANCH  36  37
ATOM     37  C   UNL     1      -5.855   3.182   2.746  1.00  0.00     0.261 C 
BRANCH  37  38
ATOM     38  O   UNL     1      -5.659   4.361   1.994  1.00  0.00    -0.460 OA
BRANCH  38  39
ATOM     39  C   UNL     1      -6.421   5.394   2.374  1.00  0.00     0.338 C 
ATOM     40  O   UNL     1      -7.170   5.450   3.349  1.00  0.00    -0.246 OA
BRANCH  39  41
ATOM     41  C   UNL     1      -6.320   6.437   1.360  1.00  0.00     0.060 A 
ATOM     42  C   UNL     1      -7.072   7.579   1.619  1.00  0.00     0.016 A 
ATOM     43  C   UNL     1      -5.918   6.056   0.069  1.00  0.00     0.016 A 
ATOM     44  C   UNL     1      -7.747   8.117   0.560  1.00  0.00     0.010 A 
ATOM     45  C   UNL     1      -6.608   6.583  -0.984  1.00  0.00     0.010 A 
ATOM     46  C   UNL     1      -7.596   7.515  -0.695  1.00  0.00    -0.014 A 
BRANCH  46  47
ATOM     47  C   UNL     1      -8.474   7.956  -1.741  1.00  0.00     0.031 A 
ATOM     48  C   UNL     1      -8.070   9.272  -2.255  1.00  0.00     0.074 A 
ATOM     49  C   UNL     1      -9.494   7.210  -2.194  1.00  0.00     0.049 A 
ATOM     50  N   UNL     1      -8.633  10.407  -2.015  1.00  0.00    -0.248 NA
ATOM     51  C   UNL     1      -6.750   9.366  -2.897  1.00  0.00     0.031 C 
ATOM     52  C   UNL     1      -9.797   5.800  -1.939  1.00  0.00     0.029 A 
ATOM     53  N   UNL     1     -10.453   7.575  -3.079  1.00  0.00    -0.354 N 
ATOM     54  C   UNL     1      -7.854  11.338  -2.686  1.00  0.00     0.074 A 
ATOM     55  C   UNL     1      -6.610  10.687  -2.993  1.00  0.00     0.031 C 
ATOM     56  C   UNL     1     -10.726   5.381  -2.833  1.00  0.00     0.029 A 
ATOM     57  C   UNL     1     -11.171   6.519  -3.619  1.00  0.00     0.049 A 
ATOM     58  H   UNL     1     -10.626   8.514  -3.318  1.00  0.00     0.167 HD
ATOM     59  C   UNL     1      -8.421  12.458  -3.204  1.00  0.00     0.037 A 
ATOM     60  C   UNL     1     -11.986   6.616  -4.699  1.00  0.00     0.037 A 
ATOM     61  C   UNL     1      -9.693  12.733  -2.580  1.00  0.00     0.049 A 
ATOM     62  C   UNL     1     -12.321   8.058  -4.869  1.00  0.00     0.074 A 
ATOM     63  C   UNL     1     -10.104  12.969  -1.281  1.00  0.00     0.029 A 
ATOM     64  N   UNL     1     -10.831  12.403  -3.276  1.00  0.00    -0.354 N 
ATOM     65  N   UNL     1     -13.077   8.728  -4.045  1.00  0.00    -0.248 NA
ATOM     66  C   UNL     1     -11.430   8.866  -5.692  1.00  0.00     0.031 C 
ATOM     67  C   UNL     1     -11.365  12.315  -1.163  1.00  0.00     0.029 A 
ATOM     68  C   UNL     1     -11.681  11.767  -2.406  1.00  0.00     0.049 A 
ATOM     69  H   UNL     1     -11.005  12.589  -4.226  1.00  0.00     0.167 HD
ATOM     70  C   UNL     1     -12.472   9.973  -3.936  1.00  0.00     0.074 A 
ATOM     71  C   UNL     1     -11.505  10.024  -5.031  1.00  0.00     0.031 C 
ATOM     72  C   UNL     1     -12.595  10.721  -2.801  1.00  0.00     0.037 A 
BRANCH  59  73
ATOM     73  C   UNL     1      -8.027  13.026  -4.544  1.00  0.00     0.057 A 
ATOM     74  C   UNL     1      -8.604  14.239  -4.953  1.00  0.00     0.134 A 
ATOM     75  C   UNL     1      -7.352  12.313  -5.559  1.00  0.00     0.134 A 
ATOM     76  F   UNL     1      -9.282  15.006  -4.085  1.00  0.00    -0.206 F 
ATOM     77  C   UNL     1      -8.585  14.664  -6.286  1.00  0.00     0.040 A 
ATOM     78  C   UNL     1      -7.280  12.756  -6.880  1.00  0.00     0.040 A 
ATOM     79  F   UNL     1      -6.811  11.105  -5.368  1.00  0.00    -0.206 F 
ATOM     80  C   UNL     1      -7.929  13.917  -7.256  1.00  0.00     0.006 A 
ENDBRANCH  59  73
BRANCH  60  81
ATOM     81  C   UNL     1     -12.203   5.635  -5.788  1.00  0.00     0.057 A 
ATOM     82  C   UNL     1     -13.242   5.816  -6.713  1.00  0.00     0.134 A 
ATOM     83  C   UNL     1     -11.235   4.675  -6.129  1.00  0.00     0.134 A 
ATOM     84  F   UNL     1     -14.196   6.733  -6.495  1.00  0.00    -0.206 F 
ATOM     85  C   UNL     1     -13.292   5.117  -7.926  1.00  0.00     0.040 A 
ATOM     86  C   UNL     1     -11.278   3.963  -7.332  1.00  0.00     0.040 A 
ATOM     87  F   UNL     1     -10.164   4.460  -5.352  1.00  0.00    -0.206 F 
ATOM     88  C   UNL     1     -12.299   4.197  -8.245  1.00  0.00     0.006 A 
ENDBRANCH  60  81
BRANCH  72  89
ATOM     89  C   UNL     1     -13.601  10.277  -1.774  1.00  0.00     0.057 A 
ATOM     90  C   UNL     1     -13.525   9.064  -1.071  1.00  0.00     0.134 A 
ATOM     91  C   UNL     1     -14.597  11.176  -1.378  1.00  0.00     0.134 A 
ATOM     92  F   UNL     1     -12.546   8.183  -1.312  1.00  0.00    -0.206 F 
ATOM     93  C   UNL     1     -14.427   8.746  -0.050  1.00  0.00     0.040 A 
ATOM     94  C   UNL     1     -15.481  10.886  -0.338  1.00  0.00     0.040 A 
ATOM     95  F   UNL     1     -14.694  12.378  -1.968  1.00  0.00    -0.206 F 
ATOM     96  C   UNL     1     -15.405   9.663   0.324  1.00  0.00     0.006 A 
ENDBRANCH  72  89
ENDBRANCH  46  47
ENDBRANCH  39  41
ENDBRANCH  38  39
ENDBRANCH  37  38
ENDBRANCH  36  37
ENDBRANCH  35  36
ENDBRANCH  34  35
ENDBRANCH  33  34
ENDBRANCH   1  33
TORSDOF 23
