REMARK SMILES O=C(OCCOCCOCCOCCOC(=O)[C@H]1[C@@H](c2ccccc2)[C@@H](C(=O)N2CCCCC2)[C@@H]1c1ccccc1)c1ccc(-c2c3nc(c(-c4c(F)cccc4F)c4ccc([nH]4)c(-c4c(F)cccc4F)c4nc(c(-c5c(F)cccc5F)c5ccc2[nH]5)C=C4)C=C3)cc1
REMARK SMILES IDX 8 1 7 2 6 3 5 4 4 5 3 6 2 7 1 8 42 9 43 10 95 11 44 12 94 13
REMARK SMILES IDX 45 14 46 15 47 16 88 17 48 18 93 19 87 20 89 21 49 22 92 23
REMARK SMILES IDX 86 24 85 25 50 27 76 28 59 29 75 30 60 31 63 32 74 33 90 34
REMARK SMILES IDX 61 35 62 36 73 38 91 39 64 40 51 41 52 42 57 43 53 44 54 45
REMARK SMILES IDX 56 46 58 47 55 48 77 49 78 50 83 51 79 52 80 53 82 54 84 55
REMARK SMILES IDX 81 56 65 57 66 58 71 59 67 60 68 61 70 62 72 63 69 64 9 65
REMARK SMILES IDX 10 66 11 67 12 68 13 69 14 70 15 71 16 72 17 73 18 74 19 75
REMARK SMILES IDX 35 76 26 77 20 78 21 79 25 80 22 81 24 82 23 83 36 84 37 85
REMARK SMILES IDX 41 86 38 87 40 88 39 89 27 90 28 91 29 92 30 93 34 94 31 95
REMARK SMILES IDX 33 96 32 97
REMARK H PARENT 89 26 63 37
REMARK Flexibility Score: inf
ROOT
ATOM      1  C   UNL     1       3.116  -1.509   1.891  1.00  0.00     0.188 C 
ENDROOT
BRANCH   1   2
ATOM      2  C   UNL     1       3.247  -0.250   1.052  1.00  0.00     0.188 C 
BRANCH   2   3
ATOM      3  O   UNL     1       4.610  -0.033   0.679  1.00  0.00    -0.376 OA
BRANCH   3   4
ATOM      4  C   UNL     1       4.875   1.229   0.073  1.00  0.00     0.202 C 
BRANCH   4   5
ATOM      5  C   UNL     1       4.466   1.339  -1.403  1.00  0.00     0.261 C 
BRANCH   5   6
ATOM      6  O   UNL     1       3.035   1.218  -1.573  1.00  0.00    -0.460 OA
BRANCH   6   7
ATOM      7  C   UNL     1       2.377   0.290  -2.318  1.00  0.00     0.338 C 
ATOM      8  O   UNL     1       1.224   0.497  -2.679  1.00  0.00    -0.246 OA
BRANCH   7   9
ATOM      9  C   UNL     1       3.006  -1.019  -2.662  1.00  0.00     0.060 A 
ATOM     10  C   UNL     1       3.971  -1.614  -1.858  1.00  0.00     0.016 A 
ATOM     11  C   UNL     1       2.564  -1.728  -3.783  1.00  0.00     0.016 A 
ATOM     12  C   UNL     1       4.562  -2.815  -2.162  1.00  0.00     0.010 A 
ATOM     13  C   UNL     1       3.133  -2.969  -4.100  1.00  0.00     0.010 A 
ATOM     14  C   UNL     1       4.149  -3.498  -3.291  1.00  0.00    -0.014 A 
BRANCH  14  15
ATOM     15  C   UNL     1       4.954  -4.669  -3.652  1.00  0.00     0.031 A 
ATOM     16  C   UNL     1       5.951  -4.504  -4.751  1.00  0.00     0.074 A 
ATOM     17  C   UNL     1       4.941  -5.756  -2.860  1.00  0.00     0.049 A 
ATOM     18  N   UNL     1       6.679  -5.405  -5.345  1.00  0.00    -0.248 NA
ATOM     19  C   UNL     1       6.172  -3.128  -5.237  1.00  0.00     0.031 C 
ATOM     20  C   UNL     1       4.162  -5.895  -1.624  1.00  0.00     0.029 A 
ATOM     21  N   UNL     1       5.632  -6.931  -2.951  1.00  0.00    -0.354 N 
ATOM     22  C   UNL     1       7.385  -4.721  -6.323  1.00  0.00     0.074 A 
ATOM     23  C   UNL     1       7.043  -3.323  -6.215  1.00  0.00     0.031 C 
ATOM     24  C   UNL     1       4.429  -7.088  -1.070  1.00  0.00     0.029 A 
ATOM     25  C   UNL     1       5.307  -7.830  -1.964  1.00  0.00     0.049 A 
ATOM     26  H   UNL     1       6.296  -7.115  -3.653  1.00  0.00     0.167 HD
ATOM     27  C   UNL     1       8.214  -5.246  -7.251  1.00  0.00     0.037 A 
ATOM     28  C   UNL     1       5.631  -9.131  -1.857  1.00  0.00     0.037 A 
ATOM     29  C   UNL     1       8.537  -6.644  -7.293  1.00  0.00     0.049 A 
ATOM     30  C   UNL     1       6.466  -9.721  -2.961  1.00  0.00     0.074 A 
ATOM     31  C   UNL     1       9.287  -7.338  -8.219  1.00  0.00     0.029 A 
ATOM     32  N   UNL     1       8.118  -7.561  -6.336  1.00  0.00    -0.354 N 
ATOM     33  N   UNL     1       7.026  -9.115  -3.984  1.00  0.00    -0.248 NA
ATOM     34  C   UNL     1       6.675 -11.172  -2.930  1.00  0.00     0.031 C 
ATOM     35  C   UNL     1       9.290  -8.686  -7.840  1.00  0.00     0.029 A 
ATOM     36  C   UNL     1       8.572  -8.823  -6.659  1.00  0.00     0.049 A 
ATOM     37  H   UNL     1       7.576  -7.342  -5.543  1.00  0.00     0.167 HD
ATOM     38  C   UNL     1       7.643 -10.110  -4.726  1.00  0.00     0.074 A 
ATOM     39  C   UNL     1       7.420 -11.354  -4.012  1.00  0.00     0.031 C 
ATOM     40  C   UNL     1       8.317 -10.020  -5.899  1.00  0.00     0.037 A 
BRANCH  27  41
ATOM     41  C   UNL     1       8.699  -4.326  -8.326  1.00  0.00     0.057 A 
ATOM     42  C   UNL     1       9.706  -3.378  -8.113  1.00  0.00     0.134 A 
ATOM     43  C   UNL     1       8.098  -4.360  -9.591  1.00  0.00     0.134 A 
ATOM     44  F   UNL     1      10.292  -3.266  -6.912  1.00  0.00    -0.206 F 
ATOM     45  C   UNL     1      10.088  -2.485  -9.118  1.00  0.00     0.040 A 
ATOM     46  C   UNL     1       8.482  -3.484 -10.607  1.00  0.00     0.040 A 
ATOM     47  F   UNL     1       7.112  -5.231  -9.852  1.00  0.00    -0.206 F 
ATOM     48  C   UNL     1       9.477  -2.539 -10.370  1.00  0.00     0.006 A 
ENDBRANCH  27  41
BRANCH  28  49
ATOM     49  C   UNL     1       5.063  -9.970  -0.769  1.00  0.00     0.057 A 
ATOM     50  C   UNL     1       5.880 -10.603   0.174  1.00  0.00     0.134 A 
ATOM     51  C   UNL     1       3.681 -10.187  -0.663  1.00  0.00     0.134 A 
ATOM     52  F   UNL     1       7.212 -10.460   0.119  1.00  0.00    -0.206 F 
ATOM     53  C   UNL     1       5.348 -11.430   1.168  1.00  0.00     0.040 A 
ATOM     54  C   UNL     1       3.133 -10.985   0.343  1.00  0.00     0.040 A 
ATOM     55  F   UNL     1       2.836  -9.620  -1.537  1.00  0.00    -0.206 F 
ATOM     56  C   UNL     1       3.969 -11.617   1.257  1.00  0.00     0.006 A 
ENDBRANCH  28  49
BRANCH  40  57
ATOM     57  C   UNL     1       8.848 -11.299  -6.459  1.00  0.00     0.057 A 
ATOM     58  C   UNL     1       8.008 -12.211  -7.109  1.00  0.00     0.134 A 
ATOM     59  C   UNL     1      10.215 -11.588  -6.399  1.00  0.00     0.134 A 
ATOM     60  F   UNL     1       6.687 -11.988  -7.181  1.00  0.00    -0.206 F 
ATOM     61  C   UNL     1       8.514 -13.380  -7.675  1.00  0.00     0.040 A 
ATOM     62  C   UNL     1      10.735 -12.742  -6.981  1.00  0.00     0.040 A 
ATOM     63  F   UNL     1      11.064 -10.744  -5.794  1.00  0.00    -0.206 F 
ATOM     64  C   UNL     1       9.882 -13.642  -7.619  1.00  0.00     0.006 A 
ENDBRANCH  40  57
ENDBRANCH  14  15
ENDBRANCH   7   9
ENDBRANCH   6   7
ENDBRANCH   5   6
ENDBRANCH   4   5
ENDBRANCH   3   4
ENDBRANCH   2   3
ENDBRANCH   1   2
BRANCH   1  65
ATOM     65  O   UNL     1       3.947  -1.435   3.042  1.00  0.00    -0.377 OA
BRANCH  65  66
ATOM     66  C   UNL     1       5.255  -1.963   2.894  1.00  0.00     0.188 C 
BRANCH  66  67
ATOM     67  C   UNL     1       5.293  -3.472   2.642  1.00  0.00     0.188 C 
BRANCH  67  68
ATOM     68  O   UNL     1       4.031  -4.128   2.794  1.00  0.00    -0.376 OA
BRANCH  68  69
ATOM     69  C   UNL     1       3.752  -4.599   4.109  1.00  0.00     0.202 C 
BRANCH  69  70
ATOM     70  C   UNL     1       2.673  -3.791   4.869  1.00  0.00     0.261 C 
BRANCH  70  71
ATOM     71  O   UNL     1       2.934  -2.416   5.249  1.00  0.00    -0.463 OA
BRANCH  71  72
ATOM     72  C   UNL     1       4.122  -2.151   5.852  1.00  0.00     0.310 C 
ATOM     73  O   UNL     1       4.944  -3.043   6.092  1.00  0.00    -0.252 OA
BRANCH  72  74
ATOM     74  C   UNL     1       4.380  -0.715   6.287  1.00  0.00     0.116 C 
ATOM     75  C   UNL     1       4.317   0.617   5.514  1.00  0.00     0.047 C 
ATOM     76  C   UNL     1       3.537  -0.059   7.430  1.00  0.00     0.047 C 
ATOM     77  C   UNL     1       4.143   1.296   6.942  1.00  0.00     0.095 C 
BRANCH  75  78
ATOM     78  C   UNL     1       3.285   1.142   4.408  1.00  0.00    -0.043 A 
ATOM     79  C   UNL     1       1.971   0.681   4.221  1.00  0.00     0.004 A 
ATOM     80  C   UNL     1       3.667   2.244   3.596  1.00  0.00     0.004 A 
ATOM     81  C   UNL     1       1.073   1.320   3.347  1.00  0.00     0.000 A 
ATOM     82  C   UNL     1       2.786   2.881   2.712  1.00  0.00     0.000 A 
ATOM     83  C   UNL     1       1.477   2.425   2.598  1.00  0.00     0.000 A 
ENDBRANCH  75  78
BRANCH  76  84
ATOM     84  C   UNL     1       3.907  -0.508   8.933  1.00  0.00    -0.043 A 
ATOM     85  C   UNL     1       3.517   0.262  10.044  1.00  0.00     0.004 A 
ATOM     86  C   UNL     1       4.683  -1.653   9.225  1.00  0.00     0.004 A 
ATOM     87  C   UNL     1       3.891  -0.075  11.350  1.00  0.00     0.000 A 
ATOM     88  C   UNL     1       5.067  -1.995  10.524  1.00  0.00     0.000 A 
ATOM     89  C   UNL     1       4.672  -1.201  11.589  1.00  0.00     0.000 A 
ENDBRANCH  76  84
BRANCH  77  90
ATOM     90  C   UNL     1       3.571   2.722   6.968  1.00  0.00     0.226 C 
ATOM     91  O   UNL     1       4.391   3.662   6.962  1.00  0.00    -0.275 OA
ATOM     92  N   UNL     1       2.202   3.037   6.874  1.00  0.00    -0.342 N 
ATOM     93  C   UNL     1       1.905   4.186   6.009  1.00  0.00     0.119 C 
ATOM     94  C   UNL     1       1.111   2.124   7.187  1.00  0.00     0.119 C 
ATOM     95  C   UNL     1       0.544   4.831   6.195  1.00  0.00     0.022 C 
ATOM     96  C   UNL     1      -0.241   2.808   7.382  1.00  0.00     0.022 C 
ATOM     97  C   UNL     1      -0.550   3.779   6.251  1.00  0.00     0.004 C 
ENDBRANCH  77  90
ENDBRANCH  72  74
ENDBRANCH  71  72
ENDBRANCH  70  71
ENDBRANCH  69  70
ENDBRANCH  68  69
ENDBRANCH  67  68
ENDBRANCH  66  67
ENDBRANCH  65  66
ENDBRANCH   1  65
TORSDOF 23
