REMARK SMILES Cc1ccc([C@H]2NC(=O)N(C)C3=C2C(=O)N(c2cccc(C(=O)OCCOCCOCCOCCOC(=O)c4ccc(-c5c6nc(c(-c7c(F)cccc7F)c7ccc([nH]7)c(-c7c(F)cccc7F)c7nc(c(-c8c(F)cccc8F)c8ccc5[nH]8)C=C7)C=C6)cc4)c2)C3)cc1
REMARK SMILES IDX 30 1 29 2 28 3 27 4 26 5 25 6 24 7 22 8 23 9 21 10 17 11
REMARK SMILES IDX 18 12 93 13 19 14 20 15 16 16 6 17 7 18 13 19 8 20 12 22
REMARK SMILES IDX 14 23 9 24 10 25 94 26 15 27 11 28 5 29 1 30 2 31 3 32 96 33
REMARK SMILES IDX 4 34 95 35 31 36 32 37 33 38 34 39 35 40 36 41 37 42 38 43
REMARK SMILES IDX 39 44 40 45 92 46 41 47 91 48 42 49 43 50 44 51 85 52 45 53
REMARK SMILES IDX 90 54 84 55 86 56 46 57 89 58 83 59 82 60 47 62 73 63 56 64
REMARK SMILES IDX 72 65 57 66 60 67 71 68 87 69 58 70 59 71 70 73 88 74 61 75
REMARK SMILES IDX 48 76 49 77 54 78 50 79 51 80 53 81 55 82 52 83 74 84 75 85
REMARK SMILES IDX 80 86 76 87 77 88 79 89 81 90 78 91 62 92 63 93 68 94 64 95
REMARK SMILES IDX 65 96 67 97 69 98 66 99
REMARK H PARENT 7 21 86 61 60 72
REMARK Flexibility Score: inf
ROOT
ATOM      1  O   UNL     1      -5.998   3.336   7.564  1.00  0.00    -0.377 OA
ENDROOT
BRANCH   1   2
ATOM      2  C   UNL     1      -6.155   3.684   6.197  1.00  0.00     0.188 C 
BRANCH   2   3
ATOM      3  C   UNL     1      -6.964   2.755   5.274  1.00  0.00     0.188 C 
BRANCH   3   4
ATOM      4  O   UNL     1      -8.277   2.393   5.668  1.00  0.00    -0.376 OA
BRANCH   4   5
ATOM      5  C   UNL     1      -8.311   1.312   6.590  1.00  0.00     0.202 C 
BRANCH   5   6
ATOM      6  C   UNL     1      -8.232  -0.081   5.996  1.00  0.00     0.261 C 
BRANCH   6   7
ATOM      7  O   UNL     1      -6.894  -0.522   6.242  1.00  0.00    -0.460 OA
BRANCH   7   8
ATOM      8  C   UNL     1      -6.218  -0.925   5.166  1.00  0.00     0.338 C 
ATOM      9  O   UNL     1      -6.685  -1.377   4.134  1.00  0.00    -0.246 OA
BRANCH   8  10
ATOM     10  C   UNL     1      -4.883  -0.306   5.285  1.00  0.00     0.062 A 
ATOM     11  C   UNL     1      -3.325   1.026   4.026  1.00  0.00     0.045 A 
ATOM     12  C   UNL     1      -2.630   1.367   5.178  1.00  0.00     0.026 A 
ATOM     13  C   UNL     1      -4.412   0.164   4.079  1.00  0.00     0.042 A 
ATOM     14  C   UNL     1      -3.084   0.875   6.406  1.00  0.00     0.003 A 
ATOM     15  C   UNL     1      -4.226   0.063   6.461  1.00  0.00     0.016 A 
BRANCH  11  16
ATOM     16  N   UNL     1      -3.015   1.536   2.755  1.00  0.00    -0.303 N 
ATOM     17  C   UNL     1      -3.243  -0.042  -0.611  1.00  0.00     0.152 C 
ATOM     18  N   UNL     1      -3.806   0.738  -1.705  1.00  0.00    -0.327 N 
ATOM     19  C   UNL     1      -3.270   0.807   0.586  1.00  0.00     0.066 C 
ATOM     20  C   UNL     1      -4.650   1.810  -1.589  1.00  0.00     0.322 C 
ATOM     21  H   UNL     1      -3.556   0.467  -2.618  1.00  0.00     0.166 HD
ATOM     22  C   UNL     1      -4.036   1.885   0.740  1.00  0.00     0.053 C 
ATOM     23  C   UNL     1      -2.554   0.585   1.831  1.00  0.00     0.258 C 
ATOM     24  O   UNL     1      -5.192   2.259  -2.595  1.00  0.00    -0.248 OA
ATOM     25  N   UNL     1      -4.796   2.352  -0.310  1.00  0.00    -0.299 N 
ATOM     26  C   UNL     1      -3.989   2.424   2.123  1.00  0.00     0.180 C 
ATOM     27  O   UNL     1      -1.792  -0.352   2.026  1.00  0.00    -0.269 OA
ATOM     28  C   UNL     1      -5.731   3.450  -0.117  1.00  0.00     0.155 C 
BRANCH  17  29
ATOM     29  C   UNL     1      -3.961  -1.389  -0.518  1.00  0.00    -0.021 A 
ATOM     30  C   UNL     1      -5.913  -5.272  -0.479  1.00  0.00     0.044 C 
ATOM     31  C   UNL     1      -5.244  -3.929  -0.481  1.00  0.00    -0.051 A 
ATOM     32  C   UNL     1      -4.313  -3.614  -1.475  1.00  0.00     0.004 A 
ATOM     33  C   UNL     1      -5.539  -2.969   0.488  1.00  0.00     0.004 A 
ATOM     34  C   UNL     1      -3.679  -2.366  -1.489  1.00  0.00     0.006 A 
ATOM     35  C   UNL     1      -4.917  -1.712   0.459  1.00  0.00     0.006 A 
ENDBRANCH  17  29
ENDBRANCH  11  16
ENDBRANCH   8  10
ENDBRANCH   7   8
ENDBRANCH   6   7
ENDBRANCH   5   6
ENDBRANCH   4   5
ENDBRANCH   3   4
ENDBRANCH   2   3
ENDBRANCH   1   2
BRANCH   1  36
ATOM     36  C   UNL     1      -7.005   3.767   8.472  1.00  0.00     0.188 C 
BRANCH  36  37
ATOM     37  C   UNL     1      -7.619   5.139   8.299  1.00  0.00     0.188 C 
BRANCH  37  38
ATOM     38  O   UNL     1      -8.613   5.055   7.282  1.00  0.00    -0.376 OA
BRANCH  38  39
ATOM     39  C   UNL     1      -9.030   6.314   6.766  1.00  0.00     0.202 C 
BRANCH  39  40
ATOM     40  C   UNL     1      -9.575   7.269   7.839  1.00  0.00     0.261 C 
BRANCH  40  41
ATOM     41  O   UNL     1     -10.716   6.660   8.478  1.00  0.00    -0.460 OA
BRANCH  41  42
ATOM     42  C   UNL     1     -10.553   6.301   9.781  1.00  0.00     0.338 C 
ATOM     43  O   UNL     1      -9.997   6.969  10.638  1.00  0.00    -0.246 OA
BRANCH  42  44
ATOM     44  C   UNL     1     -10.844   4.845   9.937  1.00  0.00     0.060 A 
ATOM     45  C   UNL     1     -10.501   4.178  11.127  1.00  0.00     0.016 A 
ATOM     46  C   UNL     1     -11.128   4.102   8.800  1.00  0.00     0.016 A 
ATOM     47  C   UNL     1     -10.260   2.791  11.122  1.00  0.00     0.010 A 
ATOM     48  C   UNL     1     -10.820   2.756   8.789  1.00  0.00     0.010 A 
ATOM     49  C   UNL     1     -10.328   2.085   9.922  1.00  0.00    -0.014 A 
BRANCH  49  50
ATOM     50  C   UNL     1      -9.784   0.723   9.695  1.00  0.00     0.031 A 
ATOM     51  C   UNL     1     -10.604  -0.296   8.959  1.00  0.00     0.074 A 
ATOM     52  C   UNL     1      -8.441   0.529   9.790  1.00  0.00     0.049 A 
ATOM     53  N   UNL     1     -10.216  -1.482   8.632  1.00  0.00    -0.248 NA
ATOM     54  C   UNL     1     -11.944  -0.023   8.463  1.00  0.00     0.031 C 
ATOM     55  C   UNL     1      -7.647  -0.486   9.111  1.00  0.00     0.029 A 
ATOM     56  N   UNL     1      -7.466   1.252  10.460  1.00  0.00    -0.354 N 
ATOM     57  C   UNL     1     -11.010  -1.944   7.595  1.00  0.00     0.074 A 
ATOM     58  C   UNL     1     -12.133  -1.040   7.617  1.00  0.00     0.031 C 
ATOM     59  C   UNL     1      -6.352  -0.404   9.436  1.00  0.00     0.029 A 
ATOM     60  C   UNL     1      -6.282   0.501  10.546  1.00  0.00     0.049 A 
ATOM     61  H   UNL     1      -7.586   2.160  10.822  1.00  0.00     0.167 HD
ATOM     62  C   UNL     1     -10.527  -2.932   6.768  1.00  0.00     0.037 A 
ATOM     63  C   UNL     1      -5.803   0.133  11.767  1.00  0.00     0.037 A 
ATOM     64  C   UNL     1      -9.190  -3.409   7.236  1.00  0.00     0.049 A 
ATOM     65  C   UNL     1      -6.030  -1.371  11.918  1.00  0.00     0.074 A 
ATOM     66  C   UNL     1      -7.933  -3.509   6.657  1.00  0.00     0.029 A 
ATOM     67  N   UNL     1      -8.979  -3.680   8.598  1.00  0.00    -0.354 N 
ATOM     68  N   UNL     1      -7.021  -2.009  11.324  1.00  0.00    -0.248 NA
ATOM     69  C   UNL     1      -5.013  -2.294  12.420  1.00  0.00     0.031 C 
ATOM     70  C   UNL     1      -6.966  -3.693   7.695  1.00  0.00     0.029 A 
ATOM     71  C   UNL     1      -7.632  -3.773   8.913  1.00  0.00     0.049 A 
ATOM     72  H   UNL     1      -9.704  -3.791   9.254  1.00  0.00     0.167 HD
ATOM     73  C   UNL     1      -6.673  -3.325  11.151  1.00  0.00     0.074 A 
ATOM     74  C   UNL     1      -5.453  -3.474  11.938  1.00  0.00     0.031 C 
ATOM     75  C   UNL     1      -7.200  -4.208  10.241  1.00  0.00     0.037 A 
BRANCH  62  76
ATOM     76  C   UNL     1     -11.128  -3.351   5.397  1.00  0.00     0.057 A 
ATOM     77  C   UNL     1     -10.476  -4.286   4.557  1.00  0.00     0.134 A 
ATOM     78  C   UNL     1     -12.325  -2.871   4.821  1.00  0.00     0.134 A 
ATOM     79  F   UNL     1      -9.363  -4.923   4.939  1.00  0.00    -0.206 F 
ATOM     80  C   UNL     1     -10.940  -4.656   3.275  1.00  0.00     0.040 A 
ATOM     81  C   UNL     1     -12.810  -3.244   3.551  1.00  0.00     0.040 A 
ATOM     82  F   UNL     1     -13.138  -2.022   5.442  1.00  0.00    -0.206 F 
ATOM     83  C   UNL     1     -12.113  -4.135   2.763  1.00  0.00     0.006 A 
ENDBRANCH  62  76
BRANCH  63  84
ATOM     84  C   UNL     1      -5.837   1.330  12.673  1.00  0.00     0.057 A 
ATOM     85  C   UNL     1      -4.935   2.360  12.294  1.00  0.00     0.134 A 
ATOM     86  C   UNL     1      -7.032   1.760  13.269  1.00  0.00     0.134 A 
ATOM     87  F   UNL     1      -3.761   2.041  11.725  1.00  0.00    -0.206 F 
ATOM     88  C   UNL     1      -5.301   3.715  12.279  1.00  0.00     0.040 A 
ATOM     89  C   UNL     1      -7.397   3.123  13.274  1.00  0.00     0.040 A 
ATOM     90  F   UNL     1      -7.958   0.870  13.651  1.00  0.00    -0.206 F 
ATOM     91  C   UNL     1      -6.562   4.093  12.719  1.00  0.00     0.006 A 
ENDBRANCH  63  84
BRANCH  75  92
ATOM     92  C   UNL     1      -7.402  -5.668  10.576  1.00  0.00     0.057 A 
ATOM     93  C   UNL     1      -7.410  -6.144  11.893  1.00  0.00     0.134 A 
ATOM     94  C   UNL     1      -7.871  -6.582   9.601  1.00  0.00     0.134 A 
ATOM     95  F   UNL     1      -7.053  -5.369  12.927  1.00  0.00    -0.206 F 
ATOM     96  C   UNL     1      -7.850  -7.429  12.218  1.00  0.00     0.040 A 
ATOM     97  C   UNL     1      -8.367  -7.844   9.922  1.00  0.00     0.040 A 
ATOM     98  F   UNL     1      -7.921  -6.281   8.295  1.00  0.00    -0.206 F 
ATOM     99  C   UNL     1      -8.354  -8.274  11.237  1.00  0.00     0.006 A 
ENDBRANCH  75  92
ENDBRANCH  49  50
ENDBRANCH  42  44
ENDBRANCH  41  42
ENDBRANCH  40  41
ENDBRANCH  39  40
ENDBRANCH  38  39
ENDBRANCH  37  38
ENDBRANCH  36  37
ENDBRANCH   1  36
TORSDOF 22
