REMARK SMILES CC[C@H](c1ccccc1)[C@@H](C)OC(=O)c1ccccc1C(=O)OCCOCCOCCOCCOC(=O)c1ccc(-c2c3nc(c(-c4c(F)cccc4F)c4ccc([nH]4)c(-c4c(F)cccc4F)c4nc(c(-c5c(F)cccc5F)c5ccc2[nH]5)C=C4)C=C3)cc1
REMARK SMILES IDX 27 1 26 2 25 3 24 4 23 5 21 6 22 7 20 8 15 9 16 10 17 11
REMARK SMILES IDX 19 12 18 13 13 14 14 15 12 16 10 17 11 18 3 19 2 20 1 21
REMARK SMILES IDX 4 22 5 23 9 24 6 25 8 26 7 27 28 28 29 29 30 30 31 31 32 32
REMARK SMILES IDX 33 33 34 34 35 35 36 36 37 37 38 38 39 39 91 40 40 41 90 42
REMARK SMILES IDX 41 43 42 44 43 45 84 46 44 47 89 48 83 49 85 50 45 51 88 52
REMARK SMILES IDX 82 53 81 54 46 56 72 57 55 58 71 59 56 60 59 61 70 62 86 63
REMARK SMILES IDX 57 64 58 65 69 67 87 68 60 69 47 70 48 71 53 72 49 73 50 74
REMARK SMILES IDX 52 75 54 76 51 77 73 78 74 79 79 80 75 81 76 82 78 83 80 84
REMARK SMILES IDX 77 85 61 86 62 87 67 88 63 89 64 90 66 91 68 92 65 93
REMARK H PARENT 85 55 59 66
REMARK Flexibility Score: inf
ROOT
ATOM      1  C   UNL     1       1.458   0.229  -9.535  1.00  0.00     0.188 C 
ENDROOT
BRANCH   1   2
ATOM      2  O   UNL     1       0.324   1.074  -9.578  1.00  0.00    -0.376 OA
BRANCH   2   3
ATOM      3  C   UNL     1      -0.831   0.795  -8.805  1.00  0.00     0.202 C 
BRANCH   3   4
ATOM      4  C   UNL     1      -0.791   0.105  -7.434  1.00  0.00     0.261 C 
BRANCH   4   5
ATOM      5  O   UNL     1       0.418  -0.583  -7.134  1.00  0.00    -0.460 OA
BRANCH   5   6
ATOM      6  C   UNL     1       0.414  -1.926  -7.173  1.00  0.00     0.339 C 
ATOM      7  O   UNL     1      -0.511  -2.646  -7.514  1.00  0.00    -0.246 OA
BRANCH   6   8
ATOM      8  C   UNL     1       1.795  -2.411  -6.962  1.00  0.00     0.074 A 
ATOM      9  C   UNL     1       2.642  -2.020  -5.914  1.00  0.00     0.074 A 
ATOM     10  C   UNL     1       3.943  -2.567  -5.858  1.00  0.00     0.016 A 
ATOM     11  C   UNL     1       4.411  -3.433  -6.848  1.00  0.00     0.001 A 
ATOM     12  C   UNL     1       2.284  -3.275  -7.964  1.00  0.00     0.016 A 
ATOM     13  C   UNL     1       3.588  -3.768  -7.915  1.00  0.00     0.001 A 
BRANCH   9  14
ATOM     14  C   UNL     1       2.339  -1.011  -4.866  1.00  0.00     0.339 C 
ATOM     15  O   UNL     1       3.235  -0.474  -4.229  1.00  0.00    -0.246 OA
BRANCH  14  16
ATOM     16  O   UNL     1       1.014  -0.837  -4.668  1.00  0.00    -0.458 OA
BRANCH  16  17
ATOM     17  C   UNL     1       0.563   0.119  -3.664  1.00  0.00     0.181 C 
ATOM     18  C   UNL     1       1.018   1.541  -4.022  1.00  0.00     0.053 C 
BRANCH  17  19
ATOM     19  C   UNL     1       0.949  -0.363  -2.239  1.00  0.00     0.060 C 
BRANCH  19  20
ATOM     20  C   UNL     1       0.529  -1.848  -2.005  1.00  0.00     0.009 C 
ATOM     21  C   UNL     1      -0.619  -2.149  -1.055  1.00  0.00     0.005 C 
ENDBRANCH  19  20
BRANCH  19  22
ATOM     22  C   UNL     1       0.599   0.625  -1.140  1.00  0.00    -0.041 A 
ATOM     23  C   UNL     1       1.637   1.268  -0.446  1.00  0.00     0.004 A 
ATOM     24  C   UNL     1      -0.723   0.943  -0.802  1.00  0.00     0.004 A 
ATOM     25  C   UNL     1       1.363   2.149   0.599  1.00  0.00     0.000 A 
ATOM     26  C   UNL     1      -0.997   1.797   0.267  1.00  0.00     0.000 A 
ATOM     27  C   UNL     1       0.046   2.393   0.971  1.00  0.00     0.000 A 
ENDBRANCH  19  22
ENDBRANCH  17  19
ENDBRANCH  16  17
ENDBRANCH  14  16
ENDBRANCH   9  14
ENDBRANCH   6   8
ENDBRANCH   5   6
ENDBRANCH   4   5
ENDBRANCH   3   4
ENDBRANCH   2   3
ENDBRANCH   1   2
BRANCH   1  28
ATOM     28  C   UNL     1       2.556   0.696  -8.555  1.00  0.00     0.188 C 
BRANCH  28  29
ATOM     29  O   UNL     1       2.139   1.561  -7.512  1.00  0.00    -0.377 OA
BRANCH  29  30
ATOM     30  C   UNL     1       1.736   2.894  -7.817  1.00  0.00     0.188 C 
BRANCH  30  31
ATOM     31  C   UNL     1       1.721   3.464  -9.255  1.00  0.00     0.188 C 
BRANCH  31  32
ATOM     32  O   UNL     1       2.599   2.825 -10.168  1.00  0.00    -0.376 OA
BRANCH  32  33
ATOM     33  C   UNL     1       3.776   3.515 -10.551  1.00  0.00     0.202 C 
BRANCH  33  34
ATOM     34  C   UNL     1       4.827   3.710  -9.450  1.00  0.00     0.261 C 
BRANCH  34  35
ATOM     35  O   UNL     1       4.378   4.428  -8.290  1.00  0.00    -0.460 OA
BRANCH  35  36
ATOM     36  C   UNL     1       4.014   5.714  -8.483  1.00  0.00     0.338 C 
ATOM     37  O   UNL     1       4.047   6.343  -9.525  1.00  0.00    -0.246 OA
BRANCH  36  38
ATOM     38  C   UNL     1       3.390   6.206  -7.240  1.00  0.00     0.060 A 
ATOM     39  C   UNL     1       2.074   6.678  -7.294  1.00  0.00     0.016 A 
ATOM     40  C   UNL     1       4.107   6.232  -6.041  1.00  0.00     0.016 A 
ATOM     41  C   UNL     1       1.490   7.233  -6.158  1.00  0.00     0.010 A 
ATOM     42  C   UNL     1       3.525   6.802  -4.906  1.00  0.00     0.010 A 
ATOM     43  C   UNL     1       2.231   7.347  -4.973  1.00  0.00    -0.014 A 
BRANCH  43  44
ATOM     44  C   UNL     1       1.707   8.209  -3.885  1.00  0.00     0.031 A 
ATOM     45  C   UNL     1       2.217   9.622  -3.777  1.00  0.00     0.074 A 
ATOM     46  C   UNL     1       0.744   7.771  -3.056  1.00  0.00     0.049 A 
ATOM     47  N   UNL     1       1.857  10.576  -2.956  1.00  0.00    -0.248 NA
ATOM     48  C   UNL     1       3.276  10.012  -4.723  1.00  0.00     0.031 C 
ATOM     49  C   UNL     1       0.158   6.431  -3.068  1.00  0.00     0.029 A 
ATOM     50  N   UNL     1       0.084   8.419  -2.043  1.00  0.00    -0.354 N 
ATOM     51  C   UNL     1       2.645  11.673  -3.283  1.00  0.00     0.074 A 
ATOM     52  C   UNL     1       3.526  11.259  -4.353  1.00  0.00     0.031 C 
ATOM     53  C   UNL     1      -0.779   6.357  -2.106  1.00  0.00     0.029 A 
ATOM     54  C   UNL     1      -0.846   7.637  -1.403  1.00  0.00     0.049 A 
ATOM     55  H   UNL     1       0.260   9.356  -1.797  1.00  0.00     0.167 HD
ATOM     56  C   UNL     1       2.630  12.917  -2.749  1.00  0.00     0.037 A 
ATOM     57  C   UNL     1      -1.654   7.926  -0.364  1.00  0.00     0.037 A 
ATOM     58  C   UNL     1       1.751  13.330  -1.685  1.00  0.00     0.049 A 
ATOM     59  C   UNL     1      -1.624   9.307   0.236  1.00  0.00     0.074 A 
ATOM     60  C   UNL     1       1.637  14.578  -1.097  1.00  0.00     0.029 A 
ATOM     61  N   UNL     1       0.843  12.501  -1.044  1.00  0.00    -0.354 N 
ATOM     62  N   UNL     1      -0.907  10.349  -0.110  1.00  0.00    -0.248 NA
ATOM     63  C   UNL     1      -2.529   9.552   1.368  1.00  0.00     0.031 C 
ATOM     64  C   UNL     1       0.703  14.488  -0.059  1.00  0.00     0.029 A 
ATOM     65  C   UNL     1       0.186  13.203  -0.046  1.00  0.00     0.049 A 
ATOM     66  H   UNL     1       0.689  11.554  -1.265  1.00  0.00     0.167 HD
ATOM     67  C   UNL     1      -1.293  11.377   0.742  1.00  0.00     0.074 A 
ATOM     68  C   UNL     1      -2.325  10.839   1.603  1.00  0.00     0.031 C 
ATOM     69  C   UNL     1      -0.835  12.652   0.809  1.00  0.00     0.037 A 
BRANCH  56  70
ATOM     70  C   UNL     1       3.613  13.917  -3.287  1.00  0.00     0.057 A 
ATOM     71  C   UNL     1       3.489  14.470  -4.568  1.00  0.00     0.134 A 
ATOM     72  C   UNL     1       4.678  14.362  -2.493  1.00  0.00     0.134 A 
ATOM     73  F   UNL     1       2.502  14.076  -5.387  1.00  0.00    -0.206 F 
ATOM     74  C   UNL     1       4.400  15.414  -5.048  1.00  0.00     0.040 A 
ATOM     75  C   UNL     1       5.578  15.326  -2.950  1.00  0.00     0.040 A 
ATOM     76  F   UNL     1       4.854  13.877  -1.255  1.00  0.00    -0.206 F 
ATOM     77  C   UNL     1       5.443  15.851  -4.233  1.00  0.00     0.006 A 
ENDBRANCH  56  70
BRANCH  57  78
ATOM     78  C   UNL     1      -2.558   6.889   0.195  1.00  0.00     0.057 A 
ATOM     79  C   UNL     1      -3.949   6.990   0.075  1.00  0.00     0.134 A 
ATOM     80  C   UNL     1      -2.051   5.804   0.917  1.00  0.00     0.134 A 
ATOM     81  F   UNL     1      -4.498   8.029  -0.571  1.00  0.00    -0.206 F 
ATOM     82  C   UNL     1      -4.805   6.060   0.670  1.00  0.00     0.040 A 
ATOM     83  C   UNL     1      -2.895   4.857   1.501  1.00  0.00     0.040 A 
ATOM     84  F   UNL     1      -0.728   5.655   1.078  1.00  0.00    -0.206 F 
ATOM     85  C   UNL     1      -4.276   4.985   1.381  1.00  0.00     0.006 A 
ENDBRANCH  57  78
BRANCH  69  86
ATOM     86  C   UNL     1      -1.475  13.556   1.827  1.00  0.00     0.057 A 
ATOM     87  C   UNL     1      -1.294  13.373   3.204  1.00  0.00     0.134 A 
ATOM     88  C   UNL     1      -2.287  14.623   1.421  1.00  0.00     0.134 A 
ATOM     89  F   UNL     1      -0.536  12.364   3.663  1.00  0.00    -0.206 F 
ATOM     90  C   UNL     1      -1.935  14.187   4.140  1.00  0.00     0.040 A 
ATOM     91  C   UNL     1      -2.905  15.465   2.346  1.00  0.00     0.040 A 
ATOM     92  F   UNL     1      -2.493  14.867   0.118  1.00  0.00    -0.206 F 
ATOM     93  C   UNL     1      -2.741  15.239   3.711  1.00  0.00     0.006 A 
ENDBRANCH  69  86
ENDBRANCH  43  44
ENDBRANCH  36  38
ENDBRANCH  35  36
ENDBRANCH  34  35
ENDBRANCH  33  34
ENDBRANCH  32  33
ENDBRANCH  31  32
ENDBRANCH  30  31
ENDBRANCH  29  30
ENDBRANCH  28  29
ENDBRANCH   1  28
TORSDOF 26
