REMARK SMILES O=C(NC1(C(=O)OCCOCCOCCOCCOC(=O)c2ccc(-c3c4nc(c(-c5c(F)cccc5F)c5ccc([nH]5)c(-c5c(F)cccc5F)c5nc(c(-c6c(F)cccc6F)c6ccc3[nH]6)C=C5)C=C4)cc2)CC[NH2+]CC1)OCC1c2ccccc2-c2ccccc21
REMARK SMILES IDX 12 1 11 2 10 3 9 4 8 5 7 6 5 7 6 8 4 9 76 10 80 11 77 12
REMARK SMILES IDX 79 13 78 14 3 17 1 18 2 19 81 21 82 22 83 23 84 24 95 25
REMARK SMILES IDX 85 26 89 27 90 28 94 29 86 30 88 31 91 32 93 33 87 34 92 35
REMARK SMILES IDX 13 36 14 37 15 38 16 39 17 40 18 41 19 42 20 43 21 44 22 45
REMARK SMILES IDX 23 46 75 47 24 48 74 49 25 50 26 51 27 52 68 53 28 54 73 55
REMARK SMILES IDX 67 56 69 57 29 58 72 59 66 60 65 61 30 63 56 64 39 65 55 66
REMARK SMILES IDX 40 67 43 68 54 69 70 70 41 71 42 72 53 74 71 75 44 76 31 77
REMARK SMILES IDX 32 78 37 79 33 80 34 81 36 82 38 83 35 84 57 85 58 86 63 87
REMARK SMILES IDX 59 88 60 89 62 90 64 91 61 92 45 93 46 94 51 95 47 96 48 97
REMARK SMILES IDX 50 98 52 99 49 100
REMARK H PARENT 78 15 78 16 3 20 69 62 43 73
REMARK Flexibility Score: inf
ROOT
ATOM      1  C   UNL     1       4.381   0.722   2.930  1.00  0.00     0.188 C 
ENDROOT
BRANCH   1   2
ATOM      2  C   UNL     1       3.609  -0.604   2.743  1.00  0.00     0.188 C 
BRANCH   2   3
ATOM      3  O   UNL     1       4.413  -1.767   2.719  1.00  0.00    -0.376 OA
BRANCH   3   4
ATOM      4  C   UNL     1       5.055  -2.061   1.495  1.00  0.00     0.202 C 
BRANCH   4   5
ATOM      5  C   UNL     1       5.485  -0.887   0.614  1.00  0.00     0.261 C 
BRANCH   5   6
ATOM      6  O   UNL     1       4.426   0.046   0.186  1.00  0.00    -0.461 OA
BRANCH   6   7
ATOM      7  C   UNL     1       4.270   0.550  -1.073  1.00  0.00     0.332 C 
ATOM      8  O   UNL     1       4.783   0.151  -2.105  1.00  0.00    -0.249 OA
BRANCH   7   9
ATOM      9  C   UNL     1       3.167   1.468  -1.381  1.00  0.00     0.151 C 
ATOM     10  C   UNL     1       3.199   2.595  -0.336  1.00  0.00     0.102 C 
ATOM     11  C   UNL     1       3.411   1.985  -2.859  1.00  0.00     0.102 C 
ATOM     12  C   UNL     1       2.864   3.983  -0.881  1.00  0.00     0.263 C 
ATOM     13  C   UNL     1       3.130   3.439  -3.174  1.00  0.00     0.263 C 
ATOM     14  N   UNL     1       3.590   4.306  -2.102  1.00  0.00    -0.346 N 
ATOM     15  H   UNL     1       4.589   4.163  -1.952  1.00  0.00     0.346 HD
ATOM     16  H   UNL     1       3.422   5.280  -2.353  1.00  0.00     0.346 HD
BRANCH   9  17
ATOM     17  N   UNL     1       2.192   0.352  -1.282  1.00  0.00    -0.305 N 
ATOM     18  O   UNL     1       1.283  -1.680  -1.416  1.00  0.00    -0.225 OA
ATOM     19  C   UNL     1       2.335  -1.042  -1.536  1.00  0.00     0.408 C 
ATOM     20  H   UNL     1       1.292   0.623  -0.990  1.00  0.00     0.168 HD
BRANCH  19  21
ATOM     21  O   UNL     1       3.513  -1.739  -1.795  1.00  0.00    -0.449 OA
BRANCH  21  22
ATOM     22  C   UNL     1       5.109  -2.112  -2.033  1.00  0.00     0.248 C 
BRANCH  22  23
ATOM     23  C   UNL     1       6.552  -1.112  -2.310  1.00  0.00     0.088 C 
ATOM     24  C   UNL     1       7.935  -1.770  -2.153  1.00  0.00    -0.029 A 
ATOM     25  C   UNL     1       7.081   0.401  -1.903  1.00  0.00    -0.029 A 
ATOM     26  C   UNL     1       8.243  -2.970  -1.533  1.00  0.00     0.005 A 
ATOM     27  C   UNL     1       8.934  -0.758  -2.346  1.00  0.00    -0.014 A 
ATOM     28  C   UNL     1       8.315   0.549  -2.503  1.00  0.00    -0.014 A 
ATOM     29  C   UNL     1       6.794   1.438  -0.999  1.00  0.00     0.005 A 
ATOM     30  C   UNL     1       9.531  -3.114  -1.006  1.00  0.00     0.000 A 
ATOM     31  C   UNL     1      10.204  -0.917  -1.808  1.00  0.00     0.009 A 
ATOM     32  C   UNL     1       8.880   1.810  -2.708  1.00  0.00     0.009 A 
ATOM     33  C   UNL     1       7.337   2.715  -1.135  1.00  0.00     0.000 A 
ATOM     34  C   UNL     1      10.487  -2.089  -1.114  1.00  0.00     0.001 A 
ATOM     35  C   UNL     1       8.313   2.925  -2.087  1.00  0.00     0.001 A 
ENDBRANCH  22  23
ENDBRANCH  21  22
ENDBRANCH  19  21
ENDBRANCH   9  17
ENDBRANCH   7   9
ENDBRANCH   6   7
ENDBRANCH   5   6
ENDBRANCH   4   5
ENDBRANCH   3   4
ENDBRANCH   2   3
ENDBRANCH   1   2
BRANCH   1  36
ATOM     36  O   UNL     1       5.801   0.747   2.880  1.00  0.00    -0.377 OA
BRANCH  36  37
ATOM     37  C   UNL     1       6.617  -0.068   3.716  1.00  0.00     0.188 C 
BRANCH  37  38
ATOM     38  C   UNL     1       6.020  -0.877   4.876  1.00  0.00     0.188 C 
BRANCH  38  39
ATOM     39  O   UNL     1       4.752  -0.428   5.301  1.00  0.00    -0.376 OA
BRANCH  39  40
ATOM     40  C   UNL     1       4.652   0.552   6.316  1.00  0.00     0.202 C 
BRANCH  40  41
ATOM     41  C   UNL     1       5.426   1.877   6.195  1.00  0.00     0.261 C 
BRANCH  41  42
ATOM     42  O   UNL     1       6.840   1.813   5.961  1.00  0.00    -0.460 OA
BRANCH  42  43
ATOM     43  C   UNL     1       7.606   1.099   6.817  1.00  0.00     0.338 C 
ATOM     44  O   UNL     1       7.253   0.529   7.820  1.00  0.00    -0.246 OA
BRANCH  43  45
ATOM     45  C   UNL     1       8.945   0.962   6.186  1.00  0.00     0.060 A 
ATOM     46  C   UNL     1       9.469  -0.322   5.976  1.00  0.00     0.016 A 
ATOM     47  C   UNL     1       9.665   2.092   5.792  1.00  0.00     0.016 A 
ATOM     48  C   UNL     1      10.744  -0.476   5.431  1.00  0.00     0.010 A 
ATOM     49  C   UNL     1      10.954   1.939   5.275  1.00  0.00     0.010 A 
ATOM     50  C   UNL     1      11.516   0.656   5.145  1.00  0.00    -0.014 A 
BRANCH  50  51
ATOM     51  C   UNL     1      12.986   0.516   5.018  1.00  0.00     0.031 A 
ATOM     52  C   UNL     1      13.808   0.727   6.263  1.00  0.00     0.074 A 
ATOM     53  C   UNL     1      13.582   0.194   3.858  1.00  0.00     0.049 A 
ATOM     54  N   UNL     1      15.106   0.748   6.415  1.00  0.00    -0.248 NA
ATOM     55  C   UNL     1      13.053   0.951   7.508  1.00  0.00     0.031 C 
ATOM     56  C   UNL     1      12.896  -0.093   2.601  1.00  0.00     0.029 A 
ATOM     57  N   UNL     1      14.915   0.068   3.554  1.00  0.00    -0.354 N 
ATOM     58  C   UNL     1      15.320   0.998   7.765  1.00  0.00     0.074 A 
ATOM     59  C   UNL     1      14.023   1.155   8.383  1.00  0.00     0.031 C 
ATOM     60  C   UNL     1      13.818  -0.341   1.652  1.00  0.00     0.029 A 
ATOM     61  C   UNL     1      15.154  -0.194   2.228  1.00  0.00     0.049 A 
ATOM     62  H   UNL     1      15.631   0.157   4.224  1.00  0.00     0.167 HD
ATOM     63  C   UNL     1      16.492   1.082   8.436  1.00  0.00     0.037 A 
ATOM     64  C   UNL     1      16.321  -0.272   1.557  1.00  0.00     0.037 A 
ATOM     65  C   UNL     1      17.781   0.935   7.816  1.00  0.00     0.049 A 
ATOM     66  C   UNL     1      17.618  -0.083   2.305  1.00  0.00     0.074 A 
ATOM     67  C   UNL     1      19.032   1.000   8.402  1.00  0.00     0.029 A 
ATOM     68  N   UNL     1      17.982   0.704   6.463  1.00  0.00    -0.354 N 
ATOM     69  N   UNL     1      17.815   0.142   3.583  1.00  0.00    -0.248 NA
ATOM     70  C   UNL     1      18.856  -0.162   1.516  1.00  0.00     0.031 C 
ATOM     71  C   UNL     1      19.991   0.869   7.394  1.00  0.00     0.029 A 
ATOM     72  C   UNL     1      19.338   0.651   6.191  1.00  0.00     0.049 A 
ATOM     73  H   UNL     1      17.266   0.593   5.797  1.00  0.00     0.167 HD
ATOM     74  C   UNL     1      19.194   0.199   3.755  1.00  0.00     0.074 A 
ATOM     75  C   UNL     1      19.785  -0.027   2.453  1.00  0.00     0.031 C 
ATOM     76  C   UNL     1      19.909   0.416   4.888  1.00  0.00     0.037 A 
BRANCH  63  77
ATOM     77  C   UNL     1      16.426   1.387   9.905  1.00  0.00     0.057 A 
ATOM     78  C   UNL     1      15.927   0.464  10.835  1.00  0.00     0.134 A 
ATOM     79  C   UNL     1      16.872   2.620  10.396  1.00  0.00     0.134 A 
ATOM     80  F   UNL     1      15.463  -0.728  10.430  1.00  0.00    -0.206 F 
ATOM     81  C   UNL     1      15.848   0.769  12.195  1.00  0.00     0.040 A 
ATOM     82  C   UNL     1      16.828   2.924  11.757  1.00  0.00     0.040 A 
ATOM     83  F   UNL     1      17.361   3.550   9.561  1.00  0.00    -0.206 F 
ATOM     84  C   UNL     1      16.307   2.000  12.660  1.00  0.00     0.006 A 
ENDBRANCH  63  77
BRANCH  64  85
ATOM     85  C   UNL     1      16.323  -0.517   0.091  1.00  0.00     0.057 A 
ATOM     86  C   UNL     1      16.834  -1.703  -0.449  1.00  0.00     0.134 A 
ATOM     87  C   UNL     1      15.838   0.441  -0.808  1.00  0.00     0.134 A 
ATOM     88  F   UNL     1      17.337  -2.649   0.357  1.00  0.00    -0.206 F 
ATOM     89  C   UNL     1      16.880  -1.920  -1.828  1.00  0.00     0.040 A 
ATOM     90  C   UNL     1      15.851   0.226  -2.187  1.00  0.00     0.040 A 
ATOM     91  F   UNL     1      15.335   1.600  -0.358  1.00  0.00    -0.206 F 
ATOM     92  C   UNL     1      16.381  -0.956  -2.701  1.00  0.00     0.006 A 
ENDBRANCH  64  85
BRANCH  76  93
ATOM     93  C   UNL     1      21.407   0.371   4.784  1.00  0.00     0.057 A 
ATOM     94  C   UNL     1      22.140   1.374   4.136  1.00  0.00     0.134 A 
ATOM     95  C   UNL     1      22.130  -0.666   5.389  1.00  0.00     0.134 A 
ATOM     96  F   UNL     1      21.511   2.392   3.529  1.00  0.00    -0.206 F 
ATOM     97  C   UNL     1      23.534   1.331   4.070  1.00  0.00     0.040 A 
ATOM     98  C   UNL     1      23.524  -0.703   5.358  1.00  0.00     0.040 A 
ATOM     99  F   UNL     1      21.492  -1.652   6.039  1.00  0.00    -0.206 F 
ATOM    100  C   UNL     1      24.230   0.295   4.690  1.00  0.00     0.006 A 
ENDBRANCH  76  93
ENDBRANCH  50  51
ENDBRANCH  43  45
ENDBRANCH  42  43
ENDBRANCH  41  42
ENDBRANCH  40  41
ENDBRANCH  39  40
ENDBRANCH  38  39
ENDBRANCH  37  38
ENDBRANCH  36  37
ENDBRANCH   1  36
TORSDOF 24
