REMARK SMILES CS(=O)(=O)c1ccc(-n2nc(C(F)(F)F)cc2-c2ccc(CC(=O)OCCOCCOCCOCCOC(=O)c3ccc(-c4c5nc(c(-c6c(F)cccc6F)c6ccc([nH]6)c(-c6c(F)cccc6F)c6nc(c(-c7c(F)cccc7F)c7ccc4[nH]7)C=C6)C=C5)cc3)cc2)cc1
REMARK SMILES IDX 30 1 29 2 28 3 27 4 26 5 25 6 23 7 24 8 22 9 21 10 18 11
REMARK SMILES IDX 19 12 95 13 20 14 94 15 17 16 9 17 10 18 11 19 16 20 8 21
REMARK SMILES IDX 5 22 6 23 97 24 7 25 96 26 2 27 1 28 3 29 4 30 12 31 13 32
REMARK SMILES IDX 14 33 15 34 31 35 32 36 33 37 34 38 35 39 36 40 37 41 38 42
REMARK SMILES IDX 39 43 40 44 41 45 93 46 42 47 92 48 43 49 44 50 45 51 86 52
REMARK SMILES IDX 46 53 91 54 85 55 87 56 47 57 90 58 84 59 83 60 48 62 74 63
REMARK SMILES IDX 57 64 73 65 58 66 61 67 72 68 88 69 59 70 60 71 71 73 89 74
REMARK SMILES IDX 62 75 49 76 50 77 55 78 51 79 52 80 54 81 56 82 53 83 75 84
REMARK SMILES IDX 76 85 81 86 77 87 78 88 80 89 82 90 79 91 63 92 64 93 69 94
REMARK SMILES IDX 65 95 66 96 68 97 70 98 67 99
REMARK H PARENT 87 61 61 72
REMARK Flexibility Score: inf
ROOT
ATOM      1  C   UNL     1       2.788  -2.951  -2.915  1.00  0.00     0.188 C 
ENDROOT
BRANCH   1   2
ATOM      2  C   UNL     1       3.728  -2.877  -4.125  1.00  0.00     0.188 C 
BRANCH   2   3
ATOM      3  O   UNL     1       3.245  -2.703  -5.446  1.00  0.00    -0.376 OA
BRANCH   3   4
ATOM      4  C   UNL     1       1.860  -2.776  -5.705  1.00  0.00     0.202 C 
BRANCH   4   5
ATOM      5  C   UNL     1       1.140  -4.120  -5.511  1.00  0.00     0.261 C 
BRANCH   5   6
ATOM      6  O   UNL     1       1.649  -5.002  -4.488  1.00  0.00    -0.463 OA
BRANCH   6   7
ATOM      7  C   UNL     1       2.636  -5.844  -4.873  1.00  0.00     0.310 C 
ATOM      8  O   UNL     1       3.024  -5.938  -6.036  1.00  0.00    -0.252 OA
BRANCH   7   9
ATOM      9  C   UNL     1       3.233  -6.723  -3.788  1.00  0.00     0.158 C 
BRANCH   9  10
ATOM     10  C   UNL     1       3.036  -6.517  -2.286  1.00  0.00    -0.037 A 
ATOM     11  C   UNL     1       2.956  -6.630   0.599  1.00  0.00     0.000 A 
ATOM     12  C   UNL     1       4.010  -6.002  -0.072  1.00  0.00     0.010 A 
ATOM     13  C   UNL     1       1.919  -7.152  -0.200  1.00  0.00     0.010 A 
ATOM     14  C   UNL     1       4.051  -5.950  -1.488  1.00  0.00     0.005 A 
ATOM     15  C   UNL     1       1.950  -7.087  -1.613  1.00  0.00     0.005 A 
BRANCH  11  16
ATOM     16  C   UNL     1       3.024  -6.964   2.048  1.00  0.00     0.075 A 
ATOM     17  N   UNL     1       3.399  -6.175   3.156  1.00  0.00    -0.233 N 
ATOM     18  N   UNL     1       3.588  -6.938   4.268  1.00  0.00    -0.163 NA
ATOM     19  C   UNL     1       3.176  -8.171   3.951  1.00  0.00     0.167 A 
ATOM     20  C   UNL     1       2.864  -8.242   2.576  1.00  0.00     0.064 A 
BRANCH  17  21
ATOM     21  C   UNL     1       3.506  -4.761   3.331  1.00  0.00     0.065 A 
ATOM     22  C   UNL     1       3.696  -1.949   3.755  1.00  0.00     0.067 A 
ATOM     23  C   UNL     1       2.817  -2.516   2.853  1.00  0.00     0.022 A 
ATOM     24  C   UNL     1       4.415  -2.822   4.558  1.00  0.00     0.022 A 
ATOM     25  C   UNL     1       2.759  -3.892   2.565  1.00  0.00     0.030 A 
ATOM     26  C   UNL     1       4.281  -4.217   4.380  1.00  0.00     0.030 A 
BRANCH  22  27
ATOM     27  S   UNL     1       3.888  -0.169   3.955  1.00  0.00     0.175 S 
ATOM     28  C   UNL     1       2.913   0.735   2.788  1.00  0.00     0.163 C 
ATOM     29  O   UNL     1       5.280   0.099   3.596  1.00  0.00    -0.224 OA
ATOM     30  O   UNL     1       3.378   0.163   5.253  1.00  0.00    -0.224 OA
ENDBRANCH  22  27
ENDBRANCH  17  21
BRANCH  19  31
ATOM     31  C   UNL     1       3.093  -9.291   4.956  1.00  0.00     0.435 C 
ATOM     32  F   UNL     1       3.853  -9.088   6.064  1.00  0.00    -0.164 F 
ATOM     33  F   UNL     1       1.814  -9.478   5.386  1.00  0.00    -0.164 F 
ATOM     34  F   UNL     1       3.492 -10.478   4.423  1.00  0.00    -0.164 F 
ENDBRANCH  19  31
ENDBRANCH  11  16
ENDBRANCH   9  10
ENDBRANCH   7   9
ENDBRANCH   6   7
ENDBRANCH   5   6
ENDBRANCH   4   5
ENDBRANCH   3   4
ENDBRANCH   2   3
ENDBRANCH   1   2
BRANCH   1  35
ATOM     35  O   UNL     1       1.603  -2.181  -2.868  1.00  0.00    -0.377 OA
BRANCH  35  36
ATOM     36  C   UNL     1       1.605  -0.765  -2.932  1.00  0.00     0.188 C 
BRANCH  36  37
ATOM     37  C   UNL     1       2.841   0.068  -2.605  1.00  0.00     0.188 C 
BRANCH  37  38
ATOM     38  O   UNL     1       3.956  -0.674  -2.161  1.00  0.00    -0.376 OA
BRANCH  38  39
ATOM     39  C   UNL     1       4.104  -0.690  -0.766  1.00  0.00     0.202 C 
BRANCH  39  40
ATOM     40  C   UNL     1       3.160  -1.564   0.055  1.00  0.00     0.261 C 
BRANCH  40  41
ATOM     41  O   UNL     1       1.722  -1.681  -0.087  1.00  0.00    -0.460 OA
BRANCH  41  42
ATOM     42  C   UNL     1       0.919  -0.648   0.271  1.00  0.00     0.338 C 
ATOM     43  O   UNL     1       1.163   0.521   0.017  1.00  0.00    -0.246 OA
BRANCH  42  44
ATOM     44  C   UNL     1      -0.076  -1.037   1.340  1.00  0.00     0.060 A 
ATOM     45  C   UNL     1      -0.480   0.021   2.163  1.00  0.00     0.016 A 
ATOM     46  C   UNL     1      -0.164  -2.341   1.839  1.00  0.00     0.016 A 
ATOM     47  C   UNL     1      -0.595  -0.177   3.541  1.00  0.00     0.010 A 
ATOM     48  C   UNL     1      -0.264  -2.534   3.231  1.00  0.00     0.010 A 
ATOM     49  C   UNL     1      -0.367  -1.440   4.105  1.00  0.00    -0.014 A 
BRANCH  49  50
ATOM     50  C   UNL     1      -0.637  -1.599   5.553  1.00  0.00     0.031 A 
ATOM     51  C   UNL     1      -2.092  -1.702   5.751  1.00  0.00     0.074 A 
ATOM     52  C   UNL     1       0.173  -1.762   6.629  1.00  0.00     0.049 A 
ATOM     53  N   UNL     1      -2.894  -0.817   6.239  1.00  0.00    -0.248 NA
ATOM     54  C   UNL     1      -2.754  -2.857   5.122  1.00  0.00     0.031 C 
ATOM     55  C   UNL     1       1.601  -2.011   6.598  1.00  0.00     0.029 A 
ATOM     56  N   UNL     1      -0.100  -1.817   7.986  1.00  0.00    -0.354 N 
ATOM     57  C   UNL     1      -4.130  -1.444   6.204  1.00  0.00     0.074 A 
ATOM     58  C   UNL     1      -4.033  -2.517   5.256  1.00  0.00     0.031 C 
ATOM     59  C   UNL     1       2.062  -2.341   7.821  1.00  0.00     0.029 A 
ATOM     60  C   UNL     1       0.968  -2.270   8.771  1.00  0.00     0.049 A 
ATOM     61  H   UNL     1      -0.971  -1.558   8.366  1.00  0.00     0.167 HD
ATOM     62  C   UNL     1      -4.963  -1.348   7.268  1.00  0.00     0.037 A 
ATOM     63  C   UNL     1       0.990  -2.606  10.089  1.00  0.00     0.037 A 
ATOM     64  C   UNL     1      -4.661  -0.203   8.085  1.00  0.00     0.049 A 
ATOM     65  C   UNL     1      -0.184  -2.006  10.756  1.00  0.00     0.074 A 
ATOM     66  C   UNL     1      -4.810   1.164   8.002  1.00  0.00     0.029 A 
ATOM     67  N   UNL     1      -3.774  -0.450   9.093  1.00  0.00    -0.354 N 
ATOM     68  N   UNL     1      -0.291  -0.746  11.065  1.00  0.00    -0.248 NA
ATOM     69  C   UNL     1      -1.403  -2.795  10.903  1.00  0.00     0.031 C 
ATOM     70  C   UNL     1      -3.943   1.733   8.981  1.00  0.00     0.029 A 
ATOM     71  C   UNL     1      -3.280   0.704   9.639  1.00  0.00     0.049 A 
ATOM     72  H   UNL     1      -3.520  -1.353   9.393  1.00  0.00     0.167 HD
ATOM     73  C   UNL     1      -1.646  -0.507  11.015  1.00  0.00     0.074 A 
ATOM     74  C   UNL     1      -2.281  -1.812  11.110  1.00  0.00     0.031 C 
ATOM     75  C   UNL     1      -2.119   0.659  10.498  1.00  0.00     0.037 A 
BRANCH  62  76
ATOM     76  C   UNL     1      -5.685  -2.551   7.839  1.00  0.00     0.057 A 
ATOM     77  C   UNL     1      -6.677  -2.337   8.805  1.00  0.00     0.134 A 
ATOM     78  C   UNL     1      -5.271  -3.898   7.700  1.00  0.00     0.134 A 
ATOM     79  F   UNL     1      -7.128  -1.100   9.060  1.00  0.00    -0.206 F 
ATOM     80  C   UNL     1      -7.189  -3.374   9.595  1.00  0.00     0.040 A 
ATOM     81  C   UNL     1      -5.818  -4.948   8.438  1.00  0.00     0.040 A 
ATOM     82  F   UNL     1      -4.248  -4.272   6.924  1.00  0.00    -0.206 F 
ATOM     83  C   UNL     1      -6.763  -4.684   9.411  1.00  0.00     0.006 A 
ENDBRANCH  62  76
BRANCH  63  84
ATOM     84  C   UNL     1       1.888  -3.521  10.853  1.00  0.00     0.057 A 
ATOM     85  C   UNL     1       1.897  -3.525  12.262  1.00  0.00     0.134 A 
ATOM     86  C   UNL     1       2.560  -4.594  10.245  1.00  0.00     0.134 A 
ATOM     87  F   UNL     1       1.269  -2.565  12.957  1.00  0.00    -0.206 F 
ATOM     88  C   UNL     1       2.489  -4.552  13.011  1.00  0.00     0.040 A 
ATOM     89  C   UNL     1       3.172  -5.616  10.982  1.00  0.00     0.040 A 
ATOM     90  F   UNL     1       2.574  -4.742   8.914  1.00  0.00    -0.206 F 
ATOM     91  C   UNL     1       3.119  -5.611  12.370  1.00  0.00     0.006 A 
ENDBRANCH  63  84
BRANCH  75  92
ATOM     92  C   UNL     1      -1.294   1.890  10.690  1.00  0.00     0.057 A 
ATOM     93  C   UNL     1      -0.012   2.088  10.161  1.00  0.00     0.134 A 
ATOM     94  C   UNL     1      -1.848   2.941  11.433  1.00  0.00     0.134 A 
ATOM     95  F   UNL     1       0.566   1.168   9.375  1.00  0.00    -0.206 F 
ATOM     96  C   UNL     1       0.702   3.267  10.404  1.00  0.00     0.040 A 
ATOM     97  C   UNL     1      -1.161   4.136  11.650  1.00  0.00     0.040 A 
ATOM     98  F   UNL     1      -3.083   2.829  11.948  1.00  0.00    -0.206 F 
ATOM     99  C   UNL     1       0.125   4.296  11.146  1.00  0.00     0.006 A 
ENDBRANCH  75  92
ENDBRANCH  49  50
ENDBRANCH  42  44
ENDBRANCH  41  42
ENDBRANCH  40  41
ENDBRANCH  39  40
ENDBRANCH  38  39
ENDBRANCH  37  38
ENDBRANCH  36  37
ENDBRANCH  35  36
ENDBRANCH   1  35
TORSDOF 25
