REMARK SMILES C=CCN(CC(=O)OCCOCCOCCOCCOC(=O)c1ccc(-c2c3nc(c(-c4c(F)cccc4F)c4ccc([nH]4)c(-c4c(F)cccc4F)c4nc(c(-c5c(F)cccc5F)c5ccc2[nH]5)C=C4)C=C3)cc1)C(=O)/C=C/c1ccc(OC)cc1
REMARK SMILES IDX 12 1 11 2 10 3 9 4 8 5 6 6 7 7 5 8 4 9 3 10 2 11 1 12 77 13
REMARK SMILES IDX 78 14 79 15 80 16 81 17 82 18 88 19 83 20 87 21 84 22 85 23
REMARK SMILES IDX 86 24 13 25 14 26 15 27 16 28 17 29 18 30 19 31 20 32 21 33
REMARK SMILES IDX 22 34 23 35 24 36 76 37 25 38 75 39 26 40 27 41 28 42 69 43
REMARK SMILES IDX 29 44 74 45 68 46 70 47 30 48 73 49 67 50 66 51 31 53 57 54
REMARK SMILES IDX 40 55 56 56 41 57 44 58 55 59 71 60 42 61 43 62 54 64 72 65
REMARK SMILES IDX 45 66 32 67 33 68 38 69 34 70 35 71 37 72 39 73 36 74 58 75
REMARK SMILES IDX 59 76 64 77 60 78 61 79 63 80 65 81 62 82 46 83 47 84 52 85
REMARK SMILES IDX 48 86 49 87 51 88 53 89 50 90
REMARK H PARENT 70 52 44 63
REMARK Flexibility Score: inf
ROOT
ATOM      1  C   UNL     1      -4.550  -1.956   3.404  1.00  0.00     0.188 C 
ENDROOT
BRANCH   1   2
ATOM      2  O   UNL     1      -5.936  -1.821   3.130  1.00  0.00    -0.376 OA
BRANCH   2   3
ATOM      3  C   UNL     1      -6.465  -0.511   3.256  1.00  0.00     0.202 C 
BRANCH   3   4
ATOM      4  C   UNL     1      -5.898   0.513   2.263  1.00  0.00     0.261 C 
BRANCH   4   5
ATOM      5  O   UNL     1      -4.462   0.695   2.314  1.00  0.00    -0.462 OA
BRANCH   5   6
ATOM      6  C   UNL     1      -3.940   1.408   3.342  1.00  0.00     0.325 C 
ATOM      7  O   UNL     1      -4.622   1.964   4.196  1.00  0.00    -0.250 OA
BRANCH   6   8
ATOM      8  C   UNL     1      -2.408   1.568   3.250  1.00  0.00     0.242 C 
BRANCH   8   9
ATOM      9  N   UNL     1      -1.575   0.556   2.574  1.00  0.00    -0.324 N 
BRANCH   9  10
ATOM     10  C   UNL     1      -1.377   0.733   1.131  1.00  0.00     0.147 C 
BRANCH  10  11
ATOM     11  C   UNL     1       0.046   1.121   0.836  1.00  0.00    -0.014 C 
ATOM     12  C   UNL     1       0.811   0.489  -0.068  1.00  0.00     0.006 C 
ENDBRANCH  10  11
ENDBRANCH   9  10
BRANCH   9  13
ATOM     13  C   UNL     1      -0.967  -0.554   3.144  1.00  0.00     0.247 C 
ATOM     14  O   UNL     1      -0.156  -1.248   2.521  1.00  0.00    -0.270 OA
BRANCH  13  15
ATOM     15  C   UNL     1      -1.370  -1.135   4.457  1.00  0.00     0.072 C 
ATOM     16  C   UNL     1      -2.019  -0.676   5.533  1.00  0.00     0.014 C 
BRANCH  16  17
ATOM     17  C   UNL     1      -2.502  -1.587   6.585  1.00  0.00    -0.025 A 
ATOM     18  C   UNL     1      -3.802  -1.389   7.066  1.00  0.00     0.012 A 
ATOM     19  C   UNL     1      -1.750  -2.651   7.101  1.00  0.00     0.012 A 
ATOM     20  C   UNL     1      -4.339  -2.238   8.034  1.00  0.00     0.047 A 
ATOM     21  C   UNL     1      -2.290  -3.500   8.078  1.00  0.00     0.047 A 
ATOM     22  C   UNL     1      -3.581  -3.284   8.558  1.00  0.00     0.118 A 
BRANCH  22  23
ATOM     23  O   UNL     1      -4.215  -4.027   9.514  1.00  0.00    -0.497 OA
ATOM     24  C   UNL     1      -3.378  -4.792  10.373  1.00  0.00     0.278 C 
ENDBRANCH  22  23
ENDBRANCH  16  17
ENDBRANCH  13  15
ENDBRANCH   9  13
ENDBRANCH   8   9
ENDBRANCH   6   8
ENDBRANCH   5   6
ENDBRANCH   4   5
ENDBRANCH   3   4
ENDBRANCH   2   3
ENDBRANCH   1   2
BRANCH   1  25
ATOM     25  C   UNL     1      -3.702  -2.198   2.134  1.00  0.00     0.188 C 
BRANCH  25  26
ATOM     26  O   UNL     1      -4.084  -3.124   1.124  1.00  0.00    -0.377 OA
BRANCH  26  27
ATOM     27  C   UNL     1      -5.300  -3.822   1.291  1.00  0.00     0.188 C 
BRANCH  27  28
ATOM     28  C   UNL     1      -5.265  -4.924   2.361  1.00  0.00     0.188 C 
BRANCH  28  29
ATOM     29  O   UNL     1      -4.226  -4.740   3.311  1.00  0.00    -0.376 OA
BRANCH  29  30
ATOM     30  C   UNL     1      -3.106  -5.609   3.269  1.00  0.00     0.202 C 
BRANCH  30  31
ATOM     31  C   UNL     1      -2.179  -5.595   2.041  1.00  0.00     0.261 C 
BRANCH  31  32
ATOM     32  O   UNL     1      -2.805  -5.596   0.754  1.00  0.00    -0.460 OA
BRANCH  32  33
ATOM     33  C   UNL     1      -3.432  -6.713   0.342  1.00  0.00     0.338 C 
ATOM     34  O   UNL     1      -3.529  -7.773   0.935  1.00  0.00    -0.246 OA
BRANCH  33  35
ATOM     35  C   UNL     1      -4.177  -6.343  -0.881  1.00  0.00     0.060 A 
ATOM     36  C   UNL     1      -5.567  -6.521  -0.899  1.00  0.00     0.016 A 
ATOM     37  C   UNL     1      -3.525  -5.739  -1.962  1.00  0.00     0.016 A 
ATOM     38  C   UNL     1      -6.310  -6.075  -1.991  1.00  0.00     0.010 A 
ATOM     39  C   UNL     1      -4.263  -5.340  -3.077  1.00  0.00     0.010 A 
ATOM     40  C   UNL     1      -5.655  -5.523  -3.101  1.00  0.00    -0.014 A 
BRANCH  40  41
ATOM     41  C   UNL     1      -6.396  -5.397  -4.375  1.00  0.00     0.031 A 
ATOM     42  C   UNL     1      -6.440  -6.609  -5.263  1.00  0.00     0.074 A 
ATOM     43  C   UNL     1      -7.031  -4.266  -4.724  1.00  0.00     0.049 A 
ATOM     44  N   UNL     1      -7.022  -6.774  -6.420  1.00  0.00    -0.248 NA
ATOM     45  C   UNL     1      -5.732  -7.803  -4.767  1.00  0.00     0.031 C 
ATOM     46  C   UNL     1      -7.090  -3.043  -3.926  1.00  0.00     0.029 A 
ATOM     47  N   UNL     1      -7.751  -3.968  -5.853  1.00  0.00    -0.354 N 
ATOM     48  C   UNL     1      -6.762  -8.089  -6.782  1.00  0.00     0.074 A 
ATOM     49  C   UNL     1      -5.945  -8.670  -5.741  1.00  0.00     0.031 C 
ATOM     50  C   UNL     1      -7.800  -2.119  -4.600  1.00  0.00     0.029 A 
ATOM     51  C   UNL     1      -8.222  -2.678  -5.883  1.00  0.00     0.049 A 
ATOM     52  H   UNL     1      -7.915  -4.617  -6.575  1.00  0.00     0.167 HD
ATOM     53  C   UNL     1      -7.174  -8.758  -7.882  1.00  0.00     0.037 A 
ATOM     54  C   UNL     1      -8.901  -2.029  -6.850  1.00  0.00     0.037 A 
ATOM     55  C   UNL     1      -7.955  -8.167  -8.932  1.00  0.00     0.049 A 
ATOM     56  C   UNL     1      -9.265  -2.767  -8.114  1.00  0.00     0.074 A 
ATOM     57  C   UNL     1      -8.416  -8.750 -10.098  1.00  0.00     0.029 A 
ATOM     58  N   UNL     1      -8.376  -6.845  -8.947  1.00  0.00    -0.354 N 
ATOM     59  N   UNL     1      -9.045  -4.020  -8.435  1.00  0.00    -0.248 NA
ATOM     60  C   UNL     1      -9.974  -2.001  -9.149  1.00  0.00     0.031 C 
ATOM     61  C   UNL     1      -9.075  -7.766 -10.842  1.00  0.00     0.029 A 
ATOM     62  C   UNL     1      -9.070  -6.586 -10.115  1.00  0.00     0.049 A 
ATOM     63  H   UNL     1      -8.205  -6.189  -8.233  1.00  0.00     0.167 HD
ATOM     64  C   UNL     1      -9.614  -4.200  -9.690  1.00  0.00     0.074 A 
ATOM     65  C   UNL     1     -10.198  -2.930 -10.068  1.00  0.00     0.031 C 
ATOM     66  C   UNL     1      -9.653  -5.315 -10.462  1.00  0.00     0.037 A 
BRANCH  53  67
ATOM     67  C   UNL     1      -6.748 -10.189  -8.010  1.00  0.00     0.057 A 
ATOM     68  C   UNL     1      -7.290 -11.195  -7.198  1.00  0.00     0.134 A 
ATOM     69  C   UNL     1      -5.783 -10.565  -8.951  1.00  0.00     0.134 A 
ATOM     70  F   UNL     1      -8.200 -10.895  -6.259  1.00  0.00    -0.206 F 
ATOM     71  C   UNL     1      -6.869 -12.522  -7.303  1.00  0.00     0.040 A 
ATOM     72  C   UNL     1      -5.373 -11.892  -9.083  1.00  0.00     0.040 A 
ATOM     73  F   UNL     1      -5.221  -9.649  -9.754  1.00  0.00    -0.206 F 
ATOM     74  C   UNL     1      -5.912 -12.874  -8.253  1.00  0.00     0.006 A 
ENDBRANCH  53  67
BRANCH  54  75
ATOM     75  C   UNL     1      -9.271  -0.600  -6.680  1.00  0.00     0.057 A 
ATOM     76  C   UNL     1     -10.608  -0.203  -6.553  1.00  0.00     0.134 A 
ATOM     77  C   UNL     1      -8.300   0.409  -6.682  1.00  0.00     0.134 A 
ATOM     78  F   UNL     1     -11.588  -1.118  -6.571  1.00  0.00    -0.206 F 
ATOM     79  C   UNL     1     -10.967   1.143  -6.457  1.00  0.00     0.040 A 
ATOM     80  C   UNL     1      -8.642   1.757  -6.561  1.00  0.00     0.040 A 
ATOM     81  F   UNL     1      -7.001   0.099  -6.804  1.00  0.00    -0.206 F 
ATOM     82  C   UNL     1      -9.981   2.128  -6.456  1.00  0.00     0.006 A 
ENDBRANCH  54  75
BRANCH  66  83
ATOM     83  C   UNL     1     -10.384  -5.224 -11.770  1.00  0.00     0.057 A 
ATOM     84  C   UNL     1      -9.863  -4.524 -12.864  1.00  0.00     0.134 A 
ATOM     85  C   UNL     1     -11.601  -5.895 -11.950  1.00  0.00     0.134 A 
ATOM     86  F   UNL     1      -8.707  -3.852 -12.754  1.00  0.00    -0.206 F 
ATOM     87  C   UNL     1     -10.537  -4.476 -14.086  1.00  0.00     0.040 A 
ATOM     88  C   UNL     1     -12.270  -5.878 -13.174  1.00  0.00     0.040 A 
ATOM     89  F   UNL     1     -12.149  -6.595 -10.945  1.00  0.00    -0.206 F 
ATOM     90  C   UNL     1     -11.740  -5.162 -14.245  1.00  0.00     0.006 A 
ENDBRANCH  66  83
ENDBRANCH  40  41
ENDBRANCH  33  35
ENDBRANCH  32  33
ENDBRANCH  31  32
ENDBRANCH  30  31
ENDBRANCH  29  30
ENDBRANCH  28  29
ENDBRANCH  27  28
ENDBRANCH  26  27
ENDBRANCH  25  26
ENDBRANCH   1  25
TORSDOF 27
