REMARK SMILES Cc1cc(Cl)ccc1Oc1cc(C)c(N)c(C(=O)OCCOCCOCCOCCOC(=O)c2ccc(-c3c4nc(c(-c5c(F)cccc5F)c5ccc([nH]5)c(-c5c(F)cccc5F)c5nc(c(-c6c(F)cccc6F)c6ccc3[nH]6)C=C5)C=C4)cc2)c1
REMARK SMILES IDX 25 1 24 2 23 3 22 4 21 5 20 6 19 7 17 8 18 9 16 10 10 11
REMARK SMILES IDX 11 12 88 13 12 14 13 15 14 16 9 17 8 18 1 19 2 20 3 21 4 22
REMARK SMILES IDX 7 23 5 24 6 25 15 26 26 29 27 30 28 31 29 32 30 33 31 34
REMARK SMILES IDX 32 35 33 36 34 37 35 38 87 39 36 40 86 41 37 42 38 43 39 44
REMARK SMILES IDX 80 45 40 46 85 47 79 48 81 49 41 50 84 51 78 52 77 53 42 55
REMARK SMILES IDX 68 56 51 57 67 58 52 59 55 60 66 61 82 62 53 63 54 64 65 66
REMARK SMILES IDX 83 67 56 68 43 69 44 70 49 71 45 72 46 73 48 74 50 75 47 76
REMARK SMILES IDX 69 77 70 78 75 79 71 80 72 81 74 82 76 83 73 84 57 85 58 86
REMARK SMILES IDX 63 87 59 88 60 89 62 90 64 91 61 92
REMARK H PARENT 15 27 15 28 81 54 55 65
REMARK Flexibility Score: inf
ROOT
ATOM      1  O   UNL     1      -5.597   1.377   4.448  1.00  0.00    -0.377 OA
ENDROOT
BRANCH   1   2
ATOM      2  C   UNL     1      -6.062   2.140   3.343  1.00  0.00     0.188 C 
BRANCH   2   3
ATOM      3  C   UNL     1      -7.572   2.422   3.196  1.00  0.00     0.188 C 
BRANCH   3   4
ATOM      4  O   UNL     1      -8.361   1.936   4.272  1.00  0.00    -0.376 OA
BRANCH   4   5
ATOM      5  C   UNL     1      -9.198   0.822   4.025  1.00  0.00     0.202 C 
BRANCH   5   6
ATOM      6  C   UNL     1      -8.510  -0.506   3.680  1.00  0.00     0.261 C 
BRANCH   6   7
ATOM      7  O   UNL     1      -7.534  -0.449   2.629  1.00  0.00    -0.460 OA
BRANCH   7   8
ATOM      8  C   UNL     1      -7.986  -0.210   1.375  1.00  0.00     0.340 C 
ATOM      9  O   UNL     1      -9.155  -0.073   1.051  1.00  0.00    -0.246 OA
BRANCH   8  10
ATOM     10  C   UNL     1      -6.821   0.047   0.482  1.00  0.00     0.086 A 
ATOM     11  C   UNL     1      -4.528  -0.442  -0.138  1.00  0.00     0.128 A 
ATOM     12  C   UNL     1      -4.625   0.462  -1.190  1.00  0.00     0.052 A 
ATOM     13  C   UNL     1      -5.644  -0.695   0.657  1.00  0.00     0.065 A 
ATOM     14  C   UNL     1      -5.765   1.277  -1.326  1.00  0.00    -0.024 A 
ATOM     15  C   UNL     1      -5.725   2.395  -2.335  1.00  0.00     0.047 C 
ATOM     16  C   UNL     1      -6.878   1.085  -0.477  1.00  0.00     0.049 A 
BRANCH  11  17
ATOM     17  O   UNL     1      -3.410  -1.166   0.172  1.00  0.00    -0.457 OA
BRANCH  17  18
ATOM     18  C   UNL     1      -2.126  -0.672   0.075  1.00  0.00     0.130 A 
ATOM     19  C   UNL     1      -2.504   1.863   0.483  1.00  0.00     0.048 C 
ATOM     20  C   UNL     1      -1.657   0.647   0.224  1.00  0.00    -0.007 A 
ATOM     21  C   UNL     1      -0.266   0.883   0.120  1.00  0.00     0.027 A 
ATOM     22  C   UNL     1       0.639  -0.164  -0.044  1.00  0.00     0.041 A 
ATOM     23  C   UNL     1      -1.190  -1.715  -0.078  1.00  0.00     0.049 A 
ATOM     24  Cl  UNL     1       2.326   0.164  -0.113  1.00  0.00    -0.084 Cl
ATOM     25  C   UNL     1       0.182  -1.469  -0.130  1.00  0.00     0.024 A 
ENDBRANCH  17  18
ENDBRANCH  11  17
BRANCH  16  26
ATOM     26  N   UNL     1      -7.912   2.025  -0.460  1.00  0.00    -0.398 N 
ATOM     27  H   UNL     1      -7.938   2.742  -1.134  1.00  0.00     0.156 HD
ATOM     28  H   UNL     1      -8.615   1.971   0.228  1.00  0.00     0.156 HD
ENDBRANCH  16  26
ENDBRANCH   8  10
ENDBRANCH   7   8
ENDBRANCH   6   7
ENDBRANCH   5   6
ENDBRANCH   4   5
ENDBRANCH   3   4
ENDBRANCH   2   3
ENDBRANCH   1   2
BRANCH   1  29
ATOM     29  C   UNL     1      -6.116   1.622   5.752  1.00  0.00     0.188 C 
BRANCH  29  30
ATOM     30  C   UNL     1      -6.644   3.018   6.159  1.00  0.00     0.188 C 
BRANCH  30  31
ATOM     31  O   UNL     1      -6.431   4.039   5.199  1.00  0.00    -0.376 OA
BRANCH  31  32
ATOM     32  C   UNL     1      -5.445   5.014   5.484  1.00  0.00     0.202 C 
BRANCH  32  33
ATOM     33  C   UNL     1      -3.995   4.514   5.550  1.00  0.00     0.261 C 
BRANCH  33  34
ATOM     34  O   UNL     1      -3.747   3.452   6.484  1.00  0.00    -0.460 OA
BRANCH  34  35
ATOM     35  C   UNL     1      -3.927   3.742   7.792  1.00  0.00     0.338 C 
ATOM     36  O   UNL     1      -4.248   4.809   8.273  1.00  0.00    -0.246 OA
BRANCH  35  37
ATOM     37  C   UNL     1      -3.855   2.475   8.549  1.00  0.00     0.060 A 
ATOM     38  C   UNL     1      -4.955   2.099   9.331  1.00  0.00     0.016 A 
ATOM     39  C   UNL     1      -2.712   1.674   8.496  1.00  0.00     0.016 A 
ATOM     40  C   UNL     1      -4.890   0.946  10.108  1.00  0.00     0.010 A 
ATOM     41  C   UNL     1      -2.642   0.526   9.290  1.00  0.00     0.010 A 
ATOM     42  C   UNL     1      -3.713   0.185  10.134  1.00  0.00    -0.014 A 
BRANCH  42  43
ATOM     43  C   UNL     1      -3.550  -0.834  11.198  1.00  0.00     0.031 A 
ATOM     44  C   UNL     1      -2.777  -0.463  12.434  1.00  0.00     0.074 A 
ATOM     45  C   UNL     1      -4.136  -2.039  11.103  1.00  0.00     0.049 A 
ATOM     46  N   UNL     1      -2.565  -1.157  13.522  1.00  0.00    -0.248 NA
ATOM     47  C   UNL     1      -2.157   0.871  12.441  1.00  0.00     0.031 C 
ATOM     48  C   UNL     1      -4.924  -2.507   9.965  1.00  0.00     0.029 A 
ATOM     49  N   UNL     1      -4.158  -3.088  11.986  1.00  0.00    -0.354 N 
ATOM     50  C   UNL     1      -1.786  -0.347  14.339  1.00  0.00     0.074 A 
ATOM     51  C   UNL     1      -1.529   0.873  13.606  1.00  0.00     0.031 C 
ATOM     52  C   UNL     1      -5.351  -3.756  10.219  1.00  0.00     0.029 A 
ATOM     53  C   UNL     1      -4.850  -4.180  11.526  1.00  0.00     0.049 A 
ATOM     54  H   UNL     1      -3.718  -3.061  12.867  1.00  0.00     0.167 HD
ATOM     55  C   UNL     1      -1.333  -0.593  15.591  1.00  0.00     0.037 A 
ATOM     56  C   UNL     1      -5.047  -5.386  12.092  1.00  0.00     0.037 A 
ATOM     57  C   UNL     1      -1.588  -1.810  16.316  1.00  0.00     0.049 A 
ATOM     58  C   UNL     1      -4.506  -5.653  13.471  1.00  0.00     0.074 A 
ATOM     59  C   UNL     1      -1.208  -2.143  17.604  1.00  0.00     0.029 A 
ATOM     60  N   UNL     1      -2.276  -2.902  15.807  1.00  0.00    -0.354 N 
ATOM     61  N   UNL     1      -3.817  -4.862  14.258  1.00  0.00    -0.248 NA
ATOM     62  C   UNL     1      -4.784  -6.976  14.047  1.00  0.00     0.031 C 
ATOM     63  C   UNL     1      -1.606  -3.461  17.849  1.00  0.00     0.029 A 
ATOM     64  C   UNL     1      -2.300  -3.924  16.743  1.00  0.00     0.049 A 
ATOM     65  H   UNL     1      -2.685  -2.946  14.913  1.00  0.00     0.167 HD
ATOM     66  C   UNL     1      -3.605  -5.577  15.431  1.00  0.00     0.074 A 
ATOM     67  C   UNL     1      -4.250  -6.862  15.255  1.00  0.00     0.031 C 
ATOM     68  C   UNL     1      -2.942  -5.202  16.554  1.00  0.00     0.037 A 
BRANCH  55  69
ATOM     69  C   UNL     1      -0.479   0.463  16.234  1.00  0.00     0.057 A 
ATOM     70  C   UNL     1      -0.993   1.707  16.627  1.00  0.00     0.134 A 
ATOM     71  C   UNL     1       0.882   0.228  16.467  1.00  0.00     0.134 A 
ATOM     72  F   UNL     1      -2.285   2.006  16.419  1.00  0.00    -0.206 F 
ATOM     73  C   UNL     1      -0.178   2.689  17.194  1.00  0.00     0.040 A 
ATOM     74  C   UNL     1       1.700   1.189  17.063  1.00  0.00     0.040 A 
ATOM     75  F   UNL     1       1.440  -0.942  16.121  1.00  0.00    -0.206 F 
ATOM     76  C   UNL     1       1.172   2.428  17.418  1.00  0.00     0.006 A 
ENDBRANCH  55  69
BRANCH  56  77
ATOM     77  C   UNL     1      -5.795  -6.431  11.347  1.00  0.00     0.057 A 
ATOM     78  C   UNL     1      -7.068  -6.850  11.749  1.00  0.00     0.134 A 
ATOM     79  C   UNL     1      -5.251  -7.030  10.204  1.00  0.00     0.134 A 
ATOM     80  F   UNL     1      -7.634  -6.331  12.848  1.00  0.00    -0.206 F 
ATOM     81  C   UNL     1      -7.769  -7.834  11.049  1.00  0.00     0.040 A 
ATOM     82  C   UNL     1      -5.951  -7.994   9.478  1.00  0.00     0.040 A 
ATOM     83  F   UNL     1      -4.035  -6.671   9.765  1.00  0.00    -0.206 F 
ATOM     84  C   UNL     1      -7.213  -8.403   9.904  1.00  0.00     0.006 A 
ENDBRANCH  56  77
BRANCH  68  85
ATOM     85  C   UNL     1      -2.915  -6.177  17.699  1.00  0.00     0.057 A 
ATOM     86  C   UNL     1      -2.182  -7.369  17.647  1.00  0.00     0.134 A 
ATOM     87  C   UNL     1      -3.610  -5.899  18.884  1.00  0.00     0.134 A 
ATOM     88  F   UNL     1      -1.500  -7.702  16.541  1.00  0.00    -0.206 F 
ATOM     89  C   UNL     1      -2.168  -8.265  18.719  1.00  0.00     0.040 A 
ATOM     90  C   UNL     1      -3.578  -6.771  19.973  1.00  0.00     0.040 A 
ATOM     91  F   UNL     1      -4.322  -4.769  19.008  1.00  0.00    -0.206 F 
ATOM     92  C   UNL     1      -2.863  -7.963  19.889  1.00  0.00     0.006 A 
ENDBRANCH  68  85
ENDBRANCH  42  43
ENDBRANCH  35  37
ENDBRANCH  34  35
ENDBRANCH  33  34
ENDBRANCH  32  33
ENDBRANCH  31  32
ENDBRANCH  30  31
ENDBRANCH  29  30
ENDBRANCH   1  29
TORSDOF 23
