REMARK SMILES Cc1cccc(CS[C@@H]2CC[C@]([NH3+])(C(=O)OCCOCCOCCOCCOC(=O)c3ccc(-c4c5nc(c(-c6c(F)cccc6F)c6ccc([nH]6)c(-c6c(F)cccc6F)c6nc(c(-c7c(F)cccc7F)c7ccc4[nH]7)C=C6)C=C5)cc3)C2)c1
REMARK SMILES IDX 21 1 20 2 19 3 18 4 17 5 16 6 14 7 15 8 12 9 9 10 10 11
REMARK SMILES IDX 85 12 11 13 8 14 7 15 6 16 1 17 2 18 3 19 86 20 4 21 5 22
REMARK SMILES IDX 13 23 22 27 23 28 24 29 25 30 26 31 27 32 28 33 29 34 30 35
REMARK SMILES IDX 31 36 32 37 84 38 33 39 83 40 34 41 35 42 36 43 77 44 37 45
REMARK SMILES IDX 82 46 76 47 78 48 38 49 81 50 75 51 74 52 39 54 65 55 48 56
REMARK SMILES IDX 64 57 49 58 52 59 63 60 79 61 50 62 51 63 62 65 80 66 53 67
REMARK SMILES IDX 40 68 41 69 46 70 42 71 43 72 45 73 47 74 44 75 66 76 67 77
REMARK SMILES IDX 72 78 68 79 69 80 71 81 73 82 70 83 54 84 55 85 60 86 56 87
REMARK SMILES IDX 57 88 59 89 61 90 58 91
REMARK H PARENT 13 24 13 25 13 26 78 53 52 64
REMARK Flexibility Score: inf
ROOT
ATOM      1  C   UNL     1       0.161   5.035  -6.632  1.00  0.00     0.188 C 
ENDROOT
BRANCH   1   2
ATOM      2  C   UNL     1       0.134   6.072  -5.504  1.00  0.00     0.188 C 
BRANCH   2   3
ATOM      3  O   UNL     1       1.376   6.628  -5.092  1.00  0.00    -0.376 OA
BRANCH   3   4
ATOM      4  C   UNL     1       2.202   5.774  -4.297  1.00  0.00     0.202 C 
BRANCH   4   5
ATOM      5  C   UNL     1       1.645   5.458  -2.915  1.00  0.00     0.261 C 
BRANCH   5   6
ATOM      6  O   UNL     1       0.819   4.283  -2.988  1.00  0.00    -0.459 OA
BRANCH   6   7
ATOM      7  C   UNL     1      -0.469   4.466  -2.621  1.00  0.00     0.368 C 
ATOM      8  O   UNL     1      -0.899   5.488  -2.094  1.00  0.00    -0.245 OA
BRANCH   7   9
ATOM      9  C   UNL     1      -1.376   3.315  -3.086  1.00  0.00     0.193 C 
ATOM     10  C   UNL     1      -3.259   2.030  -2.219  1.00  0.00     0.054 C 
ATOM     11  C   UNL     1      -2.144   1.071  -2.655  1.00  0.00     0.022 C 
ATOM     12  C   UNL     1      -2.681   3.433  -2.293  1.00  0.00     0.095 C 
ATOM     13  C   UNL     1      -0.871   1.915  -2.737  1.00  0.00     0.082 C 
BRANCH  10  14
ATOM     14  S   UNL     1      -4.076   1.782  -0.600  1.00  0.00    -0.154 SA
BRANCH  14  15
ATOM     15  C   UNL     1      -2.663   1.772   0.579  1.00  0.00     0.105 C 
BRANCH  15  16
ATOM     16  C   UNL     1      -1.899   0.470   0.597  1.00  0.00    -0.038 A 
ATOM     17  C   UNL     1       1.716  -0.736   0.781  1.00  0.00     0.044 C 
ATOM     18  C   UNL     1       0.224  -0.724   0.668  1.00  0.00    -0.051 A 
ATOM     19  C   UNL     1      -0.444  -1.919   0.399  1.00  0.00     0.003 A 
ATOM     20  C   UNL     1      -0.506   0.471   0.757  1.00  0.00     0.008 A 
ATOM     21  C   UNL     1      -1.830  -1.942   0.313  1.00  0.00     0.001 A 
ATOM     22  C   UNL     1      -2.553  -0.762   0.448  1.00  0.00     0.004 A 
ENDBRANCH  15  16
ENDBRANCH  14  15
ENDBRANCH  10  14
BRANCH   9  23
ATOM     23  N   UNL     1      -1.666   3.411  -4.533  1.00  0.00    -0.343 N 
ATOM     24  H   UNL     1      -2.268   2.636  -4.811  1.00  0.00     0.345 HD
ATOM     25  H   UNL     1      -0.792   3.368  -5.058  1.00  0.00     0.345 HD
ATOM     26  H   UNL     1      -2.136   4.295  -4.727  1.00  0.00     0.345 HD
ENDBRANCH   9  23
ENDBRANCH   7   9
ENDBRANCH   6   7
ENDBRANCH   5   6
ENDBRANCH   4   5
ENDBRANCH   3   4
ENDBRANCH   2   3
ENDBRANCH   1   2
BRANCH   1  27
ATOM     27  O   UNL     1       1.071   3.956  -6.443  1.00  0.00    -0.377 OA
BRANCH  27  28
ATOM     28  C   UNL     1       1.819   3.675  -7.622  1.00  0.00     0.188 C 
BRANCH  28  29
ATOM     29  C   UNL     1       3.072   4.543  -7.752  1.00  0.00     0.188 C 
BRANCH  29  30
ATOM     30  O   UNL     1       2.945   5.916  -7.422  1.00  0.00    -0.376 OA
BRANCH  30  31
ATOM     31  C   UNL     1       2.548   6.872  -8.392  1.00  0.00     0.202 C 
BRANCH  31  32
ATOM     32  C   UNL     1       3.377   6.908  -9.678  1.00  0.00     0.261 C 
BRANCH  32  33
ATOM     33  O   UNL     1       4.744   7.237  -9.372  1.00  0.00    -0.460 OA
BRANCH  33  34
ATOM     34  C   UNL     1       5.605   6.195  -9.391  1.00  0.00     0.338 C 
ATOM     35  O   UNL     1       5.715   5.383 -10.318  1.00  0.00    -0.246 OA
BRANCH  34  36
ATOM     36  C   UNL     1       6.160   5.967  -8.031  1.00  0.00     0.060 A 
ATOM     37  C   UNL     1       6.757   4.732  -7.733  1.00  0.00     0.016 A 
ATOM     38  C   UNL     1       5.750   6.801  -6.995  1.00  0.00     0.016 A 
ATOM     39  C   UNL     1       6.748   4.248  -6.417  1.00  0.00     0.010 A 
ATOM     40  C   UNL     1       5.652   6.272  -5.721  1.00  0.00     0.010 A 
ATOM     41  C   UNL     1       6.083   4.968  -5.423  1.00  0.00    -0.014 A 
BRANCH  41  42
ATOM     42  C   UNL     1       5.562   4.378  -4.168  1.00  0.00     0.031 A 
ATOM     43  C   UNL     1       5.598   5.170  -2.889  1.00  0.00     0.074 A 
ATOM     44  C   UNL     1       4.765   3.275  -4.247  1.00  0.00     0.049 A 
ATOM     45  N   UNL     1       5.072   4.783  -1.778  1.00  0.00    -0.248 NA
ATOM     46  C   UNL     1       6.229   6.486  -2.738  1.00  0.00     0.031 C 
ATOM     47  C   UNL     1       3.706   2.892  -3.316  1.00  0.00     0.029 A 
ATOM     48  N   UNL     1       4.716   2.244  -5.194  1.00  0.00    -0.354 N 
ATOM     49  C   UNL     1       4.967   5.865  -0.929  1.00  0.00     0.074 A 
ATOM     50  C   UNL     1       5.784   6.878  -1.536  1.00  0.00     0.031 C 
ATOM     51  C   UNL     1       3.182   1.703  -3.634  1.00  0.00     0.029 A 
ATOM     52  C   UNL     1       4.064   1.132  -4.613  1.00  0.00     0.049 A 
ATOM     53  H   UNL     1       5.074   2.287  -6.110  1.00  0.00     0.167 HD
ATOM     54  C   UNL     1       4.089   5.790   0.114  1.00  0.00     0.037 A 
ATOM     55  C   UNL     1       4.744  -0.031  -4.381  1.00  0.00     0.037 A 
ATOM     56  C   UNL     1       3.629   4.414   0.291  1.00  0.00     0.049 A 
ATOM     57  C   UNL     1       4.982  -0.263  -2.900  1.00  0.00     0.074 A 
ATOM     58  C   UNL     1       2.404   3.797   0.130  1.00  0.00     0.029 A 
ATOM     59  N   UNL     1       4.574   3.397   0.435  1.00  0.00    -0.354 N 
ATOM     60  N   UNL     1       4.984   0.702  -2.013  1.00  0.00    -0.248 NA
ATOM     61  C   UNL     1       5.102  -1.577  -2.274  1.00  0.00     0.031 C 
ATOM     62  C   UNL     1       2.665   2.417  -0.065  1.00  0.00     0.029 A 
ATOM     63  C   UNL     1       4.007   2.167   0.183  1.00  0.00     0.049 A 
ATOM     64  H   UNL     1       5.516   3.540   0.682  1.00  0.00     0.167 HD
ATOM     65  C   UNL     1       4.976   0.176  -0.750  1.00  0.00     0.074 A 
ATOM     66  C   UNL     1       5.110  -1.255  -0.966  1.00  0.00     0.031 C 
ATOM     67  C   UNL     1       4.763   0.931   0.373  1.00  0.00     0.037 A 
BRANCH  54  68
ATOM     68  C   UNL     1       3.469   6.954   0.870  1.00  0.00     0.057 A 
ATOM     69  C   UNL     1       2.644   6.718   1.993  1.00  0.00     0.134 A 
ATOM     70  C   UNL     1       3.522   8.304   0.473  1.00  0.00     0.134 A 
ATOM     71  F   UNL     1       2.475   5.483   2.489  1.00  0.00    -0.206 F 
ATOM     72  C   UNL     1       1.933   7.733   2.655  1.00  0.00     0.040 A 
ATOM     73  C   UNL     1       2.853   9.335   1.155  1.00  0.00     0.040 A 
ATOM     74  F   UNL     1       4.175   8.696  -0.626  1.00  0.00    -0.206 F 
ATOM     75  C   UNL     1       2.044   9.051   2.244  1.00  0.00     0.006 A 
ENDBRANCH  54  68
BRANCH  55  76
ATOM     76  C   UNL     1       5.542  -0.416  -5.577  1.00  0.00     0.057 A 
ATOM     77  C   UNL     1       4.766  -0.723  -6.716  1.00  0.00     0.134 A 
ATOM     78  C   UNL     1       6.802   0.147  -5.804  1.00  0.00     0.134 A 
ATOM     79  F   UNL     1       3.564  -1.305  -6.569  1.00  0.00    -0.206 F 
ATOM     80  C   UNL     1       5.103  -0.245  -7.984  1.00  0.00     0.040 A 
ATOM     81  C   UNL     1       7.164   0.599  -7.082  1.00  0.00     0.040 A 
ATOM     82  F   UNL     1       7.611   0.444  -4.777  1.00  0.00    -0.206 F 
ATOM     83  C   UNL     1       6.282   0.471  -8.157  1.00  0.00     0.006 A 
ENDBRANCH  55  76
BRANCH  67  84
ATOM     84  C   UNL     1       5.077   0.519   1.799  1.00  0.00     0.057 A 
ATOM     85  C   UNL     1       5.998  -0.478   2.143  1.00  0.00     0.134 A 
ATOM     86  C   UNL     1       4.565   1.254   2.900  1.00  0.00     0.134 A 
ATOM     87  F   UNL     1       6.646  -1.189   1.212  1.00  0.00    -0.206 F 
ATOM     88  C   UNL     1       6.343  -0.758   3.473  1.00  0.00     0.040 A 
ATOM     89  C   UNL     1       4.949   1.024   4.223  1.00  0.00     0.040 A 
ATOM     90  F   UNL     1       3.680   2.249   2.748  1.00  0.00    -0.206 F 
ATOM     91  C   UNL     1       5.832   0.003   4.516  1.00  0.00     0.006 A 
ENDBRANCH  67  84
ENDBRANCH  41  42
ENDBRANCH  34  36
ENDBRANCH  33  34
ENDBRANCH  32  33
ENDBRANCH  31  32
ENDBRANCH  30  31
ENDBRANCH  29  30
ENDBRANCH  28  29
ENDBRANCH  27  28
ENDBRANCH   1  27
TORSDOF 24
