REMARK SMILES CCOc1ccc(NC(=O)N2CC[C@@H](C(=O)OCCOCCOCCOCCOC(=O)c3ccc(-c4c5nc(c(-c6c(F)cccc6F)c6ccc([nH]6)c(-c6c(F)cccc6F)c6nc(c(-c7c(F)cccc7F)c7ccc4[nH]7)C=C6)C=C5)cc3)[C@@H]2C)cc1
REMARK SMILES IDX 22 1 21 2 20 3 19 4 18 5 17 6 15 7 16 8 14 9 11 10 12 11
REMARK SMILES IDX 86 12 13 13 87 14 9 15 8 16 10 18 7 19 4 20 5 21 89 22 6 23
REMARK SMILES IDX 88 24 3 25 2 26 1 27 23 28 24 29 25 30 26 31 27 32 28 33
REMARK SMILES IDX 29 34 30 35 31 36 32 37 33 38 85 39 34 40 84 41 35 42 36 43
REMARK SMILES IDX 37 44 78 45 38 46 83 47 77 48 79 49 39 50 82 51 76 52 75 53
REMARK SMILES IDX 40 55 66 56 49 57 65 58 50 59 53 60 64 61 80 62 51 63 52 64
REMARK SMILES IDX 63 66 81 67 54 68 41 69 42 70 47 71 43 72 44 73 46 74 48 75
REMARK SMILES IDX 45 76 67 77 68 78 73 79 69 80 70 81 72 82 74 83 71 84 55 85
REMARK SMILES IDX 56 86 61 87 57 88 58 89 60 90 62 91 59 92
REMARK H PARENT 8 17 79 54 53 65
REMARK Flexibility Score: inf
ROOT
ATOM      1  C   UNL     1       2.469  -5.168   3.913  1.00  0.00     0.188 C 
ENDROOT
BRANCH   1   2
ATOM      2  C   UNL     1       1.222  -5.275   4.793  1.00  0.00     0.188 C 
BRANCH   2   3
ATOM      3  O   UNL     1       0.400  -4.134   4.576  1.00  0.00    -0.376 OA
BRANCH   3   4
ATOM      4  C   UNL     1       0.136  -3.301   5.682  1.00  0.00     0.202 C 
BRANCH   4   5
ATOM      5  C   UNL     1       1.295  -2.473   6.270  1.00  0.00     0.261 C 
BRANCH   5   6
ATOM      6  O   UNL     1       2.644  -2.867   5.940  1.00  0.00    -0.463 OA
BRANCH   6   7
ATOM      7  C   UNL     1       3.327  -3.528   6.905  1.00  0.00     0.311 C 
ATOM      8  O   UNL     1       2.807  -3.930   7.942  1.00  0.00    -0.252 OA
BRANCH   7   9
ATOM      9  C   UNL     1       4.817  -3.718   6.645  1.00  0.00     0.123 C 
ATOM     10  N   UNL     1       6.568  -2.438   5.641  1.00  0.00    -0.321 N 
ATOM     11  C   UNL     1       6.936  -2.630   7.020  1.00  0.00     0.122 C 
ATOM     12  C   UNL     1       5.442  -3.321   5.283  1.00  0.00     0.098 C 
ATOM     13  C   UNL     1       5.595  -2.880   7.676  1.00  0.00     0.039 C 
ATOM     14  C   UNL     1       6.002  -4.558   4.559  1.00  0.00     0.032 C 
BRANCH  10  15
ATOM     15  C   UNL     1       7.397  -1.760   4.794  1.00  0.00     0.322 C 
ATOM     16  N   UNL     1       6.871  -1.013   3.787  1.00  0.00    -0.308 N 
ATOM     17  H   UNL     1       7.437  -0.942   2.985  1.00  0.00     0.171 HD
ATOM     18  O   UNL     1       8.622  -1.789   4.929  1.00  0.00    -0.248 OA
BRANCH  16  19
ATOM     19  C   UNL     1       5.648  -0.325   3.710  1.00  0.00     0.043 A 
ATOM     20  C   UNL     1       3.171   0.880   3.373  1.00  0.00     0.119 A 
ATOM     21  C   UNL     1       3.485   0.317   4.596  1.00  0.00     0.048 A 
ATOM     22  C   UNL     1       4.132   0.998   2.370  1.00  0.00     0.048 A 
ATOM     23  C   UNL     1       4.739  -0.250   4.770  1.00  0.00     0.030 A 
ATOM     24  C   UNL     1       5.362   0.361   2.526  1.00  0.00     0.030 A 
BRANCH  20  25
ATOM     25  O   UNL     1       1.887   1.278   3.143  1.00  0.00    -0.494 OA
BRANCH  25  26
ATOM     26  C   UNL     1       1.107   0.167   2.669  1.00  0.00     0.226 C 
ATOM     27  C   UNL     1       1.577  -0.312   1.310  1.00  0.00     0.049 C 
ENDBRANCH  25  26
ENDBRANCH  20  25
ENDBRANCH  16  19
ENDBRANCH  10  15
ENDBRANCH   7   9
ENDBRANCH   6   7
ENDBRANCH   5   6
ENDBRANCH   4   5
ENDBRANCH   3   4
ENDBRANCH   2   3
ENDBRANCH   1   2
BRANCH   1  28
ATOM     28  O   UNL     1       2.176  -5.000   2.532  1.00  0.00    -0.377 OA
BRANCH  28  29
ATOM     29  C   UNL     1       1.708  -3.693   2.188  1.00  0.00     0.188 C 
BRANCH  29  30
ATOM     30  C   UNL     1       0.326  -3.759   1.528  1.00  0.00     0.188 C 
BRANCH  30  31
ATOM     31  O   UNL     1       0.097  -4.669   0.458  1.00  0.00    -0.376 OA
BRANCH  31  32
ATOM     32  C   UNL     1       1.192  -5.287  -0.197  1.00  0.00     0.202 C 
BRANCH  32  33
ATOM     33  C   UNL     1       2.230  -4.374  -0.858  1.00  0.00     0.261 C 
BRANCH  33  34
ATOM     34  O   UNL     1       1.848  -3.000  -1.007  1.00  0.00    -0.460 OA
BRANCH  34  35
ATOM     35  C   UNL     1       0.872  -2.712  -1.905  1.00  0.00     0.338 C 
ATOM     36  O   UNL     1       0.230  -3.476  -2.583  1.00  0.00    -0.246 OA
BRANCH  35  37
ATOM     37  C   UNL     1       0.729  -1.234  -1.883  1.00  0.00     0.060 A 
ATOM     38  C   UNL     1      -0.498  -0.645  -1.556  1.00  0.00     0.016 A 
ATOM     39  C   UNL     1       1.860  -0.434  -2.087  1.00  0.00     0.016 A 
ATOM     40  C   UNL     1      -0.580   0.749  -1.378  1.00  0.00     0.010 A 
ATOM     41  C   UNL     1       1.774   0.950  -1.916  1.00  0.00     0.010 A 
ATOM     42  C   UNL     1       0.557   1.557  -1.545  1.00  0.00    -0.014 A 
BRANCH  42  43
ATOM     43  C   UNL     1       0.477   3.046  -1.549  1.00  0.00     0.031 A 
ATOM     44  C   UNL     1       0.344   3.712  -2.883  1.00  0.00     0.074 A 
ATOM     45  C   UNL     1       0.597   3.816  -0.447  1.00  0.00     0.049 A 
ATOM     46  N   UNL     1       0.280   4.985  -3.170  1.00  0.00    -0.248 NA
ATOM     47  C   UNL     1       0.278   2.817  -4.050  1.00  0.00     0.031 C 
ATOM     48  C   UNL     1       0.717   3.327   0.915  1.00  0.00     0.029 A 
ATOM     49  N   UNL     1       0.668   5.184  -0.301  1.00  0.00    -0.354 N 
ATOM     50  C   UNL     1       0.118   5.040  -4.543  1.00  0.00     0.074 A 
ATOM     51  C   UNL     1       0.190   3.684  -5.042  1.00  0.00     0.031 C 
ATOM     52  C   UNL     1       0.917   4.356   1.757  1.00  0.00     0.029 A 
ATOM     53  C   UNL     1       0.904   5.598   0.994  1.00  0.00     0.049 A 
ATOM     54  H   UNL     1       0.560   5.810  -1.053  1.00  0.00     0.167 HD
ATOM     55  C   UNL     1      -0.117   6.118  -5.322  1.00  0.00     0.037 A 
ATOM     56  C   UNL     1       1.079   6.834   1.504  1.00  0.00     0.037 A 
ATOM     57  C   UNL     1      -0.137   7.472  -4.852  1.00  0.00     0.049 A 
ATOM     58  C   UNL     1       0.949   8.029   0.593  1.00  0.00     0.074 A 
ATOM     59  C   UNL     1      -0.362   8.630  -5.572  1.00  0.00     0.029 A 
ATOM     60  N   UNL     1       0.109   7.851  -3.542  1.00  0.00    -0.354 N 
ATOM     61  N   UNL     1       0.671   8.065  -0.687  1.00  0.00    -0.248 NA
ATOM     62  C   UNL     1       1.122   9.358   1.203  1.00  0.00     0.031 C 
ATOM     63  C   UNL     1      -0.202   9.717  -4.707  1.00  0.00     0.029 A 
ATOM     64  C   UNL     1       0.073   9.231  -3.438  1.00  0.00     0.049 A 
ATOM     65  H   UNL     1       0.282   7.232  -2.796  1.00  0.00     0.167 HD
ATOM     66  C   UNL     1       0.580   9.410  -1.021  1.00  0.00     0.074 A 
ATOM     67  C   UNL     1       0.833  10.162   0.189  1.00  0.00     0.031 C 
ATOM     68  C   UNL     1       0.299   9.970  -2.222  1.00  0.00     0.037 A 
BRANCH  55  69
ATOM     69  C   UNL     1      -0.364   5.833  -6.768  1.00  0.00     0.057 A 
ATOM     70  C   UNL     1      -1.547   5.208  -7.191  1.00  0.00     0.134 A 
ATOM     71  C   UNL     1       0.610   6.109  -7.731  1.00  0.00     0.134 A 
ATOM     72  F   UNL     1      -2.502   4.888  -6.303  1.00  0.00    -0.206 F 
ATOM     73  C   UNL     1      -1.734   4.831  -8.519  1.00  0.00     0.040 A 
ATOM     74  C   UNL     1       0.422   5.760  -9.068  1.00  0.00     0.040 A 
ATOM     75  F   UNL     1       1.766   6.694  -7.384  1.00  0.00    -0.206 F 
ATOM     76  C   UNL     1      -0.746   5.108  -9.462  1.00  0.00     0.006 A 
ENDBRANCH  55  69
BRANCH  56  77
ATOM     77  C   UNL     1       1.364   7.046   2.951  1.00  0.00     0.057 A 
ATOM     78  C   UNL     1       0.424   7.655   3.793  1.00  0.00     0.134 A 
ATOM     79  C   UNL     1       2.616   6.748   3.502  1.00  0.00     0.134 A 
ATOM     80  F   UNL     1      -0.784   7.995   3.319  1.00  0.00    -0.206 F 
ATOM     81  C   UNL     1       0.729   7.998   5.113  1.00  0.00     0.040 A 
ATOM     82  C   UNL     1       2.928   7.064   4.829  1.00  0.00     0.040 A 
ATOM     83  F   UNL     1       3.568   6.175   2.752  1.00  0.00    -0.206 F 
ATOM     84  C   UNL     1       1.987   7.704   5.634  1.00  0.00     0.006 A 
ENDBRANCH  56  77
BRANCH  68  85
ATOM     85  C   UNL     1       0.193  11.465  -2.289  1.00  0.00     0.057 A 
ATOM     86  C   UNL     1       1.317  12.295  -2.203  1.00  0.00     0.134 A 
ATOM     87  C   UNL     1      -1.047  12.076  -2.518  1.00  0.00     0.134 A 
ATOM     88  F   UNL     1       2.531  11.774  -1.970  1.00  0.00    -0.206 F 
ATOM     89  C   UNL     1       1.210  13.681  -2.332  1.00  0.00     0.040 A 
ATOM     90  C   UNL     1      -1.163  13.457  -2.677  1.00  0.00     0.040 A 
ATOM     91  F   UNL     1      -2.163  11.337  -2.617  1.00  0.00    -0.206 F 
ATOM     92  C   UNL     1      -0.031  14.264  -2.582  1.00  0.00     0.006 A 
ENDBRANCH  68  85
ENDBRANCH  42  43
ENDBRANCH  35  37
ENDBRANCH  34  35
ENDBRANCH  33  34
ENDBRANCH  32  33
ENDBRANCH  31  32
ENDBRANCH  30  31
ENDBRANCH  29  30
ENDBRANCH  28  29
ENDBRANCH   1  28
TORSDOF 24
