REMARK SMILES O=C(COc1ccccc1/C=N/N1[C@@H](S)N=N[C@H]1[C@@H]1C=C(c2ccccc2)N=N1)OCCOCCOCCOCCOC(=O)c1ccc(-c2c3nc(c(-c4c(F)cccc4F)c4ccc([nH]4)c(-c4c(F)cccc4F)c4nc(c(-c5c(F)cccc5F)c5ccc2[nH]5)C=C4)C=C3)cc1
REMARK SMILES IDX 34 1 33 2 32 3 31 4 30 5 2 6 1 7 3 8 4 9 5 10 6 11 10 12
REMARK SMILES IDX 7 13 9 14 8 15 11 16 12 17 13 18 14 19 18 20 16 21 17 22
REMARK SMILES IDX 15 23 19 25 20 26 29 27 21 28 28 29 22 30 23 31 27 32 24 33
REMARK SMILES IDX 26 34 25 35 35 36 36 37 37 38 38 39 39 40 40 41 41 42 42 43
REMARK SMILES IDX 43 44 44 45 45 46 46 47 98 48 47 49 97 50 48 51 49 52 50 53
REMARK SMILES IDX 91 54 51 55 96 56 90 57 92 58 52 59 95 60 89 61 88 62 53 64
REMARK SMILES IDX 79 65 62 66 78 67 63 68 66 69 77 70 93 71 64 72 65 73 76 75
REMARK SMILES IDX 94 76 67 77 54 78 55 79 60 80 56 81 57 82 59 83 61 84 58 85
REMARK SMILES IDX 80 86 81 87 86 88 82 89 83 90 85 91 87 92 84 93 68 94 69 95
REMARK SMILES IDX 74 96 70 97 71 98 73 99 75 100 72 101
REMARK H PARENT 15 24 92 63 66 74
REMARK Flexibility Score: inf
ROOT
ATOM      1  C   UNL     1       3.992   1.171   2.191  1.00  0.00     0.188 C 
ENDROOT
BRANCH   1   2
ATOM      2  O   UNL     1       5.169   1.418   1.399  1.00  0.00    -0.376 OA
BRANCH   2   3
ATOM      3  C   UNL     1       5.564   0.812   0.159  1.00  0.00     0.202 C 
BRANCH   3   4
ATOM      4  C   UNL     1       4.471   0.698  -1.257  1.00  0.00     0.261 C 
BRANCH   4   5
ATOM      5  O   UNL     1       2.714  -0.472  -1.177  1.00  0.00    -0.461 OA
BRANCH   5   6
ATOM      6  C   UNL     1       1.566  -0.705  -0.174  1.00  0.00     0.344 C 
ATOM      7  O   UNL     1       0.765   0.164   0.183  1.00  0.00    -0.248 OA
BRANCH   6   8
ATOM      8  C   UNL     1       1.649  -2.030   0.537  1.00  0.00     0.352 C 
BRANCH   8   9
ATOM      9  O   UNL     1       2.398  -2.996  -0.146  1.00  0.00    -0.481 OA
BRANCH   9  10
ATOM     10  C   UNL     1       1.636  -3.839  -0.893  1.00  0.00     0.129 A 
ATOM     11  C   UNL     1       1.827  -5.175  -0.516  1.00  0.00     0.047 A 
ATOM     12  C   UNL     1       0.958  -3.508  -2.079  1.00  0.00     0.037 A 
ATOM     13  C   UNL     1       1.349  -6.199  -1.315  1.00  0.00     0.004 A 
ATOM     14  C   UNL     1       0.470  -4.551  -2.868  1.00  0.00     0.013 A 
ATOM     15  C   UNL     1       0.668  -5.885  -2.488  1.00  0.00     0.001 A 
BRANCH  12  16
ATOM     16  C   UNL     1       0.842  -2.148  -2.679  1.00  0.00     0.145 C 
ATOM     17  N   UNL     1       0.142  -1.209  -2.124  1.00  0.00    -0.180 NA
BRANCH  17  18
ATOM     18  N   UNL     1       0.109   0.019  -2.756  1.00  0.00    -0.233 NA
ATOM     19  C   UNL     1      -1.099   0.878  -2.475  1.00  0.00     0.298 C 
ATOM     20  C   UNL     1       1.142   1.092  -2.538  1.00  0.00     0.274 C 
ATOM     21  N   UNL     1      -0.689   2.158  -1.847  1.00  0.00    -0.153 NA
ATOM     22  N   UNL     1       0.555   2.258  -1.840  1.00  0.00    -0.161 NA
BRANCH  19  23
ATOM     23  S   UNL     1      -2.469   0.058  -1.586  1.00  0.00    -0.128 SA
ATOM     24  H   UNL     1      -2.063  -0.269  -0.330  1.00  0.00     0.106 HD
ENDBRANCH  19  23
BRANCH  20  25
ATOM     25  C   UNL     1       2.658   1.003  -2.124  1.00  0.00     0.202 C 
ATOM     26  C   UNL     1       3.651  -0.541  -2.833  1.00  0.00     0.037 C 
ATOM     27  N   UNL     1       3.074   0.809  -0.146  1.00  0.00    -0.177 NA
ATOM     28  C   UNL     1       4.313  -1.350  -1.657  1.00  0.00     0.091 C 
ATOM     29  N   UNL     1       3.979  -0.664  -0.014  1.00  0.00    -0.155 NA
BRANCH  28  30
ATOM     30  C   UNL     1       5.313  -2.405  -1.844  1.00  0.00     0.002 A 
ATOM     31  C   UNL     1       4.912  -3.731  -1.985  1.00  0.00     0.010 A 
ATOM     32  C   UNL     1       6.678  -2.108  -1.925  1.00  0.00     0.010 A 
ATOM     33  C   UNL     1       5.844  -4.765  -2.049  1.00  0.00     0.001 A 
ATOM     34  C   UNL     1       7.618  -3.138  -2.028  1.00  0.00     0.001 A 
ATOM     35  C   UNL     1       7.201  -4.468  -2.052  1.00  0.00     0.000 A 
ENDBRANCH  28  30
ENDBRANCH  20  25
ENDBRANCH  17  18
ENDBRANCH  12  16
ENDBRANCH   9  10
ENDBRANCH   8   9
ENDBRANCH   6   8
ENDBRANCH   5   6
ENDBRANCH   4   5
ENDBRANCH   3   4
ENDBRANCH   2   3
ENDBRANCH   1   2
BRANCH   1  36
ATOM     36  C   UNL     1       2.807   2.198   2.029  1.00  0.00     0.188 C 
BRANCH  36  37
ATOM     37  O   UNL     1       3.125   3.586   2.024  1.00  0.00    -0.377 OA
BRANCH  37  38
ATOM     38  C   UNL     1       4.386   3.913   1.489  1.00  0.00     0.188 C 
BRANCH  38  39
ATOM     39  C   UNL     1       5.533   3.927   2.529  1.00  0.00     0.188 C 
BRANCH  39  40
ATOM     40  O   UNL     1       5.353   3.764   3.943  1.00  0.00    -0.376 OA
BRANCH  40  41
ATOM     41  C   UNL     1       4.100   3.746   4.614  1.00  0.00     0.202 C 
BRANCH  41  42
ATOM     42  C   UNL     1       3.336   5.053   4.808  1.00  0.00     0.261 C 
BRANCH  42  43
ATOM     43  O   UNL     1       3.267   5.806   3.620  1.00  0.00    -0.460 OA
BRANCH  43  44
ATOM     44  C   UNL     1       4.399   6.487   3.366  1.00  0.00     0.338 C 
ATOM     45  O   UNL     1       5.360   6.644   4.099  1.00  0.00    -0.246 OA
BRANCH  44  46
ATOM     46  C   UNL     1       4.273   7.102   2.041  1.00  0.00     0.060 A 
ATOM     47  C   UNL     1       5.329   7.938   1.701  1.00  0.00     0.016 A 
ATOM     48  C   UNL     1       2.993   7.203   1.474  1.00  0.00     0.016 A 
ATOM     49  C   UNL     1       4.976   9.158   1.210  1.00  0.00     0.010 A 
ATOM     50  C   UNL     1       2.634   8.425   0.999  1.00  0.00     0.010 A 
ATOM     51  C   UNL     1       3.611   9.411   1.031  1.00  0.00    -0.014 A 
BRANCH  51  52
ATOM     52  C   UNL     1       3.230  10.788   0.946  1.00  0.00     0.031 A 
ATOM     53  C   UNL     1       3.426  11.332  -0.395  1.00  0.00     0.074 A 
ATOM     54  C   UNL     1       2.751  11.458   2.006  1.00  0.00     0.049 A 
ATOM     55  N   UNL     1       4.362  12.125  -0.785  1.00  0.00    -0.248 NA
ATOM     56  C   UNL     1       2.611  10.751  -1.469  1.00  0.00     0.031 C 
ATOM     57  C   UNL     1       2.247  10.932   3.277  1.00  0.00     0.029 A 
ATOM     58  N   UNL     1       2.529  12.789   2.106  1.00  0.00    -0.354 N 
ATOM     59  C   UNL     1       4.117  12.317  -2.133  1.00  0.00     0.074 A 
ATOM     60  C   UNL     1       3.187  11.296  -2.538  1.00  0.00     0.031 C 
ATOM     61  C   UNL     1       1.571  11.917   3.916  1.00  0.00     0.029 A 
ATOM     62  C   UNL     1       1.708  13.151   3.158  1.00  0.00     0.049 A 
ATOM     63  H   UNL     1       2.919  13.444   1.484  1.00  0.00     0.167 HD
ATOM     64  C   UNL     1       4.470  13.477  -2.739  1.00  0.00     0.037 A 
ATOM     65  C   UNL     1       1.115  14.360   3.297  1.00  0.00     0.037 A 
ATOM     66  C   UNL     1       5.448  14.204  -1.970  1.00  0.00     0.049 A 
ATOM     67  C   UNL     1       1.836  15.320   2.414  1.00  0.00     0.074 A 
ATOM     68  C   UNL     1       6.721  13.922  -1.510  1.00  0.00     0.029 A 
ATOM     69  N   UNL     1       5.016  15.288  -1.245  1.00  0.00    -0.354 N 
ATOM     70  N   UNL     1       3.046  15.756   2.634  1.00  0.00    -0.248 NA
ATOM     71  C   UNL     1       1.369  15.468   1.041  1.00  0.00     0.031 C 
ATOM     72  C   UNL     1       6.815  14.566  -0.242  1.00  0.00     0.029 A 
ATOM     73  C   UNL     1       5.608  15.227  -0.009  1.00  0.00     0.049 A 
ATOM     74  H   UNL     1       4.393  15.983  -1.556  1.00  0.00     0.167 HD
ATOM     75  C   UNL     1       3.632  15.839   1.377  1.00  0.00     0.074 A 
ATOM     76  C   UNL     1       2.523  15.756   0.433  1.00  0.00     0.031 C 
ATOM     77  C   UNL     1       4.979  15.676   1.213  1.00  0.00     0.037 A 
BRANCH  64  78
ATOM     78  C   UNL     1       3.630  14.112  -3.808  1.00  0.00     0.057 A 
ATOM     79  C   UNL     1       4.160  15.185  -4.538  1.00  0.00     0.134 A 
ATOM     80  C   UNL     1       2.242  13.899  -3.964  1.00  0.00     0.134 A 
ATOM     81  F   UNL     1       5.460  15.501  -4.446  1.00  0.00    -0.206 F 
ATOM     82  C   UNL     1       3.357  16.019  -5.321  1.00  0.00     0.040 A 
ATOM     83  C   UNL     1       1.444  14.687  -4.791  1.00  0.00     0.040 A 
ATOM     84  F   UNL     1       1.564  12.992  -3.250  1.00  0.00    -0.206 F 
ATOM     85  C   UNL     1       1.995  15.772  -5.449  1.00  0.00     0.006 A 
ENDBRANCH  64  78
BRANCH  65  86
ATOM     86  C   UNL     1      -0.205  14.666   3.890  1.00  0.00     0.057 A 
ATOM     87  C   UNL     1      -0.557  15.982   4.215  1.00  0.00     0.134 A 
ATOM     88  C   UNL     1      -1.249  13.723   3.917  1.00  0.00     0.134 A 
ATOM     89  F   UNL     1       0.359  16.961   4.175  1.00  0.00    -0.206 F 
ATOM     90  C   UNL     1      -1.873  16.346   4.527  1.00  0.00     0.040 A 
ATOM     91  C   UNL     1      -2.564  14.070   4.241  1.00  0.00     0.040 A 
ATOM     92  F   UNL     1      -1.051  12.451   3.545  1.00  0.00    -0.206 F 
ATOM     93  C   UNL     1      -2.883  15.389   4.533  1.00  0.00     0.006 A 
ENDBRANCH  65  86
BRANCH  77  94
ATOM     94  C   UNL     1       5.838  15.704   2.446  1.00  0.00     0.057 A 
ATOM     95  C   UNL     1       5.750  14.762   3.482  1.00  0.00     0.134 A 
ATOM     96  C   UNL     1       6.881  16.634   2.522  1.00  0.00     0.134 A 
ATOM     97  F   UNL     1       4.852  13.769   3.441  1.00  0.00    -0.206 F 
ATOM     98  C   UNL     1       6.629  14.780   4.570  1.00  0.00     0.040 A 
ATOM     99  C   UNL     1       7.787  16.640   3.585  1.00  0.00     0.040 A 
ATOM    100  F   UNL     1       7.065  17.527   1.536  1.00  0.00    -0.206 F 
ATOM    101  C   UNL     1       7.655  15.719   4.620  1.00  0.00     0.006 A 
ENDBRANCH  77  94
ENDBRANCH  51  52
ENDBRANCH  44  46
ENDBRANCH  43  44
ENDBRANCH  42  43
ENDBRANCH  41  42
ENDBRANCH  40  41
ENDBRANCH  39  40
ENDBRANCH  38  39
ENDBRANCH  37  38
ENDBRANCH  36  37
ENDBRANCH   1  36
TORSDOF 27
