REMARK SMILES Cc1nnc(SCC2=C(C(=O)OCCOCCOCCOCCOC(=O)c3ccc(-c4c5nc(c(-c6c(F)cccc6F)c6ccc([nH]6)c(-c6c(F)cccc6F)c6nc(c(-c7c(F)cccc7F)c7ccc4[nH]7)C=C6)C=C5)cc3)N3C(=O)[C@H](NC(=O)c4ccc(F)cc4F)[C@H]3SC2)s1
REMARK SMILES IDX 17 1 16 2 15 3 14 4 13 5 12 6 10 7 11 8 9 9 8 10 98 11 81 12
REMARK SMILES IDX 97 13 82 14 96 15 83 16 84 17 7 18 6 19 5 20 1 21 2 22 3 23
REMARK SMILES IDX 99 24 4 25 85 26 86 27 87 29 88 30 89 31 94 32 90 33 93 34
REMARK SMILES IDX 95 35 91 36 92 37 18 38 19 39 20 40 21 41 22 42 23 43 24 44
REMARK SMILES IDX 25 45 26 46 27 47 28 48 80 49 29 50 79 51 30 52 31 53 32 54
REMARK SMILES IDX 73 55 33 56 78 57 72 58 74 59 34 60 77 61 71 62 70 63 35 65
REMARK SMILES IDX 61 66 44 67 60 68 45 69 48 70 59 71 75 72 46 73 47 74 58 76
REMARK SMILES IDX 76 77 49 78 36 79 37 80 42 81 38 82 39 83 41 84 43 85 40 86
REMARK SMILES IDX 62 87 63 88 68 89 64 90 65 91 67 92 69 93 66 94 50 95 51 96
REMARK SMILES IDX 56 97 52 98 53 99 55 100 57 101 54 102
REMARK H PARENT 85 28 74 64 48 75
REMARK Flexibility Score: inf
ROOT
ATOM      1  C   UNL     1       5.095  -4.566  -0.664  1.00  0.00     0.188 C 
ENDROOT
BRANCH   1   2
ATOM      2  C   UNL     1       3.818  -5.339  -1.064  1.00  0.00     0.188 C 
BRANCH   2   3
ATOM      3  O   UNL     1       3.365  -5.063  -2.387  1.00  0.00    -0.376 OA
BRANCH   3   4
ATOM      4  C   UNL     1       2.071  -4.496  -2.487  1.00  0.00     0.202 C 
BRANCH   4   5
ATOM      5  C   UNL     1       1.980  -3.022  -2.087  1.00  0.00     0.261 C 
BRANCH   5   6
ATOM      6  O   UNL     1       2.798  -2.652  -0.972  1.00  0.00    -0.459 OA
BRANCH   6   7
ATOM      7  C   UNL     1       2.296  -2.890   0.259  1.00  0.00     0.355 C 
ATOM      8  O   UNL     1       1.271  -3.507   0.510  1.00  0.00    -0.244 OA
BRANCH   7   9
ATOM      9  C   UNL     1       3.248  -2.393   1.317  1.00  0.00     0.132 C 
ATOM     10  C   UNL     1       3.939  -1.220   1.292  1.00  0.00    -0.019 C 
ATOM     11  C   UNL     1       4.954  -0.822   2.369  1.00  0.00     0.106 C 
ATOM     12  N   UNL     1       3.385  -3.226   2.389  1.00  0.00    -0.289 N 
ATOM     13  S   UNL     1       5.492  -2.169   3.480  1.00  0.00    -0.129 SA
ATOM     14  C   UNL     1       3.314  -4.531   2.669  1.00  0.00     0.253 C 
ATOM     15  C   UNL     1       3.801  -2.782   3.686  1.00  0.00     0.181 C 
ATOM     16  O   UNL     1       3.117  -5.537   2.003  1.00  0.00    -0.272 OA
ATOM     17  C   UNL     1       3.631  -4.249   4.179  1.00  0.00     0.206 C 
BRANCH  10  18
ATOM     18  C   UNL     1       3.885  -0.191   0.170  1.00  0.00     0.111 C 
BRANCH  18  19
ATOM     19  S   UNL     1       2.897   1.272   0.641  1.00  0.00    -0.089 SA
BRANCH  19  20
ATOM     20  C   UNL     1       1.282   0.717   0.275  1.00  0.00     0.174 A 
ATOM     21  C   UNL     1      -2.509   0.226  -0.022  1.00  0.00     0.081 C 
ATOM     22  C   UNL     1      -1.028   0.248   0.009  1.00  0.00     0.115 A 
ATOM     23  N   UNL     1      -0.275  -0.773  -0.325  1.00  0.00    -0.143 NA
ATOM     24  S   UNL     1      -0.142   1.647   0.483  1.00  0.00    -0.091 S 
ATOM     25  N   UNL     1       1.058  -0.488  -0.187  1.00  0.00    -0.132 NA
ENDBRANCH  19  20
ENDBRANCH  18  19
ENDBRANCH  10  18
BRANCH  17  26
ATOM     26  N   UNL     1       2.470  -4.685   5.016  1.00  0.00    -0.338 N 
ATOM     27  C   UNL     1       1.861  -4.165   6.126  1.00  0.00     0.254 C 
ATOM     28  H   UNL     1       2.057  -5.522   4.702  1.00  0.00     0.164 HD
ATOM     29  O   UNL     1       0.981  -4.789   6.708  1.00  0.00    -0.269 OA
BRANCH  27  30
ATOM     30  C   UNL     1       2.283  -2.877   6.670  1.00  0.00     0.075 A 
ATOM     31  C   UNL     1       3.028  -2.843   7.850  1.00  0.00     0.020 A 
ATOM     32  C   UNL     1       1.891  -1.693   6.050  1.00  0.00     0.138 A 
ATOM     33  C   UNL     1       3.471  -1.612   8.334  1.00  0.00     0.040 A 
ATOM     34  C   UNL     1       2.372  -0.471   6.498  1.00  0.00     0.079 A 
ATOM     35  F   UNL     1       1.116  -1.720   4.955  1.00  0.00    -0.206 F 
ATOM     36  C   UNL     1       3.168  -0.444   7.635  1.00  0.00     0.126 A 
ATOM     37  F   UNL     1       3.653   0.726   8.067  1.00  0.00    -0.207 F 
ENDBRANCH  27  30
ENDBRANCH  17  26
ENDBRANCH   7   9
ENDBRANCH   6   7
ENDBRANCH   5   6
ENDBRANCH   4   5
ENDBRANCH   3   4
ENDBRANCH   2   3
ENDBRANCH   1   2
BRANCH   1  38
ATOM     38  O   UNL     1       5.678  -3.642  -1.576  1.00  0.00    -0.377 OA
BRANCH  38  39
ATOM     39  C   UNL     1       5.761  -4.003  -2.951  1.00  0.00     0.188 C 
BRANCH  39  40
ATOM     40  C   UNL     1       5.958  -5.484  -3.355  1.00  0.00     0.188 C 
BRANCH  40  41
ATOM     41  O   UNL     1       6.175  -6.379  -2.276  1.00  0.00    -0.376 OA
BRANCH  41  42
ATOM     42  C   UNL     1       7.495  -6.836  -2.040  1.00  0.00     0.202 C 
BRANCH  42  43
ATOM     43  C   UNL     1       8.538  -5.779  -1.659  1.00  0.00     0.261 C 
BRANCH  43  44
ATOM     44  O   UNL     1       8.721  -4.713  -2.600  1.00  0.00    -0.460 OA
BRANCH  44  45
ATOM     45  C   UNL     1       9.109  -5.036  -3.852  1.00  0.00     0.338 C 
ATOM     46  O   UNL     1       9.358  -6.138  -4.300  1.00  0.00    -0.246 OA
BRANCH  45  47
ATOM     47  C   UNL     1       9.011  -3.801  -4.650  1.00  0.00     0.060 A 
ATOM     48  C   UNL     1       8.124  -3.739  -5.736  1.00  0.00     0.016 A 
ATOM     49  C   UNL     1       9.779  -2.694  -4.289  1.00  0.00     0.016 A 
ATOM     50  C   UNL     1       8.021  -2.565  -6.481  1.00  0.00     0.010 A 
ATOM     51  C   UNL     1       9.700  -1.534  -5.052  1.00  0.00     0.010 A 
ATOM     52  C   UNL     1       8.846  -1.478  -6.168  1.00  0.00    -0.014 A 
BRANCH  52  53
ATOM     53  C   UNL     1       9.035  -0.372  -7.131  1.00  0.00     0.031 A 
ATOM     54  C   UNL     1      10.195  -0.478  -8.078  1.00  0.00     0.074 A 
ATOM     55  C   UNL     1       8.249   0.716  -7.122  1.00  0.00     0.049 A 
ATOM     56  N   UNL     1      10.710   0.425  -8.868  1.00  0.00    -0.248 NA
ATOM     57  C   UNL     1      10.877  -1.784  -8.125  1.00  0.00     0.031 C 
ATOM     58  C   UNL     1       7.062   0.902  -6.291  1.00  0.00     0.029 A 
ATOM     59  N   UNL     1       8.359   1.889  -7.825  1.00  0.00    -0.354 N 
ATOM     60  C   UNL     1      11.784  -0.198  -9.492  1.00  0.00     0.074 A 
ATOM     61  C   UNL     1      11.861  -1.545  -8.977  1.00  0.00     0.031 C 
ATOM     62  C   UNL     1       6.567   2.133  -6.511  1.00  0.00     0.029 A 
ATOM     63  C   UNL     1       7.432   2.834  -7.459  1.00  0.00     0.049 A 
ATOM     64  H   UNL     1       9.036   2.039  -8.524  1.00  0.00     0.167 HD
ATOM     65  C   UNL     1      12.632   0.314 -10.413  1.00  0.00     0.037 A 
ATOM     66  C   UNL     1       7.329   4.128  -7.823  1.00  0.00     0.037 A 
ATOM     67  C   UNL     1      12.555   1.661 -10.906  1.00  0.00     0.049 A 
ATOM     68  C   UNL     1       8.344   4.707  -8.778  1.00  0.00     0.074 A 
ATOM     69  C   UNL     1      13.370   2.288 -11.830  1.00  0.00     0.029 A 
ATOM     70  N   UNL     1      11.606   2.589 -10.508  1.00  0.00    -0.354 N 
ATOM     71  N   UNL     1       9.360   4.119  -9.364  1.00  0.00    -0.248 NA
ATOM     72  C   UNL     1       8.202   6.130  -9.118  1.00  0.00     0.031 C 
ATOM     73  C   UNL     1      12.941   3.612 -11.957  1.00  0.00     0.029 A 
ATOM     74  C   UNL     1      11.823   3.791 -11.157  1.00  0.00     0.049 A 
ATOM     75  H   UNL     1      10.885   2.419  -9.859  1.00  0.00     0.167 HD
ATOM     76  C   UNL     1       9.946   5.084 -10.175  1.00  0.00     0.074 A 
ATOM     77  C   UNL     1       9.178   6.299 -10.000  1.00  0.00     0.031 C 
ATOM     78  C   UNL     1      11.018   4.974 -10.996  1.00  0.00     0.037 A 
BRANCH  65  79
ATOM     79  C   UNL     1      13.728  -0.577 -10.913  1.00  0.00     0.057 A 
ATOM     80  C   UNL     1      13.469  -1.666 -11.756  1.00  0.00     0.134 A 
ATOM     81  C   UNL     1      15.061  -0.334 -10.561  1.00  0.00     0.134 A 
ATOM     82  F   UNL     1      12.211  -1.966 -12.112  1.00  0.00    -0.206 F 
ATOM     83  C   UNL     1      14.496  -2.492 -12.215  1.00  0.00     0.040 A 
ATOM     84  C   UNL     1      16.099  -1.136 -11.036  1.00  0.00     0.040 A 
ATOM     85  F   UNL     1      15.377   0.691  -9.754  1.00  0.00    -0.206 F 
ATOM     86  C   UNL     1      15.816  -2.222 -11.861  1.00  0.00     0.006 A 
ENDBRANCH  65  79
BRANCH  66  87
ATOM     87  C   UNL     1       6.245   4.980  -7.269  1.00  0.00     0.057 A 
ATOM     88  C   UNL     1       5.223   5.471  -8.090  1.00  0.00     0.134 A 
ATOM     89  C   UNL     1       6.222   5.354  -5.920  1.00  0.00     0.134 A 
ATOM     90  F   UNL     1       5.203   5.169  -9.396  1.00  0.00    -0.206 F 
ATOM     91  C   UNL     1       4.230   6.320  -7.596  1.00  0.00     0.040 A 
ATOM     92  C   UNL     1       5.221   6.181  -5.407  1.00  0.00     0.040 A 
ATOM     93  F   UNL     1       7.172   4.920  -5.079  1.00  0.00    -0.206 F 
ATOM     94  C   UNL     1       4.226   6.674  -6.248  1.00  0.00     0.006 A 
ENDBRANCH  66  87
BRANCH  78  95
ATOM     95  C   UNL     1      11.384   6.163 -11.835  1.00  0.00     0.057 A 
ATOM     96  C   UNL     1      12.017   7.289 -11.298  1.00  0.00     0.134 A 
ATOM     97  C   UNL     1      11.180   6.132 -13.222  1.00  0.00     0.134 A 
ATOM     98  F   UNL     1      12.231   7.384  -9.977  1.00  0.00    -0.206 F 
ATOM     99  C   UNL     1      12.429   8.347 -12.110  1.00  0.00     0.040 A 
ATOM    100  C   UNL     1      11.611   7.170 -14.046  1.00  0.00     0.040 A 
ATOM    101  F   UNL     1      10.589   5.074 -13.799  1.00  0.00    -0.206 F 
ATOM    102  C   UNL     1      12.237   8.284 -13.490  1.00  0.00     0.006 A 
ENDBRANCH  78  95
ENDBRANCH  52  53
ENDBRANCH  45  47
ENDBRANCH  44  45
ENDBRANCH  43  44
ENDBRANCH  42  43
ENDBRANCH  41  42
ENDBRANCH  40  41
ENDBRANCH  39  40
ENDBRANCH  38  39
ENDBRANCH   1  38
TORSDOF 25
