REMARK SMILES CC(C)(C)c1ccc(NS(=O)(=O)c2cccc(C(=O)OCCOCCOCCOCCOC(=O)c3ccc(-c4c5nc(c(-c6c(F)cccc6F)c6ccc([nH]6)c(-c6c(F)cccc6F)c6nc(c(-c7c(F)cccc7F)c7ccc4[nH]7)C=C6)C=C5)cc3)c2)cc1
REMARK SMILES IDX 25 1 24 2 23 3 22 4 21 5 20 6 18 7 19 8 17 9 13 10 14 11
REMARK SMILES IDX 89 12 15 13 16 14 10 15 11 16 12 17 9 18 8 20 5 21 6 22
REMARK SMILES IDX 91 23 7 24 90 25 2 26 1 27 3 28 4 29 26 30 27 31 28 32 29 33
REMARK SMILES IDX 30 34 31 35 32 36 33 37 34 38 35 39 36 40 88 41 37 42 87 43
REMARK SMILES IDX 38 44 39 45 40 46 81 47 41 48 86 49 80 50 82 51 42 52 85 53
REMARK SMILES IDX 79 54 78 55 43 57 69 58 52 59 68 60 53 61 56 62 67 63 83 64
REMARK SMILES IDX 54 65 55 66 66 68 84 69 57 70 44 71 45 72 50 73 46 74 47 75
REMARK SMILES IDX 49 76 51 77 48 78 70 79 71 80 76 81 72 82 73 83 75 84 77 85
REMARK SMILES IDX 74 86 58 87 59 88 64 89 60 90 61 91 63 92 65 93 62 94
REMARK H PARENT 9 19 82 56 56 67
REMARK Flexibility Score: inf
ROOT
ATOM      1  C   UNL     1       4.003  -1.681   8.240  1.00  0.00     0.188 C 
ENDROOT
BRANCH   1   2
ATOM      2  C   UNL     1       4.327  -2.902   7.362  1.00  0.00     0.188 C 
BRANCH   2   3
ATOM      3  O   UNL     1       5.724  -3.182   7.317  1.00  0.00    -0.376 OA
BRANCH   3   4
ATOM      4  C   UNL     1       6.410  -2.921   6.101  1.00  0.00     0.202 C 
BRANCH   4   5
ATOM      5  C   UNL     1       6.566  -1.460   5.646  1.00  0.00     0.261 C 
BRANCH   5   6
ATOM      6  O   UNL     1       5.388  -0.652   5.723  1.00  0.00    -0.460 OA
BRANCH   6   7
ATOM      7  C   UNL     1       4.392  -0.894   4.853  1.00  0.00     0.338 C 
ATOM      8  O   UNL     1       4.397  -1.677   3.919  1.00  0.00    -0.246 OA
BRANCH   7   9
ATOM      9  C   UNL     1       3.195  -0.176   5.352  1.00  0.00     0.061 A 
ATOM     10  C   UNL     1       2.126   1.828   6.157  1.00  0.00     0.088 A 
ATOM     11  C   UNL     1       0.885   1.181   6.189  1.00  0.00     0.022 A 
ATOM     12  C   UNL     1       3.301   1.129   5.844  1.00  0.00     0.038 A 
ATOM     13  C   UNL     1       0.804  -0.154   5.783  1.00  0.00     0.002 A 
ATOM     14  C   UNL     1       1.946  -0.815   5.315  1.00  0.00     0.016 A 
BRANCH  10  15
ATOM     15  S   UNL     1       2.195   3.608   6.104  1.00  0.00     0.261 S 
ATOM     16  O   UNL     1       3.552   4.006   5.802  1.00  0.00    -0.201 OA
ATOM     17  O   UNL     1       1.521   4.092   7.291  1.00  0.00    -0.201 OA
BRANCH  15  18
ATOM     18  N   UNL     1       1.233   4.050   4.795  1.00  0.00    -0.280 N 
ATOM     19  H   UNL     1       0.507   4.689   4.979  1.00  0.00     0.180 HD
BRANCH  18  20
ATOM     20  C   UNL     1       1.358   3.596   3.440  1.00  0.00     0.049 A 
ATOM     21  C   UNL     1       0.816   2.388   0.904  1.00  0.00    -0.042 A 
ATOM     22  C   UNL     1       1.562   1.732   1.874  1.00  0.00     0.006 A 
ATOM     23  C   UNL     1       0.453   3.720   1.183  1.00  0.00     0.006 A 
ATOM     24  C   UNL     1       1.844   2.345   3.094  1.00  0.00     0.027 A 
ATOM     25  C   UNL     1       0.696   4.305   2.442  1.00  0.00     0.027 A 
BRANCH  21  26
ATOM     26  C   UNL     1       0.350   1.666  -0.366  1.00  0.00    -0.013 C 
ATOM     27  C   UNL     1       0.819   0.191  -0.461  1.00  0.00     0.016 C 
ATOM     28  C   UNL     1       0.877   2.395  -1.613  1.00  0.00     0.016 C 
ATOM     29  C   UNL     1      -1.193   1.643  -0.376  1.00  0.00     0.016 C 
ENDBRANCH  21  26
ENDBRANCH  18  20
ENDBRANCH  15  18
ENDBRANCH  10  15
ENDBRANCH   7   9
ENDBRANCH   6   7
ENDBRANCH   5   6
ENDBRANCH   4   5
ENDBRANCH   3   4
ENDBRANCH   2   3
ENDBRANCH   1   2
BRANCH   1  30
ATOM     30  O   UNL     1       5.137  -0.886   8.537  1.00  0.00    -0.377 OA
BRANCH  30  31
ATOM     31  C   UNL     1       6.014  -1.342   9.565  1.00  0.00     0.188 C 
BRANCH  31  32
ATOM     32  C   UNL     1       5.949  -2.781  10.134  1.00  0.00     0.188 C 
BRANCH  32  33
ATOM     33  O   UNL     1       4.638  -3.308  10.309  1.00  0.00    -0.376 OA
BRANCH  33  34
ATOM     34  C   UNL     1       4.120  -3.344  11.632  1.00  0.00     0.202 C 
BRANCH  34  35
ATOM     35  C   UNL     1       3.691  -1.980  12.188  1.00  0.00     0.261 C 
BRANCH  35  36
ATOM     36  O   UNL     1       4.759  -1.037  12.366  1.00  0.00    -0.460 OA
BRANCH  36  37
ATOM     37  C   UNL     1       5.773  -1.401  13.179  1.00  0.00     0.338 C 
ATOM     38  O   UNL     1       5.861  -2.413  13.850  1.00  0.00    -0.246 OA
BRANCH  37  39
ATOM     39  C   UNL     1       6.872  -0.438  12.984  1.00  0.00     0.060 A 
ATOM     40  C   UNL     1       8.131  -0.919  12.604  1.00  0.00     0.016 A 
ATOM     41  C   UNL     1       6.658   0.928  13.182  1.00  0.00     0.016 A 
ATOM     42  C   UNL     1       9.199  -0.034  12.470  1.00  0.00     0.010 A 
ATOM     43  C   UNL     1       7.731   1.810  13.066  1.00  0.00     0.010 A 
ATOM     44  C   UNL     1       9.012   1.327  12.749  1.00  0.00    -0.014 A 
BRANCH  44  45
ATOM     45  C   UNL     1      10.188   2.205  12.934  1.00  0.00     0.031 A 
ATOM     46  C   UNL     1      10.712   2.400  14.329  1.00  0.00     0.074 A 
ATOM     47  C   UNL     1      10.781   2.813  11.893  1.00  0.00     0.049 A 
ATOM     48  N   UNL     1      11.694   3.152  14.752  1.00  0.00    -0.248 NA
ATOM     49  C   UNL     1      10.028   1.645  15.392  1.00  0.00     0.031 C 
ATOM     50  C   UNL     1      10.383   2.679  10.494  1.00  0.00     0.029 A 
ATOM     51  N   UNL     1      11.845   3.679  11.864  1.00  0.00    -0.354 N 
ATOM     52  C   UNL     1      11.746   2.961  16.127  1.00  0.00     0.074 A 
ATOM     53  C   UNL     1      10.676   2.050  16.472  1.00  0.00     0.031 C 
ATOM     54  C   UNL     1      11.185   3.452   9.740  1.00  0.00     0.029 A 
ATOM     55  C   UNL     1      12.132   4.152  10.608  1.00  0.00     0.049 A 
ATOM     56  H   UNL     1      12.353   3.936  12.666  1.00  0.00     0.167 HD
ATOM     57  C   UNL     1      12.613   3.489  17.022  1.00  0.00     0.037 A 
ATOM     58  C   UNL     1      13.043   5.062  10.213  1.00  0.00     0.037 A 
ATOM     59  C   UNL     1      13.665   4.406  16.680  1.00  0.00     0.049 A 
ATOM     60  C   UNL     1      13.951   5.693  11.236  1.00  0.00     0.074 A 
ATOM     61  C   UNL     1      14.601   4.994  17.512  1.00  0.00     0.029 A 
ATOM     62  N   UNL     1      13.912   4.878  15.400  1.00  0.00    -0.354 N 
ATOM     63  N   UNL     1      14.014   5.485  12.529  1.00  0.00    -0.248 NA
ATOM     64  C   UNL     1      14.918   6.685  10.742  1.00  0.00     0.031 C 
ATOM     65  C   UNL     1      15.387   5.858  16.741  1.00  0.00     0.029 A 
ATOM     66  C   UNL     1      14.972   5.768  15.421  1.00  0.00     0.049 A 
ATOM     67  H   UNL     1      13.408   4.619  14.595  1.00  0.00     0.167 HD
ATOM     68  C   UNL     1      15.041   6.296  12.998  1.00  0.00     0.074 A 
ATOM     69  C   UNL     1      15.580   6.992  11.848  1.00  0.00     0.031 C 
ATOM     70  C   UNL     1      15.500   6.447  14.265  1.00  0.00     0.037 A 
BRANCH  57  71
ATOM     71  C   UNL     1      12.430   3.101  18.459  1.00  0.00     0.057 A 
ATOM     72  C   UNL     1      12.735   1.813  18.920  1.00  0.00     0.134 A 
ATOM     73  C   UNL     1      11.943   4.024  19.391  1.00  0.00     0.134 A 
ATOM     74  F   UNL     1      13.187   0.876  18.073  1.00  0.00    -0.206 F 
ATOM     75  C   UNL     1      12.536   1.450  20.253  1.00  0.00     0.040 A 
ATOM     76  C   UNL     1      11.764   3.681  20.732  1.00  0.00     0.040 A 
ATOM     77  F   UNL     1      11.631   5.273  19.014  1.00  0.00    -0.206 F 
ATOM     78  C   UNL     1      12.053   2.388  21.164  1.00  0.00     0.006 A 
ENDBRANCH  57  71
BRANCH  58  79
ATOM     79  C   UNL     1      13.137   5.442   8.782  1.00  0.00     0.057 A 
ATOM     80  C   UNL     1      14.239   5.072   8.003  1.00  0.00     0.134 A 
ATOM     81  C   UNL     1      12.134   6.198   8.162  1.00  0.00     0.134 A 
ATOM     82  F   UNL     1      15.244   4.369   8.547  1.00  0.00    -0.206 F 
ATOM     83  C   UNL     1      14.348   5.449   6.664  1.00  0.00     0.040 A 
ATOM     84  C   UNL     1      12.218   6.562   6.818  1.00  0.00     0.040 A 
ATOM     85  F   UNL     1      11.054   6.587   8.856  1.00  0.00    -0.206 F 
ATOM     86  C   UNL     1      13.332   6.193   6.066  1.00  0.00     0.006 A 
ENDBRANCH  58  79
BRANCH  70  87
ATOM     87  C   UNL     1      16.665   7.371  14.473  1.00  0.00     0.057 A 
ATOM     88  C   UNL     1      16.529   8.763  14.399  1.00  0.00     0.134 A 
ATOM     89  C   UNL     1      17.927   6.861  14.801  1.00  0.00     0.134 A 
ATOM     90  F   UNL     1      15.349   9.315  14.079  1.00  0.00    -0.206 F 
ATOM     91  C   UNL     1      17.612   9.614  14.626  1.00  0.00     0.040 A 
ATOM     92  C   UNL     1      19.012   7.701  15.054  1.00  0.00     0.040 A 
ATOM     93  F   UNL     1      18.123   5.537  14.898  1.00  0.00    -0.206 F 
ATOM     94  C   UNL     1      18.857   9.083  14.962  1.00  0.00     0.006 A 
ENDBRANCH  70  87
ENDBRANCH  44  45
ENDBRANCH  37  39
ENDBRANCH  36  37
ENDBRANCH  35  36
ENDBRANCH  34  35
ENDBRANCH  33  34
ENDBRANCH  32  33
ENDBRANCH  31  32
ENDBRANCH  30  31
ENDBRANCH   1  30
TORSDOF 24
