REMARK SMILES Cc1oc2c(C)c3oc(=O)c(CCC(=O)N[C@H](Cc4ccc(Cl)cc4)C(=O)OCCOCCOCCOCCOC(=O)c4ccc(-c5c6nc(c(-c7c(F)cccc7F)c7ccc([nH]7)c(-c7c(F)cccc7F)c7nc(c(-c8c(F)cccc8F)c8ccc5[nH]8)C=C7)C=C6)cc4)c(C)c3cc2c1C
REMARK SMILES IDX 33 1 32 2 31 3 30 4 29 5 28 6 26 7 27 8 17 9 16 10 14 11
REMARK SMILES IDX 15 12 13 14 12 15 11 16 1 17 2 18 3 19 102 20 4 21 101 22
REMARK SMILES IDX 103 23 5 24 100 25 6 26 7 27 99 28 8 29 97 30 9 31 98 32
REMARK SMILES IDX 10 33 18 34 19 35 20 36 25 37 21 38 24 39 22 40 23 41 34 42
REMARK SMILES IDX 35 43 36 44 37 45 38 46 39 47 40 48 41 49 42 50 43 51 44 52
REMARK SMILES IDX 96 53 45 54 95 55 46 56 47 57 48 58 89 59 49 60 94 61 88 62
REMARK SMILES IDX 90 63 50 64 93 65 87 66 86 67 51 69 77 70 60 71 76 72 61 73
REMARK SMILES IDX 64 74 75 75 91 76 62 77 63 78 74 80 92 81 65 82 52 83 53 84
REMARK SMILES IDX 58 85 54 86 55 87 57 88 59 89 56 90 78 91 79 92 84 93 80 94
REMARK SMILES IDX 81 95 83 96 85 97 82 98 66 99 67 100 72 101 68 102 69 103
REMARK SMILES IDX 71 104 73 105 70 106
REMARK H PARENT 16 13 90 68 64 79
REMARK Flexibility Score: inf
ROOT
ATOM      1  C   UNL     1      -4.815   4.229  -5.866  1.00  0.00     0.188 C 
ENDROOT
BRANCH   1   2
ATOM      2  C   UNL     1      -4.035   3.274  -4.983  1.00  0.00     0.188 C 
BRANCH   2   3
ATOM      3  O   UNL     1      -4.799   2.702  -3.930  1.00  0.00    -0.376 OA
BRANCH   3   4
ATOM      4  C   UNL     1      -4.147   2.660  -2.651  1.00  0.00     0.202 C 
BRANCH   4   5
ATOM      5  C   UNL     1      -2.805   1.919  -2.622  1.00  0.00     0.261 C 
BRANCH   5   6
ATOM      6  O   UNL     1      -1.827   2.764  -3.253  1.00  0.00    -0.462 OA
BRANCH   6   7
ATOM      7  C   UNL     1      -1.072   2.217  -4.228  1.00  0.00     0.329 C 
ATOM      8  O   UNL     1      -0.883   1.010  -4.333  1.00  0.00    -0.250 OA
BRANCH   7   9
ATOM      9  C   UNL     1      -0.671   3.240  -5.326  1.00  0.00     0.196 C 
BRANCH   9  10
ATOM     10  N   UNL     1       0.568   2.731  -5.929  1.00  0.00    -0.342 N 
ATOM     11  C   UNL     1       0.676   1.990  -7.075  1.00  0.00     0.221 C 
ATOM     12  O   UNL     1       1.618   1.204  -7.176  1.00  0.00    -0.275 OA
ATOM     13  H   UNL     1       1.407   2.944  -5.461  1.00  0.00     0.164 HD
BRANCH  11  14
ATOM     14  C   UNL     1      -0.280   2.228  -8.233  1.00  0.00     0.105 C 
BRANCH  14  15
ATOM     15  C   UNL     1      -1.008   0.959  -8.709  1.00  0.00     0.053 C 
BRANCH  15  16
ATOM     16  C   UNL     1      -2.377   0.749  -8.084  1.00  0.00     0.042 A 
ATOM     17  C   UNL     1      -7.965   0.610  -2.049  1.00  0.00     0.088 C 
ATOM     18  C   UNL     1      -7.093   0.192  -3.168  1.00  0.00     0.105 A 
ATOM     19  O   UNL     1      -7.444   0.641  -4.403  1.00  0.00    -0.461 OA
ATOM     20  C   UNL     1      -5.905  -0.517  -3.226  1.00  0.00    -0.002 A 
ATOM     21  C   UNL     1      -6.416   0.347  -5.249  1.00  0.00     0.141 A 
ATOM     22  C   UNL     1      -5.437  -0.367  -4.570  1.00  0.00     0.025 A 
ATOM     23  C   UNL     1      -5.195  -1.155  -2.090  1.00  0.00     0.049 C 
ATOM     24  C   UNL     1      -6.314   0.791  -6.571  1.00  0.00     0.036 A 
ATOM     25  C   UNL     1      -4.239  -0.680  -5.247  1.00  0.00     0.024 A 
ATOM     26  C   UNL     1      -7.406   1.562  -7.243  1.00  0.00     0.052 C 
ATOM     27  C   UNL     1      -5.034   0.593  -7.134  1.00  0.00     0.145 A 
ATOM     28  C   UNL     1      -4.010  -0.144  -6.526  1.00  0.00     0.022 A 
ATOM     29  O   UNL     1      -4.753   1.317  -8.313  1.00  0.00    -0.422 OA
ATOM     30  C   UNL     1      -2.685  -0.201  -7.176  1.00  0.00    -0.030 A 
ATOM     31  C   UNL     1      -3.442   1.655  -8.605  1.00  0.00     0.339 A 
ATOM     32  C   UNL     1      -1.718  -1.275  -6.755  1.00  0.00     0.046 C 
ATOM     33  O   UNL     1      -3.178   2.624  -9.309  1.00  0.00    -0.246 OA
ENDBRANCH  15  16
ENDBRANCH  14  15
ENDBRANCH  11  14
ENDBRANCH   9  10
BRANCH   9  34
ATOM     34  C   UNL     1      -0.618   4.770  -5.051  1.00  0.00     0.072 C 
BRANCH  34  35
ATOM     35  C   UNL     1      -0.688   5.296  -3.635  1.00  0.00    -0.045 A 
ATOM     36  C   UNL     1      -1.914   5.718  -3.084  1.00  0.00     0.005 A 
ATOM     37  C   UNL     1       0.458   5.365  -2.838  1.00  0.00     0.005 A 
ATOM     38  C   UNL     1      -2.015   6.080  -1.740  1.00  0.00     0.021 A 
ATOM     39  C   UNL     1       0.366   5.774  -1.503  1.00  0.00     0.021 A 
ATOM     40  C   UNL     1      -0.873   6.097  -0.951  1.00  0.00     0.041 A 
ATOM     41  Cl  UNL     1      -0.993   6.514   0.714  1.00  0.00    -0.084 Cl
ENDBRANCH  34  35
ENDBRANCH   9  34
ENDBRANCH   7   9
ENDBRANCH   6   7
ENDBRANCH   5   6
ENDBRANCH   4   5
ENDBRANCH   3   4
ENDBRANCH   2   3
ENDBRANCH   1   2
BRANCH   1  42
ATOM     42  O   UNL     1      -5.012   5.472  -5.189  1.00  0.00    -0.377 OA
BRANCH  42  43
ATOM     43  C   UNL     1      -6.012   5.450  -4.170  1.00  0.00     0.188 C 
BRANCH  43  44
ATOM     44  C   UNL     1      -7.408   5.034  -4.644  1.00  0.00     0.188 C 
BRANCH  44  45
ATOM     45  O   UNL     1      -8.085   5.802  -5.637  1.00  0.00    -0.376 OA
BRANCH  45  46
ATOM     46  C   UNL     1      -7.379   6.797  -6.361  1.00  0.00     0.202 C 
BRANCH  46  47
ATOM     47  C   UNL     1      -7.336   8.186  -5.707  1.00  0.00     0.261 C 
BRANCH  47  48
ATOM     48  O   UNL     1      -7.411   8.184  -4.278  1.00  0.00    -0.460 OA
BRANCH  48  49
ATOM     49  C   UNL     1      -8.656   8.001  -3.778  1.00  0.00     0.338 C 
ATOM     50  O   UNL     1      -9.701   7.862  -4.384  1.00  0.00    -0.246 OA
BRANCH  49  51
ATOM     51  C   UNL     1      -8.560   7.975  -2.314  1.00  0.00     0.060 A 
ATOM     52  C   UNL     1      -9.003   6.854  -1.607  1.00  0.00     0.016 A 
ATOM     53  C   UNL     1      -8.142   9.126  -1.651  1.00  0.00     0.016 A 
ATOM     54  C   UNL     1      -9.055   6.899  -0.215  1.00  0.00     0.010 A 
ATOM     55  C   UNL     1      -8.234   9.180  -0.266  1.00  0.00     0.010 A 
ATOM     56  C   UNL     1      -8.714   8.079   0.463  1.00  0.00    -0.014 A 
BRANCH  56  57
ATOM     57  C   UNL     1      -8.966   8.174   1.921  1.00  0.00     0.031 A 
ATOM     58  C   UNL     1      -8.018   9.014   2.710  1.00  0.00     0.074 A 
ATOM     59  C   UNL     1     -10.240   8.156   2.377  1.00  0.00     0.049 A 
ATOM     60  N   UNL     1      -8.075  10.314   2.686  1.00  0.00    -0.248 NA
ATOM     61  C   UNL     1      -6.821   8.486   3.360  1.00  0.00     0.031 C 
ATOM     62  C   UNL     1     -11.399   8.506   1.540  1.00  0.00     0.029 A 
ATOM     63  N   UNL     1     -10.745   8.107   3.656  1.00  0.00    -0.354 N 
ATOM     64  C   UNL     1      -6.879  10.782   3.181  1.00  0.00     0.074 A 
ATOM     65  C   UNL     1      -6.156   9.618   3.647  1.00  0.00     0.031 C 
ATOM     66  C   UNL     1     -12.430   8.827   2.344  1.00  0.00     0.029 A 
ATOM     67  C   UNL     1     -12.063   8.550   3.725  1.00  0.00     0.049 A 
ATOM     68  H   UNL     1     -10.232   7.794   4.436  1.00  0.00     0.167 HD
ATOM     69  C   UNL     1      -6.526  12.091   3.112  1.00  0.00     0.037 A 
ATOM     70  C   UNL     1     -12.646   9.134   4.804  1.00  0.00     0.037 A 
ATOM     71  C   UNL     1      -7.468  12.967   2.482  1.00  0.00     0.049 A 
ATOM     72  C   UNL     1     -11.989  10.488   4.806  1.00  0.00     0.074 A 
ATOM     73  C   UNL     1      -7.700  13.425   1.202  1.00  0.00     0.029 A 
ATOM     74  N   UNL     1      -8.506  13.467   3.232  1.00  0.00    -0.354 N 
ATOM     75  N   UNL     1     -12.320  11.504   4.052  1.00  0.00    -0.248 NA
ATOM     76  C   UNL     1     -10.683  10.614   5.455  1.00  0.00     0.031 C 
ATOM     77  C   UNL     1      -9.080  13.795   1.169  1.00  0.00     0.029 A 
ATOM     78  C   UNL     1      -9.613  13.483   2.418  1.00  0.00     0.049 A 
ATOM     79  H   UNL     1      -8.464  13.758   4.172  1.00  0.00     0.167 HD
ATOM     80  C   UNL     1     -11.146  12.248   3.904  1.00  0.00     0.074 A 
ATOM     81  C   UNL     1     -10.202  11.691   4.849  1.00  0.00     0.031 C 
ATOM     82  C   UNL     1     -10.935  13.121   2.878  1.00  0.00     0.037 A 
BRANCH  69  83
ATOM     83  C   UNL     1      -5.279  12.634   3.668  1.00  0.00     0.057 A 
ATOM     84  C   UNL     1      -5.327  13.328   4.881  1.00  0.00     0.134 A 
ATOM     85  C   UNL     1      -4.083  12.642   2.950  1.00  0.00     0.134 A 
ATOM     86  F   UNL     1      -6.466  13.361   5.594  1.00  0.00    -0.206 F 
ATOM     87  C   UNL     1      -4.226  14.033   5.358  1.00  0.00     0.040 A 
ATOM     88  C   UNL     1      -2.971  13.343   3.417  1.00  0.00     0.040 A 
ATOM     89  F   UNL     1      -3.992  12.007   1.772  1.00  0.00    -0.206 F 
ATOM     90  C   UNL     1      -3.045  14.049   4.619  1.00  0.00     0.006 A 
ENDBRANCH  69  83
BRANCH  70  91
ATOM     91  C   UNL     1     -12.768   8.245   5.998  1.00  0.00     0.057 A 
ATOM     92  C   UNL     1     -13.360   6.977   5.819  1.00  0.00     0.134 A 
ATOM     93  C   UNL     1     -12.357   8.542   7.301  1.00  0.00     0.134 A 
ATOM     94  F   UNL     1     -13.898   6.637   4.636  1.00  0.00    -0.206 F 
ATOM     95  C   UNL     1     -13.421   6.022   6.837  1.00  0.00     0.040 A 
ATOM     96  C   UNL     1     -12.390   7.588   8.326  1.00  0.00     0.040 A 
ATOM     97  F   UNL     1     -11.905   9.758   7.632  1.00  0.00    -0.206 F 
ATOM     98  C   UNL     1     -12.904   6.317   8.091  1.00  0.00     0.006 A 
ENDBRANCH  70  91
BRANCH  82  99
ATOM     99  C   UNL     1     -12.130  13.437   2.047  1.00  0.00     0.057 A 
ATOM    100  C   UNL     1     -13.113  14.308   2.527  1.00  0.00     0.134 A 
ATOM    101  C   UNL     1     -12.306  12.904   0.764  1.00  0.00     0.134 A 
ATOM    102  F   UNL     1     -12.999  14.858   3.746  1.00  0.00    -0.206 F 
ATOM    103  C   UNL     1     -14.223  14.651   1.752  1.00  0.00     0.040 A 
ATOM    104  C   UNL     1     -13.401  13.255  -0.028  1.00  0.00     0.040 A 
ATOM    105  F   UNL     1     -11.411  12.050   0.243  1.00  0.00    -0.206 F 
ATOM    106  C   UNL     1     -14.364  14.132   0.466  1.00  0.00     0.006 A 
ENDBRANCH  82  99
ENDBRANCH  56  57
ENDBRANCH  49  51
ENDBRANCH  48  49
ENDBRANCH  47  48
ENDBRANCH  46  47
ENDBRANCH  45  46
ENDBRANCH  44  45
ENDBRANCH  43  44
ENDBRANCH  42  43
ENDBRANCH   1  42
TORSDOF 26
