REMARK SMILES Cc1ccc(S(=O)(=O)n2cc(C(=O)C(=O)NCC(=O)OCCOCCOCCOCCOC(=O)c3ccc(-c4c5nc(c(-c6c(F)cccc6F)c6ccc([nH]6)c(-c6c(F)cccc6F)c6nc(c(-c7c(F)cccc7F)c7ccc4[nH]7)C=C6)C=C5)cc3)c3ccccc32)cc1
REMARK SMILES IDX 24 1 23 2 22 3 21 4 20 5 18 6 19 7 17 8 16 9 14 10 15 11
REMARK SMILES IDX 12 13 13 14 11 15 9 16 10 17 94 18 89 19 93 20 90 21 92 22
REMARK SMILES IDX 91 23 6 24 7 25 8 26 5 27 1 28 2 29 3 30 96 31 4 32 95 33
REMARK SMILES IDX 25 34 26 35 27 36 28 37 29 38 30 39 31 40 32 41 33 42 34 43
REMARK SMILES IDX 35 44 36 45 88 46 37 47 87 48 38 49 39 50 40 51 81 52 41 53
REMARK SMILES IDX 86 54 80 55 82 56 42 57 85 58 79 59 78 60 43 62 69 63 52 64
REMARK SMILES IDX 68 65 53 66 56 67 67 68 83 69 54 70 55 71 66 73 84 74 57 75
REMARK SMILES IDX 44 76 45 77 50 78 46 79 47 80 49 81 51 82 48 83 70 84 71 85
REMARK SMILES IDX 76 86 72 87 73 88 75 89 77 90 74 91 58 92 59 93 64 94 60 95
REMARK SMILES IDX 61 96 63 97 65 98 62 99
REMARK H PARENT 16 12 82 61 56 72
REMARK Flexibility Score: inf
ROOT
ATOM      1  C   UNL     1      -8.612   6.245   5.899  1.00  0.00     0.188 C 
ENDROOT
BRANCH   1   2
ATOM      2  O   UNL     1      -9.831   6.962   5.748  1.00  0.00    -0.376 OA
BRANCH   2   3
ATOM      3  C   UNL     1     -10.156   7.366   4.417  1.00  0.00     0.202 C 
BRANCH   3   4
ATOM      4  C   UNL     1      -9.137   8.270   3.729  1.00  0.00     0.261 C 
BRANCH   4   5
ATOM      5  O   UNL     1      -8.025   7.476   3.285  1.00  0.00    -0.462 OA
BRANCH   5   6
ATOM      6  C   UNL     1      -6.803   8.046   3.382  1.00  0.00     0.325 C 
ATOM      7  O   UNL     1      -6.592   9.228   3.629  1.00  0.00    -0.250 OA
BRANCH   6   8
ATOM      8  C   UNL     1      -5.681   7.024   3.180  1.00  0.00     0.239 C 
BRANCH   8   9
ATOM      9  N   UNL     1      -6.048   5.620   3.383  1.00  0.00    -0.338 N 
ATOM     10  C   UNL     1      -6.098   4.540   2.538  1.00  0.00     0.292 C 
ATOM     11  O   UNL     1      -6.410   3.435   2.972  1.00  0.00    -0.265 OA
ATOM     12  H   UNL     1      -6.310   5.410   4.308  1.00  0.00     0.164 HD
BRANCH  10  13
ATOM     13  C   UNL     1      -5.691   4.698   1.074  1.00  0.00     0.252 C 
ATOM     14  O   UNL     1      -5.926   5.780   0.539  1.00  0.00    -0.283 OA
BRANCH  13  15
ATOM     15  C   UNL     1      -5.002   3.622   0.347  1.00  0.00     0.054 A 
ATOM     16  N   UNL     1      -4.114   1.662  -0.267  1.00  0.00    -0.240 N 
ATOM     17  C   UNL     1      -4.800   2.306   0.736  1.00  0.00     0.117 A 
ATOM     18  C   UNL     1      -3.827   2.523  -1.304  1.00  0.00     0.065 A 
ATOM     19  C   UNL     1      -4.371   3.760  -0.936  1.00  0.00     0.012 A 
ATOM     20  C   UNL     1      -3.120   2.357  -2.509  1.00  0.00     0.028 A 
ATOM     21  C   UNL     1      -4.201   4.859  -1.806  1.00  0.00     0.011 A 
ATOM     22  C   UNL     1      -2.947   3.473  -3.333  1.00  0.00     0.002 A 
ATOM     23  C   UNL     1      -3.481   4.708  -2.989  1.00  0.00     0.001 A 
BRANCH  16  24
ATOM     24  S   UNL     1      -3.569   0.047  -0.154  1.00  0.00     0.268 S 
ATOM     25  O   UNL     1      -3.893  -0.551  -1.447  1.00  0.00    -0.201 OA
ATOM     26  O   UNL     1      -4.094  -0.474   1.082  1.00  0.00    -0.201 OA
BRANCH  24  27
ATOM     27  C   UNL     1      -1.798   0.076  -0.015  1.00  0.00     0.088 A 
ATOM     28  C   UNL     1       2.505  -0.052   0.027  1.00  0.00     0.044 C 
ATOM     29  C   UNL     1       1.004  -0.006   0.038  1.00  0.00    -0.051 A 
ATOM     30  C   UNL     1       0.265  -1.192  -0.040  1.00  0.00     0.005 A 
ATOM     31  C   UNL     1       0.326   1.216   0.122  1.00  0.00     0.005 A 
ATOM     32  C   UNL     1      -1.131  -1.154  -0.073  1.00  0.00     0.022 A 
ATOM     33  C   UNL     1      -1.071   1.261   0.110  1.00  0.00     0.022 A 
ENDBRANCH  24  27
ENDBRANCH  16  24
ENDBRANCH  13  15
ENDBRANCH  10  13
ENDBRANCH   8   9
ENDBRANCH   6   8
ENDBRANCH   5   6
ENDBRANCH   4   5
ENDBRANCH   3   4
ENDBRANCH   2   3
ENDBRANCH   1   2
BRANCH   1  34
ATOM     34  C   UNL     1      -8.573   4.767   5.483  1.00  0.00     0.188 C 
BRANCH  34  35
ATOM     35  O   UNL     1      -8.958   4.505   4.149  1.00  0.00    -0.377 OA
BRANCH  35  36
ATOM     36  C   UNL     1     -10.084   3.655   3.920  1.00  0.00     0.188 C 
BRANCH  36  37
ATOM     37  C   UNL     1     -10.836   3.046   5.100  1.00  0.00     0.188 C 
BRANCH  37  38
ATOM     38  O   UNL     1     -11.338   4.111   5.904  1.00  0.00    -0.376 OA
BRANCH  38  39
ATOM     39  C   UNL     1     -11.455   3.849   7.299  1.00  0.00     0.202 C 
BRANCH  39  40
ATOM     40  C   UNL     1     -12.427   2.712   7.620  1.00  0.00     0.261 C 
BRANCH  40  41
ATOM     41  O   UNL     1     -13.759   3.101   7.223  1.00  0.00    -0.460 OA
BRANCH  41  42
ATOM     42  C   UNL     1     -14.181   2.584   6.036  1.00  0.00     0.338 C 
ATOM     43  O   UNL     1     -14.160   1.400   5.740  1.00  0.00    -0.246 OA
BRANCH  42  44
ATOM     44  C   UNL     1     -14.387   3.677   5.037  1.00  0.00     0.060 A 
ATOM     45  C   UNL     1     -14.602   3.356   3.685  1.00  0.00     0.016 A 
ATOM     46  C   UNL     1     -13.973   4.956   5.370  1.00  0.00     0.016 A 
ATOM     47  C   UNL     1     -14.191   4.239   2.669  1.00  0.00     0.010 A 
ATOM     48  C   UNL     1     -13.440   5.747   4.371  1.00  0.00     0.010 A 
ATOM     49  C   UNL     1     -13.499   5.397   3.009  1.00  0.00    -0.014 A 
BRANCH  49  50
ATOM     50  C   UNL     1     -12.693   6.263   2.112  1.00  0.00     0.031 A 
ATOM     51  C   UNL     1     -12.819   7.753   2.283  1.00  0.00     0.074 A 
ATOM     52  C   UNL     1     -11.624   5.755   1.438  1.00  0.00     0.049 A 
ATOM     53  N   UNL     1     -12.011   8.633   1.804  1.00  0.00    -0.248 NA
ATOM     54  C   UNL     1     -13.886   8.382   3.064  1.00  0.00     0.031 C 
ATOM     55  C   UNL     1     -10.357   6.442   1.159  1.00  0.00     0.029 A 
ATOM     56  N   UNL     1     -11.388   4.493   0.905  1.00  0.00    -0.354 N 
ATOM     57  C   UNL     1     -12.278   9.868   2.365  1.00  0.00     0.074 A 
ATOM     58  C   UNL     1     -13.477   9.654   3.132  1.00  0.00     0.031 C 
ATOM     59  C   UNL     1      -9.524   5.668   0.454  1.00  0.00     0.029 A 
ATOM     60  C   UNL     1     -10.316   4.567  -0.012  1.00  0.00     0.049 A 
ATOM     61  H   UNL     1     -11.888   3.676   1.131  1.00  0.00     0.167 HD
ATOM     62  C   UNL     1     -11.390  10.888   2.151  1.00  0.00     0.037 A 
ATOM     63  C   UNL     1     -10.527   4.346  -1.344  1.00  0.00     0.037 A 
ATOM     64  C   UNL     1     -10.443  10.515   1.086  1.00  0.00     0.049 A 
ATOM     65  C   UNL     1     -10.434   5.637  -2.155  1.00  0.00     0.074 A 
ATOM     66  C   UNL     1      -9.067  10.386   0.986  1.00  0.00     0.029 A 
ATOM     67  N   UNL     1     -10.959  10.009  -0.107  1.00  0.00    -0.354 N 
ATOM     68  N   UNL     1     -10.617   6.834  -1.643  1.00  0.00    -0.248 NA
ATOM     69  C   UNL     1      -9.987   5.707  -3.545  1.00  0.00     0.031 C 
ATOM     70  C   UNL     1      -8.775   9.718  -0.238  1.00  0.00     0.029 A 
ATOM     71  C   UNL     1      -9.965   9.519  -0.919  1.00  0.00     0.049 A 
ATOM     72  H   UNL     1     -11.916  10.005  -0.339  1.00  0.00     0.167 HD
ATOM     73  C   UNL     1     -10.277   7.796  -2.561  1.00  0.00     0.074 A 
ATOM     74  C   UNL     1      -9.910   7.037  -3.741  1.00  0.00     0.031 C 
ATOM     75  C   UNL     1     -10.270   9.138  -2.289  1.00  0.00     0.037 A 
BRANCH  62  76
ATOM     76  C   UNL     1     -11.255  12.194   2.943  1.00  0.00     0.057 A 
ATOM     77  C   UNL     1     -10.229  13.120   2.635  1.00  0.00     0.134 A 
ATOM     78  C   UNL     1     -12.015  12.572   4.068  1.00  0.00     0.134 A 
ATOM     79  F   UNL     1      -9.435  12.966   1.568  1.00  0.00    -0.206 F 
ATOM     80  C   UNL     1      -9.952  14.268   3.401  1.00  0.00     0.040 A 
ATOM     81  C   UNL     1     -11.775  13.741   4.819  1.00  0.00     0.040 A 
ATOM     82  F   UNL     1     -13.023  11.834   4.534  1.00  0.00    -0.206 F 
ATOM     83  C   UNL     1     -10.727  14.585   4.500  1.00  0.00     0.006 A 
ENDBRANCH  62  76
BRANCH  63  84
ATOM     84  C   UNL     1     -11.350   3.102  -1.514  1.00  0.00     0.057 A 
ATOM     85  C   UNL     1     -10.700   1.946  -1.017  1.00  0.00     0.134 A 
ATOM     86  C   UNL     1     -12.737   3.170  -1.319  1.00  0.00     0.134 A 
ATOM     87  F   UNL     1      -9.379   1.792  -1.207  1.00  0.00    -0.206 F 
ATOM     88  C   UNL     1     -11.318   1.103  -0.085  1.00  0.00     0.040 A 
ATOM     89  C   UNL     1     -13.375   2.296  -0.421  1.00  0.00     0.040 A 
ATOM     90  F   UNL     1     -13.439   4.211  -1.787  1.00  0.00    -0.206 F 
ATOM     91  C   UNL     1     -12.646   1.319   0.263  1.00  0.00     0.006 A 
ENDBRANCH  63  84
BRANCH  75  92
ATOM     92  C   UNL     1     -10.514  10.267  -3.284  1.00  0.00     0.057 A 
ATOM     93  C   UNL     1     -10.950  10.083  -4.602  1.00  0.00     0.134 A 
ATOM     94  C   UNL     1     -10.517  11.626  -2.860  1.00  0.00     0.134 A 
ATOM     95  F   UNL     1     -11.096   8.867  -5.139  1.00  0.00    -0.206 F 
ATOM     96  C   UNL     1     -11.325  11.149  -5.434  1.00  0.00     0.040 A 
ATOM     97  C   UNL     1     -10.947  12.688  -3.660  1.00  0.00     0.040 A 
ATOM     98  F   UNL     1     -10.146  12.000  -1.628  1.00  0.00    -0.206 F 
ATOM     99  C   UNL     1     -11.345  12.453  -4.960  1.00  0.00     0.006 A 
ENDBRANCH  75  92
ENDBRANCH  49  50
ENDBRANCH  42  44
ENDBRANCH  41  42
ENDBRANCH  40  41
ENDBRANCH  39  40
ENDBRANCH  38  39
ENDBRANCH  37  38
ENDBRANCH  36  37
ENDBRANCH  35  36
ENDBRANCH  34  35
ENDBRANCH   1  34
TORSDOF 25
