REMARK SMILES O=C(OCCOCCOCCOCCOC(=O)c1cccc(OCC(F)F)c1)c1ccc(-c2c3nc(c(-c4c(F)cccc4F)c4ccc([nH]4)c(-c4c(F)cccc4F)c4nc(c(-c5c(F)cccc5F)c5ccc2[nH]5)C=C4)C=C3)cc1
REMARK SMILES IDX 10 1 9 2 8 3 7 4 6 5 5 6 4 7 3 8 2 9 1 10 29 11 30 12 82 13
REMARK SMILES IDX 31 14 81 15 32 16 33 17 34 18 75 19 35 20 80 21 74 22 76 23
REMARK SMILES IDX 36 24 79 25 73 26 72 27 37 29 63 30 46 31 62 32 47 33 50 34
REMARK SMILES IDX 61 35 77 36 48 37 49 38 60 40 78 41 51 42 38 43 39 44 44 45
REMARK SMILES IDX 40 46 41 47 43 48 45 49 42 50 64 51 65 52 70 53 66 54 67 55
REMARK SMILES IDX 69 56 71 57 68 58 52 59 53 60 58 61 54 62 55 63 57 64 59 65
REMARK SMILES IDX 56 66 11 67 12 68 13 69 14 70 15 71 16 72 17 73 18 74 19 75
REMARK SMILES IDX 28 76 20 77 22 78 21 79 23 80 24 81 25 82 26 83 27 84
REMARK H PARENT 76 28 50 39
REMARK Flexibility Score: inf
ROOT
ATOM      1  C   UNL     1       3.966   0.996   3.731  1.00  0.00     0.188 C 
ENDROOT
BRANCH   1   2
ATOM      2  O   UNL     1       2.546   0.990   3.829  1.00  0.00    -0.377 OA
BRANCH   2   3
ATOM      3  C   UNL     1       1.822   0.463   2.719  1.00  0.00     0.188 C 
BRANCH   3   4
ATOM      4  C   UNL     1       2.260   0.981   1.349  1.00  0.00     0.188 C 
BRANCH   4   5
ATOM      5  O   UNL     1       3.568   0.506   1.032  1.00  0.00    -0.376 OA
BRANCH   5   6
ATOM      6  C   UNL     1       4.400   1.406   0.305  1.00  0.00     0.202 C 
BRANCH   6   7
ATOM      7  C   UNL     1       4.125   1.442  -1.199  1.00  0.00     0.261 C 
BRANCH   7   8
ATOM      8  O   UNL     1       2.758   1.148  -1.524  1.00  0.00    -0.460 OA
BRANCH   8   9
ATOM      9  C   UNL     1       2.216  -0.060  -1.819  1.00  0.00     0.338 C 
ATOM     10  O   UNL     1       1.033  -0.103  -2.153  1.00  0.00    -0.246 OA
BRANCH   9  11
ATOM     11  C   UNL     1       2.973  -1.351  -1.789  1.00  0.00     0.060 A 
ATOM     12  C   UNL     1       4.067  -1.627  -0.969  1.00  0.00     0.016 A 
ATOM     13  C   UNL     1       2.484  -2.393  -2.594  1.00  0.00     0.016 A 
ATOM     14  C   UNL     1       4.703  -2.858  -0.983  1.00  0.00     0.010 A 
ATOM     15  C   UNL     1       3.097  -3.651  -2.596  1.00  0.00     0.010 A 
ATOM     16  C   UNL     1       4.228  -3.873  -1.803  1.00  0.00    -0.014 A 
BRANCH  16  17
ATOM     17  C   UNL     1       5.047  -5.090  -1.921  1.00  0.00     0.031 A 
ATOM     18  C   UNL     1       5.874  -5.254  -3.158  1.00  0.00     0.074 A 
ATOM     19  C   UNL     1       5.157  -5.929  -0.875  1.00  0.00     0.049 A 
ATOM     20  N   UNL     1       6.621  -6.255  -3.530  1.00  0.00    -0.248 NA
ATOM     21  C   UNL     1       5.871  -4.121  -4.103  1.00  0.00     0.031 C 
ATOM     22  C   UNL     1       4.503  -5.752   0.425  1.00  0.00     0.029 A 
ATOM     23  N   UNL     1       5.882  -7.080  -0.728  1.00  0.00    -0.354 N 
ATOM     24  C   UNL     1       7.141  -5.893  -4.765  1.00  0.00     0.074 A 
ATOM     25  C   UNL     1       6.636  -4.578  -5.081  1.00  0.00     0.031 C 
ATOM     26  C   UNL     1       4.867  -6.755   1.240  1.00  0.00     0.029 A 
ATOM     27  C   UNL     1       5.713  -7.681   0.496  1.00  0.00     0.049 A 
ATOM     28  H   UNL     1       6.468  -7.443  -1.431  1.00  0.00     0.167 HD
ATOM     29  C   UNL     1       7.961  -6.612  -5.562  1.00  0.00     0.037 A 
ATOM     30  C   UNL     1       6.157  -8.873   0.934  1.00  0.00     0.037 A 
ATOM     31  C   UNL     1       8.453  -7.913  -5.204  1.00  0.00     0.049 A 
ATOM     32  C   UNL     1       6.981  -9.701  -0.017  1.00  0.00     0.074 A 
ATOM     33  C   UNL     1       9.238  -8.777  -5.942  1.00  0.00     0.029 A 
ATOM     34  N   UNL     1       8.200  -8.532  -3.986  1.00  0.00    -0.354 N 
ATOM     35  N   UNL     1       7.409  -9.395  -1.221  1.00  0.00    -0.248 NA
ATOM     36  C   UNL     1       7.366 -11.043   0.434  1.00  0.00     0.031 C 
ATOM     37  C   UNL     1       9.421  -9.941  -5.187  1.00  0.00     0.029 A 
ATOM     38  C   UNL     1       8.795  -9.779  -3.958  1.00  0.00     0.049 A 
ATOM     39  H   UNL     1       7.674  -8.141  -3.252  1.00  0.00     0.167 HD
ATOM     40  C   UNL     1       8.126 -10.497  -1.664  1.00  0.00     0.074 A 
ATOM     41  C   UNL     1       8.095 -11.468  -0.587  1.00  0.00     0.031 C 
ATOM     42  C   UNL     1       8.747 -10.701  -2.852  1.00  0.00     0.037 A 
BRANCH  29  43
ATOM     43  C   UNL     1       8.290  -6.040  -6.907  1.00  0.00     0.057 A 
ATOM     44  C   UNL     1       9.161  -4.956  -7.071  1.00  0.00     0.134 A 
ATOM     45  C   UNL     1       7.699  -6.574  -8.060  1.00  0.00     0.134 A 
ATOM     46  F   UNL     1       9.734  -4.376  -6.006  1.00  0.00    -0.206 F 
ATOM     47  C   UNL     1       9.421  -4.414  -8.332  1.00  0.00     0.040 A 
ATOM     48  C   UNL     1       7.967  -6.055  -9.327  1.00  0.00     0.040 A 
ATOM     49  F   UNL     1       6.844  -7.604  -7.971  1.00  0.00    -0.206 F 
ATOM     50  C   UNL     1       8.826  -4.967  -9.466  1.00  0.00     0.006 A 
ENDBRANCH  29  43
BRANCH  30  51
ATOM     51  C   UNL     1       5.774  -9.388   2.276  1.00  0.00     0.057 A 
ATOM     52  C   UNL     1       6.730  -9.659   3.262  1.00  0.00     0.134 A 
ATOM     53  C   UNL     1       4.436  -9.670   2.592  1.00  0.00     0.134 A 
ATOM     54  F   UNL     1       8.030  -9.434   3.021  1.00  0.00    -0.206 F 
ATOM     55  C   UNL     1       6.377 -10.213   4.496  1.00  0.00     0.040 A 
ATOM     56  C   UNL     1       4.066 -10.193   3.832  1.00  0.00     0.040 A 
ATOM     57  F   UNL     1       3.465  -9.439   1.697  1.00  0.00    -0.206 F 
ATOM     58  C   UNL     1       5.040 -10.478   4.785  1.00  0.00     0.006 A 
ENDBRANCH  30  51
BRANCH  42  59
ATOM     59  C   UNL     1       9.468 -12.003  -3.019  1.00  0.00     0.057 A 
ATOM     60  C   UNL     1       8.780 -13.206  -3.210  1.00  0.00     0.134 A 
ATOM     61  C   UNL     1      10.867 -12.037  -3.043  1.00  0.00     0.134 A 
ATOM     62  F   UNL     1       7.439 -13.236  -3.183  1.00  0.00    -0.206 F 
ATOM     63  C   UNL     1       9.462 -14.408  -3.398  1.00  0.00     0.040 A 
ATOM     64  C   UNL     1      11.559 -13.227  -3.261  1.00  0.00     0.040 A 
ATOM     65  F   UNL     1      11.580 -10.913  -2.878  1.00  0.00    -0.206 F 
ATOM     66  C   UNL     1      10.855 -14.418  -3.433  1.00  0.00     0.006 A 
ENDBRANCH  42  59
ENDBRANCH  16  17
ENDBRANCH   9  11
ENDBRANCH   8   9
ENDBRANCH   7   8
ENDBRANCH   6   7
ENDBRANCH   5   6
ENDBRANCH   4   5
ENDBRANCH   3   4
ENDBRANCH   2   3
ENDBRANCH   1   2
BRANCH   1  67
ATOM     67  C   UNL     1       4.702  -0.348   3.529  1.00  0.00     0.188 C 
BRANCH  67  68
ATOM     68  O   UNL     1       3.848  -1.472   3.372  1.00  0.00    -0.376 OA
BRANCH  68  69
ATOM     69  C   UNL     1       3.772  -2.353   4.487  1.00  0.00     0.202 C 
BRANCH  69  70
ATOM     70  C   UNL     1       3.117  -1.796   5.758  1.00  0.00     0.261 C 
BRANCH  70  71
ATOM     71  O   UNL     1       3.689  -0.592   6.292  1.00  0.00    -0.460 OA
BRANCH  71  72
ATOM     72  C   UNL     1       4.957  -0.604   6.771  1.00  0.00     0.338 C 
ATOM     73  O   UNL     1       5.710  -1.548   6.836  1.00  0.00    -0.246 OA
BRANCH  72  74
ATOM     74  C   UNL     1       5.325   0.821   6.983  1.00  0.00     0.063 A 
ATOM     75  C   UNL     1       6.464   1.335   6.351  1.00  0.00     0.016 A 
ATOM     76  C   UNL     1       4.438   1.676   7.653  1.00  0.00     0.062 A 
ATOM     77  C   UNL     1       6.682   2.713   6.347  1.00  0.00     0.005 A 
ATOM     78  C   UNL     1       4.674   3.049   7.681  1.00  0.00     0.120 A 
ATOM     79  C   UNL     1       5.789   3.562   7.009  1.00  0.00     0.046 A 
BRANCH  78  80
ATOM     80  O   UNL     1       3.889   3.990   8.288  1.00  0.00    -0.488 OA
BRANCH  80  81
ATOM     81  C   UNL     1       2.765   3.541   9.053  1.00  0.00     0.302 C 
BRANCH  81  82
ATOM     82  C   UNL     1       1.492   3.484   8.222  1.00  0.00     0.379 C 
ATOM     83  F   UNL     1       1.546   2.459   7.336  1.00  0.00    -0.207 F 
ATOM     84  F   UNL     1       0.437   3.223   9.037  1.00  0.00    -0.207 F 
ENDBRANCH  81  82
ENDBRANCH  80  81
ENDBRANCH  78  80
ENDBRANCH  72  74
ENDBRANCH  71  72
ENDBRANCH  70  71
ENDBRANCH  69  70
ENDBRANCH  68  69
ENDBRANCH  67  68
ENDBRANCH   1  67
TORSDOF 23
