REMARK SMILES O=C(OCCOCCOCCOCCOC(=O)c1nn(Cc2ccc(F)cc2)c2c1CN(C(=O)[C@H]1CC1(F)F)CC2)c1ccc(-c2c3nc(c(-c4c(F)cccc4F)c4ccc([nH]4)c(-c4c(F)cccc4F)c4nc(c(-c5c(F)cccc5F)c5ccc2[nH]5)C=C4)C=C3)cc1
REMARK SMILES IDX 9 1 8 2 7 3 6 4 5 5 4 6 3 7 2 8 1 9 42 10 43 11 95 12 44 13
REMARK SMILES IDX 94 14 45 15 46 16 47 17 88 18 48 19 93 20 87 21 89 22 49 23
REMARK SMILES IDX 92 24 86 25 85 26 50 28 76 29 59 30 75 31 60 32 63 33 74 34
REMARK SMILES IDX 90 35 61 36 62 37 73 39 91 40 64 41 51 42 52 43 57 44 53 45
REMARK SMILES IDX 54 46 56 47 58 48 55 49 77 50 78 51 83 52 79 53 80 54 82 55
REMARK SMILES IDX 84 56 81 57 65 58 66 59 71 60 67 61 68 62 70 63 72 64 69 65
REMARK SMILES IDX 10 66 11 67 12 68 13 69 14 70 15 71 16 72 17 73 18 74 19 75
REMARK SMILES IDX 30 76 20 77 29 78 31 79 41 80 32 81 40 82 21 83 22 84 23 85
REMARK SMILES IDX 28 86 24 87 27 88 25 89 26 90 33 91 34 92 35 93 36 94 37 95
REMARK SMILES IDX 38 96 39 97
REMARK H PARENT 89 27 63 38
REMARK Flexibility Score: inf
ROOT
ATOM      1  O   UNL     1      16.219   2.038  -2.442  1.00  0.00    -0.377 OA
ENDROOT
BRANCH   1   2
ATOM      2  C   UNL     1      15.650   3.332  -2.420  1.00  0.00     0.188 C 
BRANCH   2   3
ATOM      3  C   UNL     1      15.013   3.826  -1.106  1.00  0.00     0.188 C 
BRANCH   3   4
ATOM      4  O   UNL     1      13.883   3.288  -0.435  1.00  0.00    -0.376 OA
BRANCH   4   5
ATOM      5  C   UNL     1      12.745   2.606  -0.911  1.00  0.00     0.202 C 
BRANCH   5   6
ATOM      6  C   UNL     1      11.966   2.968  -2.173  1.00  0.00     0.261 C 
BRANCH   6   7
ATOM      7  O   UNL     1      12.716   3.598  -3.195  1.00  0.00    -0.460 OA
BRANCH   7   8
ATOM      8  C   UNL     1      13.010   4.905  -3.325  1.00  0.00     0.338 C 
ATOM      9  O   UNL     1      13.638   5.255  -4.324  1.00  0.00    -0.246 OA
BRANCH   8  10
ATOM     10  C   UNL     1      12.674   5.951  -2.323  1.00  0.00     0.060 A 
ATOM     11  C   UNL     1      11.786   5.833  -1.251  1.00  0.00     0.016 A 
ATOM     12  C   UNL     1      13.287   7.196  -2.560  1.00  0.00     0.016 A 
ATOM     13  C   UNL     1      11.328   6.963  -0.608  1.00  0.00     0.010 A 
ATOM     14  C   UNL     1      12.864   8.326  -1.897  1.00  0.00     0.010 A 
ATOM     15  C   UNL     1      11.811   8.204  -1.005  1.00  0.00    -0.014 A 
BRANCH  15  16
ATOM     16  C   UNL     1      11.185   9.369  -0.425  1.00  0.00     0.031 A 
ATOM     17  C   UNL     1      11.435   9.520   1.025  1.00  0.00     0.074 A 
ATOM     18  C   UNL     1      10.482  10.222  -1.194  1.00  0.00     0.049 A 
ATOM     19  N   UNL     1      10.574   9.471   1.986  1.00  0.00    -0.248 NA
ATOM     20  C   UNL     1      12.837   9.568   1.473  1.00  0.00     0.031 C 
ATOM     21  C   UNL     1      10.392  10.252  -2.657  1.00  0.00     0.029 A 
ATOM     22  N   UNL     1       9.768  11.315  -0.825  1.00  0.00    -0.354 N 
ATOM     23  C   UNL     1      11.302   9.710   3.147  1.00  0.00     0.074 A 
ATOM     24  C   UNL     1      12.691   9.579   2.798  1.00  0.00     0.031 C 
ATOM     25  C   UNL     1       9.879  11.441  -3.046  1.00  0.00     0.029 A 
ATOM     26  C   UNL     1       9.482  12.187  -1.867  1.00  0.00     0.049 A 
ATOM     27  H   UNL     1       9.478  11.477   0.102  1.00  0.00     0.167 HD
ATOM     28  C   UNL     1      10.710  10.277   4.232  1.00  0.00     0.037 A 
ATOM     29  C   UNL     1       9.036  13.461  -1.735  1.00  0.00     0.037 A 
ATOM     30  C   UNL     1       9.282  10.093   4.205  1.00  0.00     0.049 A 
ATOM     31  C   UNL     1       8.464  13.586  -0.369  1.00  0.00     0.074 A 
ATOM     32  C   UNL     1       8.448   8.992   4.179  1.00  0.00     0.029 A 
ATOM     33  N   UNL     1       8.506  11.159   3.822  1.00  0.00    -0.354 N 
ATOM     34  N   UNL     1       7.374  12.987   0.020  1.00  0.00    -0.248 NA
ATOM     35  C   UNL     1       9.360  14.008   0.699  1.00  0.00     0.031 C 
ATOM     36  C   UNL     1       7.367   9.366   3.330  1.00  0.00     0.029 A 
ATOM     37  C   UNL     1       7.565  10.692   2.942  1.00  0.00     0.049 A 
ATOM     38  H   UNL     1       8.606  12.090   4.126  1.00  0.00     0.167 HD
ATOM     39  C   UNL     1       7.643  12.572   1.317  1.00  0.00     0.074 A 
ATOM     40  C   UNL     1       8.847  13.301   1.709  1.00  0.00     0.031 C 
ATOM     41  C   UNL     1       7.041  11.465   1.841  1.00  0.00     0.037 A 
BRANCH  28  42
ATOM     42  C   UNL     1      11.379  11.338   5.070  1.00  0.00     0.057 A 
ATOM     43  C   UNL     1      12.457  12.134   4.628  1.00  0.00     0.134 A 
ATOM     44  C   UNL     1      10.743  11.791   6.238  1.00  0.00     0.134 A 
ATOM     45  F   UNL     1      13.108  11.900   3.483  1.00  0.00    -0.206 F 
ATOM     46  C   UNL     1      12.865  13.296   5.287  1.00  0.00     0.040 A 
ATOM     47  C   UNL     1      11.109  12.983   6.876  1.00  0.00     0.040 A 
ATOM     48  F   UNL     1       9.687  11.137   6.745  1.00  0.00    -0.206 F 
ATOM     49  C   UNL     1      12.170  13.742   6.397  1.00  0.00     0.006 A 
ENDBRANCH  28  42
BRANCH  29  50
ATOM     50  C   UNL     1       9.410  14.649  -2.541  1.00  0.00     0.057 A 
ATOM     51  C   UNL     1      10.626  14.722  -3.244  1.00  0.00     0.134 A 
ATOM     52  C   UNL     1       8.712  15.857  -2.397  1.00  0.00     0.134 A 
ATOM     53  F   UNL     1      11.413  13.647  -3.392  1.00  0.00    -0.206 F 
ATOM     54  C   UNL     1      11.133  15.926  -3.744  1.00  0.00     0.040 A 
ATOM     55  C   UNL     1       9.214  17.072  -2.884  1.00  0.00     0.040 A 
ATOM     56  F   UNL     1       7.559  15.900  -1.714  1.00  0.00    -0.206 F 
ATOM     57  C   UNL     1      10.436  17.111  -3.548  1.00  0.00     0.006 A 
ENDBRANCH  29  50
BRANCH  41  58
ATOM     58  C   UNL     1       5.892  10.857   1.083  1.00  0.00     0.057 A 
ATOM     59  C   UNL     1       4.669  10.697   1.745  1.00  0.00     0.134 A 
ATOM     60  C   UNL     1       6.003  10.279  -0.191  1.00  0.00     0.134 A 
ATOM     61  F   UNL     1       4.507  11.176   2.988  1.00  0.00    -0.206 F 
ATOM     62  C   UNL     1       3.607   9.992   1.174  1.00  0.00     0.040 A 
ATOM     63  C   UNL     1       4.936   9.601  -0.789  1.00  0.00     0.040 A 
ATOM     64  F   UNL     1       7.162  10.296  -0.863  1.00  0.00    -0.206 F 
ATOM     65  C   UNL     1       3.736   9.448  -0.101  1.00  0.00     0.006 A 
ENDBRANCH  41  58
ENDBRANCH  15  16
ENDBRANCH   8  10
ENDBRANCH   7   8
ENDBRANCH   6   7
ENDBRANCH   5   6
ENDBRANCH   4   5
ENDBRANCH   3   4
ENDBRANCH   2   3
ENDBRANCH   1   2
BRANCH   1  66
ATOM     66  C   UNL     1      15.318   1.012  -2.106  1.00  0.00     0.188 C 
BRANCH  66  67
ATOM     67  C   UNL     1      15.460   0.556  -0.641  1.00  0.00     0.188 C 
BRANCH  67  68
ATOM     68  O   UNL     1      16.459   1.101   0.200  1.00  0.00    -0.376 OA
BRANCH  68  69
ATOM     69  C   UNL     1      17.759   1.362  -0.296  1.00  0.00     0.202 C 
BRANCH  69  70
ATOM     70  C   UNL     1      18.519   0.367  -1.197  1.00  0.00     0.261 C 
BRANCH  70  71
ATOM     71  O   UNL     1      17.764  -0.475  -2.077  1.00  0.00    -0.458 OA
BRANCH  71  72
ATOM     72  C   UNL     1      17.380  -1.696  -1.592  1.00  0.00     0.359 C 
ATOM     73  O   UNL     1      17.606  -2.094  -0.459  1.00  0.00    -0.244 OA
BRANCH  72  74
ATOM     74  C   UNL     1      16.533  -2.426  -2.553  1.00  0.00     0.175 A 
ATOM     75  N   UNL     1      17.041  -2.867  -3.721  1.00  0.00    -0.165 NA
ATOM     76  C   UNL     1      15.149  -2.777  -2.445  1.00  0.00     0.028 A 
ATOM     77  N   UNL     1      16.030  -3.533  -4.318  1.00  0.00    -0.264 N 
ATOM     78  C   UNL     1      14.876  -3.490  -3.595  1.00  0.00     0.046 A 
ATOM     79  C   UNL     1      14.118  -2.492  -1.401  1.00  0.00     0.159 C 
ATOM     80  C   UNL     1      13.578  -4.146  -3.900  1.00  0.00     0.078 C 
ATOM     81  N   UNL     1      12.935  -3.343  -1.615  1.00  0.00    -0.337 N 
ATOM     82  C   UNL     1      12.483  -3.528  -3.009  1.00  0.00     0.126 C 
BRANCH  77  83
ATOM     83  C   UNL     1      16.310  -4.346  -5.495  1.00  0.00     0.180 C 
BRANCH  83  84
ATOM     84  C   UNL     1      16.376  -3.546  -6.773  1.00  0.00    -0.026 A 
ATOM     85  C   UNL     1      17.446  -2.665  -7.007  1.00  0.00     0.008 A 
ATOM     86  C   UNL     1      15.410  -3.723  -7.777  1.00  0.00     0.008 A 
ATOM     87  C   UNL     1      17.562  -1.996  -8.226  1.00  0.00     0.039 A 
ATOM     88  C   UNL     1      15.529  -3.054  -8.996  1.00  0.00     0.039 A 
ATOM     89  C   UNL     1      16.607  -2.204  -9.213  1.00  0.00     0.123 A 
ATOM     90  F   UNL     1      16.730  -1.583 -10.393  1.00  0.00    -0.207 F 
ENDBRANCH  83  84
ENDBRANCH  77  83
BRANCH  81  91
ATOM     91  C   UNL     1      12.221  -3.740  -0.489  1.00  0.00     0.232 C 
ATOM     92  O   UNL     1      12.467  -3.339   0.633  1.00  0.00    -0.274 OA
BRANCH  91  93
ATOM     93  C   UNL     1      11.085  -4.662  -0.700  1.00  0.00     0.154 C 
ATOM     94  C   UNL     1      11.327  -6.101  -1.127  1.00  0.00     0.097 C 
ATOM     95  C   UNL     1      10.877  -5.784   0.248  1.00  0.00     0.260 C 
ATOM     96  F   UNL     1      11.719  -6.056   1.299  1.00  0.00    -0.206 F 
ATOM     97  F   UNL     1       9.607  -6.152   0.633  1.00  0.00    -0.206 F 
ENDBRANCH  91  93
ENDBRANCH  81  91
ENDBRANCH  72  74
ENDBRANCH  71  72
ENDBRANCH  70  71
ENDBRANCH  69  70
ENDBRANCH  68  69
ENDBRANCH  67  68
ENDBRANCH  66  67
ENDBRANCH   1  66
TORSDOF 24
