REMARK SMILES Cc1cccc(-c2ccccc2C(=O)N2CC[C@H](O)C[C@@H]2C(=O)OCCOCCOCCOCCOC(=O)c2ccc(-c3c4nc(c(-c5c(F)cccc5F)c5ccc([nH]5)c(-c5c(F)cccc5F)c5nc(c(-c6c(F)cccc6F)c6ccc3[nH]6)C=C5)C=C4)cc2)c1
REMARK SMILES IDX 29 1 28 2 27 3 26 4 25 5 24 6 22 7 23 8 21 9 15 10 16 11
REMARK SMILES IDX 17 12 20 13 18 14 13 15 14 16 12 17 7 18 8 19 9 20 11 21
REMARK SMILES IDX 10 22 6 23 1 24 2 25 3 26 93 27 4 28 5 29 19 30 30 32 31 33
REMARK SMILES IDX 32 34 33 35 34 36 35 37 36 38 37 39 38 40 39 41 40 42 92 43
REMARK SMILES IDX 41 44 91 45 42 46 43 47 44 48 85 49 45 50 90 51 84 52 86 53
REMARK SMILES IDX 46 54 89 55 83 56 82 57 47 59 73 60 56 61 72 62 57 63 60 64
REMARK SMILES IDX 71 65 87 66 58 67 59 68 70 70 88 71 61 72 48 73 49 74 54 75
REMARK SMILES IDX 50 76 51 77 53 78 55 79 52 80 74 81 75 82 80 83 76 84 77 85
REMARK SMILES IDX 79 86 81 87 78 88 62 89 63 90 68 91 64 92 65 93 67 94 69 95
REMARK SMILES IDX 66 96
REMARK H PARENT 19 31 86 58 60 69
REMARK Flexibility Score: inf
ROOT
ATOM      1  C   UNL     1      -0.824   6.412  -3.102  1.00  0.00     0.188 C 
ENDROOT
BRANCH   1   2
ATOM      2  C   UNL     1      -0.363   7.644  -3.863  1.00  0.00     0.188 C 
BRANCH   2   3
ATOM      3  O   UNL     1       0.155   7.369  -5.162  1.00  0.00    -0.376 OA
BRANCH   3   4
ATOM      4  C   UNL     1      -0.875   7.097  -6.088  1.00  0.00     0.202 C 
BRANCH   4   5
ATOM      5  C   UNL     1      -0.733   5.691  -6.661  1.00  0.00     0.261 C 
BRANCH   5   6
ATOM      6  O   UNL     1      -0.571   4.740  -5.586  1.00  0.00    -0.462 OA
BRANCH   6   7
ATOM      7  C   UNL     1       0.478   3.927  -5.733  1.00  0.00     0.329 C 
ATOM      8  O   UNL     1       1.088   3.827  -6.803  1.00  0.00    -0.250 OA
BRANCH   7   9
ATOM      9  C   UNL     1       0.939   3.162  -4.448  1.00  0.00     0.198 C 
ATOM     10  N   UNL     1       0.597   3.469  -2.982  1.00  0.00    -0.325 N 
ATOM     11  C   UNL     1       1.519   4.313  -2.203  1.00  0.00     0.123 C 
ATOM     12  C   UNL     1       2.907   4.654  -2.773  1.00  0.00     0.053 C 
ATOM     13  C   UNL     1       2.465   3.132  -4.630  1.00  0.00     0.069 C 
ATOM     14  C   UNL     1       3.052   4.490  -4.271  1.00  0.00     0.118 C 
BRANCH  10  15
ATOM     15  C   UNL     1      -0.572   2.875  -2.409  1.00  0.00     0.255 C 
ATOM     16  O   UNL     1      -1.250   2.095  -3.087  1.00  0.00    -0.269 OA
BRANCH  15  17
ATOM     17  C   UNL     1      -1.098   3.110  -0.975  1.00  0.00     0.047 A 
ATOM     18  C   UNL     1      -1.507   2.021  -0.171  1.00  0.00    -0.006 A 
ATOM     19  C   UNL     1      -2.385   2.211   0.936  1.00  0.00     0.009 A 
ATOM     20  C   UNL     1      -2.799   3.469   1.326  1.00  0.00     0.001 A 
ATOM     21  C   UNL     1      -1.426   4.362  -0.465  1.00  0.00     0.014 A 
ATOM     22  C   UNL     1      -2.261   4.548   0.661  1.00  0.00     0.001 A 
BRANCH  18  23
ATOM     23  C   UNL     1      -0.832   0.731  -0.244  1.00  0.00    -0.017 A 
ATOM     24  C   UNL     1       2.770  -0.441   0.031  1.00  0.00     0.044 C 
ATOM     25  C   UNL     1       1.277  -0.474  -0.053  1.00  0.00    -0.051 A 
ATOM     26  C   UNL     1       0.565  -1.676  -0.058  1.00  0.00     0.003 A 
ATOM     27  C   UNL     1       0.568   0.719  -0.133  1.00  0.00     0.012 A 
ATOM     28  C   UNL     1      -0.830  -1.679  -0.146  1.00  0.00     0.001 A 
ATOM     29  C   UNL     1      -1.528  -0.479  -0.244  1.00  0.00     0.009 A 
ENDBRANCH  18  23
ENDBRANCH  15  17
ENDBRANCH  10  15
BRANCH  14  30
ATOM     30  O   UNL     1       2.430   5.604  -4.893  1.00  0.00    -0.393 OA
ATOM     31  H   UNL     1       1.503   5.655  -4.612  1.00  0.00     0.210 HD
ENDBRANCH  14  30
ENDBRANCH   7   9
ENDBRANCH   6   7
ENDBRANCH   5   6
ENDBRANCH   4   5
ENDBRANCH   3   4
ENDBRANCH   2   3
ENDBRANCH   1   2
BRANCH   1  32
ATOM     32  O   UNL     1      -2.164   5.965  -3.025  1.00  0.00    -0.377 OA
BRANCH  32  33
ATOM     33  C   UNL     1      -3.125   6.799  -2.425  1.00  0.00     0.188 C 
BRANCH  33  34
ATOM     34  C   UNL     1      -2.743   7.545  -1.172  1.00  0.00     0.188 C 
BRANCH  34  35
ATOM     35  O   UNL     1      -1.797   8.549  -1.511  1.00  0.00    -0.376 OA
BRANCH  35  36
ATOM     36  C   UNL     1      -1.296   9.263  -0.390  1.00  0.00     0.202 C 
BRANCH  36  37
ATOM     37  C   UNL     1      -2.409  10.052   0.309  1.00  0.00     0.261 C 
BRANCH  37  38
ATOM     38  O   UNL     1      -3.153  10.773  -0.705  1.00  0.00    -0.460 OA
BRANCH  38  39
ATOM     39  C   UNL     1      -4.448  10.409  -0.883  1.00  0.00     0.338 C 
ATOM     40  O   UNL     1      -5.223  10.090   0.030  1.00  0.00    -0.246 OA
BRANCH  39  41
ATOM     41  C   UNL     1      -4.737  10.113  -2.322  1.00  0.00     0.060 A 
ATOM     42  C   UNL     1      -5.900   9.395  -2.674  1.00  0.00     0.016 A 
ATOM     43  C   UNL     1      -3.724  10.242  -3.266  1.00  0.00     0.016 A 
ATOM     44  C   UNL     1      -5.979   8.676  -3.888  1.00  0.00     0.010 A 
ATOM     45  C   UNL     1      -3.790   9.491  -4.438  1.00  0.00     0.010 A 
ATOM     46  C   UNL     1      -4.882   8.643  -4.750  1.00  0.00    -0.014 A 
BRANCH  46  47
ATOM     47  C   UNL     1      -4.624   7.579  -5.780  1.00  0.00     0.031 A 
ATOM     48  C   UNL     1      -3.870   7.948  -7.059  1.00  0.00     0.074 A 
ATOM     49  C   UNL     1      -4.666   6.279  -5.373  1.00  0.00     0.049 A 
ATOM     50  N   UNL     1      -3.356   7.156  -7.951  1.00  0.00    -0.248 NA
ATOM     51  C   UNL     1      -3.636   9.349  -7.412  1.00  0.00     0.031 C 
ATOM     52  C   UNL     1      -3.604   5.320  -5.580  1.00  0.00     0.029 A 
ATOM     53  N   UNL     1      -5.460   5.562  -4.491  1.00  0.00    -0.354 N 
ATOM     54  C   UNL     1      -2.536   7.896  -8.821  1.00  0.00     0.074 A 
ATOM     55  C   UNL     1      -2.786   9.261  -8.437  1.00  0.00     0.031 C 
ATOM     56  C   UNL     1      -3.864   4.096  -5.134  1.00  0.00     0.029 A 
ATOM     57  C   UNL     1      -5.194   4.173  -4.654  1.00  0.00     0.049 A 
ATOM     58  H   UNL     1      -6.104   5.951  -3.855  1.00  0.00     0.167 HD
ATOM     59  C   UNL     1      -1.655   7.271  -9.682  1.00  0.00     0.037 A 
ATOM     60  C   UNL     1      -6.152   3.292  -5.014  1.00  0.00     0.037 A 
ATOM     61  C   UNL     1      -1.901   5.808  -9.717  1.00  0.00     0.049 A 
ATOM     62  C   UNL     1      -5.984   2.862  -6.468  1.00  0.00     0.074 A 
ATOM     63  C   UNL     1      -1.123   4.666  -9.582  1.00  0.00     0.029 A 
ATOM     64  N   UNL     1      -3.219   5.339  -9.746  1.00  0.00    -0.354 N 
ATOM     65  N   UNL     1      -5.147   3.438  -7.313  1.00  0.00    -0.248 NA
ATOM     66  C   UNL     1      -6.671   1.733  -7.090  1.00  0.00     0.031 C 
ATOM     67  C   UNL     1      -1.984   3.553  -9.357  1.00  0.00     0.029 A 
ATOM     68  C   UNL     1      -3.292   3.988  -9.480  1.00  0.00     0.049 A 
ATOM     69  H   UNL     1      -4.001   5.906  -9.935  1.00  0.00     0.167 HD
ATOM     70  C   UNL     1      -5.221   2.840  -8.545  1.00  0.00     0.074 A 
ATOM     71  C   UNL     1      -6.171   1.761  -8.340  1.00  0.00     0.031 C 
ATOM     72  C   UNL     1      -4.546   3.271  -9.658  1.00  0.00     0.037 A 
BRANCH  59  73
ATOM     73  C   UNL     1      -0.412   7.917 -10.394  1.00  0.00     0.057 A 
ATOM     74  C   UNL     1       0.526   7.132 -11.115  1.00  0.00     0.134 A 
ATOM     75  C   UNL     1      -0.028   9.277 -10.368  1.00  0.00     0.134 A 
ATOM     76  F   UNL     1       0.314   5.838 -11.379  1.00  0.00    -0.206 F 
ATOM     77  C   UNL     1       1.739   7.622 -11.653  1.00  0.00     0.040 A 
ATOM     78  C   UNL     1       1.165   9.789 -10.931  1.00  0.00     0.040 A 
ATOM     79  F   UNL     1      -0.779  10.230  -9.822  1.00  0.00    -0.206 F 
ATOM     80  C   UNL     1       2.070   8.958 -11.559  1.00  0.00     0.006 A 
ENDBRANCH  59  73
BRANCH  60  81
ATOM     81  C   UNL     1      -7.255   3.408  -3.998  1.00  0.00     0.057 A 
ATOM     82  C   UNL     1      -6.836   2.984  -2.706  1.00  0.00     0.134 A 
ATOM     83  C   UNL     1      -8.046   4.571  -4.022  1.00  0.00     0.134 A 
ATOM     84  F   UNL     1      -6.112   1.860  -2.577  1.00  0.00    -0.206 F 
ATOM     85  C   UNL     1      -6.897   3.831  -1.586  1.00  0.00     0.040 A 
ATOM     86  C   UNL     1      -8.125   5.420  -2.897  1.00  0.00     0.040 A 
ATOM     87  F   UNL     1      -8.488   5.056  -5.193  1.00  0.00    -0.206 F 
ATOM     88  C   UNL     1      -7.490   5.083  -1.699  1.00  0.00     0.006 A 
ENDBRANCH  60  81
BRANCH  72  89
ATOM     89  C   UNL     1      -4.991   3.042 -11.095  1.00  0.00     0.057 A 
ATOM     90  C   UNL     1      -6.312   2.748 -11.455  1.00  0.00     0.134 A 
ATOM     91  C   UNL     1      -4.140   3.352 -12.190  1.00  0.00     0.134 A 
ATOM     92  F   UNL     1      -7.269   2.557 -10.538  1.00  0.00    -0.206 F 
ATOM     93  C   UNL     1      -6.742   2.709 -12.787  1.00  0.00     0.040 A 
ATOM     94  C   UNL     1      -4.576   3.383 -13.517  1.00  0.00     0.040 A 
ATOM     95  F   UNL     1      -2.852   3.687 -12.030  1.00  0.00    -0.206 F 
ATOM     96  C   UNL     1      -5.880   3.044 -13.822  1.00  0.00     0.006 A 
ENDBRANCH  72  89
ENDBRANCH  46  47
ENDBRANCH  39  41
ENDBRANCH  38  39
ENDBRANCH  37  38
ENDBRANCH  36  37
ENDBRANCH  35  36
ENDBRANCH  34  35
ENDBRANCH  33  34
ENDBRANCH  32  33
ENDBRANCH   1  32
TORSDOF 24
