REMARK SMILES Cc1ccc([C@H](C)Nc2ccc(C(=O)OCCOCCOCCOCCOC(=O)c3ccc(-c4c5nc(c(-c6c(F)cccc6F)c6ccc([nH]6)c(-c6c(F)cccc6F)c6nc(c(-c7c(F)cccc7F)c7ccc4[nH]7)C=C6)C=C5)cc3)cc2Cl)cc1F
REMARK SMILES IDX 20 1 19 2 18 3 17 4 16 5 15 6 13 7 14 8 12 9 9 10 10 11
REMARK SMILES IDX 85 12 11 13 84 14 86 15 8 16 6 18 7 19 5 20 1 21 2 22 3 23
REMARK SMILES IDX 88 24 4 25 87 26 89 27 21 28 22 29 23 30 24 31 25 32 26 33
REMARK SMILES IDX 27 34 28 35 29 36 30 37 31 38 83 39 32 40 82 41 33 42 34 43
REMARK SMILES IDX 35 44 76 45 36 46 81 47 75 48 77 49 37 50 80 51 74 52 73 53
REMARK SMILES IDX 38 55 64 56 47 57 63 58 48 59 51 60 62 61 78 62 49 63 50 64
REMARK SMILES IDX 61 66 79 67 52 68 39 69 40 70 45 71 41 72 42 73 44 74 46 75
REMARK SMILES IDX 43 76 65 77 66 78 71 79 67 80 68 81 70 82 72 83 69 84 53 85
REMARK SMILES IDX 54 86 59 87 55 88 56 89 58 90 60 91 57 92
REMARK H PARENT 8 17 77 54 51 65
REMARK Flexibility Score: inf
ROOT
ATOM      1  C   UNL     1      -7.380  -3.735   5.528  1.00  0.00     0.188 C 
ENDROOT
BRANCH   1   2
ATOM      2  C   UNL     1      -6.931  -2.814   6.684  1.00  0.00     0.188 C 
BRANCH   2   3
ATOM      3  O   UNL     1      -7.963  -2.316   7.509  1.00  0.00    -0.376 OA
BRANCH   3   4
ATOM      4  C   UNL     1      -8.625  -1.099   7.224  1.00  0.00     0.202 C 
BRANCH   4   5
ATOM      5  C   UNL     1      -9.060  -0.732   5.796  1.00  0.00     0.261 C 
BRANCH   5   6
ATOM      6  O   UNL     1      -8.112  -0.973   4.756  1.00  0.00    -0.460 OA
BRANCH   6   7
ATOM      7  C   UNL     1      -6.944  -0.290   4.817  1.00  0.00     0.338 C 
ATOM      8  O   UNL     1      -6.618   0.534   5.636  1.00  0.00    -0.246 OA
BRANCH   7   9
ATOM      9  C   UNL     1      -6.036  -0.910   3.823  1.00  0.00     0.061 A 
ATOM     10  C   UNL     1      -4.308  -2.176   1.995  1.00  0.00     0.053 A 
ATOM     11  C   UNL     1      -3.889  -1.888   3.305  1.00  0.00     0.028 A 
ATOM     12  C   UNL     1      -5.637  -1.853   1.641  1.00  0.00     0.065 A 
ATOM     13  C   UNL     1      -4.736  -1.243   4.208  1.00  0.00     0.018 A 
ATOM     14  C   UNL     1      -6.499  -1.246   2.554  1.00  0.00     0.038 A 
ATOM     15  Cl  UNL     1      -6.334  -2.242   0.106  1.00  0.00    -0.082 Cl
BRANCH  10  16
ATOM     16  N   UNL     1      -3.352  -2.676   1.118  1.00  0.00    -0.377 N 
ATOM     17  H   UNL     1      -2.912  -3.534   1.315  1.00  0.00     0.161 HD
BRANCH  16  18
ATOM     18  C   UNL     1      -2.992  -1.938  -0.098  1.00  0.00     0.106 C 
ATOM     19  C   UNL     1      -1.820  -1.006   0.252  1.00  0.00     0.036 C 
BRANCH  18  20
ATOM     20  C   UNL     1      -2.791  -2.933  -1.236  1.00  0.00    -0.023 A 
ATOM     21  C   UNL     1      -2.828  -5.503  -4.730  1.00  0.00     0.047 C 
ATOM     22  C   UNL     1      -2.767  -4.640  -3.510  1.00  0.00    -0.015 A 
ATOM     23  C   UNL     1      -1.823  -3.618  -3.373  1.00  0.00     0.007 A 
ATOM     24  C   UNL     1      -3.701  -4.817  -2.495  1.00  0.00     0.126 A 
ATOM     25  C   UNL     1      -1.838  -2.772  -2.253  1.00  0.00     0.006 A 
ATOM     26  C   UNL     1      -3.708  -3.994  -1.377  1.00  0.00     0.045 A 
ATOM     27  F   UNL     1      -4.634  -5.774  -2.601  1.00  0.00    -0.207 F 
ENDBRANCH  18  20
ENDBRANCH  16  18
ENDBRANCH  10  16
ENDBRANCH   7   9
ENDBRANCH   6   7
ENDBRANCH   5   6
ENDBRANCH   4   5
ENDBRANCH   3   4
ENDBRANCH   2   3
ENDBRANCH   1   2
BRANCH   1  28
ATOM     28  O   UNL     1      -8.747  -4.093   5.377  1.00  0.00    -0.377 OA
BRANCH  28  29
ATOM     29  C   UNL     1      -9.604  -4.146   6.511  1.00  0.00     0.188 C 
BRANCH  29  30
ATOM     30  C   UNL     1      -9.138  -4.785   7.850  1.00  0.00     0.188 C 
BRANCH  30  31
ATOM     31  O   UNL     1      -7.765  -5.065   8.021  1.00  0.00    -0.376 OA
BRANCH  31  32
ATOM     32  C   UNL     1      -7.126  -6.231   7.556  1.00  0.00     0.202 C 
BRANCH  32  33
ATOM     33  C   UNL     1      -7.761  -7.242   6.626  1.00  0.00     0.261 C 
BRANCH  33  34
ATOM     34  O   UNL     1      -8.514  -6.807   5.495  1.00  0.00    -0.460 OA
BRANCH  34  35
ATOM     35  C   UNL     1      -9.853  -6.837   5.707  1.00  0.00     0.338 C 
ATOM     36  O   UNL     1     -10.391  -6.951   6.801  1.00  0.00    -0.246 OA
BRANCH  35  37
ATOM     37  C   UNL     1     -10.684  -6.951   4.493  1.00  0.00     0.060 A 
ATOM     38  C   UNL     1     -12.032  -7.209   4.803  1.00  0.00     0.016 A 
ATOM     39  C   UNL     1     -10.060  -7.532   3.393  1.00  0.00     0.016 A 
ATOM     40  C   UNL     1     -12.579  -8.380   4.330  1.00  0.00     0.010 A 
ATOM     41  C   UNL     1     -10.621  -8.684   2.897  1.00  0.00     0.010 A 
ATOM     42  C   UNL     1     -11.802  -9.160   3.470  1.00  0.00    -0.014 A 
BRANCH  42  43
ATOM     43  C   UNL     1     -12.234 -10.490   3.100  1.00  0.00     0.031 A 
ATOM     44  C   UNL     1     -13.438 -10.519   2.268  1.00  0.00     0.074 A 
ATOM     45  C   UNL     1     -11.638 -11.591   3.611  1.00  0.00     0.049 A 
ATOM     46  N   UNL     1     -14.451 -11.279   2.482  1.00  0.00    -0.248 NA
ATOM     47  C   UNL     1     -13.658  -9.535   1.206  1.00  0.00     0.031 C 
ATOM     48  C   UNL     1     -11.880 -12.983   3.275  1.00  0.00     0.029 A 
ATOM     49  N   UNL     1     -10.749 -11.665   4.689  1.00  0.00    -0.354 N 
ATOM     50  C   UNL     1     -15.243 -11.168   1.363  1.00  0.00     0.074 A 
ATOM     51  C   UNL     1     -14.833  -9.944   0.718  1.00  0.00     0.031 C 
ATOM     52  C   UNL     1     -11.383 -13.767   4.251  1.00  0.00     0.029 A 
ATOM     53  C   UNL     1     -10.886 -12.917   5.323  1.00  0.00     0.049 A 
ATOM     54  H   UNL     1     -10.126 -10.954   4.962  1.00  0.00     0.167 HD
ATOM     55  C   UNL     1     -15.957 -12.256   0.961  1.00  0.00     0.037 A 
ATOM     56  C   UNL     1     -11.226 -13.060   6.648  1.00  0.00     0.037 A 
ATOM     57  C   UNL     1     -15.747 -13.364   1.895  1.00  0.00     0.049 A 
ATOM     58  C   UNL     1     -12.644 -13.532   6.801  1.00  0.00     0.074 A 
ATOM     59  C   UNL     1     -14.835 -14.408   1.876  1.00  0.00     0.029 A 
ATOM     60  N   UNL     1     -16.180 -13.251   3.214  1.00  0.00    -0.354 N 
ATOM     61  N   UNL     1     -13.505 -13.547   5.827  1.00  0.00    -0.248 NA
ATOM     62  C   UNL     1     -13.201 -13.990   8.067  1.00  0.00     0.031 C 
ATOM     63  C   UNL     1     -14.670 -14.877   3.201  1.00  0.00     0.029 A 
ATOM     64  C   UNL     1     -15.491 -14.133   4.030  1.00  0.00     0.049 A 
ATOM     65  H   UNL     1     -16.879 -12.631   3.524  1.00  0.00     0.167 HD
ATOM     66  C   UNL     1     -14.689 -14.040   6.284  1.00  0.00     0.074 A 
ATOM     67  C   UNL     1     -14.448 -14.313   7.691  1.00  0.00     0.031 C 
ATOM     68  C   UNL     1     -15.761 -14.204   5.459  1.00  0.00     0.037 A 
BRANCH  55  69
ATOM     69  C   UNL     1     -16.442 -12.401  -0.460  1.00  0.00     0.057 A 
ATOM     70  C   UNL     1     -16.376 -13.639  -1.128  1.00  0.00     0.134 A 
ATOM     71  C   UNL     1     -16.939 -11.342  -1.242  1.00  0.00     0.134 A 
ATOM     72  F   UNL     1     -15.996 -14.760  -0.503  1.00  0.00    -0.206 F 
ATOM     73  C   UNL     1     -16.689 -13.794  -2.483  1.00  0.00     0.040 A 
ATOM     74  C   UNL     1     -17.214 -11.472  -2.612  1.00  0.00     0.040 A 
ATOM     75  F   UNL     1     -17.204 -10.144  -0.702  1.00  0.00    -0.206 F 
ATOM     76  C   UNL     1     -17.084 -12.703  -3.240  1.00  0.00     0.006 A 
ENDBRANCH  55  69
BRANCH  56  77
ATOM     77  C   UNL     1     -10.621 -12.107   7.648  1.00  0.00     0.057 A 
ATOM     78  C   UNL     1      -9.220 -12.179   7.720  1.00  0.00     0.134 A 
ATOM     79  C   UNL     1     -11.186 -10.844   7.597  1.00  0.00     0.134 A 
ATOM     80  F   UNL     1      -8.619 -13.314   8.099  1.00  0.00    -0.206 F 
ATOM     81  C   UNL     1      -8.448 -11.181   7.148  1.00  0.00     0.040 A 
ATOM     82  C   UNL     1     -10.451  -9.863   6.970  1.00  0.00     0.040 A 
ATOM     83  F   UNL     1     -12.503 -10.659   7.760  1.00  0.00    -0.206 F 
ATOM     84  C   UNL     1      -9.116 -10.090   6.625  1.00  0.00     0.006 A 
ENDBRANCH  56  77
BRANCH  68  85
ATOM     85  C   UNL     1     -17.128 -14.603   5.920  1.00  0.00     0.057 A 
ATOM     86  C   UNL     1     -17.658 -14.290   7.177  1.00  0.00     0.134 A 
ATOM     87  C   UNL     1     -18.011 -15.252   5.030  1.00  0.00     0.134 A 
ATOM     88  F   UNL     1     -16.979 -13.549   8.064  1.00  0.00    -0.206 F 
ATOM     89  C   UNL     1     -18.940 -14.689   7.562  1.00  0.00     0.040 A 
ATOM     90  C   UNL     1     -19.317 -15.584   5.377  1.00  0.00     0.040 A 
ATOM     91  F   UNL     1     -17.649 -15.576   3.780  1.00  0.00    -0.206 F 
ATOM     92  C   UNL     1     -19.777 -15.330   6.658  1.00  0.00     0.006 A 
ENDBRANCH  68  85
ENDBRANCH  42  43
ENDBRANCH  35  37
ENDBRANCH  34  35
ENDBRANCH  33  34
ENDBRANCH  32  33
ENDBRANCH  31  32
ENDBRANCH  30  31
ENDBRANCH  29  30
ENDBRANCH  28  29
ENDBRANCH   1  28
TORSDOF 23
