REMARK SMILES COc1cccc(NC(=O)[C@@H]2[C@@H](C(=O)OCCOCCOCCOCCOC(=O)c3ccc(-c4c5nc(c(-c6c(F)cccc6F)c6ccc([nH]6)c(-c6c(F)cccc6F)c6nc(c(-c7c(F)cccc7F)c7ccc4[nH]7)C=C6)C=C5)cc3)[C@H]3C=C[C@@H]2C3)c1
REMARK SMILES IDX 20 1 19 2 18 3 17 4 16 5 15 6 13 7 14 8 12 9 11 10 87 11
REMARK SMILES IDX 84 12 86 13 88 14 85 15 9 16 8 17 10 19 7 20 3 21 4 22 89 23
REMARK SMILES IDX 5 24 6 25 2 26 1 27 21 28 22 29 23 30 24 31 25 32 26 33
REMARK SMILES IDX 27 34 28 35 29 36 30 37 31 38 83 39 32 40 82 41 33 42 34 43
REMARK SMILES IDX 35 44 76 45 36 46 81 47 75 48 77 49 37 50 80 51 74 52 73 53
REMARK SMILES IDX 38 55 64 56 47 57 63 58 48 59 51 60 62 61 78 62 49 63 50 64
REMARK SMILES IDX 61 66 79 67 52 68 39 69 40 70 45 71 41 72 42 73 44 74 46 75
REMARK SMILES IDX 43 76 65 77 66 78 71 79 67 80 68 81 70 82 72 83 69 84 53 85
REMARK SMILES IDX 54 86 59 87 55 88 56 89 58 90 60 91 57 92
REMARK H PARENT 8 18 77 54 51 65
REMARK Flexibility Score: inf
ROOT
ATOM      1  C   UNL     1       3.373   8.578   2.581  1.00  0.00     0.188 C 
ENDROOT
BRANCH   1   2
ATOM      2  C   UNL     1       2.358   7.682   1.834  1.00  0.00     0.188 C 
BRANCH   2   3
ATOM      3  O   UNL     1       1.029   8.179   1.820  1.00  0.00    -0.376 OA
BRANCH   3   4
ATOM      4  C   UNL     1       0.031   7.558   2.607  1.00  0.00     0.202 C 
BRANCH   4   5
ATOM      5  C   UNL     1       0.171   7.623   4.141  1.00  0.00     0.261 C 
BRANCH   5   6
ATOM      6  O   UNL     1       1.485   7.360   4.651  1.00  0.00    -0.463 OA
BRANCH   6   7
ATOM      7  C   UNL     1       1.884   6.091   4.439  1.00  0.00     0.310 C 
ATOM      8  O   UNL     1       1.182   5.286   3.850  1.00  0.00    -0.252 OA
BRANCH   7   9
ATOM      9  C   UNL     1       3.302   5.795   4.838  1.00  0.00     0.119 C 
ATOM     10  C   UNL     1       3.405   4.375   5.485  1.00  0.00     0.100 C 
ATOM     11  C   UNL     1       4.167   4.704   6.803  1.00  0.00     0.025 C 
ATOM     12  C   UNL     1       3.889   6.737   5.921  1.00  0.00     0.027 C 
ATOM     13  C   UNL     1       3.191   5.453   7.692  1.00  0.00    -0.027 C 
ATOM     14  C   UNL     1       5.062   5.890   6.412  1.00  0.00     0.017 C 
ATOM     15  C   UNL     1       3.033   6.676   7.165  1.00  0.00    -0.027 C 
BRANCH  10  16
ATOM     16  C   UNL     1       4.168   3.404   4.591  1.00  0.00     0.228 C 
ATOM     17  N   UNL     1       3.610   2.695   3.566  1.00  0.00    -0.326 N 
ATOM     18  H   UNL     1       4.292   2.218   3.040  1.00  0.00     0.169 HD
ATOM     19  O   UNL     1       5.395   3.290   4.714  1.00  0.00    -0.274 OA
BRANCH  17  20
ATOM     20  C   UNL     1       2.311   2.467   3.064  1.00  0.00     0.044 A 
ATOM     21  C   UNL     1       0.981   1.848   1.120  1.00  0.00     0.120 A 
ATOM     22  C   UNL     1      -0.181   2.272   1.746  1.00  0.00     0.046 A 
ATOM     23  C   UNL     1       2.222   1.964   1.757  1.00  0.00     0.072 A 
ATOM     24  C   UNL     1      -0.114   2.671   3.073  1.00  0.00     0.006 A 
ATOM     25  C   UNL     1       1.120   2.704   3.742  1.00  0.00     0.026 A 
BRANCH  21  26
ATOM     26  O   UNL     1       0.875   1.370  -0.158  1.00  0.00    -0.497 OA
ATOM     27  C   UNL     1       1.157  -0.030  -0.184  1.00  0.00     0.278 C 
ENDBRANCH  21  26
ENDBRANCH  17  20
ENDBRANCH  10  16
ENDBRANCH   7   9
ENDBRANCH   6   7
ENDBRANCH   5   6
ENDBRANCH   4   5
ENDBRANCH   3   4
ENDBRANCH   2   3
ENDBRANCH   1   2
BRANCH   1  28
ATOM     28  O   UNL     1       2.912   9.648   3.393  1.00  0.00    -0.377 OA
BRANCH  28  29
ATOM     29  C   UNL     1       1.867  10.495   2.925  1.00  0.00     0.188 C 
BRANCH  29  30
ATOM     30  C   UNL     1       1.664  10.764   1.415  1.00  0.00     0.188 C 
BRANCH  30  31
ATOM     31  O   UNL     1       2.644  10.184   0.574  1.00  0.00    -0.376 OA
BRANCH  31  32
ATOM     32  C   UNL     1       3.627  11.037   0.020  1.00  0.00     0.202 C 
BRANCH  32  33
ATOM     33  C   UNL     1       4.535  11.800   0.996  1.00  0.00     0.261 C 
BRANCH  33  34
ATOM     34  O   UNL     1       3.876  12.562   2.020  1.00  0.00    -0.460 OA
BRANCH  34  35
ATOM     35  C   UNL     1       3.117  13.607   1.629  1.00  0.00     0.338 C 
ATOM     36  O   UNL     1       2.938  14.004   0.488  1.00  0.00    -0.246 OA
BRANCH  35  37
ATOM     37  C   UNL     1       2.361  14.078   2.809  1.00  0.00     0.060 A 
ATOM     38  C   UNL     1       0.959  14.039   2.785  1.00  0.00     0.016 A 
ATOM     39  C   UNL     1       3.036  14.533   3.943  1.00  0.00     0.016 A 
ATOM     40  C   UNL     1       0.228  14.488   3.885  1.00  0.00     0.010 A 
ATOM     41  C   UNL     1       2.303  15.011   5.032  1.00  0.00     0.010 A 
ATOM     42  C   UNL     1       0.897  15.024   4.993  1.00  0.00    -0.014 A 
BRANCH  42  43
ATOM     43  C   UNL     1       0.135  15.795   6.004  1.00  0.00     0.031 A 
ATOM     44  C   UNL     1       0.095  17.293   5.864  1.00  0.00     0.074 A 
ATOM     45  C   UNL     1      -0.523  15.188   7.007  1.00  0.00     0.049 A 
ATOM     46  N   UNL     1      -0.457  18.188   6.642  1.00  0.00    -0.248 NA
ATOM     47  C   UNL     1       0.774  17.858   4.685  1.00  0.00     0.031 C 
ATOM     48  C   UNL     1      -0.600  13.745   7.222  1.00  0.00     0.029 A 
ATOM     49  N   UNL     1      -1.248  15.723   8.044  1.00  0.00    -0.354 N 
ATOM     50  C   UNL     1      -0.177  19.417   6.058  1.00  0.00     0.074 A 
ATOM     51  C   UNL     1       0.609  19.159   4.873  1.00  0.00     0.031 C 
ATOM     52  C   UNL     1      -1.323  13.508   8.332  1.00  0.00     0.029 A 
ATOM     53  C   UNL     1      -1.728  14.783   8.924  1.00  0.00     0.049 A 
ATOM     54  H   UNL     1      -1.409  16.689   8.147  1.00  0.00     0.167 HD
ATOM     55  C   UNL     1      -0.544  20.651   6.474  1.00  0.00     0.037 A 
ATOM     56  C   UNL     1      -2.392  14.941  10.085  1.00  0.00     0.037 A 
ATOM     57  C   UNL     1      -1.336  20.904   7.647  1.00  0.00     0.049 A 
ATOM     58  C   UNL     1      -2.722  16.335  10.562  1.00  0.00     0.074 A 
ATOM     59  C   UNL     1      -1.795  22.117   8.129  1.00  0.00     0.029 A 
ATOM     60  N   UNL     1      -1.774  19.929   8.530  1.00  0.00    -0.354 N 
ATOM     61  N   UNL     1      -2.493  17.488   9.981  1.00  0.00    -0.248 NA
ATOM     62  C   UNL     1      -3.405  16.447  11.860  1.00  0.00     0.031 C 
ATOM     63  C   UNL     1      -2.454  21.883   9.340  1.00  0.00     0.029 A 
ATOM     64  C   UNL     1      -2.466  20.518   9.575  1.00  0.00     0.049 A 
ATOM     65  H   UNL     1      -1.617  18.962   8.428  1.00  0.00     0.167 HD
ATOM     66  C   UNL     1      -3.039  18.454  10.820  1.00  0.00     0.074 A 
ATOM     67  C   UNL     1      -3.622  17.751  11.943  1.00  0.00     0.031 C 
ATOM     68  C   UNL     1      -3.058  19.802  10.676  1.00  0.00     0.037 A 
BRANCH  55  69
ATOM     69  C   UNL     1      -0.065  21.829   5.678  1.00  0.00     0.057 A 
ATOM     70  C   UNL     1      -0.575  22.133   4.410  1.00  0.00     0.134 A 
ATOM     71  C   UNL     1       0.884  22.707   6.220  1.00  0.00     0.134 A 
ATOM     72  F   UNL     1      -1.474  21.325   3.827  1.00  0.00    -0.206 F 
ATOM     73  C   UNL     1      -0.150  23.260   3.704  1.00  0.00     0.040 A 
ATOM     74  C   UNL     1       1.296  23.851   5.537  1.00  0.00     0.040 A 
ATOM     75  F   UNL     1       1.412  22.475   7.432  1.00  0.00    -0.206 F 
ATOM     76  C   UNL     1       0.780  24.128   4.273  1.00  0.00     0.006 A 
ENDBRANCH  55  69
BRANCH  56  77
ATOM     77  C   UNL     1      -2.776  13.763  10.908  1.00  0.00     0.057 A 
ATOM     78  C   UNL     1      -4.120  13.443  11.137  1.00  0.00     0.134 A 
ATOM     79  C   UNL     1      -1.812  12.970  11.543  1.00  0.00     0.134 A 
ATOM     80  F   UNL     1      -5.093  14.179  10.581  1.00  0.00    -0.206 F 
ATOM     81  C   UNL     1      -4.492  12.404  11.993  1.00  0.00     0.040 A 
ATOM     82  C   UNL     1      -2.168  11.908  12.375  1.00  0.00     0.040 A 
ATOM     83  F   UNL     1      -0.506  13.221  11.368  1.00  0.00    -0.206 F 
ATOM     84  C   UNL     1      -3.512  11.631  12.614  1.00  0.00     0.006 A 
ENDBRANCH  56  77
BRANCH  68  85
ATOM     85  C   UNL     1      -3.777  20.603  11.724  1.00  0.00     0.057 A 
ATOM     86  C   UNL     1      -3.281  20.746  13.026  1.00  0.00     0.134 A 
ATOM     87  C   UNL     1      -4.966  21.277  11.410  1.00  0.00     0.134 A 
ATOM     88  F   UNL     1      -2.153  20.120  13.396  1.00  0.00    -0.206 F 
ATOM     89  C   UNL     1      -3.956  21.503  13.985  1.00  0.00     0.040 A 
ATOM     90  C   UNL     1      -5.632  22.064  12.350  1.00  0.00     0.040 A 
ATOM     91  F   UNL     1      -5.491  21.195  10.178  1.00  0.00    -0.206 F 
ATOM     92  C   UNL     1      -5.131  22.171  13.646  1.00  0.00     0.006 A 
ENDBRANCH  68  85
ENDBRANCH  42  43
ENDBRANCH  35  37
ENDBRANCH  34  35
ENDBRANCH  33  34
ENDBRANCH  32  33
ENDBRANCH  31  32
ENDBRANCH  30  31
ENDBRANCH  29  30
ENDBRANCH  28  29
ENDBRANCH   1  28
TORSDOF 23
