REMARK SMILES C[N@H+]1CC[C@H]2CN(C(=O)c3csc(-c4ccncc4)n3)C[C@@]2(C(=O)OCCOCCOCCOCCOC(=O)c2ccc(-c3c4nc(c(-c5c(F)cccc5F)c5ccc([nH]5)c(-c5c(F)cccc5F)c5nc(c(-c6c(F)cccc6F)c6ccc3[nH]6)C=C5)C=C4)cc2)C1
REMARK SMILES IDX 30 1 29 2 28 3 27 4 26 5 25 6 23 7 24 8 22 9 1 10 2 11 3 12
REMARK SMILES IDX 94 13 4 15 5 16 21 17 6 18 7 19 8 20 9 21 10 22 11 23 20 24
REMARK SMILES IDX 12 25 13 26 14 27 15 28 19 29 16 30 18 31 17 32 31 33 32 34
REMARK SMILES IDX 33 35 34 36 35 37 36 38 37 39 38 40 39 41 40 42 41 43 93 44
REMARK SMILES IDX 42 45 92 46 43 47 44 48 45 49 86 50 46 51 91 52 85 53 87 54
REMARK SMILES IDX 47 55 90 56 84 57 83 58 48 60 74 61 57 62 73 63 58 64 61 65
REMARK SMILES IDX 72 66 88 67 59 68 60 69 71 71 89 72 62 73 49 74 50 75 55 76
REMARK SMILES IDX 51 77 52 78 54 79 56 80 53 81 75 82 76 83 81 84 77 85 78 86
REMARK SMILES IDX 80 87 82 88 79 89 63 90 64 91 69 92 65 93 66 94 68 95 70 96
REMARK SMILES IDX 67 97
REMARK H PARENT 2 14 87 59 61 70
REMARK Flexibility Score: inf
ROOT
ATOM      1  C   UNL     1      -2.663  -0.573   0.132  1.00  0.00     0.188 C 
ENDROOT
BRANCH   1   2
ATOM      2  C   UNL     1      -1.360   0.073  -0.343  1.00  0.00     0.188 C 
BRANCH   2   3
ATOM      3  O   UNL     1      -1.361   1.324  -1.025  1.00  0.00    -0.376 OA
BRANCH   3   4
ATOM      4  C   UNL     1      -0.035   1.729  -1.440  1.00  0.00     0.202 C 
BRANCH   4   5
ATOM      5  C   UNL     1       0.326   1.246  -2.867  1.00  0.00     0.261 C 
BRANCH   5   6
ATOM      6  O   UNL     1       0.107  -0.176  -2.984  1.00  0.00    -0.463 OA
BRANCH   6   7
ATOM      7  C   UNL     1       1.104  -1.126  -3.118  1.00  0.00     0.320 C 
ATOM      8  O   UNL     1       2.200  -0.919  -3.607  1.00  0.00    -0.251 OA
BRANCH   7   9
ATOM      9  C   UNL     1       0.643  -2.350  -2.276  1.00  0.00     0.139 C 
ATOM     10  C   UNL     1       2.863  -1.117   0.485  1.00  0.00     0.332 C 
ATOM     11  N   UNL     1       2.321  -2.081  -0.463  1.00  0.00    -0.336 N 
ATOM     12  C   UNL     1       2.452  -3.457  -0.020  1.00  0.00     0.262 C 
ATOM     13  C   UNL     1       0.934  -1.802  -0.848  1.00  0.00     0.283 C 
ATOM     14  H   UNL     1       2.901  -1.967  -1.294  1.00  0.00     0.347 HD
ATOM     15  C   UNL     1       1.579  -4.358  -0.889  1.00  0.00     0.068 C 
ATOM     16  C   UNL     1       1.269  -3.792  -2.308  1.00  0.00     0.039 C 
ATOM     17  C   UNL     1      -0.808  -2.603  -2.796  1.00  0.00     0.145 C 
ATOM     18  C   UNL     1       0.201  -4.727  -2.888  1.00  0.00     0.125 C 
ATOM     19  N   UNL     1      -0.735  -3.862  -3.522  1.00  0.00    -0.336 N 
BRANCH  19  20
ATOM     20  C   UNL     1      -1.549  -4.355  -4.528  1.00  0.00     0.273 C 
ATOM     21  O   UNL     1      -1.765  -5.564  -4.629  1.00  0.00    -0.267 OA
BRANCH  20  22
ATOM     22  C   UNL     1      -2.071  -3.425  -5.535  1.00  0.00     0.139 A 
ATOM     23  C   UNL     1      -3.211  -3.694  -6.274  1.00  0.00     0.101 A 
ATOM     24  N   UNL     1      -1.368  -2.293  -5.961  1.00  0.00    -0.231 NA
ATOM     25  S   UNL     1      -3.426  -2.521  -7.499  1.00  0.00    -0.122 S 
ATOM     26  C   UNL     1      -1.964  -1.760  -7.009  1.00  0.00     0.124 A 
BRANCH  26  27
ATOM     27  C   UNL     1      -1.460  -0.629  -7.785  1.00  0.00     0.013 A 
ATOM     28  C   UNL     1      -0.328  -0.774  -8.591  1.00  0.00     0.031 A 
ATOM     29  C   UNL     1      -2.104   0.608  -7.739  1.00  0.00     0.031 A 
ATOM     30  C   UNL     1       0.098   0.320  -9.327  1.00  0.00     0.111 A 
ATOM     31  C   UNL     1      -1.596   1.642  -8.506  1.00  0.00     0.111 A 
ATOM     32  N   UNL     1      -0.515   1.523  -9.304  1.00  0.00    -0.265 NA
ENDBRANCH  26  27
ENDBRANCH  20  22
ENDBRANCH  19  20
ENDBRANCH   7   9
ENDBRANCH   6   7
ENDBRANCH   5   6
ENDBRANCH   4   5
ENDBRANCH   3   4
ENDBRANCH   2   3
ENDBRANCH   1   2
BRANCH   1  33
ATOM     33  O   UNL     1      -3.749   0.262   0.444  1.00  0.00    -0.377 OA
BRANCH  33  34
ATOM     34  C   UNL     1      -3.413   1.532   0.962  1.00  0.00     0.188 C 
BRANCH  34  35
ATOM     35  C   UNL     1      -2.602   1.595   2.266  1.00  0.00     0.188 C 
BRANCH  35  36
ATOM     36  O   UNL     1      -2.064   0.350   2.712  1.00  0.00    -0.376 OA
BRANCH  36  37
ATOM     37  C   UNL     1      -2.648  -0.158   3.916  1.00  0.00     0.202 C 
BRANCH  37  38
ATOM     38  C   UNL     1      -3.965  -0.922   3.714  1.00  0.00     0.261 C 
BRANCH  38  39
ATOM     39  O   UNL     1      -5.010  -0.171   3.080  1.00  0.00    -0.460 OA
BRANCH  39  40
ATOM     40  C   UNL     1      -5.509   0.902   3.751  1.00  0.00     0.338 C 
ATOM     41  O   UNL     1      -5.238   1.254   4.862  1.00  0.00    -0.246 OA
BRANCH  40  42
ATOM     42  C   UNL     1      -6.255   1.712   2.747  1.00  0.00     0.060 A 
ATOM     43  C   UNL     1      -5.929   3.073   2.637  1.00  0.00     0.016 A 
ATOM     44  C   UNL     1      -7.114   1.115   1.819  1.00  0.00     0.016 A 
ATOM     45  C   UNL     1      -6.422   3.822   1.564  1.00  0.00     0.010 A 
ATOM     46  C   UNL     1      -7.651   1.879   0.779  1.00  0.00     0.010 A 
ATOM     47  C   UNL     1      -7.310   3.236   0.649  1.00  0.00    -0.014 A 
BRANCH  47  48
ATOM     48  C   UNL     1      -8.103   4.107  -0.250  1.00  0.00     0.031 A 
ATOM     49  C   UNL     1      -9.348   4.715   0.335  1.00  0.00     0.074 A 
ATOM     50  C   UNL     1      -7.755   4.359  -1.524  1.00  0.00     0.049 A 
ATOM     51  N   UNL     1     -10.240   5.489  -0.222  1.00  0.00    -0.248 NA
ATOM     52  C   UNL     1      -9.617   4.401   1.750  1.00  0.00     0.031 C 
ATOM     53  C   UNL     1      -6.558   3.862  -2.199  1.00  0.00     0.029 A 
ATOM     54  N   UNL     1      -8.399   5.101  -2.486  1.00  0.00    -0.354 N 
ATOM     55  C   UNL     1     -11.166   5.761   0.776  1.00  0.00     0.074 A 
ATOM     56  C   UNL     1     -10.747   5.052   1.962  1.00  0.00     0.031 C 
ATOM     57  C   UNL     1      -6.562   4.301  -3.472  1.00  0.00     0.029 A 
ATOM     58  C   UNL     1      -7.774   5.085  -3.710  1.00  0.00     0.049 A 
ATOM     59  H   UNL     1      -9.231   5.598  -2.313  1.00  0.00     0.167 HD
ATOM     60  C   UNL     1     -12.270   6.538   0.714  1.00  0.00     0.037 A 
ATOM     61  C   UNL     1      -8.157   5.625  -4.886  1.00  0.00     0.037 A 
ATOM     62  C   UNL     1     -12.712   7.211  -0.473  1.00  0.00     0.049 A 
ATOM     63  C   UNL     1      -9.451   6.400  -4.958  1.00  0.00     0.074 A 
ATOM     64  C   UNL     1     -13.817   8.025  -0.640  1.00  0.00     0.029 A 
ATOM     65  N   UNL     1     -12.079   7.128  -1.703  1.00  0.00    -0.354 N 
ATOM     66  N   UNL     1     -10.300   6.690  -4.000  1.00  0.00    -0.248 NA
ATOM     67  C   UNL     1      -9.845   6.917  -6.279  1.00  0.00     0.031 C 
ATOM     68  C   UNL     1     -13.883   8.392  -1.988  1.00  0.00     0.029 A 
ATOM     69  C   UNL     1     -12.790   7.849  -2.646  1.00  0.00     0.049 A 
ATOM     70  H   UNL     1     -11.249   6.630  -1.880  1.00  0.00     0.167 HD
ATOM     71  C   UNL     1     -11.310   7.438  -4.595  1.00  0.00     0.074 A 
ATOM     72  C   UNL     1     -10.963   7.571  -5.994  1.00  0.00     0.031 C 
ATOM     73  C   UNL     1     -12.426   7.968  -4.035  1.00  0.00     0.037 A 
BRANCH  60  74
ATOM     74  C   UNL     1     -13.087   6.655   1.964  1.00  0.00     0.057 A 
ATOM     75  C   UNL     1     -12.639   7.385   3.073  1.00  0.00     0.134 A 
ATOM     76  C   UNL     1     -14.331   6.021   2.063  1.00  0.00     0.134 A 
ATOM     77  F   UNL     1     -11.441   7.990   3.050  1.00  0.00    -0.206 F 
ATOM     78  C   UNL     1     -13.392   7.463   4.245  1.00  0.00     0.040 A 
ATOM     79  C   UNL     1     -15.104   6.113   3.221  1.00  0.00     0.040 A 
ATOM     80  F   UNL     1     -14.811   5.298   1.040  1.00  0.00    -0.206 F 
ATOM     81  C   UNL     1     -14.631   6.831   4.318  1.00  0.00     0.006 A 
ENDBRANCH  60  74
BRANCH  61  82
ATOM     82  C   UNL     1      -7.330   5.436  -6.108  1.00  0.00     0.057 A 
ATOM     83  C   UNL     1      -6.673   6.513  -6.716  1.00  0.00     0.134 A 
ATOM     84  C   UNL     1      -7.216   4.184  -6.726  1.00  0.00     0.134 A 
ATOM     85  F   UNL     1      -6.770   7.744  -6.195  1.00  0.00    -0.206 F 
ATOM     86  C   UNL     1      -5.945   6.355  -7.899  1.00  0.00     0.040 A 
ATOM     87  C   UNL     1      -6.473   4.008  -7.895  1.00  0.00     0.040 A 
ATOM     88  F   UNL     1      -7.829   3.112  -6.202  1.00  0.00    -0.206 F 
ATOM     89  C   UNL     1      -5.840   5.097  -8.489  1.00  0.00     0.006 A 
ENDBRANCH  61  82
BRANCH  73  90
ATOM     90  C   UNL     1     -13.342   8.758  -4.923  1.00  0.00     0.057 A 
ATOM     91  C   UNL     1     -14.165   8.137  -5.871  1.00  0.00     0.134 A 
ATOM     92  C   UNL     1     -13.452  10.147  -4.780  1.00  0.00     0.134 A 
ATOM     93  F   UNL     1     -14.102   6.811  -6.062  1.00  0.00    -0.206 F 
ATOM     94  C   UNL     1     -15.054   8.873  -6.657  1.00  0.00     0.040 A 
ATOM     95  C   UNL     1     -14.355  10.890  -5.541  1.00  0.00     0.040 A 
ATOM     96  F   UNL     1     -12.702  10.801  -3.881  1.00  0.00    -0.206 F 
ATOM     97  C   UNL     1     -15.157  10.253  -6.486  1.00  0.00     0.006 A 
ENDBRANCH  73  90
ENDBRANCH  47  48
ENDBRANCH  40  42
ENDBRANCH  39  40
ENDBRANCH  38  39
ENDBRANCH  37  38
ENDBRANCH  36  37
ENDBRANCH  35  36
ENDBRANCH  34  35
ENDBRANCH  33  34
ENDBRANCH   1  33
TORSDOF 23
