REMARK SMILES CC(C)c1cc2c(cc1Cl)C=C(C(=O)OCCOCCOCCOCCOC(=O)c1ccc(-c3c4nc(c(-c5c(F)cccc5F)c5ccc([nH]5)c(-c5c(F)cccc5F)c5nc(c(-c6c(F)cccc6F)c6ccc3[nH]6)C=C5)C=C4)cc1)[C@@H](C(F)(F)F)O2
REMARK SMILES IDX 22 1 21 2 20 3 19 4 18 5 17 6 16 7 15 8 13 9 14 10 12 11
REMARK SMILES IDX 4 12 5 13 9 14 6 15 8 16 10 17 7 18 89 19 11 20 84 21 2 22
REMARK SMILES IDX 1 23 3 24 85 25 86 26 87 27 88 28 23 29 24 30 25 31 26 32
REMARK SMILES IDX 27 33 28 34 29 35 30 36 31 37 83 38 32 39 82 40 33 41 34 42
REMARK SMILES IDX 35 43 76 44 36 45 81 46 75 47 77 48 37 49 80 50 74 51 73 52
REMARK SMILES IDX 38 54 64 55 47 56 63 57 48 58 51 59 62 60 78 61 49 62 50 63
REMARK SMILES IDX 61 65 79 66 52 67 39 68 40 69 45 70 41 71 42 72 44 73 46 74
REMARK SMILES IDX 43 75 65 76 66 77 71 78 67 79 68 80 70 81 72 82 69 83 53 84
REMARK SMILES IDX 54 85 59 86 55 87 56 88 58 89 60 90 57 91
REMARK H PARENT 77 53 51 64
REMARK Flexibility Score: inf
ROOT
ATOM      1  C   UNL     1      -9.329  -3.893   3.307  1.00  0.00     0.188 C 
ENDROOT
BRANCH   1   2
ATOM      2  O   UNL     1      -8.296  -3.673   2.346  1.00  0.00    -0.377 OA
BRANCH   2   3
ATOM      3  C   UNL     1      -7.647  -2.411   2.355  1.00  0.00     0.188 C 
BRANCH   3   4
ATOM      4  C   UNL     1      -8.441  -1.322   1.610  1.00  0.00     0.188 C 
BRANCH   4   5
ATOM      5  O   UNL     1      -9.773  -1.722   1.292  1.00  0.00    -0.376 OA
BRANCH   5   6
ATOM      6  C   UNL     1     -10.029  -2.118  -0.051  1.00  0.00     0.202 C 
BRANCH   6   7
ATOM      7  C   UNL     1      -9.362  -3.415  -0.535  1.00  0.00     0.261 C 
BRANCH   7   8
ATOM      8  O   UNL     1      -7.928  -3.431  -0.444  1.00  0.00    -0.460 OA
BRANCH   8   9
ATOM      9  C   UNL     1      -7.246  -2.574  -1.227  1.00  0.00     0.338 C 
ATOM     10  O   UNL     1      -7.710  -1.823  -2.067  1.00  0.00    -0.246 OA
BRANCH   9  11
ATOM     11  C   UNL     1      -5.838  -2.572  -0.778  1.00  0.00     0.087 C 
ATOM     12  C   UNL     1      -1.108  -1.292   0.413  1.00  0.00    -0.023 A 
ATOM     13  C   UNL     1      -1.810  -2.508   0.246  1.00  0.00     0.052 A 
ATOM     14  C   UNL     1      -1.870  -0.113   0.440  1.00  0.00     0.045 A 
ATOM     15  C   UNL     1      -3.182  -2.539  -0.008  1.00  0.00     0.128 A 
ATOM     16  C   UNL     1      -3.244  -0.144   0.153  1.00  0.00     0.032 A 
ATOM     17  Cl  UNL     1      -1.222   1.437   0.835  1.00  0.00    -0.084 Cl
ATOM     18  C   UNL     1      -3.891  -1.351  -0.121  1.00  0.00     0.019 A 
ATOM     19  O   UNL     1      -3.734  -3.775  -0.172  1.00  0.00    -0.475 OA
ATOM     20  C   UNL     1      -5.269  -1.375  -0.579  1.00  0.00     0.027 C 
ATOM     21  C   UNL     1      -5.151  -3.883  -0.485  1.00  0.00     0.316 C 
BRANCH  12  22
ATOM     22  C   UNL     1       0.410  -1.402   0.516  1.00  0.00     0.014 C 
ATOM     23  C   UNL     1       1.230  -0.276  -0.123  1.00  0.00     0.012 C 
ATOM     24  C   UNL     1       0.861  -1.659   1.953  1.00  0.00     0.012 C 
ENDBRANCH  12  22
BRANCH  21  25
ATOM     25  C   UNL     1      -5.287  -4.896  -1.632  1.00  0.00     0.430 C 
ATOM     26  F   UNL     1      -4.629  -6.047  -1.348  1.00  0.00    -0.167 F 
ATOM     27  F   UNL     1      -6.573  -5.238  -1.871  1.00  0.00    -0.167 F 
ATOM     28  F   UNL     1      -4.776  -4.414  -2.788  1.00  0.00    -0.167 F 
ENDBRANCH  21  25
ENDBRANCH   9  11
ENDBRANCH   8   9
ENDBRANCH   7   8
ENDBRANCH   6   7
ENDBRANCH   5   6
ENDBRANCH   4   5
ENDBRANCH   3   4
ENDBRANCH   2   3
ENDBRANCH   1   2
BRANCH   1  29
ATOM     29  C   UNL     1     -10.088  -2.724   3.975  1.00  0.00     0.188 C 
BRANCH  29  30
ATOM     30  O   UNL     1      -9.239  -1.685   4.458  1.00  0.00    -0.376 OA
BRANCH  30  31
ATOM     31  C   UNL     1      -9.109  -1.569   5.868  1.00  0.00     0.202 C 
BRANCH  31  32
ATOM     32  C   UNL     1      -8.154  -2.597   6.485  1.00  0.00     0.261 C 
BRANCH  32  33
ATOM     33  O   UNL     1      -8.563  -3.967   6.344  1.00  0.00    -0.460 OA
BRANCH  33  34
ATOM     34  C   UNL     1      -9.751  -4.328   6.878  1.00  0.00     0.338 C 
ATOM     35  O   UNL     1     -10.511  -3.634   7.528  1.00  0.00    -0.246 OA
BRANCH  34  36
ATOM     36  C   UNL     1     -10.071  -5.675   6.362  1.00  0.00     0.060 A 
ATOM     37  C   UNL     1      -9.133  -6.706   6.452  1.00  0.00     0.016 A 
ATOM     38  C   UNL     1     -11.309  -5.893   5.745  1.00  0.00     0.016 A 
ATOM     39  C   UNL     1      -9.445  -7.968   5.946  1.00  0.00     0.010 A 
ATOM     40  C   UNL     1     -11.617  -7.155   5.231  1.00  0.00     0.010 A 
ATOM     41  C   UNL     1     -10.694  -8.206   5.348  1.00  0.00    -0.014 A 
BRANCH  41  42
ATOM     42  C   UNL     1     -11.086  -9.592   4.999  1.00  0.00     0.031 A 
ATOM     43  C   UNL     1     -11.027 -10.105   3.594  1.00  0.00     0.074 A 
ATOM     44  C   UNL     1     -11.507 -10.393   5.996  1.00  0.00     0.049 A 
ATOM     45  N   UNL     1     -11.270 -11.314   3.151  1.00  0.00    -0.248 NA
ATOM     46  C   UNL     1     -10.654  -9.142   2.549  1.00  0.00     0.031 C 
ATOM     47  C   UNL     1     -11.630  -9.994   7.399  1.00  0.00     0.029 A 
ATOM     48  N   UNL     1     -11.905 -11.704   5.984  1.00  0.00    -0.354 N 
ATOM     49  C   UNL     1     -11.057 -11.268   1.780  1.00  0.00     0.074 A 
ATOM     50  C   UNL     1     -10.710  -9.897   1.458  1.00  0.00     0.031 C 
ATOM     51  C   UNL     1     -12.061 -11.043   8.116  1.00  0.00     0.029 A 
ATOM     52  C   UNL     1     -12.263 -12.178   7.222  1.00  0.00     0.049 A 
ATOM     53  H   UNL     1     -11.932 -12.253   5.167  1.00  0.00     0.167 HD
ATOM     54  C   UNL     1     -11.130 -12.280   0.881  1.00  0.00     0.037 A 
ATOM     55  C   UNL     1     -12.705 -13.392   7.595  1.00  0.00     0.037 A 
ATOM     56  C   UNL     1     -11.503 -13.636   1.204  1.00  0.00     0.049 A 
ATOM     57  C   UNL     1     -12.832 -14.477   6.565  1.00  0.00     0.074 A 
ATOM     58  C   UNL     1     -11.569 -14.737   0.365  1.00  0.00     0.029 A 
ATOM     59  N   UNL     1     -11.890 -14.074   2.462  1.00  0.00    -0.354 N 
ATOM     60  N   UNL     1     -12.544 -14.443   5.287  1.00  0.00    -0.248 NA
ATOM     61  C   UNL     1     -13.337 -15.774   7.034  1.00  0.00     0.031 C 
ATOM     62  C   UNL     1     -12.044 -15.827   1.105  1.00  0.00     0.029 A 
ATOM     63  C   UNL     1     -12.226 -15.419   2.415  1.00  0.00     0.049 A 
ATOM     64  H   UNL     1     -11.923 -13.512   3.270  1.00  0.00     0.167 HD
ATOM     65  C   UNL     1     -12.803 -15.719   4.806  1.00  0.00     0.074 A 
ATOM     66  C   UNL     1     -13.256 -16.507   5.933  1.00  0.00     0.031 C 
ATOM     67  C   UNL     1     -12.676 -16.195   3.543  1.00  0.00     0.037 A 
BRANCH  54  68
ATOM     68  C   UNL     1     -10.800 -11.961  -0.549  1.00  0.00     0.057 A 
ATOM     69  C   UNL     1     -11.792 -11.973  -1.538  1.00  0.00     0.134 A 
ATOM     70  C   UNL     1      -9.485 -11.702  -0.957  1.00  0.00     0.134 A 
ATOM     71  F   UNL     1     -13.070 -12.226  -1.218  1.00  0.00    -0.206 F 
ATOM     72  C   UNL     1     -11.488 -11.739  -2.881  1.00  0.00     0.040 A 
ATOM     73  C   UNL     1      -9.172 -11.443  -2.293  1.00  0.00     0.040 A 
ATOM     74  F   UNL     1      -8.488 -11.674  -0.060  1.00  0.00    -0.206 F 
ATOM     75  C   UNL     1     -10.175 -11.468  -3.260  1.00  0.00     0.006 A 
ENDBRANCH  54  68
BRANCH  55  76
ATOM     76  C   UNL     1     -13.044 -13.656   9.014  1.00  0.00     0.057 A 
ATOM     77  C   UNL     1     -14.171 -13.082   9.612  1.00  0.00     0.134 A 
ATOM     78  C   UNL     1     -12.262 -14.514   9.796  1.00  0.00     0.134 A 
ATOM     79  F   UNL     1     -14.956 -12.245   8.917  1.00  0.00    -0.206 F 
ATOM     80  C   UNL     1     -14.511 -13.353  10.938  1.00  0.00     0.040 A 
ATOM     81  C   UNL     1     -12.604 -14.814  11.114  1.00  0.00     0.040 A 
ATOM     82  F   UNL     1     -11.179 -15.105   9.271  1.00  0.00    -0.206 F 
ATOM     83  C   UNL     1     -13.732 -14.230  11.689  1.00  0.00     0.006 A 
ENDBRANCH  55  76
BRANCH  67  84
ATOM     84  C   UNL     1     -13.002 -17.645   3.329  1.00  0.00     0.057 A 
ATOM     85  C   UNL     1     -11.986 -18.574   3.066  1.00  0.00     0.134 A 
ATOM     86  C   UNL     1     -14.317 -18.125   3.380  1.00  0.00     0.134 A 
ATOM     87  F   UNL     1     -10.705 -18.182   2.998  1.00  0.00    -0.206 F 
ATOM     88  C   UNL     1     -12.267 -19.926   2.865  1.00  0.00     0.040 A 
ATOM     89  C   UNL     1     -14.608 -19.480   3.209  1.00  0.00     0.040 A 
ATOM     90  F   UNL     1     -15.335 -17.291   3.646  1.00  0.00    -0.206 F 
ATOM     91  C   UNL     1     -13.581 -20.384   2.946  1.00  0.00     0.006 A 
ENDBRANCH  67  84
ENDBRANCH  41  42
ENDBRANCH  34  36
ENDBRANCH  33  34
ENDBRANCH  32  33
ENDBRANCH  31  32
ENDBRANCH  30  31
ENDBRANCH  29  30
ENDBRANCH   1  29
TORSDOF 22
