REMARK SMILES CC(=O)Nc1ccc(/C=C2/CCc3oc(C(=O)OCCOCCOCCOCCOC(=O)c4ccc(-c5c6nc(c(-c7c(F)cccc7F)c7ccc([nH]7)c(-c7c(F)cccc7F)c7nc(c(-c8c(F)cccc8F)c8ccc5[nH]8)C=C7)C=C6)cc4)c(C)c3C2=O)cc1
REMARK SMILES IDX 24 1 23 2 22 3 21 4 20 5 19 6 18 7 16 8 17 9 15 10 9 11
REMARK SMILES IDX 10 12 11 13 90 14 12 15 89 16 91 17 13 18 87 19 14 20 88 21
REMARK SMILES IDX 8 22 5 23 6 24 93 25 7 26 92 27 4 28 1 29 2 30 3 31 25 33
REMARK SMILES IDX 26 34 27 35 28 36 29 37 30 38 31 39 32 40 33 41 34 42 86 43
REMARK SMILES IDX 35 44 85 45 36 46 37 47 38 48 79 49 39 50 84 51 78 52 80 53
REMARK SMILES IDX 40 54 83 55 77 56 76 57 41 59 67 60 50 61 66 62 51 63 54 64
REMARK SMILES IDX 65 65 81 66 52 67 53 68 64 70 82 71 55 72 42 73 43 74 48 75
REMARK SMILES IDX 44 76 45 77 47 78 49 79 46 80 68 81 69 82 74 83 70 84 71 85
REMARK SMILES IDX 73 86 75 87 72 88 56 89 57 90 62 91 58 92 59 93 61 94 63 95
REMARK SMILES IDX 60 96
REMARK H PARENT 4 32 80 58 54 69
REMARK Flexibility Score: inf
ROOT
ATOM      1  O   UNL     1       1.190  11.950  -7.325  1.00  0.00    -0.377 OA
ENDROOT
BRANCH   1   2
ATOM      2  C   UNL     1       0.594  10.680  -7.059  1.00  0.00     0.188 C 
BRANCH   2   3
ATOM      3  C   UNL     1      -0.929  10.482  -6.864  1.00  0.00     0.188 C 
BRANCH   3   4
ATOM      4  O   UNL     1      -1.618  11.659  -6.480  1.00  0.00    -0.376 OA
BRANCH   4   5
ATOM      5  C   UNL     1      -2.236  11.712  -5.214  1.00  0.00     0.202 C 
BRANCH   5   6
ATOM      6  C   UNL     1      -1.280  11.769  -4.018  1.00  0.00     0.261 C 
BRANCH   6   7
ATOM      7  O   UNL     1      -0.266  10.757  -3.980  1.00  0.00    -0.457 OA
BRANCH   7   8
ATOM      8  C   UNL     1      -0.682   9.464  -3.846  1.00  0.00     0.374 C 
ATOM      9  O   UNL     1      -1.836   9.116  -3.706  1.00  0.00    -0.242 OA
BRANCH   8  10
ATOM     10  C   UNL     1       0.455   8.594  -4.080  1.00  0.00     0.215 A 
ATOM     11  C   UNL     1       3.983   4.458  -3.394  1.00  0.00     0.016 C 
ATOM     12  C   UNL     1       3.811   5.568  -4.140  1.00  0.00     0.001 C 
ATOM     13  C   UNL     1       4.708   6.794  -4.009  1.00  0.00     0.048 C 
ATOM     14  C   UNL     1       2.646   5.813  -5.053  1.00  0.00     0.192 C 
ATOM     15  C   UNL     1       3.943   8.008  -3.421  1.00  0.00     0.081 C 
ATOM     16  C   UNL     1       1.920   6.989  -4.630  1.00  0.00     0.067 A 
ATOM     17  O   UNL     1       2.380   5.143  -6.039  1.00  0.00    -0.289 OA
ATOM     18  C   UNL     1       2.537   7.968  -3.890  1.00  0.00     0.116 A 
ATOM     19  C   UNL     1       0.575   7.412  -4.811  1.00  0.00     0.014 A 
ATOM     20  O   UNL     1       1.675   8.950  -3.555  1.00  0.00    -0.453 OA
ATOM     21  C   UNL     1      -0.462   6.711  -5.614  1.00  0.00     0.049 C 
BRANCH  11  22
ATOM     22  C   UNL     1       3.141   3.256  -3.178  1.00  0.00    -0.025 A 
ATOM     23  C   UNL     1       1.583   0.967  -2.515  1.00  0.00     0.041 A 
ATOM     24  C   UNL     1       1.218   1.801  -3.568  1.00  0.00     0.027 A 
ATOM     25  C   UNL     1       2.760   1.242  -1.827  1.00  0.00     0.027 A 
ATOM     26  C   UNL     1       1.973   2.941  -3.876  1.00  0.00     0.010 A 
ATOM     27  C   UNL     1       3.531   2.368  -2.160  1.00  0.00     0.010 A 
BRANCH  23  28
ATOM     28  N   UNL     1       0.756  -0.134  -2.255  1.00  0.00    -0.326 N 
ATOM     29  C   UNL     1       0.952  -0.251   0.220  1.00  0.00     0.114 C 
ATOM     30  C   UNL     1       0.518  -0.824  -1.102  1.00  0.00     0.221 C 
ATOM     31  O   UNL     1      -0.124  -1.875  -1.154  1.00  0.00    -0.275 OA
ATOM     32  H   UNL     1       0.262  -0.467  -3.039  1.00  0.00     0.169 HD
ENDBRANCH  23  28
ENDBRANCH  11  22
ENDBRANCH   8  10
ENDBRANCH   7   8
ENDBRANCH   6   7
ENDBRANCH   5   6
ENDBRANCH   4   5
ENDBRANCH   3   4
ENDBRANCH   2   3
ENDBRANCH   1   2
BRANCH   1  33
ATOM     33  C   UNL     1       0.370  13.101  -7.463  1.00  0.00     0.188 C 
BRANCH  33  34
ATOM     34  C   UNL     1      -0.630  13.113  -8.646  1.00  0.00     0.188 C 
BRANCH  34  35
ATOM     35  O   UNL     1      -0.952  11.830  -9.160  1.00  0.00    -0.376 OA
BRANCH  35  36
ATOM     36  C   UNL     1      -0.422  11.316 -10.367  1.00  0.00     0.202 C 
BRANCH  36  37
ATOM     37  C   UNL     1       1.082  11.253 -10.608  1.00  0.00     0.261 C 
BRANCH  37  38
ATOM     38  O   UNL     1       1.806  12.307 -10.021  1.00  0.00    -0.460 OA
BRANCH  38  39
ATOM     39  C   UNL     1       1.612  13.514 -10.574  1.00  0.00     0.338 C 
ATOM     40  O   UNL     1       0.843  13.801 -11.473  1.00  0.00    -0.246 OA
BRANCH  39  41
ATOM     41  C   UNL     1       2.595  14.429  -9.977  1.00  0.00     0.060 A 
ATOM     42  C   UNL     1       2.612  15.693 -10.559  1.00  0.00     0.016 A 
ATOM     43  C   UNL     1       3.721  13.852  -9.368  1.00  0.00     0.016 A 
ATOM     44  C   UNL     1       3.840  16.186 -10.905  1.00  0.00     0.010 A 
ATOM     45  C   UNL     1       4.946  14.325  -9.745  1.00  0.00     0.010 A 
ATOM     46  C   UNL     1       4.970  15.414 -10.607  1.00  0.00    -0.014 A 
BRANCH  46  47
ATOM     47  C   UNL     1       6.213  15.829 -11.198  1.00  0.00     0.031 A 
ATOM     48  C   UNL     1       6.775  17.006 -10.518  1.00  0.00     0.074 A 
ATOM     49  C   UNL     1       6.787  15.163 -12.212  1.00  0.00     0.049 A 
ATOM     50  N   UNL     1       6.870  18.208 -10.972  1.00  0.00    -0.248 NA
ATOM     51  C   UNL     1       7.073  16.863  -9.084  1.00  0.00     0.031 C 
ATOM     52  C   UNL     1       6.459  13.840 -12.749  1.00  0.00     0.029 A 
ATOM     53  N   UNL     1       7.883  15.522 -12.925  1.00  0.00    -0.354 N 
ATOM     54  C   UNL     1       7.441  18.936  -9.937  1.00  0.00     0.074 A 
ATOM     55  C   UNL     1       7.347  18.123  -8.754  1.00  0.00     0.031 C 
ATOM     56  C   UNL     1       7.476  13.422 -13.539  1.00  0.00     0.029 A 
ATOM     57  C   UNL     1       8.450  14.494 -13.658  1.00  0.00     0.049 A 
ATOM     58  H   UNL     1       8.244  16.438 -12.921  1.00  0.00     0.167 HD
ATOM     59  C   UNL     1       8.201  20.029 -10.194  1.00  0.00     0.037 A 
ATOM     60  C   UNL     1       9.683  14.527 -14.221  1.00  0.00     0.037 A 
ATOM     61  C   UNL     1       7.930  20.565 -11.503  1.00  0.00     0.049 A 
ATOM     62  C   UNL     1      10.104  15.953 -14.297  1.00  0.00     0.074 A 
ATOM     63  C   UNL     1       6.804  21.066 -12.128  1.00  0.00     0.029 A 
ATOM     64  N   UNL     1       8.824  20.288 -12.508  1.00  0.00    -0.354 N 
ATOM     65  N   UNL     1       9.560  16.833 -15.093  1.00  0.00    -0.248 NA
ATOM     66  C   UNL     1      10.819  16.510 -13.156  1.00  0.00     0.031 C 
ATOM     67  C   UNL     1       6.903  20.630 -13.482  1.00  0.00     0.029 A 
ATOM     68  C   UNL     1       8.100  19.926 -13.616  1.00  0.00     0.049 A 
ATOM     69  H   UNL     1       9.805  20.341 -12.446  1.00  0.00     0.167 HD
ATOM     70  C   UNL     1       9.504  18.004 -14.349  1.00  0.00     0.074 A 
ATOM     71  C   UNL     1      10.371  17.768 -13.198  1.00  0.00     0.031 C 
ATOM     72  C   UNL     1       8.539  18.944 -14.581  1.00  0.00     0.037 A 
BRANCH  59  73
ATOM     73  C   UNL     1       9.450  20.346  -9.417  1.00  0.00     0.057 A 
ATOM     74  C   UNL     1      10.093  21.573  -9.636  1.00  0.00     0.134 A 
ATOM     75  C   UNL     1      10.197  19.397  -8.684  1.00  0.00     0.134 A 
ATOM     76  F   UNL     1       9.494  22.547 -10.338  1.00  0.00    -0.206 F 
ATOM     77  C   UNL     1      11.406  21.812  -9.218  1.00  0.00     0.040 A 
ATOM     78  C   UNL     1      11.486  19.646  -8.212  1.00  0.00     0.040 A 
ATOM     79  F   UNL     1       9.774  18.145  -8.473  1.00  0.00    -0.206 F 
ATOM     80  C   UNL     1      12.108  20.846  -8.508  1.00  0.00     0.006 A 
ENDBRANCH  59  73
BRANCH  60  81
ATOM     81  C   UNL     1      10.639  13.410 -14.376  1.00  0.00     0.057 A 
ATOM     82  C   UNL     1      11.726  13.503 -15.255  1.00  0.00     0.134 A 
ATOM     83  C   UNL     1      10.662  12.328 -13.477  1.00  0.00     0.134 A 
ATOM     84  F   UNL     1      11.817  14.525 -16.118  1.00  0.00    -0.206 F 
ATOM     85  C   UNL     1      12.782  12.582 -15.232  1.00  0.00     0.040 A 
ATOM     86  C   UNL     1      11.705  11.398 -13.449  1.00  0.00     0.040 A 
ATOM     87  F   UNL     1       9.719  12.188 -12.535  1.00  0.00    -0.206 F 
ATOM     88  C   UNL     1      12.778  11.530 -14.321  1.00  0.00     0.006 A 
ENDBRANCH  60  81
BRANCH  72  89
ATOM     89  C   UNL     1       7.696  18.788 -15.816  1.00  0.00     0.057 A 
ATOM     90  C   UNL     1       6.820  17.713 -16.032  1.00  0.00     0.134 A 
ATOM     91  C   UNL     1       7.653  19.835 -16.742  1.00  0.00     0.134 A 
ATOM     92  F   UNL     1       6.717  16.715 -15.145  1.00  0.00    -0.206 F 
ATOM     93  C   UNL     1       5.972  17.664 -17.143  1.00  0.00     0.040 A 
ATOM     94  C   UNL     1       6.787  19.814 -17.838  1.00  0.00     0.040 A 
ATOM     95  F   UNL     1       8.420  20.923 -16.568  1.00  0.00    -0.206 F 
ATOM     96  C   UNL     1       5.950  18.722 -18.047  1.00  0.00     0.006 A 
ENDBRANCH  72  89
ENDBRANCH  46  47
ENDBRANCH  39  41
ENDBRANCH  38  39
ENDBRANCH  37  38
ENDBRANCH  36  37
ENDBRANCH  35  36
ENDBRANCH  34  35
ENDBRANCH  33  34
ENDBRANCH   1  33
TORSDOF 22
