REMARK SMILES O=C(OCCOCCOCCOCCOC(=O)c1ccc(-c2c3nc(c(-c4c(F)cccc4F)c4ccc([nH]4)c(-c4c(F)cccc4F)c4nc(c(-c5c(F)cccc5F)c5ccc2[nH]5)C=C4)C=C3)cc1)C1=Cc2cc(Cl)cc(-c3ccc(Cl)cc3)c2O[C@@H]1C(F)(F)F
REMARK SMILES IDX 10 1 9 2 8 3 7 4 6 5 5 6 4 7 3 8 2 9 1 10 72 11 73 12 89 13
REMARK SMILES IDX 74 14 88 15 75 16 87 17 76 18 79 19 77 20 78 21 90 22 91 23
REMARK SMILES IDX 92 24 93 25 80 26 81 27 86 28 82 29 85 30 83 31 84 32 11 33
REMARK SMILES IDX 12 34 13 35 14 36 15 37 16 38 17 39 18 40 19 41 71 42 20 43
REMARK SMILES IDX 70 44 21 45 22 46 23 47 64 48 24 49 69 50 63 51 65 52 25 53
REMARK SMILES IDX 68 54 62 55 61 56 26 58 52 59 35 60 51 61 36 62 39 63 50 64
REMARK SMILES IDX 66 65 37 66 38 67 49 69 67 70 40 71 27 72 28 73 33 74 29 75
REMARK SMILES IDX 30 76 32 77 34 78 31 79 53 80 54 81 59 82 55 83 56 84 58 85
REMARK SMILES IDX 60 86 57 87 41 88 42 89 47 90 43 91 44 92 46 93 48 94 45 95
REMARK H PARENT 65 57 39 68
REMARK Flexibility Score: inf
ROOT
ATOM      1  C   UNL     1       3.754  -0.893   3.584  1.00  0.00     0.188 C 
ENDROOT
BRANCH   1   2
ATOM      2  O   UNL     1       2.474  -1.453   3.732  1.00  0.00    -0.377 OA
BRANCH   2   3
ATOM      3  C   UNL     1       1.663  -1.069   2.655  1.00  0.00     0.188 C 
BRANCH   3   4
ATOM      4  C   UNL     1       2.081  -1.823   1.403  1.00  0.00     0.188 C 
BRANCH   4   5
ATOM      5  O   UNL     1       3.445  -1.827   0.863  1.00  0.00    -0.376 OA
BRANCH   5   6
ATOM      6  C   UNL     1       4.286  -0.889  -0.218  1.00  0.00     0.202 C 
BRANCH   6   7
ATOM      7  C   UNL     1       3.644   0.975  -1.154  1.00  0.00     0.261 C 
BRANCH   7   8
ATOM      8  O   UNL     1       2.811   1.109  -2.431  1.00  0.00    -0.460 OA
BRANCH   8   9
ATOM      9  C   UNL     1       3.024   0.110  -3.298  1.00  0.00     0.338 C 
ATOM     10  O   UNL     1       2.431  -0.152  -4.313  1.00  0.00    -0.246 OA
BRANCH   9  11
ATOM     11  C   UNL     1       3.804  -0.710  -2.395  1.00  0.00     0.087 C 
ATOM     12  C   UNL     1       5.188  -0.273  -2.253  1.00  0.00     0.027 C 
ATOM     13  C   UNL     1       2.488  -0.699  -0.995  1.00  0.00     0.316 C 
ATOM     14  C   UNL     1       5.827   0.569  -0.801  1.00  0.00     0.019 A 
ATOM     15  O   UNL     1       3.116   0.324   0.554  1.00  0.00    -0.475 OA
ATOM     16  C   UNL     1       7.129   0.998  -0.868  1.00  0.00     0.032 A 
ATOM     17  C   UNL     1       4.829   1.016   0.554  1.00  0.00     0.135 A 
ATOM     18  C   UNL     1       7.558   1.780   0.204  1.00  0.00     0.042 A 
ATOM     19  C   UNL     1       5.340   1.882   1.529  1.00  0.00     0.026 A 
ATOM     20  Cl  UNL     1       9.200   2.336   0.180  1.00  0.00    -0.084 Cl
ATOM     21  C   UNL     1       6.726   2.193   1.309  1.00  0.00     0.033 A 
BRANCH  13  22
ATOM     22  C   UNL     1       2.163  -2.334  -1.288  1.00  0.00     0.430 C 
ATOM     23  F   UNL     1       1.227  -2.960  -0.552  1.00  0.00    -0.167 F 
ATOM     24  F   UNL     1       1.661  -2.403  -2.562  1.00  0.00    -0.167 F 
ATOM     25  F   UNL     1       3.259  -3.133  -1.317  1.00  0.00    -0.167 F 
ENDBRANCH  13  22
BRANCH  19  26
ATOM     26  C   UNL     1       4.733   2.545   2.681  1.00  0.00    -0.015 A 
ATOM     27  C   UNL     1       4.360   3.898   2.682  1.00  0.00     0.010 A 
ATOM     28  C   UNL     1       4.738   1.924   3.918  1.00  0.00     0.010 A 
ATOM     29  C   UNL     1       3.805   4.504   3.824  1.00  0.00     0.021 A 
ATOM     30  C   UNL     1       4.007   2.439   4.985  1.00  0.00     0.021 A 
ATOM     31  C   UNL     1       3.548   3.738   4.949  1.00  0.00     0.041 A 
ATOM     32  Cl  UNL     1       2.745   4.390   6.319  1.00  0.00    -0.084 Cl
ENDBRANCH  19  26
ENDBRANCH   9  11
ENDBRANCH   8   9
ENDBRANCH   7   8
ENDBRANCH   6   7
ENDBRANCH   5   6
ENDBRANCH   4   5
ENDBRANCH   3   4
ENDBRANCH   2   3
ENDBRANCH   1   2
BRANCH   1  33
ATOM     33  C   UNL     1       4.986  -1.794   3.628  1.00  0.00     0.188 C 
BRANCH  33  34
ATOM     34  O   UNL     1       4.891  -3.195   3.768  1.00  0.00    -0.376 OA
BRANCH  34  35
ATOM     35  C   UNL     1       3.713  -3.741   4.330  1.00  0.00     0.202 C 
BRANCH  35  36
ATOM     36  C   UNL     1       3.289  -3.316   5.754  1.00  0.00     0.261 C 
BRANCH  36  37
ATOM     37  O   UNL     1       3.775  -2.054   6.245  1.00  0.00    -0.460 OA
BRANCH  37  38
ATOM     38  C   UNL     1       5.029  -2.046   6.755  1.00  0.00     0.338 C 
ATOM     39  O   UNL     1       5.787  -2.993   6.865  1.00  0.00    -0.246 OA
BRANCH  38  40
ATOM     40  C   UNL     1       5.420  -0.637   7.021  1.00  0.00     0.060 A 
ATOM     41  C   UNL     1       6.647  -0.160   6.531  1.00  0.00     0.016 A 
ATOM     42  C   UNL     1       4.582   0.216   7.742  1.00  0.00     0.016 A 
ATOM     43  C   UNL     1       7.055   1.157   6.780  1.00  0.00     0.010 A 
ATOM     44  C   UNL     1       4.993   1.532   7.998  1.00  0.00     0.010 A 
ATOM     45  C   UNL     1       6.250   2.002   7.553  1.00  0.00    -0.014 A 
BRANCH  45  46
ATOM     46  C   UNL     1       6.832   3.217   8.190  1.00  0.00     0.031 A 
ATOM     47  C   UNL     1       7.190   3.085   9.649  1.00  0.00     0.074 A 
ATOM     48  C   UNL     1       7.059   4.383   7.553  1.00  0.00     0.049 A 
ATOM     49  N   UNL     1       7.701   3.964  10.470  1.00  0.00    -0.248 NA
ATOM     50  C   UNL     1       6.916   1.775  10.268  1.00  0.00     0.031 C 
ATOM     51  C   UNL     1       6.817   4.656   6.140  1.00  0.00     0.029 A 
ATOM     52  N   UNL     1       7.543   5.579   8.038  1.00  0.00    -0.354 N 
ATOM     53  C   UNL     1       7.809   3.305  11.688  1.00  0.00     0.074 A 
ATOM     54  C   UNL     1       7.207   2.005  11.534  1.00  0.00     0.031 C 
ATOM     55  C   UNL     1       7.108   5.946   5.879  1.00  0.00     0.029 A 
ATOM     56  C   UNL     1       7.580   6.589   7.104  1.00  0.00     0.049 A 
ATOM     57  H   UNL     1       7.835   5.700   8.970  1.00  0.00     0.167 HD
ATOM     58  C   UNL     1       8.411   3.713  12.827  1.00  0.00     0.037 A 
ATOM     59  C   UNL     1       7.969   7.876   7.223  1.00  0.00     0.037 A 
ATOM     60  C   UNL     1       9.013   5.003  12.992  1.00  0.00     0.049 A 
ATOM     61  C   UNL     1       8.539   8.356   8.538  1.00  0.00     0.074 A 
ATOM     62  C   UNL     1       9.673   5.509  14.094  1.00  0.00     0.029 A 
ATOM     63  N   UNL     1       9.008   5.998  12.027  1.00  0.00    -0.354 N 
ATOM     64  N   UNL     1       8.719   7.695   9.657  1.00  0.00    -0.248 NA
ATOM     65  C   UNL     1       9.005   9.751   8.591  1.00  0.00     0.031 C 
ATOM     66  C   UNL     1      10.000   6.841  13.825  1.00  0.00     0.029 A 
ATOM     67  C   UNL     1       9.625   7.132  12.523  1.00  0.00     0.049 A 
ATOM     68  H   UNL     1       8.623   5.911  11.125  1.00  0.00     0.167 HD
ATOM     69  C   UNL     1       9.383   8.566  10.516  1.00  0.00     0.074 A 
ATOM     70  C   UNL     1       9.566   9.805   9.790  1.00  0.00     0.031 C 
ATOM     71  C   UNL     1       9.821   8.352  11.782  1.00  0.00     0.037 A 
BRANCH  58  72
ATOM     72  C   UNL     1       8.415   2.742  13.970  1.00  0.00     0.057 A 
ATOM     73  C   UNL     1       9.120   1.530  13.915  1.00  0.00     0.134 A 
ATOM     74  C   UNL     1       7.659   2.998  15.119  1.00  0.00     0.134 A 
ATOM     75  F   UNL     1       9.841   1.209  12.829  1.00  0.00    -0.206 F 
ATOM     76  C   UNL     1       9.031   0.587  14.940  1.00  0.00     0.040 A 
ATOM     77  C   UNL     1       7.595   2.081  16.167  1.00  0.00     0.040 A 
ATOM     78  F   UNL     1       6.957   4.136  15.234  1.00  0.00    -0.206 F 
ATOM     79  C   UNL     1       8.270   0.865  16.072  1.00  0.00     0.006 A 
ENDBRANCH  58  72
BRANCH  59  80
ATOM     80  C   UNL     1       7.905   8.808   6.061  1.00  0.00     0.057 A 
ATOM     81  C   UNL     1       9.073   9.298   5.459  1.00  0.00     0.134 A 
ATOM     82  C   UNL     1       6.686   9.290   5.570  1.00  0.00     0.134 A 
ATOM     83  F   UNL     1      10.275   8.899   5.898  1.00  0.00    -0.206 F 
ATOM     84  C   UNL     1       9.033  10.255   4.441  1.00  0.00     0.040 A 
ATOM     85  C   UNL     1       6.630  10.229   4.535  1.00  0.00     0.040 A 
ATOM     86  F   UNL     1       5.528   8.866   6.097  1.00  0.00    -0.206 F 
ATOM     87  C   UNL     1       7.806  10.723   3.975  1.00  0.00     0.006 A 
ENDBRANCH  59  80
BRANCH  71  88
ATOM     88  C   UNL     1      10.621   9.441  12.441  1.00  0.00     0.057 A 
ATOM     89  C   UNL     1      10.063  10.670  12.814  1.00  0.00     0.134 A 
ATOM     90  C   UNL     1      11.973   9.228  12.751  1.00  0.00     0.134 A 
ATOM     91  F   UNL     1       8.777  10.944  12.547  1.00  0.00    -0.206 F 
ATOM     92  C   UNL     1      10.829  11.661  13.433  1.00  0.00     0.040 A 
ATOM     93  C   UNL     1      12.736  10.193  13.407  1.00  0.00     0.040 A 
ATOM     94  F   UNL     1      12.569   8.067  12.441  1.00  0.00    -0.206 F 
ATOM     95  C   UNL     1      12.167  11.420  13.738  1.00  0.00     0.006 A 
ENDBRANCH  71  88
ENDBRANCH  45  46
ENDBRANCH  38  40
ENDBRANCH  37  38
ENDBRANCH  36  37
ENDBRANCH  35  36
ENDBRANCH  34  35
ENDBRANCH  33  34
ENDBRANCH   1  33
TORSDOF 22
