REMARK SMILES CC(C)C[C@H](NC(=O)CNC(=O)[C@@H](NC(=O)OCc1ccccc1)C(C)C)C(=O)OCCOCCOCCOCCOC(=O)c1ccc(-c2c3nc(c(-c4c(F)cccc4F)c4ccc([nH]4)c(-c4c(F)cccc4F)c4nc(c(-c5c(F)cccc5F)c5ccc2[nH]5)C=C4)C=C3)cc1
REMARK SMILES IDX 33 1 32 2 31 3 30 4 28 5 29 6 5 7 4 8 2 9 1 10 3 11 6 12
REMARK SMILES IDX 7 13 8 15 9 16 10 17 11 18 12 20 13 21 14 22 15 23 16 25
REMARK SMILES IDX 17 26 18 27 19 28 20 29 24 30 21 31 23 32 22 33 25 34 26 35
REMARK SMILES IDX 27 36 34 37 35 38 36 39 37 40 38 41 39 42 40 43 41 44 42 45
REMARK SMILES IDX 43 46 44 47 45 48 46 49 98 50 47 51 97 52 48 53 49 54 50 55
REMARK SMILES IDX 91 56 51 57 96 58 90 59 92 60 52 61 95 62 89 63 88 64 53 66
REMARK SMILES IDX 79 67 62 68 78 69 63 70 66 71 77 72 93 73 64 74 65 75 76 77
REMARK SMILES IDX 94 78 67 79 54 80 55 81 60 82 56 83 57 84 59 85 61 86 58 87
REMARK SMILES IDX 80 88 81 89 86 90 82 91 83 92 85 93 87 94 84 95 68 96 69 97
REMARK SMILES IDX 74 98 70 99 71 100 73 101 75 102 72 103
REMARK H PARENT 6 14 10 19 14 24 92 65 66 76
REMARK Flexibility Score: inf
ROOT
ATOM      1  O   UNL     1      -5.939  -0.908   0.247  1.00  0.00    -0.376 OA
ENDROOT
BRANCH   1   2
ATOM      2  C   UNL     1      -6.259   0.474   0.316  1.00  0.00     0.202 C 
BRANCH   2   3
ATOM      3  C   UNL     1      -5.384   1.538   0.984  1.00  0.00     0.261 C 
BRANCH   3   4
ATOM      4  O   UNL     1      -4.121   1.729   0.347  1.00  0.00    -0.462 OA
BRANCH   4   5
ATOM      5  C   UNL     1      -3.128   1.005   0.912  1.00  0.00     0.328 C 
ATOM      6  O   UNL     1      -3.261   0.335   1.934  1.00  0.00    -0.250 OA
BRANCH   5   7
ATOM      7  C   UNL     1      -1.770   1.155   0.211  1.00  0.00     0.192 C 
BRANCH   7   8
ATOM      8  C   UNL     1      -0.817   1.569   1.317  1.00  0.00     0.040 C 
BRANCH   8   9
ATOM      9  C   UNL     1      -1.021   3.052   1.406  1.00  0.00    -0.015 C 
ATOM     10  C   UNL     1      -2.227   3.425   2.361  1.00  0.00     0.007 C 
ATOM     11  C   UNL     1       0.266   3.683   0.745  1.00  0.00     0.007 C 
ENDBRANCH   8   9
ENDBRANCH   7   8
BRANCH   7  12
ATOM     12  N   UNL     1      -1.633   1.931  -1.090  1.00  0.00    -0.341 N 
ATOM     13  C   UNL     1      -1.542   3.196  -1.603  1.00  0.00     0.240 C 
ATOM     14  H   UNL     1      -1.597   1.288  -1.835  1.00  0.00     0.164 HD
ATOM     15  O   UNL     1      -1.320   3.179  -2.833  1.00  0.00    -0.273 OA
BRANCH  13  16
ATOM     16  C   UNL     1      -1.711   4.720  -0.948  1.00  0.00     0.216 C 
BRANCH  16  17
ATOM     17  N   UNL     1      -1.896   5.544   0.396  1.00  0.00    -0.345 N 
ATOM     18  C   UNL     1      -1.329   6.121   1.517  1.00  0.00     0.243 C 
ATOM     19  H   UNL     1      -2.861   5.729   0.462  1.00  0.00     0.164 HD
ATOM     20  O   UNL     1      -1.844   7.260   1.640  1.00  0.00    -0.273 OA
BRANCH  18  21
ATOM     21  C   UNL     1      -0.282   5.679   2.871  1.00  0.00     0.177 C 
BRANCH  21  22
ATOM     22  N   UNL     1       0.090   4.343   3.506  1.00  0.00    -0.309 N 
ATOM     23  C   UNL     1       1.153   3.488   3.480  1.00  0.00     0.408 C 
ATOM     24  H   UNL     1      -0.629   4.008   4.090  1.00  0.00     0.167 HD
ATOM     25  O   UNL     1       0.970   2.308   3.776  1.00  0.00    -0.225 OA
BRANCH  23  26
ATOM     26  O   UNL     1       2.321   4.009   3.033  1.00  0.00    -0.445 OA
BRANCH  26  27
ATOM     27  C   UNL     1       3.274   3.068   2.501  1.00  0.00     0.270 C 
BRANCH  27  28
ATOM     28  C   UNL     1       4.230   2.474   3.506  1.00  0.00    -0.011 A 
ATOM     29  C   UNL     1       3.814   2.089   4.786  1.00  0.00     0.007 A 
ATOM     30  C   UNL     1       5.547   2.184   3.120  1.00  0.00     0.007 A 
ATOM     31  C   UNL     1       4.676   1.430   5.658  1.00  0.00     0.000 A 
ATOM     32  C   UNL     1       6.419   1.538   4.000  1.00  0.00     0.000 A 
ATOM     33  C   UNL     1       5.980   1.156   5.266  1.00  0.00     0.000 A 
ENDBRANCH  27  28
ENDBRANCH  26  27
ENDBRANCH  23  26
ENDBRANCH  21  22
BRANCH  21  34
ATOM     34  C   UNL     1       0.826   6.721   3.228  1.00  0.00     0.015 C 
ATOM     35  C   UNL     1       0.287   8.152   3.274  1.00  0.00     0.010 C 
ATOM     36  C   UNL     1       1.437   6.477   4.635  1.00  0.00     0.010 C 
ENDBRANCH  21  34
ENDBRANCH  18  21
ENDBRANCH  16  17
ENDBRANCH  13  16
ENDBRANCH   7  12
ENDBRANCH   5   7
ENDBRANCH   4   5
ENDBRANCH   3   4
ENDBRANCH   2   3
ENDBRANCH   1   2
BRANCH   1  37
ATOM     37  C   UNL     1      -4.664  -1.464  -0.026  1.00  0.00     0.188 C 
BRANCH  37  38
ATOM     38  C   UNL     1      -3.784  -1.023  -1.205  1.00  0.00     0.188 C 
BRANCH  38  39
ATOM     39  O   UNL     1      -4.053   0.247  -1.750  1.00  0.00    -0.377 OA
BRANCH  39  40
ATOM     40  C   UNL     1      -5.055   0.358  -2.752  1.00  0.00     0.188 C 
BRANCH  40  41
ATOM     41  C   UNL     1      -6.032  -0.814  -2.972  1.00  0.00     0.188 C 
BRANCH  41  42
ATOM     42  O   UNL     1      -5.437  -2.101  -2.963  1.00  0.00    -0.376 OA
BRANCH  42  43
ATOM     43  C   UNL     1      -4.917  -2.641  -4.169  1.00  0.00     0.202 C 
BRANCH  43  44
ATOM     44  C   UNL     1      -3.851  -1.843  -4.940  1.00  0.00     0.261 C 
BRANCH  44  45
ATOM     45  O   UNL     1      -4.248  -0.566  -5.472  1.00  0.00    -0.460 OA
BRANCH  45  46
ATOM     46  C   UNL     1      -5.393  -0.463  -6.165  1.00  0.00     0.338 C 
ATOM     47  O   UNL     1      -6.136  -1.376  -6.520  1.00  0.00    -0.246 OA
BRANCH  46  48
ATOM     48  C   UNL     1      -5.741   0.966  -6.250  1.00  0.00     0.060 A 
ATOM     49  C   UNL     1      -6.938   1.416  -5.675  1.00  0.00     0.016 A 
ATOM     50  C   UNL     1      -4.880   1.865  -6.884  1.00  0.00     0.016 A 
ATOM     51  C   UNL     1      -7.287   2.763  -5.745  1.00  0.00     0.010 A 
ATOM     52  C   UNL     1      -5.250   3.208  -6.989  1.00  0.00     0.010 A 
ATOM     53  C   UNL     1      -6.466   3.656  -6.442  1.00  0.00    -0.014 A 
BRANCH  53  54
ATOM     54  C   UNL     1      -6.964   5.011  -6.770  1.00  0.00     0.031 A 
ATOM     55  C   UNL     1      -7.636   5.218  -8.098  1.00  0.00     0.074 A 
ATOM     56  C   UNL     1      -6.824   6.035  -5.910  1.00  0.00     0.049 A 
ATOM     57  N   UNL     1      -8.059   6.324  -8.651  1.00  0.00    -0.248 NA
ATOM     58  C   UNL     1      -7.860   4.012  -8.914  1.00  0.00     0.031 C 
ATOM     59  C   UNL     1      -6.241   5.947  -4.573  1.00  0.00     0.029 A 
ATOM     60  N   UNL     1      -7.149   7.362  -6.050  1.00  0.00    -0.354 N 
ATOM     61  C   UNL     1      -8.587   5.950  -9.881  1.00  0.00     0.074 A 
ATOM     62  C   UNL     1      -8.421   4.519 -10.001  1.00  0.00     0.031 C 
ATOM     63  C   UNL     1      -6.222   7.175  -4.026  1.00  0.00     0.029 A 
ATOM     64  C   UNL     1      -6.752   8.139  -4.989  1.00  0.00     0.049 A 
ATOM     65  H   UNL     1      -7.621   7.721  -6.836  1.00  0.00     0.167 HD
ATOM     66  C   UNL     1      -9.157   6.734 -10.825  1.00  0.00     0.037 A 
ATOM     67  C   UNL     1      -6.777   9.478  -4.837  1.00  0.00     0.037 A 
ATOM     68  C   UNL     1      -9.321   8.157 -10.701  1.00  0.00     0.049 A 
ATOM     69  C   UNL     1      -7.334  10.336  -5.946  1.00  0.00     0.074 A 
ATOM     70  C   UNL     1      -9.916   9.034 -11.591  1.00  0.00     0.029 A 
ATOM     71  N   UNL     1      -8.876   8.912  -9.628  1.00  0.00    -0.354 N 
ATOM     72  N   UNL     1      -7.863   9.973  -7.090  1.00  0.00    -0.248 NA
ATOM     73  C   UNL     1      -7.291  11.793  -5.745  1.00  0.00     0.031 C 
ATOM     74  C   UNL     1      -9.777  10.329 -11.083  1.00  0.00     0.029 A 
ATOM     75  C   UNL     1      -9.148  10.251  -9.851  1.00  0.00     0.049 A 
ATOM     76  H   UNL     1      -8.433   8.551  -8.827  1.00  0.00     0.167 HD
ATOM     77  C   UNL     1      -8.235  11.151  -7.730  1.00  0.00     0.074 A 
ATOM     78  C   UNL     1      -7.892  12.237  -6.839  1.00  0.00     0.031 C 
ATOM     79  C   UNL     1      -8.805  11.320  -8.949  1.00  0.00     0.037 A 
BRANCH  66  80
ATOM     80  C   UNL     1      -9.619   6.080 -12.091  1.00  0.00     0.057 A 
ATOM     81  C   UNL     1     -10.768   5.282 -12.138  1.00  0.00     0.134 A 
ATOM     82  C   UNL     1      -8.939   6.309 -13.294  1.00  0.00     0.134 A 
ATOM     83  F   UNL     1     -11.454   5.011 -11.018  1.00  0.00    -0.206 F 
ATOM     84  C   UNL     1     -11.223   4.730 -13.338  1.00  0.00     0.040 A 
ATOM     85  C   UNL     1      -9.396   5.782 -14.503  1.00  0.00     0.040 A 
ATOM     86  F   UNL     1      -7.830   7.064 -13.317  1.00  0.00    -0.206 F 
ATOM     87  C   UNL     1     -10.541   4.990 -14.526  1.00  0.00     0.006 A 
ENDBRANCH  66  80
BRANCH  67  88
ATOM     88  C   UNL     1      -6.212  10.109  -3.616  1.00  0.00     0.057 A 
ATOM     89  C   UNL     1      -7.022  10.817  -2.720  1.00  0.00     0.134 A 
ATOM     90  C   UNL     1      -4.837  10.075  -3.349  1.00  0.00     0.134 A 
ATOM     91  F   UNL     1      -8.342  10.911  -2.934  1.00  0.00    -0.206 F 
ATOM     92  C   UNL     1      -6.483  11.491  -1.622  1.00  0.00     0.040 A 
ATOM     93  C   UNL     1      -4.289  10.718  -2.239  1.00  0.00     0.040 A 
ATOM     94  F   UNL     1      -4.004   9.416  -4.168  1.00  0.00    -0.206 F 
ATOM     95  C   UNL     1      -5.112  11.440  -1.377  1.00  0.00     0.006 A 
ENDBRANCH  67  88
BRANCH  79  96
ATOM     96  C   UNL     1      -9.116  12.725  -9.379  1.00  0.00     0.057 A 
ATOM     97  C   UNL     1      -8.108  13.627  -9.741  1.00  0.00     0.134 A 
ATOM     98  C   UNL     1     -10.443  13.164  -9.479  1.00  0.00     0.134 A 
ATOM     99  F   UNL     1      -6.817  13.273  -9.657  1.00  0.00    -0.206 F 
ATOM    100  C   UNL     1      -8.407  14.923 -10.165  1.00  0.00     0.040 A 
ATOM    101  C   UNL     1     -10.756  14.447  -9.929  1.00  0.00     0.040 A 
ATOM    102  F   UNL     1     -11.458  12.346  -9.159  1.00  0.00    -0.206 F 
ATOM    103  C   UNL     1      -9.735  15.333 -10.268  1.00  0.00     0.006 A 
ENDBRANCH  79  96
ENDBRANCH  53  54
ENDBRANCH  46  48
ENDBRANCH  45  46
ENDBRANCH  44  45
ENDBRANCH  43  44
ENDBRANCH  42  43
ENDBRANCH  41  42
ENDBRANCH  40  41
ENDBRANCH  39  40
ENDBRANCH  38  39
ENDBRANCH  37  38
ENDBRANCH   1  37
TORSDOF 31
