REMARK SMILES O=C(OCCOCCOCCOCCOC(=O)[C@@H](Cc1ccccc1)Nc1ccc(Cl)c(Br)c1)c1ccc(-c2c3nc(c(-c4c(F)cccc4F)c4ccc([nH]4)c(-c4c(F)cccc4F)c4nc(c(-c5c(F)cccc5F)c5ccc2[nH]5)C=C4)C=C3)cc1
REMARK SMILES IDX 9 1 8 2 7 3 6 4 5 5 4 6 3 7 2 8 1 9 35 10 36 11 88 12 37 13
REMARK SMILES IDX 87 14 38 15 39 16 40 17 81 18 41 19 86 20 80 21 82 22 42 23
REMARK SMILES IDX 85 24 79 25 78 26 43 28 69 29 52 30 68 31 53 32 56 33 67 34
REMARK SMILES IDX 83 35 54 36 55 37 66 39 84 40 57 41 44 42 45 43 50 44 46 45
REMARK SMILES IDX 47 46 49 47 51 48 48 49 70 50 71 51 76 52 72 53 73 54 75 55
REMARK SMILES IDX 77 56 74 57 58 58 59 59 64 60 60 61 61 62 63 63 65 64 62 65
REMARK SMILES IDX 10 66 11 67 12 68 13 69 14 70 15 71 16 72 17 73 18 74 19 75
REMARK SMILES IDX 20 76 21 77 25 78 22 79 24 80 23 81 26 82 27 84 28 85 34 86
REMARK SMILES IDX 29 87 32 88 30 89 33 90 31 91
REMARK H PARENT 82 27 56 38 26 83
REMARK Flexibility Score: inf
ROOT
ATOM      1  O   UNL     1       3.339  -3.186   1.599  1.00  0.00    -0.377 OA
ENDROOT
BRANCH   1   2
ATOM      2  C   UNL     1       2.316  -2.502   0.877  1.00  0.00     0.188 C 
BRANCH   2   3
ATOM      3  C   UNL     1       2.459  -0.992   0.882  1.00  0.00     0.188 C 
BRANCH   3   4
ATOM      4  O   UNL     1       3.760  -0.625   0.428  1.00  0.00    -0.376 OA
BRANCH   4   5
ATOM      5  C   UNL     1       4.462   0.231   1.327  1.00  0.00     0.202 C 
BRANCH   5   6
ATOM      6  C   UNL     1       4.175   1.710   1.071  1.00  0.00     0.261 C 
BRANCH   6   7
ATOM      7  O   UNL     1       2.807   1.948   0.703  1.00  0.00    -0.460 OA
BRANCH   7   8
ATOM      8  C   UNL     1       2.257   1.978  -0.538  1.00  0.00     0.338 C 
ATOM      9  O   UNL     1       1.085   2.343  -0.631  1.00  0.00    -0.246 OA
BRANCH   8  10
ATOM     10  C   UNL     1       2.955   1.576  -1.809  1.00  0.00     0.060 A 
ATOM     11  C   UNL     1       4.177   0.906  -1.901  1.00  0.00     0.016 A 
ATOM     12  C   UNL     1       2.286   1.856  -3.018  1.00  0.00     0.016 A 
ATOM     13  C   UNL     1       4.718   0.517  -3.117  1.00  0.00     0.010 A 
ATOM     14  C   UNL     1       2.837   1.505  -4.257  1.00  0.00     0.010 A 
ATOM     15  C   UNL     1       4.069   0.850  -4.299  1.00  0.00    -0.014 A 
BRANCH  15  16
ATOM     16  C   UNL     1       4.862   0.727  -5.530  1.00  0.00     0.031 A 
ATOM     17  C   UNL     1       5.643   1.933  -5.956  1.00  0.00     0.074 A 
ATOM     18  C   UNL     1       5.039  -0.474  -6.105  1.00  0.00     0.049 A 
ATOM     19  N   UNL     1       6.429   2.096  -6.983  1.00  0.00    -0.248 NA
ATOM     20  C   UNL     1       5.549   3.113  -5.075  1.00  0.00     0.031 C 
ATOM     21  C   UNL     1       4.459  -1.731  -5.628  1.00  0.00     0.029 A 
ATOM     22  N   UNL     1       5.789  -0.838  -7.189  1.00  0.00    -0.354 N 
ATOM     23  C   UNL     1       6.903   3.398  -6.884  1.00  0.00     0.074 A 
ATOM     24  C   UNL     1       6.329   3.982  -5.695  1.00  0.00     0.031 C 
ATOM     25  C   UNL     1       4.878  -2.732  -6.421  1.00  0.00     0.029 A 
ATOM     26  C   UNL     1       5.704  -2.176  -7.488  1.00  0.00     0.049 A 
ATOM     27  H   UNL     1       6.336  -0.203  -7.705  1.00  0.00     0.167 HD
ATOM     28  C   UNL     1       7.733   4.048  -7.729  1.00  0.00     0.037 A 
ATOM     29  C   UNL     1       6.213  -2.849  -8.537  1.00  0.00     0.037 A 
ATOM     30  C   UNL     1       8.267   3.440  -8.914  1.00  0.00     0.049 A 
ATOM     31  C   UNL     1       7.024  -2.072  -9.540  1.00  0.00     0.074 A 
ATOM     32  C   UNL     1       9.031   4.007  -9.915  1.00  0.00     0.029 A 
ATOM     33  N   UNL     1       8.076   2.106  -9.253  1.00  0.00    -0.354 N 
ATOM     34  N   UNL     1       7.392  -0.811  -9.505  1.00  0.00    -0.248 NA
ATOM     35  C   UNL     1       7.470  -2.795 -10.736  1.00  0.00     0.031 C 
ATOM     36  C   UNL     1       9.265   3.023 -10.883  1.00  0.00     0.029 A 
ATOM     37  C   UNL     1       8.691   1.833 -10.460  1.00  0.00     0.049 A 
ATOM     38  H   UNL     1       7.577   1.452  -8.713  1.00  0.00     0.167 HD
ATOM     39  C   UNL     1       8.123  -0.592 -10.664  1.00  0.00     0.074 A 
ATOM     40  C   UNL     1       8.163  -1.859 -11.371  1.00  0.00     0.031 C 
ATOM     41  C   UNL     1       8.706   0.548 -11.114  1.00  0.00     0.037 A 
BRANCH  28  42
ATOM     42  C   UNL     1       8.001   5.492  -7.432  1.00  0.00     0.057 A 
ATOM     43  C   UNL     1       8.815   5.902  -6.368  1.00  0.00     0.134 A 
ATOM     44  C   UNL     1       7.366   6.492  -8.180  1.00  0.00     0.134 A 
ATOM     45  F   UNL     1       9.420   4.994  -5.586  1.00  0.00    -0.206 F 
ATOM     46  C   UNL     1       8.963   7.252  -6.040  1.00  0.00     0.040 A 
ATOM     47  C   UNL     1       7.524   7.845  -7.876  1.00  0.00     0.040 A 
ATOM     48  F   UNL     1       6.560   6.168  -9.203  1.00  0.00    -0.206 F 
ATOM     49  C   UNL     1       8.317   8.228  -6.797  1.00  0.00     0.006 A 
ENDBRANCH  28  42
BRANCH  29  50
ATOM     50  C   UNL     1       5.914  -4.293  -8.726  1.00  0.00     0.057 A 
ATOM     51  C   UNL     1       6.921  -5.265  -8.697  1.00  0.00     0.134 A 
ATOM     52  C   UNL     1       4.605  -4.737  -8.963  1.00  0.00     0.134 A 
ATOM     53  F   UNL     1       8.198  -4.909  -8.497  1.00  0.00    -0.206 F 
ATOM     54  C   UNL     1       6.641  -6.619  -8.910  1.00  0.00     0.040 A 
ATOM     55  C   UNL     1       4.307  -6.088  -9.150  1.00  0.00     0.040 A 
ATOM     56  F   UNL     1       3.591  -3.861  -9.010  1.00  0.00    -0.206 F 
ATOM     57  C   UNL     1       5.329  -7.034  -9.131  1.00  0.00     0.006 A 
ENDBRANCH  29  50
BRANCH  41  58
ATOM     58  C   UNL     1       9.451   0.457 -12.409  1.00  0.00     0.057 A 
ATOM     59  C   UNL     1       8.785   0.377 -13.637  1.00  0.00     0.134 A 
ATOM     60  C   UNL     1      10.850   0.515 -12.425  1.00  0.00     0.134 A 
ATOM     61  F   UNL     1       7.446   0.306 -13.682  1.00  0.00    -0.206 F 
ATOM     62  C   UNL     1       9.489   0.340 -14.841  1.00  0.00     0.040 A 
ATOM     63  C   UNL     1      11.562   0.505 -13.623  1.00  0.00     0.040 A 
ATOM     64  F   UNL     1      11.542   0.604 -11.279  1.00  0.00    -0.206 F 
ATOM     65  C   UNL     1      10.881   0.413 -14.835  1.00  0.00     0.006 A 
ENDBRANCH  41  58
ENDBRANCH  15  16
ENDBRANCH   8  10
ENDBRANCH   7   8
ENDBRANCH   6   7
ENDBRANCH   5   6
ENDBRANCH   4   5
ENDBRANCH   3   4
ENDBRANCH   2   3
ENDBRANCH   1   2
BRANCH   1  66
ATOM     66  C   UNL     1       4.678  -3.179   1.121  1.00  0.00     0.188 C 
BRANCH  66  67
ATOM     67  C   UNL     1       4.971  -3.752  -0.268  1.00  0.00     0.188 C 
BRANCH  67  68
ATOM     68  O   UNL     1       3.826  -3.836  -1.086  1.00  0.00    -0.376 OA
BRANCH  68  69
ATOM     69  C   UNL     1       3.320  -5.133  -1.344  1.00  0.00     0.202 C 
BRANCH  69  70
ATOM     70  C   UNL     1       2.854  -6.085  -0.212  1.00  0.00     0.261 C 
BRANCH  70  71
ATOM     71  O   UNL     1       3.083  -5.742   1.167  1.00  0.00    -0.462 OA
BRANCH  71  72
ATOM     72  C   UNL     1       4.196  -6.257   1.733  1.00  0.00     0.328 C 
ATOM     73  O   UNL     1       5.028  -6.902   1.090  1.00  0.00    -0.250 OA
BRANCH  72  74
ATOM     74  C   UNL     1       4.348  -6.059   3.266  1.00  0.00     0.194 C 
BRANCH  74  75
ATOM     75  C   UNL     1       3.724  -4.902   4.077  1.00  0.00     0.072 C 
BRANCH  75  76
ATOM     76  C   UNL     1       2.256  -4.551   4.059  1.00  0.00    -0.045 A 
ATOM     77  C   UNL     1       1.894  -3.201   4.249  1.00  0.00     0.004 A 
ATOM     78  C   UNL     1       1.238  -5.494   3.925  1.00  0.00     0.004 A 
ATOM     79  C   UNL     1       0.560  -2.795   4.223  1.00  0.00     0.000 A 
ATOM     80  C   UNL     1      -0.102  -5.089   3.910  1.00  0.00     0.000 A 
ATOM     81  C   UNL     1      -0.439  -3.742   4.044  1.00  0.00     0.000 A 
ENDBRANCH  75  76
ENDBRANCH  74  75
BRANCH  74  82
ATOM     82  N   UNL     1       4.128  -7.353   3.948  1.00  0.00    -0.372 N 
ATOM     83  H   UNL     1       3.212  -7.700   4.045  1.00  0.00     0.161 HD
BRANCH  82  84
ATOM     84  C   UNL     1       5.192  -8.085   4.454  1.00  0.00     0.036 A 
ATOM     85  C   UNL     1       5.184  -9.475   4.312  1.00  0.00     0.027 A 
ATOM     86  C   UNL     1       6.301  -7.493   5.074  1.00  0.00     0.043 A 
ATOM     87  C   UNL     1       6.254 -10.254   4.761  1.00  0.00     0.024 A 
ATOM     88  C   UNL     1       7.378  -8.265   5.528  1.00  0.00     0.038 A 
ATOM     89  C   UNL     1       7.355  -9.652   5.370  1.00  0.00     0.055 A 
ATOM     90  Br  UNL     1       8.831  -7.348   6.341  1.00  0.00    -0.049 Br
ATOM     91  Cl  UNL     1       8.638 -10.678   5.902  1.00  0.00    -0.083 Cl
ENDBRANCH  82  84
ENDBRANCH  74  82
ENDBRANCH  72  74
ENDBRANCH  71  72
ENDBRANCH  70  71
ENDBRANCH  69  70
ENDBRANCH  68  69
ENDBRANCH  67  68
ENDBRANCH  66  67
ENDBRANCH   1  66
TORSDOF 24
