REMARK SMILES CC(C)Cc1cc2c(cc1Cl)C=C(C(=O)OCCOCCOCCOCCOC(=O)c1ccc(-c3c4nc(c(-c5c(F)cccc5F)c5ccc([nH]5)c(-c5c(F)cccc5F)c5nc(c(-c6c(F)cccc6F)c6ccc3[nH]6)C=C5)C=C4)cc1)[C@@H](C(F)(F)F)O2
REMARK SMILES IDX 22 1 21 2 20 3 19 4 18 5 17 6 16 7 14 8 15 9 13 10 5 11 6 12
REMARK SMILES IDX 10 13 7 14 9 15 11 16 8 17 90 18 12 19 85 20 4 21 2 22 1 23
REMARK SMILES IDX 3 24 86 25 87 26 88 27 89 28 23 29 24 30 25 31 26 32 27 33
REMARK SMILES IDX 28 34 29 35 30 36 31 37 32 38 84 39 33 40 83 41 34 42 35 43
REMARK SMILES IDX 36 44 77 45 37 46 82 47 76 48 78 49 38 50 81 51 75 52 74 53
REMARK SMILES IDX 39 55 65 56 48 57 64 58 49 59 52 60 63 61 79 62 50 63 51 64
REMARK SMILES IDX 62 66 80 67 53 68 40 69 41 70 46 71 42 72 43 73 45 74 47 75
REMARK SMILES IDX 44 76 66 77 67 78 72 79 68 80 69 81 71 82 73 83 70 84 54 85
REMARK SMILES IDX 55 86 60 87 56 88 57 89 59 90 61 91 58 92
REMARK H PARENT 78 54 52 65
REMARK Flexibility Score: inf
ROOT
ATOM      1  O   UNL     1      -2.078  -8.442   3.121  1.00  0.00    -0.377 OA
ENDROOT
BRANCH   1   2
ATOM      2  C   UNL     1      -3.036  -7.397   3.034  1.00  0.00     0.188 C 
BRANCH   2   3
ATOM      3  C   UNL     1      -4.234  -7.769   2.141  1.00  0.00     0.188 C 
BRANCH   3   4
ATOM      4  O   UNL     1      -4.281  -9.160   1.828  1.00  0.00    -0.376 OA
BRANCH   4   5
ATOM      5  C   UNL     1      -3.841  -9.560   0.536  1.00  0.00     0.202 C 
BRANCH   5   6
ATOM      6  C   UNL     1      -2.351  -9.382   0.203  1.00  0.00     0.261 C 
BRANCH   6   7
ATOM      7  O   UNL     1      -1.844  -8.049   0.352  1.00  0.00    -0.460 OA
BRANCH   7   8
ATOM      8  C   UNL     1      -2.340  -7.093  -0.457  1.00  0.00     0.338 C 
ATOM      9  O   UNL     1      -3.118  -7.248  -1.380  1.00  0.00    -0.246 OA
BRANCH   8  10
ATOM     10  C   UNL     1      -1.907  -5.783   0.079  1.00  0.00     0.087 C 
ATOM     11  C   UNL     1      -1.441  -0.936   1.268  1.00  0.00    -0.025 A 
ATOM     12  C   UNL     1      -0.636  -2.073   1.441  1.00  0.00     0.052 A 
ATOM     13  C   UNL     1      -2.792  -1.142   0.934  1.00  0.00     0.045 A 
ATOM     14  C   UNL     1      -1.099  -3.343   1.095  1.00  0.00     0.128 A 
ATOM     15  C   UNL     1      -3.268  -2.420   0.619  1.00  0.00     0.032 A 
ATOM     16  Cl  UNL     1      -3.927   0.162   0.865  1.00  0.00    -0.084 Cl
ATOM     17  C   UNL     1      -2.401  -3.513   0.633  1.00  0.00     0.019 A 
ATOM     18  O   UNL     1      -0.196  -4.357   1.216  1.00  0.00    -0.475 OA
ATOM     19  C   UNL     1      -2.821  -4.806   0.120  1.00  0.00     0.027 C 
ATOM     20  C   UNL     1      -0.504  -5.645   0.619  1.00  0.00     0.316 C 
BRANCH  11  21
ATOM     21  C   UNL     1      -0.875   0.465   1.412  1.00  0.00     0.040 C 
BRANCH  21  22
ATOM     22  C   UNL     1       0.653   0.650   1.242  1.00  0.00    -0.013 C 
ATOM     23  C   UNL     1       1.161   0.203  -0.135  1.00  0.00     0.008 C 
ATOM     24  C   UNL     1       1.017   2.126   1.443  1.00  0.00     0.008 C 
ENDBRANCH  21  22
ENDBRANCH  11  21
BRANCH  20  25
ATOM     25  C   UNL     1       0.558  -5.959  -0.443  1.00  0.00     0.430 C 
ATOM     26  F   UNL     1       1.810  -5.772   0.040  1.00  0.00    -0.167 F 
ATOM     27  F   UNL     1       0.492  -7.246  -0.860  1.00  0.00    -0.167 F 
ATOM     28  F   UNL     1       0.425  -5.175  -1.537  1.00  0.00    -0.167 F 
ENDBRANCH  20  25
ENDBRANCH   8  10
ENDBRANCH   7   8
ENDBRANCH   6   7
ENDBRANCH   5   6
ENDBRANCH   4   5
ENDBRANCH   3   4
ENDBRANCH   2   3
ENDBRANCH   1   2
BRANCH   1  29
ATOM     29  C   UNL     1      -2.311  -9.456   4.099  1.00  0.00     0.188 C 
BRANCH  29  30
ATOM     30  C   UNL     1      -3.741  -9.801   4.579  1.00  0.00     0.188 C 
BRANCH  30  31
ATOM     31  O   UNL     1      -4.512  -8.662   4.953  1.00  0.00    -0.376 OA
BRANCH  31  32
ATOM     32  C   UNL     1      -4.769  -8.485   6.339  1.00  0.00     0.202 C 
BRANCH  32  33
ATOM     33  C   UNL     1      -3.583  -7.910   7.122  1.00  0.00     0.261 C 
BRANCH  33  34
ATOM     34  O   UNL     1      -2.408  -8.735   7.141  1.00  0.00    -0.460 OA
BRANCH  34  35
ATOM     35  C   UNL     1      -2.518  -9.980   7.655  1.00  0.00     0.338 C 
ATOM     36  O   UNL     1      -3.499 -10.482   8.173  1.00  0.00    -0.246 OA
BRANCH  35  37
ATOM     37  C   UNL     1      -1.286 -10.713   7.297  1.00  0.00     0.060 A 
ATOM     38  C   UNL     1      -0.033 -10.148   7.550  1.00  0.00     0.016 A 
ATOM     39  C   UNL     1      -1.389 -11.960   6.667  1.00  0.00     0.016 A 
ATOM     40  C   UNL     1       1.121 -10.850   7.203  1.00  0.00     0.010 A 
ATOM     41  C   UNL     1      -0.231 -12.658   6.314  1.00  0.00     0.010 A 
ATOM     42  C   UNL     1       1.030 -12.119   6.605  1.00  0.00    -0.014 A 
BRANCH  42  43
ATOM     43  C   UNL     1       2.253 -12.944   6.468  1.00  0.00     0.031 A 
ATOM     44  C   UNL     1       2.982 -13.086   5.169  1.00  0.00     0.074 A 
ATOM     45  C   UNL     1       2.705 -13.570   7.572  1.00  0.00     0.049 A 
ATOM     46  N   UNL     1       4.119 -13.692   4.930  1.00  0.00    -0.248 NA
ATOM     47  C   UNL     1       2.360 -12.480   3.985  1.00  0.00     0.031 C 
ATOM     48  C   UNL     1       2.057 -13.527   8.885  1.00  0.00     0.029 A 
ATOM     49  N   UNL     1       3.811 -14.352   7.770  1.00  0.00    -0.354 N 
ATOM     50  C   UNL     1       4.364 -13.523   3.574  1.00  0.00     0.074 A 
ATOM     51  C   UNL     1       3.232 -12.795   3.034  1.00  0.00     0.031 C 
ATOM     52  C   UNL     1       2.790 -14.233   9.758  1.00  0.00     0.029 A 
ATOM     53  C   UNL     1       3.944 -14.793   9.064  1.00  0.00     0.049 A 
ATOM     54  H   UNL     1       4.449 -14.577   7.055  1.00  0.00     0.167 HD
ATOM     55  C   UNL     1       5.441 -13.927   2.856  1.00  0.00     0.037 A 
ATOM     56  C   UNL     1       4.894 -15.558   9.630  1.00  0.00     0.037 A 
ATOM     57  C   UNL     1       6.553 -14.671   3.398  1.00  0.00     0.049 A 
ATOM     58  C   UNL     1       6.048 -16.031   8.794  1.00  0.00     0.074 A 
ATOM     59  C   UNL     1       7.710 -15.082   2.758  1.00  0.00     0.029 A 
ATOM     60  N   UNL     1       6.637 -15.133   4.703  1.00  0.00    -0.354 N 
ATOM     61  N   UNL     1       6.317 -15.781   7.536  1.00  0.00    -0.248 NA
ATOM     62  C   UNL     1       7.037 -16.886   9.463  1.00  0.00     0.031 C 
ATOM     63  C   UNL     1       8.470 -15.836   3.660  1.00  0.00     0.029 A 
ATOM     64  C   UNL     1       7.810 -15.853   4.878  1.00  0.00     0.049 A 
ATOM     65  H   UNL     1       5.963 -14.974   5.403  1.00  0.00     0.167 HD
ATOM     66  C   UNL     1       7.519 -16.423   7.271  1.00  0.00     0.074 A 
ATOM     67  C   UNL     1       7.936 -17.056   8.505  1.00  0.00     0.031 C 
ATOM     68  C   UNL     1       8.215 -16.482   6.109  1.00  0.00     0.037 A 
BRANCH  55  69
ATOM     69  C   UNL     1       5.479 -13.572   1.398  1.00  0.00     0.057 A 
ATOM     70  C   UNL     1       5.362 -14.561   0.412  1.00  0.00     0.134 A 
ATOM     71  C   UNL     1       5.704 -12.257   0.968  1.00  0.00     0.134 A 
ATOM     72  F   UNL     1       5.158 -15.842   0.754  1.00  0.00    -0.206 F 
ATOM     73  C   UNL     1       5.472 -14.256  -0.946  1.00  0.00     0.040 A 
ATOM     74  C   UNL     1       5.793 -11.936  -0.388  1.00  0.00     0.040 A 
ATOM     75  F   UNL     1       5.823 -11.262   1.860  1.00  0.00    -0.206 F 
ATOM     76  C   UNL     1       5.685 -12.939  -1.349  1.00  0.00     0.006 A 
ENDBRANCH  55  69
BRANCH  56  77
ATOM     77  C   UNL     1       4.810 -15.910  11.068  1.00  0.00     0.057 A 
ATOM     78  C   UNL     1       3.835 -16.793  11.546  1.00  0.00     0.134 A 
ATOM     79  C   UNL     1       5.728 -15.396  11.991  1.00  0.00     0.134 A 
ATOM     80  F   UNL     1       2.922 -17.312  10.712  1.00  0.00    -0.206 F 
ATOM     81  C   UNL     1       3.778 -17.155  12.892  1.00  0.00     0.040 A 
ATOM     82  C   UNL     1       5.699 -15.771  13.334  1.00  0.00     0.040 A 
ATOM     83  F   UNL     1       6.694 -14.557  11.587  1.00  0.00    -0.206 F 
ATOM     84  C   UNL     1       4.720 -16.652  13.788  1.00  0.00     0.006 A 
ENDBRANCH  56  77
BRANCH  68  85
ATOM     85  C   UNL     1       9.513 -17.236   6.136  1.00  0.00     0.057 A 
ATOM     86  C   UNL     1      10.736 -16.557   6.056  1.00  0.00     0.134 A 
ATOM     87  C   UNL     1       9.556 -18.632   6.245  1.00  0.00     0.134 A 
ATOM     88  F   UNL     1      10.768 -15.221   5.944  1.00  0.00    -0.206 F 
ATOM     89  C   UNL     1      11.953 -17.239   6.087  1.00  0.00     0.040 A 
ATOM     90  C   UNL     1      10.768 -19.323   6.307  1.00  0.00     0.040 A 
ATOM     91  F   UNL     1       8.421 -19.341   6.346  1.00  0.00    -0.206 F 
ATOM     92  C   UNL     1      11.971 -18.626   6.223  1.00  0.00     0.006 A 
ENDBRANCH  68  85
ENDBRANCH  42  43
ENDBRANCH  35  37
ENDBRANCH  34  35
ENDBRANCH  33  34
ENDBRANCH  32  33
ENDBRANCH  31  32
ENDBRANCH  30  31
ENDBRANCH  29  30
ENDBRANCH   1  29
TORSDOF 23
