REMARK SMILES CCOc1cc2c(cc1OCC)[C@@H](C(=O)OCCOCCOCCOCCOC(=O)c1ccc(-c3c4nc(c(-c5c(F)cccc5F)c5ccc([nH]5)c(-c5c(F)cccc5F)c5nc(c(-c6c(F)cccc6F)c6ccc3[nH]6)C=C5)C=C4)cc1)[C@H](c1ccc(F)cc1Cl)N(C)C2=O
REMARK SMILES IDX 22 1 21 2 20 3 19 4 18 5 17 6 16 7 14 8 15 9 13 10 4 11 5 12
REMARK SMILES IDX 9 13 6 14 8 15 7 16 96 17 94 18 97 19 85 20 95 21 3 22 2 23
REMARK SMILES IDX 1 24 10 25 11 26 12 27 86 28 87 29 92 30 88 31 91 32 93 33
REMARK SMILES IDX 89 34 90 35 23 36 24 37 25 38 26 39 27 40 28 41 29 42 30 43
REMARK SMILES IDX 31 44 32 45 84 46 33 47 83 48 34 49 35 50 36 51 77 52 37 53
REMARK SMILES IDX 82 54 76 55 78 56 38 57 81 58 75 59 74 60 39 62 65 63 48 64
REMARK SMILES IDX 64 65 49 66 52 67 63 68 79 69 50 70 51 71 62 73 80 74 53 75
REMARK SMILES IDX 40 76 41 77 46 78 42 79 43 80 45 81 47 82 44 83 66 84 67 85
REMARK SMILES IDX 72 86 68 87 69 88 71 89 73 90 70 91 54 92 55 93 60 94 56 95
REMARK SMILES IDX 57 96 59 97 61 98 58 99
REMARK H PARENT 78 61 52 72
REMARK Flexibility Score: inf
ROOT
ATOM      1  O   UNL     1       9.261   1.409   0.601  1.00  0.00    -0.377 OA
ENDROOT
BRANCH   1   2
ATOM      2  C   UNL     1       9.562   2.732   0.989  1.00  0.00     0.188 C 
BRANCH   2   3
ATOM      3  C   UNL     1       9.580   3.059   2.488  1.00  0.00     0.188 C 
BRANCH   3   4
ATOM      4  O   UNL     1       9.733   2.028   3.436  1.00  0.00    -0.376 OA
BRANCH   4   5
ATOM      5  C   UNL     1       8.777   1.004   3.646  1.00  0.00     0.202 C 
BRANCH   5   6
ATOM      6  C   UNL     1       7.309   1.016   3.187  1.00  0.00     0.261 C 
BRANCH   6   7
ATOM      7  O   UNL     1       7.018   1.450   1.852  1.00  0.00    -0.463 OA
BRANCH   7   8
ATOM      8  C   UNL     1       6.544   2.711   1.754  1.00  0.00     0.316 C 
ATOM      9  O   UNL     1       6.446   3.476   2.715  1.00  0.00    -0.251 OA
BRANCH   8  10
ATOM     10  C   UNL     1       5.976   3.114   0.396  1.00  0.00     0.157 C 
ATOM     11  C   UNL     1       1.832   2.104   0.623  1.00  0.00     0.161 A 
ATOM     12  C   UNL     1       2.743   1.262  -0.033  1.00  0.00     0.064 A 
ATOM     13  C   UNL     1       2.275   3.305   1.202  1.00  0.00     0.161 A 
ATOM     14  C   UNL     1       4.090   1.567  -0.066  1.00  0.00     0.048 A 
ATOM     15  C   UNL     1       3.622   3.639   1.096  1.00  0.00     0.056 A 
ATOM     16  C   UNL     1       4.517   2.783   0.456  1.00  0.00    -0.015 A 
ATOM     17  C   UNL     1       5.069   0.602  -0.648  1.00  0.00     0.254 C 
ATOM     18  N   UNL     1       6.277   1.146  -1.071  1.00  0.00    -0.333 N 
ATOM     19  O   UNL     1       4.785  -0.588  -0.726  1.00  0.00    -0.269 OA
ATOM     20  C   UNL     1       6.521   2.582  -0.969  1.00  0.00     0.135 C 
ATOM     21  C   UNL     1       7.291   0.280  -1.655  1.00  0.00     0.147 C 
BRANCH  11  22
ATOM     22  O   UNL     1       0.505   1.770   0.599  1.00  0.00    -0.490 OA
BRANCH  22  23
ATOM     23  C   UNL     1       0.217   0.489   1.177  1.00  0.00     0.226 C 
ATOM     24  C   UNL     1       0.220  -0.630   0.145  1.00  0.00     0.049 C 
ENDBRANCH  22  23
ENDBRANCH  11  22
BRANCH  13  25
ATOM     25  O   UNL     1       1.598   4.259   1.902  1.00  0.00    -0.490 OA
BRANCH  25  26
ATOM     26  C   UNL     1       0.198   4.157   2.094  1.00  0.00     0.226 C 
ATOM     27  C   UNL     1      -0.535   4.695   0.881  1.00  0.00     0.049 C 
ENDBRANCH  25  26
ENDBRANCH  13  25
BRANCH  20  28
ATOM     28  C   UNL     1       5.955   3.438  -2.156  1.00  0.00    -0.005 A 
ATOM     29  C   UNL     1       6.229   4.833  -2.096  1.00  0.00     0.010 A 
ATOM     30  C   UNL     1       5.167   3.008  -3.252  1.00  0.00     0.049 A 
ATOM     31  C   UNL     1       5.681   5.744  -3.005  1.00  0.00     0.040 A 
ATOM     32  C   UNL     1       4.629   3.931  -4.167  1.00  0.00     0.060 A 
ATOM     33  Cl  UNL     1       4.769   1.376  -3.647  1.00  0.00    -0.084 Cl
ATOM     34  C   UNL     1       4.875   5.283  -4.027  1.00  0.00     0.124 A 
ATOM     35  F   UNL     1       4.340   6.148  -4.898  1.00  0.00    -0.207 F 
ENDBRANCH  20  28
ENDBRANCH   8  10
ENDBRANCH   7   8
ENDBRANCH   6   7
ENDBRANCH   5   6
ENDBRANCH   4   5
ENDBRANCH   3   4
ENDBRANCH   2   3
ENDBRANCH   1   2
BRANCH   1  36
ATOM     36  C   UNL     1      10.214   0.370   0.797  1.00  0.00     0.188 C 
BRANCH  36  37
ATOM     37  C   UNL     1      11.592   0.679   1.409  1.00  0.00     0.188 C 
BRANCH  37  38
ATOM     38  O   UNL     1      12.110   1.954   1.074  1.00  0.00    -0.376 OA
BRANCH  38  39
ATOM     39  C   UNL     1      12.954   2.071  -0.061  1.00  0.00     0.202 C 
BRANCH  39  40
ATOM     40  C   UNL     1      12.387   1.659  -1.430  1.00  0.00     0.261 C 
BRANCH  40  41
ATOM     41  O   UNL     1      12.007   0.281  -1.585  1.00  0.00    -0.460 OA
BRANCH  41  42
ATOM     42  C   UNL     1      12.915  -0.671  -1.297  1.00  0.00     0.338 C 
ATOM     43  O   UNL     1      14.082  -0.510  -0.974  1.00  0.00    -0.246 OA
BRANCH  42  44
ATOM     44  C   UNL     1      12.216  -1.969  -1.256  1.00  0.00     0.060 A 
ATOM     45  C   UNL     1      12.191  -2.694  -0.057  1.00  0.00     0.016 A 
ATOM     46  C   UNL     1      11.615  -2.482  -2.407  1.00  0.00     0.016 A 
ATOM     47  C   UNL     1      11.607  -3.960  -0.018  1.00  0.00     0.010 A 
ATOM     48  C   UNL     1      11.049  -3.758  -2.373  1.00  0.00     0.010 A 
ATOM     49  C   UNL     1      11.082  -4.519  -1.190  1.00  0.00    -0.014 A 
BRANCH  49  50
ATOM     50  C   UNL     1      10.774  -5.969  -1.237  1.00  0.00     0.031 A 
ATOM     51  C   UNL     1      11.802  -6.894  -1.831  1.00  0.00     0.074 A 
ATOM     52  C   UNL     1       9.622  -6.462  -0.750  1.00  0.00     0.049 A 
ATOM     53  N   UNL     1      11.737  -8.181  -2.054  1.00  0.00    -0.248 NA
ATOM     54  C   UNL     1      13.079  -6.278  -2.230  1.00  0.00     0.031 C 
ATOM     55  C   UNL     1       8.571  -5.680  -0.106  1.00  0.00     0.029 A 
ATOM     56  N   UNL     1       9.143  -7.749  -0.738  1.00  0.00    -0.354 N 
ATOM     57  C   UNL     1      12.954  -8.525  -2.630  1.00  0.00     0.074 A 
ATOM     58  C   UNL     1      13.727  -7.309  -2.749  1.00  0.00     0.031 C 
ATOM     59  C   UNL     1       7.559  -6.502   0.226  1.00  0.00     0.029 A 
ATOM     60  C   UNL     1       7.877  -7.858  -0.219  1.00  0.00     0.049 A 
ATOM     61  H   UNL     1       9.659  -8.519  -1.070  1.00  0.00     0.167 HD
ATOM     62  C   UNL     1      13.391  -9.746  -3.019  1.00  0.00     0.037 A 
ATOM     63  C   UNL     1       7.059  -8.927  -0.142  1.00  0.00     0.037 A 
ATOM     64  C   UNL     1      12.617 -10.953  -2.902  1.00  0.00     0.049 A 
ATOM     65  C   UNL     1       7.534 -10.261  -0.661  1.00  0.00     0.074 A 
ATOM     66  C   UNL     1      12.973 -12.242  -3.257  1.00  0.00     0.029 A 
ATOM     67  N   UNL     1      11.327 -11.018  -2.399  1.00  0.00    -0.354 N 
ATOM     68  N   UNL     1       8.691 -10.582  -1.189  1.00  0.00    -0.248 NA
ATOM     69  C   UNL     1       6.587 -11.382  -0.573  1.00  0.00     0.031 C 
ATOM     70  C   UNL     1      11.876 -13.077  -3.025  1.00  0.00     0.029 A 
ATOM     71  C   UNL     1      10.861 -12.321  -2.460  1.00  0.00     0.049 A 
ATOM     72  H   UNL     1      10.817 -10.251  -2.050  1.00  0.00     0.167 HD
ATOM     73  C   UNL     1       8.624 -11.944  -1.461  1.00  0.00     0.074 A 
ATOM     74  C   UNL     1       7.316 -12.391  -1.030  1.00  0.00     0.031 C 
ATOM     75  C   UNL     1       9.561 -12.754  -2.014  1.00  0.00     0.037 A 
BRANCH  62  76
ATOM     76  C   UNL     1      14.755  -9.827  -3.641  1.00  0.00     0.057 A 
ATOM     77  C   UNL     1      15.926  -9.630  -2.897  1.00  0.00     0.134 A 
ATOM     78  C   UNL     1      14.899 -10.131  -5.001  1.00  0.00     0.134 A 
ATOM     79  F   UNL     1      15.860  -9.319  -1.594  1.00  0.00    -0.206 F 
ATOM     80  C   UNL     1      17.189  -9.707  -3.489  1.00  0.00     0.040 A 
ATOM     81  C   UNL     1      16.156 -10.241  -5.597  1.00  0.00     0.040 A 
ATOM     82  F   UNL     1      13.820 -10.335  -5.772  1.00  0.00    -0.206 F 
ATOM     83  C   UNL     1      17.306 -10.021  -4.841  1.00  0.00     0.006 A 
ENDBRANCH  62  76
BRANCH  63  84
ATOM     84  C   UNL     1       5.695  -8.784   0.429  1.00  0.00     0.057 A 
ATOM     85  C   UNL     1       5.339  -9.412   1.629  1.00  0.00     0.134 A 
ATOM     86  C   UNL     1       4.703  -8.046  -0.228  1.00  0.00     0.134 A 
ATOM     87  F   UNL     1       6.235 -10.157   2.293  1.00  0.00    -0.206 F 
ATOM     88  C   UNL     1       4.043  -9.328   2.143  1.00  0.00     0.040 A 
ATOM     89  C   UNL     1       3.413  -7.927   0.290  1.00  0.00     0.040 A 
ATOM     90  F   UNL     1       4.977  -7.424  -1.384  1.00  0.00    -0.206 F 
ATOM     91  C   UNL     1       3.077  -8.578   1.475  1.00  0.00     0.006 A 
ENDBRANCH  63  84
BRANCH  75  92
ATOM     92  C   UNL     1       9.233 -14.216  -2.135  1.00  0.00     0.057 A 
ATOM     93  C   UNL     1       8.289 -14.695  -3.052  1.00  0.00     0.134 A 
ATOM     94  C   UNL     1       9.912 -15.161  -1.354  1.00  0.00     0.134 A 
ATOM     95  F   UNL     1       7.596 -13.844  -3.824  1.00  0.00    -0.206 F 
ATOM     96  C   UNL     1       8.013 -16.059  -3.168  1.00  0.00     0.040 A 
ATOM     97  C   UNL     1       9.668 -16.529  -1.485  1.00  0.00     0.040 A 
ATOM     98  F   UNL     1      10.838 -14.773  -0.465  1.00  0.00    -0.206 F 
ATOM     99  C   UNL     1       8.710 -16.981  -2.389  1.00  0.00     0.006 A 
ENDBRANCH  75  92
ENDBRANCH  49  50
ENDBRANCH  42  44
ENDBRANCH  41  42
ENDBRANCH  40  41
ENDBRANCH  39  40
ENDBRANCH  38  39
ENDBRANCH  37  38
ENDBRANCH  36  37
ENDBRANCH   1  36
TORSDOF 25
