REMARK SMILES C[C@H](C(=O)OCCOCCOCCOCCOC(=O)c1ccc(-c2c3nc(c(-c4c(F)cccc4F)c4ccc([nH]4)c(-c4c(F)cccc4F)c4nc(c(-c5c(F)cccc5F)c5ccc2[nH]5)C=C4)C=C3)cc1)[C@H](C)[NH+]1CCN(S(C)(=O)=O)CC1
REMARK SMILES IDX 10 1 9 2 8 3 7 4 6 5 5 6 3 7 4 8 2 9 1 10 74 11 75 12 76 13
REMARK SMILES IDX 77 14 85 15 78 17 84 18 79 19 80 20 81 21 82 22 83 23 11 24
REMARK SMILES IDX 12 25 13 26 14 27 15 28 16 29 17 30 18 31 19 32 20 33 21 34
REMARK SMILES IDX 73 35 22 36 72 37 23 38 24 39 25 40 66 41 26 42 71 43 65 44
REMARK SMILES IDX 67 45 27 46 70 47 64 48 63 49 28 51 54 52 37 53 53 54 38 55
REMARK SMILES IDX 41 56 52 57 68 58 39 59 40 60 51 62 69 63 42 64 29 65 30 66
REMARK SMILES IDX 35 67 31 68 32 69 34 70 36 71 33 72 55 73 56 74 61 75 57 76
REMARK SMILES IDX 58 77 60 78 62 79 59 80 43 81 44 82 49 83 45 84 46 85 48 86
REMARK SMILES IDX 50 87 47 88
REMARK H PARENT 76 16 67 50 41 61
REMARK Flexibility Score: inf
ROOT
ATOM      1  C   UNL     1       1.292  -0.642  -1.443  1.00  0.00     0.188 C 
ENDROOT
BRANCH   1   2
ATOM      2  C   UNL     1       1.866  -1.732  -0.518  1.00  0.00     0.188 C 
BRANCH   2   3
ATOM      3  O   UNL     1       2.567  -2.730  -1.239  1.00  0.00    -0.376 OA
BRANCH   3   4
ATOM      4  C   UNL     1       1.829  -3.797  -1.819  1.00  0.00     0.202 C 
BRANCH   4   5
ATOM      5  C   UNL     1       0.444  -3.620  -2.490  1.00  0.00     0.261 C 
BRANCH   5   6
ATOM      6  O   UNL     1      -0.515  -2.712  -1.915  1.00  0.00    -0.463 OA
BRANCH   6   7
ATOM      7  C   UNL     1      -0.942  -2.937  -0.646  1.00  0.00     0.314 C 
ATOM      8  O   UNL     1      -0.613  -3.925  -0.018  1.00  0.00    -0.252 OA
BRANCH   7   9
ATOM      9  C   UNL     1      -1.861  -1.794  -0.186  1.00  0.00     0.154 C 
ATOM     10  C   UNL     1      -3.292  -2.158  -0.584  1.00  0.00     0.026 C 
BRANCH   9  11
ATOM     11  C   UNL     1      -1.707  -1.143   1.248  1.00  0.00     0.195 C 
ATOM     12  C   UNL     1      -0.530  -0.142   1.342  1.00  0.00     0.076 C 
BRANCH  11  13
ATOM     13  N   UNL     1      -1.894  -1.838   2.533  1.00  0.00    -0.330 N 
ATOM     14  C   UNL     1      -2.936  -2.857   2.609  1.00  0.00     0.279 C 
ATOM     15  C   UNL     1      -0.731  -2.251   3.331  1.00  0.00     0.279 C 
ATOM     16  H   UNL     1      -2.235  -0.994   2.994  1.00  0.00     0.348 HD
ATOM     17  C   UNL     1      -2.486  -4.280   2.237  1.00  0.00     0.163 C 
ATOM     18  C   UNL     1      -0.156  -3.623   2.971  1.00  0.00     0.163 C 
ATOM     19  N   UNL     1      -1.212  -4.665   2.901  1.00  0.00    -0.191 NA
BRANCH  19  20
ATOM     20  S   UNL     1      -1.258  -5.894   4.035  1.00  0.00     0.211 S 
ATOM     21  C   UNL     1      -2.245  -5.146   5.311  1.00  0.00     0.176 C 
ATOM     22  O   UNL     1      -2.020  -6.987   3.483  1.00  0.00    -0.212 OA
ATOM     23  O   UNL     1       0.079  -6.096   4.565  1.00  0.00    -0.212 OA
ENDBRANCH  19  20
ENDBRANCH  11  13
ENDBRANCH   9  11
ENDBRANCH   7   9
ENDBRANCH   6   7
ENDBRANCH   5   6
ENDBRANCH   4   5
ENDBRANCH   3   4
ENDBRANCH   2   3
ENDBRANCH   1   2
BRANCH   1  24
ATOM     24  O   UNL     1       1.536  -0.948  -2.806  1.00  0.00    -0.377 OA
BRANCH  24  25
ATOM     25  C   UNL     1       2.731  -0.391  -3.328  1.00  0.00     0.188 C 
BRANCH  25  26
ATOM     26  C   UNL     1       4.001  -0.377  -2.443  1.00  0.00     0.188 C 
BRANCH  26  27
ATOM     27  O   UNL     1       3.784   0.126  -1.135  1.00  0.00    -0.376 OA
BRANCH  27  28
ATOM     28  C   UNL     1       4.043   1.460  -0.756  1.00  0.00     0.202 C 
BRANCH  28  29
ATOM     29  C   UNL     1       3.442   2.658  -1.508  1.00  0.00     0.261 C 
BRANCH  29  30
ATOM     30  O   UNL     1       3.275   2.541  -2.920  1.00  0.00    -0.460 OA
BRANCH  30  31
ATOM     31  C   UNL     1       4.385   2.546  -3.687  1.00  0.00     0.338 C 
ATOM     32  O   UNL     1       5.539   2.664  -3.310  1.00  0.00    -0.246 OA
BRANCH  31  33
ATOM     33  C   UNL     1       3.966   2.145  -5.050  1.00  0.00     0.060 A 
ATOM     34  C   UNL     1       4.544   1.004  -5.623  1.00  0.00     0.016 A 
ATOM     35  C   UNL     1       2.935   2.822  -5.709  1.00  0.00     0.016 A 
ATOM     36  C   UNL     1       4.101   0.541  -6.861  1.00  0.00     0.010 A 
ATOM     37  C   UNL     1       2.525   2.388  -6.972  1.00  0.00     0.010 A 
ATOM     38  C   UNL     1       3.130   1.265  -7.562  1.00  0.00    -0.014 A 
BRANCH  38  39
ATOM     39  C   UNL     1       2.964   1.017  -9.011  1.00  0.00     0.031 A 
ATOM     40  C   UNL     1       3.795   1.851  -9.947  1.00  0.00     0.074 A 
ATOM     41  C   UNL     1       2.137   0.071  -9.486  1.00  0.00     0.049 A 
ATOM     42  N   UNL     1       3.812   1.873 -11.253  1.00  0.00    -0.248 NA
ATOM     43  C   UNL     1       4.737   2.792  -9.316  1.00  0.00     0.031 C 
ATOM     44  C   UNL     1       1.328  -0.836  -8.675  1.00  0.00     0.029 A 
ATOM     45  N   UNL     1       1.843  -0.276 -10.780  1.00  0.00    -0.354 N 
ATOM     46  C   UNL     1       4.756   2.832 -11.597  1.00  0.00     0.074 A 
ATOM     47  C   UNL     1       5.269   3.391 -10.367  1.00  0.00     0.031 C 
ATOM     48  C   UNL     1       0.614  -1.629  -9.495  1.00  0.00     0.029 A 
ATOM     49  C   UNL     1       0.892  -1.261 -10.883  1.00  0.00     0.049 A 
ATOM     50  H   UNL     1       2.272   0.142 -11.562  1.00  0.00     0.167 HD
ATOM     51  C   UNL     1       5.164   3.208 -12.829  1.00  0.00     0.037 A 
ATOM     52  C   UNL     1       0.301  -1.781 -11.977  1.00  0.00     0.037 A 
ATOM     53  C   UNL     1       4.644   2.654 -14.049  1.00  0.00     0.049 A 
ATOM     54  C   UNL     1       0.707  -1.279 -13.341  1.00  0.00     0.074 A 
ATOM     55  C   UNL     1       4.995   2.958 -15.351  1.00  0.00     0.029 A 
ATOM     56  N   UNL     1       3.651   1.688 -14.113  1.00  0.00    -0.354 N 
ATOM     57  N   UNL     1       1.615  -0.387 -13.662  1.00  0.00    -0.248 NA
ATOM     58  C   UNL     1       0.006  -1.858 -14.496  1.00  0.00     0.031 C 
ATOM     59  C   UNL     1       4.170   2.220 -16.205  1.00  0.00     0.029 A 
ATOM     60  C   UNL     1       3.354   1.406 -15.435  1.00  0.00     0.049 A 
ATOM     61  H   UNL     1       3.222   1.265 -13.334  1.00  0.00     0.167 HD
ATOM     62  C   UNL     1       1.619  -0.326 -15.051  1.00  0.00     0.074 A 
ATOM     63  C   UNL     1       0.630  -1.278 -15.512  1.00  0.00     0.031 C 
ATOM     64  C   UNL     1       2.373   0.445 -15.873  1.00  0.00     0.037 A 
BRANCH  51  65
ATOM     65  C   UNL     1       6.192   4.298 -12.912  1.00  0.00     0.057 A 
ATOM     66  C   UNL     1       7.521   4.101 -12.516  1.00  0.00     0.134 A 
ATOM     67  C   UNL     1       5.846   5.562 -13.407  1.00  0.00     0.134 A 
ATOM     68  F   UNL     1       7.913   2.921 -12.010  1.00  0.00    -0.206 F 
ATOM     69  C   UNL     1       8.464   5.128 -12.589  1.00  0.00     0.040 A 
ATOM     70  C   UNL     1       6.786   6.587 -13.513  1.00  0.00     0.040 A 
ATOM     71  F   UNL     1       4.589   5.819 -13.799  1.00  0.00    -0.206 F 
ATOM     72  C   UNL     1       8.099   6.373 -13.097  1.00  0.00     0.006 A 
ENDBRANCH  51  65
BRANCH  52  73
ATOM     73  C   UNL     1      -0.751  -2.822 -11.840  1.00  0.00     0.057 A 
ATOM     74  C   UNL     1      -0.547  -4.128 -12.302  1.00  0.00     0.134 A 
ATOM     75  C   UNL     1      -2.000  -2.527 -11.281  1.00  0.00     0.134 A 
ATOM     76  F   UNL     1       0.618  -4.468 -12.873  1.00  0.00    -0.206 F 
ATOM     77  C   UNL     1      -1.552  -5.095 -12.235  1.00  0.00     0.040 A 
ATOM     78  C   UNL     1      -3.005  -3.491 -11.180  1.00  0.00     0.040 A 
ATOM     79  F   UNL     1      -2.263  -1.295 -10.821  1.00  0.00    -0.206 F 
ATOM     80  C   UNL     1      -2.785  -4.778 -11.667  1.00  0.00     0.006 A 
ENDBRANCH  52  73
BRANCH  64  81
ATOM     81  C   UNL     1       2.198   0.259 -17.354  1.00  0.00     0.057 A 
ATOM     82  C   UNL     1       1.044   0.680 -18.027  1.00  0.00     0.134 A 
ATOM     83  C   UNL     1       3.225  -0.305 -18.123  1.00  0.00     0.134 A 
ATOM     84  F   UNL     1       0.020   1.219 -17.349  1.00  0.00    -0.206 F 
ATOM     85  C   UNL     1       0.907   0.522 -19.407  1.00  0.00     0.040 A 
ATOM     86  C   UNL     1       3.113  -0.437 -19.508  1.00  0.00     0.040 A 
ATOM     87  F   UNL     1       4.364  -0.716 -17.545  1.00  0.00    -0.206 F 
ATOM     88  C   UNL     1       1.948  -0.030 -20.152  1.00  0.00     0.006 A 
ENDBRANCH  64  81
ENDBRANCH  38  39
ENDBRANCH  31  33
ENDBRANCH  30  31
ENDBRANCH  29  30
ENDBRANCH  28  29
ENDBRANCH  27  28
ENDBRANCH  26  27
ENDBRANCH  25  26
ENDBRANCH  24  25
ENDBRANCH   1  24
TORSDOF 23
