REMARK SMILES CCC(CC)NC(=O)NC[C@H]1CC[C@H](C(=O)OCCOCCOCCOCCOC(=O)c2ccc(-c3c4nc(c(-c5c(F)cccc5F)c5ccc([nH]5)c(-c5c(F)cccc5F)c5nc(c(-c6c(F)cccc6F)c6ccc3[nH]6)C=C5)C=C4)cc2)O1
REMARK SMILES IDX 22 1 21 2 20 3 19 4 18 5 17 6 15 7 16 8 14 9 11 10 12 11
REMARK SMILES IDX 86 12 13 13 10 14 9 15 6 16 7 17 8 19 3 21 2 22 1 23 4 24
REMARK SMILES IDX 5 25 23 26 24 27 25 28 26 29 27 30 28 31 29 32 30 33 31 34
REMARK SMILES IDX 32 35 33 36 85 37 34 38 84 39 35 40 36 41 37 42 78 43 38 44
REMARK SMILES IDX 83 45 77 46 79 47 39 48 82 49 76 50 75 51 40 53 66 54 49 55
REMARK SMILES IDX 65 56 50 57 53 58 64 59 80 60 51 61 52 62 63 64 81 65 54 66
REMARK SMILES IDX 41 67 42 68 47 69 43 70 44 71 46 72 48 73 45 74 67 75 68 76
REMARK SMILES IDX 73 77 69 78 70 79 72 80 74 81 71 82 55 83 56 84 61 85 57 86
REMARK SMILES IDX 58 87 60 88 62 89 59 90
REMARK H PARENT 6 18 9 20 79 52 53 63
REMARK Flexibility Score: inf
ROOT
ATOM      1  C   UNL     1       8.497  -0.295   2.290  1.00  0.00     0.188 C 
ENDROOT
BRANCH   1   2
ATOM      2  C   UNL     1       9.440  -1.467   1.993  1.00  0.00     0.188 C 
BRANCH   2   3
ATOM      3  O   UNL     1       9.922  -1.689   0.679  1.00  0.00    -0.376 OA
BRANCH   3   4
ATOM      4  C   UNL     1       9.049  -1.869  -0.427  1.00  0.00     0.202 C 
BRANCH   4   5
ATOM      5  C   UNL     1       7.710  -2.623  -0.363  1.00  0.00     0.261 C 
BRANCH   5   6
ATOM      6  O   UNL     1       6.831  -2.290   0.718  1.00  0.00    -0.461 OA
BRANCH   6   7
ATOM      7  C   UNL     1       6.703  -3.239   1.677  1.00  0.00     0.335 C 
ATOM      8  O   UNL     1       7.300  -4.312   1.665  1.00  0.00    -0.249 OA
BRANCH   7   9
ATOM      9  C   UNL     1       5.732  -2.858   2.794  1.00  0.00     0.228 C 
ATOM     10  C   UNL     1       3.391  -2.809   2.798  1.00  0.00     0.138 C 
ATOM     11  C   UNL     1       3.856  -1.399   2.514  1.00  0.00     0.037 C 
ATOM     12  O   UNL     1       4.542  -3.652   2.637  1.00  0.00    -0.361 OA
ATOM     13  C   UNL     1       5.292  -1.410   2.949  1.00  0.00     0.047 C 
BRANCH  10  14
ATOM     14  C   UNL     1       2.752  -3.015   4.189  1.00  0.00     0.149 C 
BRANCH  14  15
ATOM     15  N   UNL     1       3.608  -3.736   5.121  1.00  0.00    -0.336 N 
ATOM     16  N   UNL     1       4.217  -2.330   6.917  1.00  0.00    -0.335 N 
ATOM     17  C   UNL     1       4.153  -3.520   6.316  1.00  0.00     0.315 C 
ATOM     18  H   UNL     1       4.529  -2.386   7.849  1.00  0.00     0.165 HD
ATOM     19  O   UNL     1       4.649  -4.482   6.907  1.00  0.00    -0.249 OA
ATOM     20  H   UNL     1       3.849  -4.624   4.772  1.00  0.00     0.165 HD
BRANCH  16  21
ATOM     21  C   UNL     1       3.927  -0.968   6.497  1.00  0.00     0.083 C 
BRANCH  21  22
ATOM     22  C   UNL     1       2.660  -0.469   7.202  1.00  0.00     0.021 C 
ATOM     23  C   UNL     1       2.120   0.814   6.590  1.00  0.00     0.006 C 
ENDBRANCH  21  22
BRANCH  21  24
ATOM     24  C   UNL     1       5.175  -0.077   6.677  1.00  0.00     0.021 C 
ATOM     25  C   UNL     1       5.553   0.256   8.113  1.00  0.00     0.006 C 
ENDBRANCH  21  24
ENDBRANCH  16  21
ENDBRANCH  14  15
ENDBRANCH  10  14
ENDBRANCH   7   9
ENDBRANCH   6   7
ENDBRANCH   5   6
ENDBRANCH   4   5
ENDBRANCH   3   4
ENDBRANCH   2   3
ENDBRANCH   1   2
BRANCH   1  26
ATOM     26  O   UNL     1       7.728   0.126   1.181  1.00  0.00    -0.377 OA
BRANCH  26  27
ATOM     27  C   UNL     1       8.196   1.217   0.399  1.00  0.00     0.188 C 
BRANCH  27  28
ATOM     28  C   UNL     1       9.707   1.518   0.347  1.00  0.00     0.188 C 
BRANCH  28  29
ATOM     29  O   UNL     1      10.329   1.572   1.620  1.00  0.00    -0.376 OA
BRANCH  29  30
ATOM     30  C   UNL     1      10.488   2.835   2.248  1.00  0.00     0.202 C 
BRANCH  30  31
ATOM     31  C   UNL     1       9.217   3.623   2.608  1.00  0.00     0.261 C 
BRANCH  31  32
ATOM     32  O   UNL     1       8.351   3.995   1.522  1.00  0.00    -0.460 OA
BRANCH  32  33
ATOM     33  C   UNL     1       8.871   4.705   0.496  1.00  0.00     0.338 C 
ATOM     34  O   UNL     1       9.995   5.144   0.399  1.00  0.00    -0.246 OA
BRANCH  33  35
ATOM     35  C   UNL     1       7.873   4.692  -0.600  1.00  0.00     0.060 A 
ATOM     36  C   UNL     1       8.216   4.110  -1.827  1.00  0.00     0.016 A 
ATOM     37  C   UNL     1       6.609   5.255  -0.415  1.00  0.00     0.016 A 
ATOM     38  C   UNL     1       7.304   4.116  -2.885  1.00  0.00     0.010 A 
ATOM     39  C   UNL     1       5.706   5.280  -1.481  1.00  0.00     0.010 A 
ATOM     40  C   UNL     1       6.059   4.738  -2.730  1.00  0.00    -0.014 A 
BRANCH  40  41
ATOM     41  C   UNL     1       5.196   4.988  -3.912  1.00  0.00     0.031 A 
ATOM     42  C   UNL     1       5.222   6.354  -4.542  1.00  0.00     0.074 A 
ATOM     43  C   UNL     1       4.406   4.027  -4.422  1.00  0.00     0.049 A 
ATOM     44  N   UNL     1       4.495   6.835  -5.517  1.00  0.00    -0.248 NA
ATOM     45  C   UNL     1       6.200   7.306  -3.991  1.00  0.00     0.031 C 
ATOM     46  C   UNL     1       4.327   2.650  -3.939  1.00  0.00     0.029 A 
ATOM     47  N   UNL     1       3.505   4.074  -5.457  1.00  0.00    -0.354 N 
ATOM     48  C   UNL     1       4.921   8.147  -5.691  1.00  0.00     0.074 A 
ATOM     49  C   UNL     1       5.946   8.395  -4.700  1.00  0.00     0.031 C 
ATOM     50  C   UNL     1       3.413   1.986  -4.668  1.00  0.00     0.029 A 
ATOM     51  C   UNL     1       2.814   2.901  -5.640  1.00  0.00     0.049 A 
ATOM     52  H   UNL     1       3.367   4.873  -6.016  1.00  0.00     0.167 HD
ATOM     53  C   UNL     1       4.501   9.060  -6.598  1.00  0.00     0.037 A 
ATOM     54  C   UNL     1       1.796   2.611  -6.474  1.00  0.00     0.037 A 
ATOM     55  C   UNL     1       3.476   8.813  -7.578  1.00  0.00     0.049 A 
ATOM     56  C   UNL     1       1.277   3.674  -7.409  1.00  0.00     0.074 A 
ATOM     57  C   UNL     1       2.989   9.671  -8.549  1.00  0.00     0.029 A 
ATOM     58  N   UNL     1       2.774   7.624  -7.705  1.00  0.00    -0.354 N 
ATOM     59  N   UNL     1       1.696   4.905  -7.580  1.00  0.00    -0.248 NA
ATOM     60  C   UNL     1       0.140   3.307  -8.267  1.00  0.00     0.031 C 
ATOM     61  C   UNL     1       1.949   9.022  -9.222  1.00  0.00     0.029 A 
ATOM     62  C   UNL     1       1.834   7.737  -8.716  1.00  0.00     0.049 A 
ATOM     63  H   UNL     1       2.922   6.820  -7.158  1.00  0.00     0.167 HD
ATOM     64  C   UNL     1       0.900   5.446  -8.584  1.00  0.00     0.074 A 
ATOM     65  C   UNL     1      -0.020   4.405  -8.992  1.00  0.00     0.031 C 
ATOM     66  C   UNL     1       0.929   6.690  -9.121  1.00  0.00     0.037 A 
BRANCH  53  67
ATOM     67  C   UNL     1       5.127  10.424  -6.549  1.00  0.00     0.057 A 
ATOM     68  C   UNL     1       6.459  10.644  -6.924  1.00  0.00     0.134 A 
ATOM     69  C   UNL     1       4.378  11.538  -6.149  1.00  0.00     0.134 A 
ATOM     70  F   UNL     1       7.238   9.619  -7.302  1.00  0.00    -0.206 F 
ATOM     71  C   UNL     1       7.030  11.918  -6.878  1.00  0.00     0.040 A 
ATOM     72  C   UNL     1       4.928  12.820  -6.128  1.00  0.00     0.040 A 
ATOM     73  F   UNL     1       3.095  11.399  -5.781  1.00  0.00    -0.206 F 
ATOM     74  C   UNL     1       6.260  13.011  -6.487  1.00  0.00     0.006 A 
ENDBRANCH  53  67
BRANCH  54  75
ATOM     75  C   UNL     1       1.176   1.260  -6.456  1.00  0.00     0.057 A 
ATOM     76  C   UNL     1       1.283   0.397  -7.553  1.00  0.00     0.134 A 
ATOM     77  C   UNL     1       0.432   0.812  -5.357  1.00  0.00     0.134 A 
ATOM     78  F   UNL     1       1.960   0.778  -8.647  1.00  0.00    -0.206 F 
ATOM     79  C   UNL     1       0.658  -0.852  -7.567  1.00  0.00     0.040 A 
ATOM     80  C   UNL     1      -0.174  -0.446  -5.346  1.00  0.00     0.040 A 
ATOM     81  F   UNL     1       0.287   1.589  -4.274  1.00  0.00    -0.206 F 
ATOM     82  C   UNL     1      -0.069  -1.278  -6.458  1.00  0.00     0.006 A 
ENDBRANCH  54  75
BRANCH  66  83
ATOM     83  C   UNL     1      -0.029   6.989 -10.240  1.00  0.00     0.057 A 
ATOM     84  C   UNL     1      -1.406   7.125 -10.025  1.00  0.00     0.134 A 
ATOM     85  C   UNL     1       0.443   7.198 -11.543  1.00  0.00     0.134 A 
ATOM     86  F   UNL     1      -1.926   6.929  -8.804  1.00  0.00    -0.206 F 
ATOM     87  C   UNL     1      -2.281   7.435 -11.068  1.00  0.00     0.040 A 
ATOM     88  C   UNL     1      -0.417   7.538 -12.588  1.00  0.00     0.040 A 
ATOM     89  F   UNL     1       1.752   7.095 -11.819  1.00  0.00    -0.206 F 
ATOM     90  C   UNL     1      -1.786   7.651 -12.353  1.00  0.00     0.006 A 
ENDBRANCH  66  83
ENDBRANCH  40  41
ENDBRANCH  33  35
ENDBRANCH  32  33
ENDBRANCH  31  32
ENDBRANCH  30  31
ENDBRANCH  29  30
ENDBRANCH  28  29
ENDBRANCH  27  28
ENDBRANCH  26  27
ENDBRANCH   1  26
TORSDOF 25
