REMARK SMILES CC(C)n1cc(C(=O)OCCOCCOCCOCCOC(=O)c2ccc(-c3c4nc(c(-c5c(F)cccc5F)c5ccc([nH]5)c(-c5c(F)cccc5F)c5nc(c(-c6c(F)cccc6F)c6ccc3[nH]6)C=C5)C=C4)cc2)c2ccccc2c1=O
REMARK SMILES IDX 16 1 15 2 14 3 13 4 12 5 11 6 10 7 9 8 7 9 8 10 6 11 4 12
REMARK SMILES IDX 5 13 84 14 83 15 85 16 78 17 82 18 79 19 81 20 80 21 2 22
REMARK SMILES IDX 1 23 3 24 17 25 18 26 19 27 20 28 21 29 22 30 23 31 24 32
REMARK SMILES IDX 25 33 77 34 26 35 76 36 27 37 28 38 29 39 70 40 30 41 75 42
REMARK SMILES IDX 69 43 71 44 31 45 74 46 68 47 67 48 32 50 58 51 41 52 57 53
REMARK SMILES IDX 42 54 45 55 56 56 72 57 43 58 44 59 55 61 73 62 46 63 33 64
REMARK SMILES IDX 34 65 39 66 35 67 36 68 38 69 40 70 37 71 59 72 60 73 65 74
REMARK SMILES IDX 61 75 62 76 64 77 66 78 63 79 47 80 48 81 53 82 49 83 50 84
REMARK SMILES IDX 52 85 54 86 51 87
REMARK H PARENT 71 49 45 60
REMARK Flexibility Score: inf
ROOT
ATOM      1  C   UNL     1      -3.224   5.995  -4.000  1.00  0.00     0.188 C 
ENDROOT
BRANCH   1   2
ATOM      2  O   UNL     1      -2.758   4.782  -3.421  1.00  0.00    -0.377 OA
BRANCH   2   3
ATOM      3  C   UNL     1      -3.687   3.756  -3.114  1.00  0.00     0.188 C 
BRANCH   3   4
ATOM      4  C   UNL     1      -4.949   4.136  -2.319  1.00  0.00     0.188 C 
BRANCH   4   5
ATOM      5  O   UNL     1      -5.026   5.511  -1.956  1.00  0.00    -0.376 OA
BRANCH   5   6
ATOM      6  C   UNL     1      -4.894   5.798  -0.571  1.00  0.00     0.202 C 
BRANCH   6   7
ATOM      7  C   UNL     1      -3.451   5.729  -0.060  1.00  0.00     0.261 C 
BRANCH   7   8
ATOM      8  O   UNL     1      -2.838   4.439  -0.207  1.00  0.00    -0.460 OA
BRANCH   8   9
ATOM      9  C   UNL     1      -3.342   3.421   0.534  1.00  0.00     0.340 C 
ATOM     10  O   UNL     1      -4.220   3.519   1.376  1.00  0.00    -0.246 OA
BRANCH   9  11
ATOM     11  C   UNL     1      -2.773   2.135   0.040  1.00  0.00     0.084 A 
ATOM     12  N   UNL     1      -0.787   0.972  -0.659  1.00  0.00    -0.312 N 
ATOM     13  C   UNL     1      -1.446   2.091  -0.169  1.00  0.00     0.105 A 
ATOM     14  C   UNL     1      -1.469  -0.220  -0.936  1.00  0.00     0.258 A 
ATOM     15  C   UNL     1      -2.950  -0.192  -0.794  1.00  0.00     0.048 A 
ATOM     16  O   UNL     1      -0.927  -1.260  -1.301  1.00  0.00    -0.269 OA
ATOM     17  C   UNL     1      -3.590   0.958  -0.309  1.00  0.00     0.003 A 
ATOM     18  C   UNL     1      -3.691  -1.313  -1.200  1.00  0.00     0.014 A 
ATOM     19  C   UNL     1      -4.993   0.957  -0.255  1.00  0.00     0.010 A 
ATOM     20  C   UNL     1      -5.082  -1.287  -1.154  1.00  0.00     0.001 A 
ATOM     21  C   UNL     1      -5.732  -0.150  -0.688  1.00  0.00     0.001 A 
BRANCH  12  22
ATOM     22  C   UNL     1       0.675   1.054  -0.869  1.00  0.00     0.084 C 
ATOM     23  C   UNL     1       1.441   0.152   0.099  1.00  0.00     0.031 C 
ATOM     24  C   UNL     1       1.077   0.793  -2.324  1.00  0.00     0.031 C 
ENDBRANCH  12  22
ENDBRANCH   9  11
ENDBRANCH   8   9
ENDBRANCH   7   8
ENDBRANCH   6   7
ENDBRANCH   5   6
ENDBRANCH   4   5
ENDBRANCH   3   4
ENDBRANCH   2   3
ENDBRANCH   1   2
BRANCH   1  25
ATOM     25  C   UNL     1      -4.564   6.073  -4.764  1.00  0.00     0.188 C 
BRANCH  25  26
ATOM     26  O   UNL     1      -5.088   4.819  -5.182  1.00  0.00    -0.376 OA
BRANCH  26  27
ATOM     27  C   UNL     1      -5.116   4.580  -6.581  1.00  0.00     0.202 C 
BRANCH  27  28
ATOM     28  C   UNL     1      -3.754   4.185  -7.158  1.00  0.00     0.261 C 
BRANCH  28  29
ATOM     29  O   UNL     1      -2.728   5.178  -7.014  1.00  0.00    -0.460 OA
BRANCH  29  30
ATOM     30  C   UNL     1      -2.920   6.372  -7.618  1.00  0.00     0.338 C 
ATOM     31  O   UNL     1      -3.865   6.712  -8.306  1.00  0.00    -0.246 OA
BRANCH  30  32
ATOM     32  C   UNL     1      -1.858   7.275  -7.132  1.00  0.00     0.060 A 
ATOM     33  C   UNL     1      -0.521   6.872  -7.177  1.00  0.00     0.016 A 
ATOM     34  C   UNL     1      -2.211   8.508  -6.567  1.00  0.00     0.016 A 
ATOM     35  C   UNL     1       0.469   7.715  -6.678  1.00  0.00     0.010 A 
ATOM     36  C   UNL     1      -1.218   9.348  -6.058  1.00  0.00     0.010 A 
ATOM     37  C   UNL     1       0.130   8.964  -6.131  1.00  0.00    -0.014 A 
BRANCH  37  38
ATOM     38  C   UNL     1       1.206   9.933  -5.823  1.00  0.00     0.031 A 
ATOM     39  C   UNL     1       1.714  10.152  -4.433  1.00  0.00     0.074 A 
ATOM     40  C   UNL     1       1.734  10.618  -6.854  1.00  0.00     0.049 A 
ATOM     41  N   UNL     1       2.723  10.888  -4.036  1.00  0.00    -0.248 NA
ATOM     42  C   UNL     1       1.000   9.467  -3.348  1.00  0.00     0.031 C 
ATOM     43  C   UNL     1       1.293  10.506  -8.247  1.00  0.00     0.029 A 
ATOM     44  N   UNL     1       2.753  11.532  -6.896  1.00  0.00    -0.354 N 
ATOM     45  C   UNL     1       2.786  10.736  -2.658  1.00  0.00     0.074 A 
ATOM     46  C   UNL     1       1.679   9.877  -2.283  1.00  0.00     0.031 C 
ATOM     47  C   UNL     1       2.050  11.307  -9.010  1.00  0.00     0.029 A 
ATOM     48  C   UNL     1       3.015  11.997  -8.161  1.00  0.00     0.049 A 
ATOM     49  H   UNL     1       3.249  11.826  -6.098  1.00  0.00     0.167 HD
ATOM     50  C   UNL     1       3.694  11.255  -1.795  1.00  0.00     0.037 A 
ATOM     51  C   UNL     1       3.935  12.878  -8.589  1.00  0.00     0.037 A 
ATOM     52  C   UNL     1       4.773  12.136  -2.175  1.00  0.00     0.049 A 
ATOM     53  C   UNL     1       4.895  13.474  -7.603  1.00  0.00     0.074 A 
ATOM     54  C   UNL     1       5.766  12.681  -1.378  1.00  0.00     0.029 A 
ATOM     55  N   UNL     1       4.988  12.619  -3.458  1.00  0.00    -0.354 N 
ATOM     56  N   UNL     1       5.003  13.252  -6.316  1.00  0.00    -0.248 NA
ATOM     57  C   UNL     1       5.869  14.437  -8.133  1.00  0.00     0.031 C 
ATOM     58  C   UNL     1       6.549  13.532  -2.168  1.00  0.00     0.029 A 
ATOM     59  C   UNL     1       6.076  13.479  -3.468  1.00  0.00     0.049 A 
ATOM     60  H   UNL     1       4.447  12.384  -4.247  1.00  0.00     0.167 HD
ATOM     61  C   UNL     1       6.070  14.028  -5.886  1.00  0.00     0.074 A 
ATOM     62  C   UNL     1       6.588  14.710  -7.054  1.00  0.00     0.031 C 
ATOM     63  C   UNL     1       6.575  14.164  -4.635  1.00  0.00     0.037 A 
BRANCH  50  64
ATOM     64  C   UNL     1       3.562  10.882  -0.346  1.00  0.00     0.057 A 
ATOM     65  C   UNL     1       3.187  11.831   0.613  1.00  0.00     0.134 A 
ATOM     66  C   UNL     1       3.857   9.589   0.109  1.00  0.00     0.134 A 
ATOM     67  F   UNL     1       2.902  13.091   0.250  1.00  0.00    -0.206 F 
ATOM     68  C   UNL     1       3.109  11.508   1.970  1.00  0.00     0.040 A 
ATOM     69  C   UNL     1       3.760   9.248   1.459  1.00  0.00     0.040 A 
ATOM     70  F   UNL     1       4.220   8.630  -0.757  1.00  0.00    -0.206 F 
ATOM     71  C   UNL     1       3.390  10.212   2.395  1.00  0.00     0.006 A 
ENDBRANCH  50  64
BRANCH  51  72
ATOM     72  C   UNL     1       4.007  13.228 -10.028  1.00  0.00     0.057 A 
ATOM     73  C   UNL     1       3.009  13.993 -10.641  1.00  0.00     0.134 A 
ATOM     74  C   UNL     1       5.080  12.807 -10.820  1.00  0.00     0.134 A 
ATOM     75  F   UNL     1       1.949  14.416  -9.935  1.00  0.00    -0.206 F 
ATOM     76  C   UNL     1       3.074  14.328 -11.993  1.00  0.00     0.040 A 
ATOM     77  C   UNL     1       5.172  13.156 -12.168  1.00  0.00     0.040 A 
ATOM     78  F   UNL     1       6.073  12.083 -10.283  1.00  0.00    -0.206 F 
ATOM     79  C   UNL     1       4.164  13.916 -12.758  1.00  0.00     0.006 A 
ENDBRANCH  51  72
BRANCH  63  80
ATOM     80  C   UNL     1       7.759  15.075  -4.480  1.00  0.00     0.057 A 
ATOM     81  C   UNL     1       9.033  14.556  -4.219  1.00  0.00     0.134 A 
ATOM     82  C   UNL     1       7.640  16.467  -4.596  1.00  0.00     0.134 A 
ATOM     83  F   UNL     1       9.217  13.233  -4.093  1.00  0.00    -0.206 F 
ATOM     84  C   UNL     1      10.146  15.387  -4.083  1.00  0.00     0.040 A 
ATOM     85  C   UNL     1       8.751  17.306  -4.489  1.00  0.00     0.040 A 
ATOM     86  F   UNL     1       6.451  17.027  -4.864  1.00  0.00    -0.206 F 
ATOM     87  C   UNL     1      10.008  16.766  -4.227  1.00  0.00     0.006 A 
ENDBRANCH  63  80
ENDBRANCH  37  38
ENDBRANCH  30  32
ENDBRANCH  29  30
ENDBRANCH  28  29
ENDBRANCH  27  28
ENDBRANCH  26  27
ENDBRANCH  25  26
ENDBRANCH   1  25
TORSDOF 21
