REMARK SMILES C[C@@H](Oc1ccc(I)cc1)C(=O)NCc1ccc(C(=O)OCCOCCOCCOCCOC(=O)c2ccc(-c3c4nc(c(-c5c(F)cccc5F)c5ccc([nH]5)c(-c5c(F)cccc5F)c5nc(c(-c6c(F)cccc6F)c6ccc3[nH]6)C=C5)C=C4)cc2)cc1
REMARK SMILES IDX 25 1 24 2 23 3 22 4 21 5 19 6 20 7 18 8 15 9 16 10 91 11
REMARK SMILES IDX 17 12 90 13 14 14 13 15 11 16 12 17 2 19 1 20 3 21 4 22 5 23
REMARK SMILES IDX 10 24 6 25 9 26 7 27 8 28 26 29 27 30 28 31 29 32 30 33
REMARK SMILES IDX 31 34 32 35 33 36 34 37 35 38 36 39 37 40 89 41 38 42 88 43
REMARK SMILES IDX 39 44 40 45 41 46 82 47 42 48 87 49 81 50 83 51 43 52 86 53
REMARK SMILES IDX 80 54 79 55 44 57 70 58 53 59 69 60 54 61 57 62 68 63 84 64
REMARK SMILES IDX 55 65 56 66 67 68 85 69 58 70 45 71 46 72 51 73 47 74 48 75
REMARK SMILES IDX 50 76 52 77 49 78 71 79 72 80 77 81 73 82 74 83 76 84 78 85
REMARK SMILES IDX 75 86 59 87 60 88 65 89 61 90 62 91 64 92 66 93 63 94
REMARK H PARENT 13 18 83 56 57 67
REMARK Flexibility Score: inf
ROOT
ATOM      1  C   UNL     1      -3.790  -3.279  -5.844  1.00  0.00     0.188 C 
ENDROOT
BRANCH   1   2
ATOM      2  O   UNL     1      -3.554  -4.417  -6.657  1.00  0.00    -0.376 OA
BRANCH   2   3
ATOM      3  C   UNL     1      -2.329  -4.545  -7.353  1.00  0.00     0.202 C 
BRANCH   3   4
ATOM      4  C   UNL     1      -0.996  -4.491  -6.589  1.00  0.00     0.261 C 
BRANCH   4   5
ATOM      5  O   UNL     1      -0.897  -3.500  -5.565  1.00  0.00    -0.460 OA
BRANCH   5   6
ATOM      6  C   UNL     1      -0.775  -2.216  -5.962  1.00  0.00     0.338 C 
ATOM      7  O   UNL     1      -0.682  -1.814  -7.108  1.00  0.00    -0.246 OA
BRANCH   6   8
ATOM      8  C   UNL     1      -0.971  -1.346  -4.775  1.00  0.00     0.060 A 
ATOM      9  C   UNL     1      -1.315   0.388  -2.591  1.00  0.00    -0.029 A 
ATOM     10  C   UNL     1      -1.790   0.741  -3.863  1.00  0.00     0.006 A 
ATOM     11  C   UNL     1      -0.774  -0.892  -2.408  1.00  0.00     0.006 A 
ATOM     12  C   UNL     1      -1.622  -0.121  -4.949  1.00  0.00     0.016 A 
ATOM     13  C   UNL     1      -0.583  -1.748  -3.493  1.00  0.00     0.016 A 
BRANCH   9  14
ATOM     14  C   UNL     1      -1.192   1.455  -1.531  1.00  0.00     0.151 C 
BRANCH  14  15
ATOM     15  N   UNL     1      -1.622   1.061  -0.209  1.00  0.00    -0.349 N 
ATOM     16  C   UNL     1      -0.926   1.080   0.968  1.00  0.00     0.261 C 
ATOM     17  O   UNL     1      -1.572   0.947   2.013  1.00  0.00    -0.271 OA
ATOM     18  H   UNL     1      -2.548   0.733  -0.146  1.00  0.00     0.163 HD
BRANCH  16  19
ATOM     19  C   UNL     1       0.620   1.131   1.003  1.00  0.00     0.258 C 
ATOM     20  C   UNL     1       1.129  -0.250   0.591  1.00  0.00     0.064 C 
BRANCH  19  21
ATOM     21  O   UNL     1       1.111   2.208   0.201  1.00  0.00    -0.481 OA
BRANCH  21  22
ATOM     22  C   UNL     1       2.451   2.457   0.302  1.00  0.00     0.120 A 
ATOM     23  C   UNL     1       3.382   1.672  -0.379  1.00  0.00     0.047 A 
ATOM     24  C   UNL     1       2.863   3.621   0.947  1.00  0.00     0.047 A 
ATOM     25  C   UNL     1       4.737   2.005  -0.353  1.00  0.00     0.018 A 
ATOM     26  C   UNL     1       4.217   3.971   0.956  1.00  0.00     0.018 A 
ATOM     27  C   UNL     1       5.150   3.156   0.313  1.00  0.00     0.013 A 
ATOM     28  I   UNL     1       7.161   3.678   0.306  1.00  0.00    -0.044 I 
ENDBRANCH  21  22
ENDBRANCH  19  21
ENDBRANCH  16  19
ENDBRANCH  14  15
ENDBRANCH   9  14
ENDBRANCH   6   8
ENDBRANCH   5   6
ENDBRANCH   4   5
ENDBRANCH   3   4
ENDBRANCH   2   3
ENDBRANCH   1   2
BRANCH   1  29
ATOM     29  C   UNL     1      -3.689  -3.576  -4.334  1.00  0.00     0.188 C 
BRANCH  29  30
ATOM     30  O   UNL     1      -3.055  -4.790  -3.960  1.00  0.00    -0.377 OA
BRANCH  30  31
ATOM     31  C   UNL     1      -3.599  -6.035  -4.400  1.00  0.00     0.188 C 
BRANCH  31  32
ATOM     32  C   UNL     1      -4.975  -6.153  -5.105  1.00  0.00     0.188 C 
BRANCH  32  33
ATOM     33  O   UNL     1      -5.833  -5.038  -4.939  1.00  0.00    -0.376 OA
BRANCH  33  34
ATOM     34  C   UNL     1      -6.956  -5.178  -4.091  1.00  0.00     0.202 C 
BRANCH  34  35
ATOM     35  C   UNL     1      -6.665  -5.417  -2.603  1.00  0.00     0.261 C 
BRANCH  35  36
ATOM     36  O   UNL     1      -5.808  -6.529  -2.304  1.00  0.00    -0.460 OA
BRANCH  36  37
ATOM     37  C   UNL     1      -6.283  -7.764  -2.591  1.00  0.00     0.338 C 
ATOM     38  O   UNL     1      -7.361  -8.046  -3.063  1.00  0.00    -0.246 OA
BRANCH  37  39
ATOM     39  C   UNL     1      -5.169  -8.720  -2.400  1.00  0.00     0.060 A 
ATOM     40  C   UNL     1      -4.722  -9.468  -3.497  1.00  0.00     0.016 A 
ATOM     41  C   UNL     1      -4.567  -8.864  -1.149  1.00  0.00     0.016 A 
ATOM     42  C   UNL     1      -3.688 -10.390  -3.335  1.00  0.00     0.010 A 
ATOM     43  C   UNL     1      -3.545  -9.803  -0.984  1.00  0.00     0.010 A 
ATOM     44  C   UNL     1      -3.122 -10.592  -2.069  1.00  0.00    -0.014 A 
BRANCH  44  45
ATOM     45  C   UNL     1      -2.216 -11.744  -1.845  1.00  0.00     0.031 A 
ATOM     46  C   UNL     1      -2.781 -12.994  -1.230  1.00  0.00     0.074 A 
ATOM     47  C   UNL     1      -0.921 -11.692  -2.200  1.00  0.00     0.049 A 
ATOM     48  N   UNL     1      -2.180 -14.112  -0.914  1.00  0.00    -0.248 NA
ATOM     49  C   UNL     1      -4.222 -12.979  -0.929  1.00  0.00     0.031 C 
ATOM     50  C   UNL     1      -0.262 -10.552  -2.834  1.00  0.00     0.029 A 
ATOM     51  N   UNL     1       0.075 -12.628  -2.068  1.00  0.00    -0.354 N 
ATOM     52  C   UNL     1      -3.164 -14.929  -0.372  1.00  0.00     0.074 A 
ATOM     53  C   UNL     1      -4.394 -14.167  -0.370  1.00  0.00     0.031 C 
ATOM     54  C   UNL     1       1.034 -10.851  -3.025  1.00  0.00     0.029 A 
ATOM     55  C   UNL     1       1.303 -12.188  -2.498  1.00  0.00     0.049 A 
ATOM     56  H   UNL     1      -0.076 -13.528  -1.700  1.00  0.00     0.167 HD
ATOM     57  C   UNL     1      -3.055 -16.201   0.078  1.00  0.00     0.037 A 
ATOM     58  C   UNL     1       2.508 -12.788  -2.448  1.00  0.00     0.037 A 
ATOM     59  C   UNL     1      -1.828 -16.954   0.080  1.00  0.00     0.049 A 
ATOM     60  C   UNL     1       2.620 -14.178  -1.876  1.00  0.00     0.074 A 
ATOM     61  C   UNL     1      -1.619 -18.259   0.489  1.00  0.00     0.029 A 
ATOM     62  N   UNL     1      -0.598 -16.463  -0.333  1.00  0.00    -0.354 N 
ATOM     63  N   UNL     1       1.678 -14.957  -1.400  1.00  0.00    -0.248 NA
ATOM     64  C   UNL     1       3.963 -14.774  -1.839  1.00  0.00     0.031 C 
ATOM     65  C   UNL     1      -0.252 -18.536   0.386  1.00  0.00     0.029 A 
ATOM     66  C   UNL     1       0.380 -17.428  -0.154  1.00  0.00     0.049 A 
ATOM     67  H   UNL     1      -0.444 -15.562  -0.699  1.00  0.00     0.167 HD
ATOM     68  C   UNL     1       2.308 -16.141  -1.034  1.00  0.00     0.074 A 
ATOM     69  C   UNL     1       3.710 -15.984  -1.360  1.00  0.00     0.031 C 
ATOM     70  C   UNL     1       1.774 -17.259  -0.481  1.00  0.00     0.037 A 
BRANCH  57  71
ATOM     71  C   UNL     1      -4.290 -16.845   0.641  1.00  0.00     0.057 A 
ATOM     72  C   UNL     1      -5.378 -17.204  -0.166  1.00  0.00     0.134 A 
ATOM     73  C   UNL     1      -4.380 -17.131   2.009  1.00  0.00     0.134 A 
ATOM     74  F   UNL     1      -5.364 -16.945  -1.483  1.00  0.00    -0.206 F 
ATOM     75  C   UNL     1      -6.520 -17.800   0.372  1.00  0.00     0.040 A 
ATOM     76  C   UNL     1      -5.504 -17.755   2.553  1.00  0.00     0.040 A 
ATOM     77  F   UNL     1      -3.374 -16.818   2.839  1.00  0.00    -0.206 F 
ATOM     78  C   UNL     1      -6.582 -18.083   1.734  1.00  0.00     0.006 A 
ENDBRANCH  57  71
BRANCH  58  79
ATOM     79  C   UNL     1       3.716 -12.073  -2.937  1.00  0.00     0.057 A 
ATOM     80  C   UNL     1       4.408 -12.504  -4.074  1.00  0.00     0.134 A 
ATOM     81  C   UNL     1       4.218 -10.951  -2.265  1.00  0.00     0.134 A 
ATOM     82  F   UNL     1       3.993 -13.587  -4.747  1.00  0.00    -0.206 F 
ATOM     83  C   UNL     1       5.565 -11.858  -4.516  1.00  0.00     0.040 A 
ATOM     84  C   UNL     1       5.356 -10.278  -2.711  1.00  0.00     0.040 A 
ATOM     85  F   UNL     1       3.602 -10.487  -1.167  1.00  0.00    -0.206 F 
ATOM     86  C   UNL     1       6.038 -10.736  -3.836  1.00  0.00     0.006 A 
ENDBRANCH  58  79
BRANCH  70  87
ATOM     87  C   UNL     1       2.701 -18.415  -0.224  1.00  0.00     0.057 A 
ATOM     88  C   UNL     1       3.681 -18.374   0.777  1.00  0.00     0.134 A 
ATOM     89  C   UNL     1       2.585 -19.599  -0.964  1.00  0.00     0.134 A 
ATOM     90  F   UNL     1       3.854 -17.268   1.516  1.00  0.00    -0.206 F 
ATOM     91  C   UNL     1       4.531 -19.458   1.011  1.00  0.00     0.040 A 
ATOM     92  C   UNL     1       3.407 -20.700  -0.717  1.00  0.00     0.040 A 
ATOM     93  F   UNL     1       1.660 -19.712  -1.929  1.00  0.00    -0.206 F 
ATOM     94  C   UNL     1       4.389 -20.628   0.267  1.00  0.00     0.006 A 
ENDBRANCH  70  87
ENDBRANCH  44  45
ENDBRANCH  37  39
ENDBRANCH  36  37
ENDBRANCH  35  36
ENDBRANCH  34  35
ENDBRANCH  33  34
ENDBRANCH  32  33
ENDBRANCH  31  32
ENDBRANCH  30  31
ENDBRANCH  29  30
ENDBRANCH   1  29
TORSDOF 25
