REMARK SMILES CC[C@H](C)[C@H](NC(=O)N1CCc2cc(OC)c(OC)cc2[C@@H]1c1ccc(F)cc1)C(=O)OCCOCCOCCOCCOC(=O)c1ccc(-c2c3nc(c(-c4c(F)cccc4F)c4ccc([nH]4)c(-c4c(F)cccc4F)c4nc(c(-c5c(F)cccc5F)c5ccc2[nH]5)C=C4)C=C3)cc1
REMARK SMILES IDX 37 1 36 2 35 3 34 4 33 5 32 6 30 7 31 8 5 9 3 10 4 11 2 12
REMARK SMILES IDX 1 13 6 14 7 15 8 17 9 18 10 19 22 20 11 21 21 22 12 23 20 24
REMARK SMILES IDX 13 25 17 26 14 27 23 28 24 29 29 30 25 31 28 32 26 33 27 34
REMARK SMILES IDX 18 35 19 36 15 37 16 38 38 39 39 40 40 41 41 42 42 43 43 44
REMARK SMILES IDX 44 45 45 46 46 47 47 48 48 49 100 50 49 51 99 52 50 53 51 54
REMARK SMILES IDX 52 55 93 56 53 57 98 58 92 59 94 60 54 61 97 62 91 63 90 64
REMARK SMILES IDX 55 66 81 67 64 68 80 69 65 70 68 71 79 72 95 73 66 74 67 75
REMARK SMILES IDX 78 77 96 78 69 79 56 80 57 81 62 82 58 83 59 84 61 85 63 86
REMARK SMILES IDX 60 87 82 88 83 89 88 90 84 91 85 92 87 93 89 94 86 95 70 96
REMARK SMILES IDX 71 97 76 98 72 99 73 100 75 101 77 102 74 103
REMARK H PARENT 6 16 94 65 68 76
REMARK Flexibility Score: inf
ROOT
ATOM      1  C   UNL     1       1.173   4.700  -1.996  1.00  0.00     0.188 C 
ENDROOT
BRANCH   1   2
ATOM      2  C   UNL     1       0.257   5.920  -1.764  1.00  0.00     0.188 C 
BRANCH   2   3
ATOM      3  O   UNL     1       0.808   7.219  -1.598  1.00  0.00    -0.376 OA
BRANCH   3   4
ATOM      4  C   UNL     1       2.044   7.377  -0.919  1.00  0.00     0.202 C 
BRANCH   4   5
ATOM      5  C   UNL     1       2.255   6.729   0.463  1.00  0.00     0.261 C 
BRANCH   5   6
ATOM      6  O   UNL     1       1.848   5.351   0.600  1.00  0.00    -0.462 OA
BRANCH   6   7
ATOM      7  C   UNL     1       0.720   5.114   1.318  1.00  0.00     0.329 C 
ATOM      8  O   UNL     1       0.077   5.990   1.890  1.00  0.00    -0.250 OA
BRANCH   7   9
ATOM      9  C   UNL     1       0.390   3.605   1.510  1.00  0.00     0.196 C 
BRANCH   9  10
ATOM     10  C   UNL     1       1.045   3.239   2.877  1.00  0.00     0.019 C 
ATOM     11  C   UNL     1       0.315   2.070   3.538  1.00  0.00     0.010 C 
BRANCH  10  12
ATOM     12  C   UNL     1       2.562   2.956   2.764  1.00  0.00     0.002 C 
ATOM     13  C   UNL     1       3.322   3.413   4.001  1.00  0.00     0.004 C 
ENDBRANCH  10  12
ENDBRANCH   9  10
BRANCH   9  14
ATOM     14  N   UNL     1       0.728   2.590   0.482  1.00  0.00    -0.324 N 
ATOM     15  C   UNL     1      -0.014   1.707  -0.242  1.00  0.00     0.318 C 
ATOM     16  H   UNL     1       1.691   2.546   0.280  1.00  0.00     0.166 HD
ATOM     17  O   UNL     1       0.544   0.658  -0.568  1.00  0.00    -0.249 OA
BRANCH  15  18
ATOM     18  N   UNL     1      -1.318   1.971  -0.589  1.00  0.00    -0.313 N 
ATOM     19  C   UNL     1      -1.802   3.297  -0.971  1.00  0.00     0.127 C 
ATOM     20  C   UNL     1      -2.225   0.813  -0.864  1.00  0.00     0.148 C 
ATOM     21  C   UNL     1      -3.321   3.439  -1.047  1.00  0.00     0.057 C 
ATOM     22  C   UNL     1      -3.276   1.121  -1.950  1.00  0.00    -0.014 A 
ATOM     23  C   UNL     1      -3.858   2.394  -1.979  1.00  0.00    -0.037 A 
ATOM     24  C   UNL     1      -3.742   0.149  -2.863  1.00  0.00     0.057 A 
ATOM     25  C   UNL     1      -4.918   2.665  -2.847  1.00  0.00     0.054 A 
ATOM     26  C   UNL     1      -4.804   0.421  -3.755  1.00  0.00     0.161 A 
ATOM     27  C   UNL     1      -5.407   1.692  -3.729  1.00  0.00     0.161 A 
BRANCH  20  28
ATOM     28  C   UNL     1      -2.908   0.374   0.455  1.00  0.00    -0.021 A 
ATOM     29  C   UNL     1      -3.742  -0.755   0.503  1.00  0.00     0.009 A 
ATOM     30  C   UNL     1      -2.735   1.104   1.649  1.00  0.00     0.009 A 
ATOM     31  C   UNL     1      -4.385  -1.117   1.693  1.00  0.00     0.039 A 
ATOM     32  C   UNL     1      -3.358   0.737   2.838  1.00  0.00     0.039 A 
ATOM     33  C   UNL     1      -4.185  -0.370   2.847  1.00  0.00     0.123 A 
ATOM     34  F   UNL     1      -4.801  -0.718   3.983  1.00  0.00    -0.207 F 
ENDBRANCH  20  28
BRANCH  26  35
ATOM     35  O   UNL     1      -5.294  -0.489  -4.651  1.00  0.00    -0.493 OA
ATOM     36  C   UNL     1      -4.719  -1.785  -4.712  1.00  0.00     0.278 C 
ENDBRANCH  26  35
BRANCH  27  37
ATOM     37  O   UNL     1      -6.451   2.168  -4.480  1.00  0.00    -0.493 OA
ATOM     38  C   UNL     1      -7.172   1.283  -5.323  1.00  0.00     0.278 C 
ENDBRANCH  27  37
ENDBRANCH  15  18
ENDBRANCH   9  14
ENDBRANCH   7   9
ENDBRANCH   6   7
ENDBRANCH   5   6
ENDBRANCH   4   5
ENDBRANCH   3   4
ENDBRANCH   2   3
ENDBRANCH   1   2
BRANCH   1  39
ATOM     39  O   UNL     1       2.550   4.993  -2.085  1.00  0.00    -0.377 OA
BRANCH  39  40
ATOM     40  C   UNL     1       3.061   5.082  -3.402  1.00  0.00     0.188 C 
BRANCH  40  41
ATOM     41  C   UNL     1       2.180   5.813  -4.432  1.00  0.00     0.188 C 
BRANCH  41  42
ATOM     42  O   UNL     1       0.863   5.282  -4.544  1.00  0.00    -0.376 OA
BRANCH  42  43
ATOM     43  C   UNL     1       0.574   4.346  -5.572  1.00  0.00     0.202 C 
BRANCH  43  44
ATOM     44  C   UNL     1       1.199   2.943  -5.467  1.00  0.00     0.261 C 
BRANCH  44  45
ATOM     45  O   UNL     1       2.633   2.877  -5.422  1.00  0.00    -0.460 OA
BRANCH  45  46
ATOM     46  C   UNL     1       3.333   3.465  -6.413  1.00  0.00     0.338 C 
ATOM     47  O   UNL     1       2.889   3.994  -7.418  1.00  0.00    -0.246 OA
BRANCH  46  48
ATOM     48  C   UNL     1       4.739   3.564  -5.967  1.00  0.00     0.060 A 
ATOM     49  C   UNL     1       5.334   4.830  -5.888  1.00  0.00     0.016 A 
ATOM     50  C   UNL     1       5.454   2.422  -5.595  1.00  0.00     0.016 A 
ATOM     51  C   UNL     1       6.655   4.958  -5.463  1.00  0.00     0.010 A 
ATOM     52  C   UNL     1       6.790   2.547  -5.206  1.00  0.00     0.010 A 
ATOM     53  C   UNL     1       7.404   3.811  -5.172  1.00  0.00    -0.014 A 
BRANCH  53  54
ATOM     54  C   UNL     1       8.877   3.917  -5.066  1.00  0.00     0.031 A 
ATOM     55  C   UNL     1       9.689   3.645  -6.302  1.00  0.00     0.074 A 
ATOM     56  C   UNL     1       9.479   4.280  -3.921  1.00  0.00     0.049 A 
ATOM     57  N   UNL     1      10.987   3.623  -6.455  1.00  0.00    -0.248 NA
ATOM     58  C   UNL     1       8.932   3.361  -7.534  1.00  0.00     0.031 C 
ATOM     59  C   UNL     1       8.796   4.629  -2.678  1.00  0.00     0.029 A 
ATOM     60  N   UNL     1      10.813   4.411  -3.622  1.00  0.00    -0.354 N 
ATOM     61  C   UNL     1      11.200   3.321  -7.794  1.00  0.00     0.074 A 
ATOM     62  C   UNL     1       9.903   3.138  -8.405  1.00  0.00     0.031 C 
ATOM     63  C   UNL     1       9.717   4.927  -1.745  1.00  0.00     0.029 A 
ATOM     64  C   UNL     1      11.053   4.753  -2.314  1.00  0.00     0.049 A 
ATOM     65  H   UNL     1      11.529   4.273  -4.283  1.00  0.00     0.167 HD
ATOM     66  C   UNL     1      12.374   3.216  -8.455  1.00  0.00     0.037 A 
ATOM     67  C   UNL     1      12.220   4.888  -1.651  1.00  0.00     0.037 A 
ATOM     68  C   UNL     1      13.662   3.400  -7.843  1.00  0.00     0.049 A 
ATOM     69  C   UNL     1      13.517   4.673  -2.389  1.00  0.00     0.074 A 
ATOM     70  C   UNL     1      14.911   3.320  -8.431  1.00  0.00     0.029 A 
ATOM     71  N   UNL     1      13.864   3.696  -6.503  1.00  0.00    -0.354 N 
ATOM     72  N   UNL     1      13.712   4.393  -3.655  1.00  0.00    -0.248 NA
ATOM     73  C   UNL     1      14.757   4.791  -1.607  1.00  0.00     0.031 C 
ATOM     74  C   UNL     1      15.871   3.509  -7.435  1.00  0.00     0.029 A 
ATOM     75  C   UNL     1      15.220   3.773  -6.240  1.00  0.00     0.049 A 
ATOM     76  H   UNL     1      13.150   3.830  -5.839  1.00  0.00     0.167 HD
ATOM     77  C   UNL     1      15.090   4.331  -3.828  1.00  0.00     0.074 A 
ATOM     78  C   UNL     1      15.685   4.612  -2.538  1.00  0.00     0.031 C 
ATOM     79  C   UNL     1      15.798   4.067  -4.953  1.00  0.00     0.037 A 
BRANCH  66  80
ATOM     80  C   UNL     1      12.329   2.868  -9.913  1.00  0.00     0.057 A 
ATOM     81  C   UNL     1      12.791   1.624 -10.362  1.00  0.00     0.134 A 
ATOM     82  C   UNL     1      11.898   3.785 -10.880  1.00  0.00     0.134 A 
ATOM     83  F   UNL     1      13.218   0.700  -9.488  1.00  0.00    -0.206 F 
ATOM     84  C   UNL     1      12.848   1.313 -11.721  1.00  0.00     0.040 A 
ATOM     85  C   UNL     1      11.924   3.476 -12.240  1.00  0.00     0.040 A 
ATOM     86  F   UNL     1      11.425   4.986 -10.514  1.00  0.00    -0.206 F 
ATOM     87  C   UNL     1      12.413   2.241 -12.665  1.00  0.00     0.006 A 
ENDBRANCH  66  80
BRANCH  67  88
ATOM     88  C   UNL     1      12.215   5.237  -0.207  1.00  0.00     0.057 A 
ATOM     89  C   UNL     1      11.733   4.344   0.759  1.00  0.00     0.134 A 
ATOM     90  C   UNL     1      12.691   6.473   0.243  1.00  0.00     0.134 A 
ATOM     91  F   UNL     1      11.266   3.140   0.396  1.00  0.00    -0.206 F 
ATOM     92  C   UNL     1      11.707   4.675   2.115  1.00  0.00     0.040 A 
ATOM     93  C   UNL     1      12.696   6.807   1.599  1.00  0.00     0.040 A 
ATOM     94  F   UNL     1      13.190   7.362  -0.629  1.00  0.00    -0.206 F 
ATOM     95  C   UNL     1      12.194   5.909   2.539  1.00  0.00     0.006 A 
ENDBRANCH  67  88
BRANCH  79  96
ATOM     96  C   UNL     1      17.297   4.098  -4.867  1.00  0.00     0.057 A 
ATOM     97  C   UNL     1      18.026   5.098  -5.527  1.00  0.00     0.134 A 
ATOM     98  C   UNL     1      18.022   3.088  -4.224  1.00  0.00     0.134 A 
ATOM     99  F   UNL     1      17.393   6.087  -6.177  1.00  0.00    -0.206 F 
ATOM    100  C   UNL     1      19.420   5.080  -5.567  1.00  0.00     0.040 A 
ATOM    101  C   UNL     1      19.419   3.076  -4.232  1.00  0.00     0.040 A 
ATOM    102  F   UNL     1      17.386   2.106  -3.569  1.00  0.00    -0.206 F 
ATOM    103  C   UNL     1      20.121   4.067  -4.916  1.00  0.00     0.006 A 
ENDBRANCH  79  96
ENDBRANCH  53  54
ENDBRANCH  46  48
ENDBRANCH  45  46
ENDBRANCH  44  45
ENDBRANCH  43  44
ENDBRANCH  42  43
ENDBRANCH  41  42
ENDBRANCH  40  41
ENDBRANCH  39  40
ENDBRANCH   1  39
TORSDOF 27
