REMARK SMILES Cc1cc(F)cc(N[C@H](C(=O)OCCOCCOCCOCCOC(=O)c2ccc(-c3c4nc(c(-c5c(F)cccc5F)c5ccc([nH]5)c(-c5c(F)cccc5F)c5nc(c(-c6c(F)cccc6F)c6ccc3[nH]6)C=C5)C=C4)cc2)c2cc(C)cc(C)c2)c1
REMARK SMILES IDX 18 1 17 2 16 3 15 4 14 5 13 6 12 7 10 8 11 9 9 10 8 11 7 13
REMARK SMILES IDX 1 14 2 15 3 16 89 17 4 18 5 19 6 20 81 21 82 22 88 23 83 24
REMARK SMILES IDX 86 25 84 26 85 27 87 28 19 29 20 30 21 31 22 32 23 33 24 34
REMARK SMILES IDX 25 35 26 36 27 37 28 38 80 39 29 40 79 41 30 42 31 43 32 44
REMARK SMILES IDX 73 45 33 46 78 47 72 48 74 49 34 50 77 51 71 52 70 53 35 55
REMARK SMILES IDX 61 56 44 57 60 58 45 59 48 60 59 61 75 62 46 63 47 64 58 66
REMARK SMILES IDX 76 67 49 68 36 69 37 70 42 71 38 72 39 73 41 74 43 75 40 76
REMARK SMILES IDX 62 77 63 78 68 79 64 80 65 81 67 82 69 83 66 84 50 85 51 86
REMARK SMILES IDX 56 87 52 88 53 89 55 90 57 91 54 92
REMARK H PARENT 8 12 74 54 48 65
REMARK Flexibility Score: inf
ROOT
ATOM      1  O   UNL     1       0.077  -1.014  -2.362  1.00  0.00    -0.377 OA
ENDROOT
BRANCH   1   2
ATOM      2  C   UNL     1      -0.210  -1.435  -1.031  1.00  0.00     0.188 C 
BRANCH   2   3
ATOM      3  C   UNL     1       0.755  -1.216   0.166  1.00  0.00     0.188 C 
BRANCH   3   4
ATOM      4  O   UNL     1       2.130  -1.110  -0.165  1.00  0.00    -0.376 OA
BRANCH   4   5
ATOM      5  C   UNL     1       3.044  -2.160   0.071  1.00  0.00     0.202 C 
BRANCH   5   6
ATOM      6  C   UNL     1       2.842  -3.441  -0.753  1.00  0.00     0.261 C 
BRANCH   6   7
ATOM      7  O   UNL     1       1.514  -3.970  -0.705  1.00  0.00    -0.461 OA
BRANCH   7   8
ATOM      8  C   UNL     1       1.107  -4.322   0.547  1.00  0.00     0.333 C 
ATOM      9  O   UNL     1       1.806  -4.155   1.541  1.00  0.00    -0.249 OA
BRANCH   8  10
ATOM     10  C   UNL     1      -0.358  -4.811   0.560  1.00  0.00     0.221 C 
BRANCH  10  11
ATOM     11  N   UNL     1      -0.695  -5.639  -0.625  1.00  0.00    -0.369 N 
ATOM     12  H   UNL     1      -1.432  -5.312  -1.191  1.00  0.00     0.161 HD
BRANCH  11  13
ATOM     13  C   UNL     1      -0.091  -6.821  -1.026  1.00  0.00     0.038 A 
ATOM     14  C   UNL     1      -0.226  -9.244  -4.004  1.00  0.00     0.044 C 
ATOM     15  C   UNL     1       0.128  -8.628  -2.685  1.00  0.00    -0.046 A 
ATOM     16  C   UNL     1       0.997  -9.319  -1.840  1.00  0.00     0.042 A 
ATOM     17  C   UNL     1      -0.426  -7.399  -2.263  1.00  0.00     0.029 A 
ATOM     18  C   UNL     1       1.328  -8.764  -0.625  1.00  0.00     0.125 A 
ATOM     19  F   UNL     1       2.158  -9.409   0.205  1.00  0.00    -0.207 F 
ATOM     20  C   UNL     1       0.811  -7.535  -0.243  1.00  0.00     0.065 A 
ENDBRANCH  11  13
ENDBRANCH  10  11
BRANCH  10  21
ATOM     21  C   UNL     1      -0.765  -5.452   1.881  1.00  0.00    -0.014 A 
ATOM     22  C   UNL     1       0.171  -6.183   2.624  1.00  0.00     0.010 A 
ATOM     23  C   UNL     1      -2.067  -5.369   2.384  1.00  0.00     0.010 A 
ATOM     24  C   UNL     1      -0.188  -7.006   3.677  1.00  0.00    -0.051 A 
ATOM     25  C   UNL     1      -2.413  -6.056   3.560  1.00  0.00    -0.051 A 
ATOM     26  C   UNL     1       0.807  -8.039   4.108  1.00  0.00     0.044 C 
ATOM     27  C   UNL     1      -1.487  -6.929   4.157  1.00  0.00     0.006 A 
ATOM     28  C   UNL     1      -3.776  -5.912   4.169  1.00  0.00     0.044 C 
ENDBRANCH  10  21
ENDBRANCH   8  10
ENDBRANCH   7   8
ENDBRANCH   6   7
ENDBRANCH   5   6
ENDBRANCH   4   5
ENDBRANCH   3   4
ENDBRANCH   2   3
ENDBRANCH   1   2
BRANCH   1  29
ATOM     29  C   UNL     1       1.411  -0.657  -2.689  1.00  0.00     0.188 C 
BRANCH  29  30
ATOM     30  C   UNL     1       1.859   0.701  -2.113  1.00  0.00     0.188 C 
BRANCH  30  31
ATOM     31  O   UNL     1       0.934   1.223  -1.174  1.00  0.00    -0.376 OA
BRANCH  31  32
ATOM     32  C   UNL     1      -0.054   2.132  -1.620  1.00  0.00     0.202 C 
BRANCH  32  33
ATOM     33  C   UNL     1      -0.855   1.903  -2.916  1.00  0.00     0.261 C 
BRANCH  33  34
ATOM     34  O   UNL     1      -0.163   1.392  -4.064  1.00  0.00    -0.460 OA
BRANCH  34  35
ATOM     35  C   UNL     1       0.737   2.182  -4.682  1.00  0.00     0.338 C 
ATOM     36  O   UNL     1       1.043   3.326  -4.388  1.00  0.00    -0.246 OA
BRANCH  35  37
ATOM     37  C   UNL     1       1.452   1.334  -5.663  1.00  0.00     0.060 A 
ATOM     38  C   UNL     1       2.831   1.114  -5.513  1.00  0.00     0.016 A 
ATOM     39  C   UNL     1       0.750   0.716  -6.700  1.00  0.00     0.016 A 
ATOM     40  C   UNL     1       3.513   0.295  -6.414  1.00  0.00     0.010 A 
ATOM     41  C   UNL     1       1.439  -0.074  -7.622  1.00  0.00     0.010 A 
ATOM     42  C   UNL     1       2.828  -0.262  -7.501  1.00  0.00    -0.014 A 
BRANCH  42  43
ATOM     43  C   UNL     1       3.587  -0.850  -8.629  1.00  0.00     0.031 A 
ATOM     44  C   UNL     1       3.864   0.025  -9.820  1.00  0.00     0.074 A 
ATOM     45  C   UNL     1       4.024  -2.121  -8.604  1.00  0.00     0.049 A 
ATOM     46  N   UNL     1       4.418  -0.276 -10.966  1.00  0.00    -0.248 NA
ATOM     47  C   UNL     1       3.452   1.434  -9.701  1.00  0.00     0.031 C 
ATOM     48  C   UNL     1       3.866  -3.050  -7.489  1.00  0.00     0.029 A 
ATOM     49  N   UNL     1       4.680  -2.851  -9.564  1.00  0.00    -0.354 N 
ATOM     50  C   UNL     1       4.410   0.900 -11.705  1.00  0.00     0.074 A 
ATOM     51  C   UNL     1       3.772   1.911 -10.893  1.00  0.00     0.031 C 
ATOM     52  C   UNL     1       4.394  -4.238  -7.835  1.00  0.00     0.029 A 
ATOM     53  C   UNL     1       4.888  -4.162  -9.209  1.00  0.00     0.049 A 
ATOM     54  H   UNL     1       4.973  -2.472 -10.424  1.00  0.00     0.167 HD
ATOM     55  C   UNL     1       4.895   1.117 -12.950  1.00  0.00     0.037 A 
ATOM     56  C   UNL     1       5.391  -5.185  -9.928  1.00  0.00     0.037 A 
ATOM     57  C   UNL     1       5.522   0.105 -13.757  1.00  0.00     0.049 A 
ATOM     58  C   UNL     1       5.840  -4.941 -11.347  1.00  0.00     0.074 A 
ATOM     59  C   UNL     1       6.061   0.227 -15.025  1.00  0.00     0.029 A 
ATOM     60  N   UNL     1       5.683  -1.219 -13.377  1.00  0.00    -0.354 N 
ATOM     61  N   UNL     1       5.849  -3.824 -12.034  1.00  0.00    -0.248 NA
ATOM     62  C   UNL     1       6.346  -6.103 -12.092  1.00  0.00     0.031 C 
ATOM     63  C   UNL     1       6.492  -1.038 -15.437  1.00  0.00     0.029 A 
ATOM     64  C   UNL     1       6.282  -1.933 -14.401  1.00  0.00     0.049 A 
ATOM     65  H   UNL     1       5.412  -1.595 -12.508  1.00  0.00     0.167 HD
ATOM     66  C   UNL     1       6.387  -4.141 -13.277  1.00  0.00     0.074 A 
ATOM     67  C   UNL     1       6.707  -5.553 -13.243  1.00  0.00     0.031 C 
ATOM     68  C   UNL     1       6.598  -3.339 -14.349  1.00  0.00     0.037 A 
BRANCH  55  69
ATOM     69  C   UNL     1       4.731   2.494 -13.524  1.00  0.00     0.057 A 
ATOM     70  C   UNL     1       5.450   3.594 -13.038  1.00  0.00     0.134 A 
ATOM     71  C   UNL     1       3.857   2.717 -14.596  1.00  0.00     0.134 A 
ATOM     72  F   UNL     1       6.290   3.454 -12.001  1.00  0.00    -0.206 F 
ATOM     73  C   UNL     1       5.287   4.870 -13.581  1.00  0.00     0.040 A 
ATOM     74  C   UNL     1       3.709   3.982 -15.167  1.00  0.00     0.040 A 
ATOM     75  F   UNL     1       3.139   1.708 -15.111  1.00  0.00    -0.206 F 
ATOM     76  C   UNL     1       4.420   5.064 -14.654  1.00  0.00     0.006 A 
ENDBRANCH  55  69
BRANCH  56  77
ATOM     77  C   UNL     1       5.474  -6.546  -9.336  1.00  0.00     0.057 A 
ATOM     78  C   UNL     1       6.709  -7.153  -9.081  1.00  0.00     0.134 A 
ATOM     79  C   UNL     1       4.322  -7.286  -9.043  1.00  0.00     0.134 A 
ATOM     80  F   UNL     1       7.850  -6.507  -9.366  1.00  0.00    -0.206 F 
ATOM     81  C   UNL     1       6.797  -8.452  -8.577  1.00  0.00     0.040 A 
ATOM     82  C   UNL     1       4.394  -8.575  -8.511  1.00  0.00     0.040 A 
ATOM     83  F   UNL     1       3.106  -6.765  -9.265  1.00  0.00    -0.206 F 
ATOM     84  C   UNL     1       5.636  -9.165  -8.285  1.00  0.00     0.006 A 
ENDBRANCH  56  77
BRANCH  68  85
ATOM     85  C   UNL     1       7.237  -3.955 -15.562  1.00  0.00     0.057 A 
ATOM     86  C   UNL     1       6.555  -4.864 -16.380  1.00  0.00     0.134 A 
ATOM     87  C   UNL     1       8.538  -3.597 -15.941  1.00  0.00     0.134 A 
ATOM     88  F   UNL     1       5.311  -5.259 -16.069  1.00  0.00    -0.206 F 
ATOM     89  C   UNL     1       7.152  -5.414 -17.517  1.00  0.00     0.040 A 
ATOM     90  C   UNL     1       9.133  -4.114 -17.093  1.00  0.00     0.040 A 
ATOM     91  F   UNL     1       9.245  -2.721 -15.210  1.00  0.00    -0.206 F 
ATOM     92  C   UNL     1       8.442  -5.032 -17.880  1.00  0.00     0.006 A 
ENDBRANCH  68  85
ENDBRANCH  42  43
ENDBRANCH  35  37
ENDBRANCH  34  35
ENDBRANCH  33  34
ENDBRANCH  32  33
ENDBRANCH  31  32
ENDBRANCH  30  31
ENDBRANCH  29  30
ENDBRANCH   1  29
TORSDOF 23
