REMARK SMILES C[N@@H+](CC(=O)OCCOCCOCCOCCOC(=O)c1ccc(-c2c3nc(c(-c4c(F)cccc4F)c4ccc([nH]4)c(-c4c(F)cccc4F)c4nc(c(-c5c(F)cccc5F)c5ccc2[nH]5)C=C4)C=C3)cc1)Cc1csc(-c2ccco2)n1
REMARK SMILES IDX 11 1 10 2 9 3 8 4 7 5 6 6 4 7 5 8 3 9 2 10 1 11 75 13 76 14
REMARK SMILES IDX 77 15 85 16 78 17 79 18 80 19 81 20 84 21 82 22 83 23 12 24
REMARK SMILES IDX 13 25 14 26 15 27 16 28 17 29 18 30 19 31 20 32 21 33 22 34
REMARK SMILES IDX 74 35 23 36 73 37 24 38 25 39 26 40 67 41 27 42 72 43 66 44
REMARK SMILES IDX 68 45 28 46 71 47 65 48 64 49 29 51 55 52 38 53 54 54 39 55
REMARK SMILES IDX 42 56 53 57 69 58 40 59 41 60 52 62 70 63 43 64 30 65 31 66
REMARK SMILES IDX 36 67 32 68 33 69 35 70 37 71 34 72 56 73 57 74 62 75 58 76
REMARK SMILES IDX 59 77 61 78 63 79 60 80 44 81 45 82 50 83 46 84 47 85 49 86
REMARK SMILES IDX 51 87 48 88
REMARK H PARENT 2 12 68 50 42 61
REMARK Flexibility Score: inf
ROOT
ATOM      1  C   UNL     1      -1.542  -3.102   0.155  1.00  0.00     0.188 C 
ENDROOT
BRANCH   1   2
ATOM      2  C   UNL     1      -3.139  -3.078  -0.298  1.00  0.00     0.188 C 
BRANCH   2   3
ATOM      3  O   UNL     1      -3.615  -2.692  -1.568  1.00  0.00    -0.376 OA
BRANCH   3   4
ATOM      4  C   UNL     1      -3.398  -1.406  -2.127  1.00  0.00     0.202 C 
BRANCH   4   5
ATOM      5  C   UNL     1      -3.255  -0.144  -1.278  1.00  0.00     0.261 C 
BRANCH   5   6
ATOM      6  O   UNL     1      -2.017  -0.076  -0.543  1.00  0.00    -0.459 OA
BRANCH   6   7
ATOM      7  C   UNL     1      -2.122   0.209   0.779  1.00  0.00     0.361 C 
ATOM      8  O   UNL     1      -3.198   0.438   1.332  1.00  0.00    -0.245 OA
BRANCH   7   9
ATOM      9  C   UNL     1      -0.825   0.216   1.598  1.00  0.00     0.386 C 
BRANCH   9  10
ATOM     10  N   UNL     1       0.460  -0.171   1.009  1.00  0.00    -0.323 N 
ATOM     11  C   UNL     1       0.893   0.500  -0.193  1.00  0.00     0.333 C 
ATOM     12  H   UNL     1       1.005   0.339   1.705  1.00  0.00     0.348 HD
BRANCH  10  13
ATOM     13  C   UNL     1       1.054  -1.474   1.319  1.00  0.00     0.320 C 
BRANCH  13  14
ATOM     14  C   UNL     1       0.418  -2.629   0.604  1.00  0.00     0.106 A 
ATOM     15  C   UNL     1      -0.017  -4.208   1.233  1.00  0.00     0.097 A 
ATOM     16  N   UNL     1      -0.289  -2.334  -1.126  1.00  0.00    -0.232 NA
ATOM     17  S   UNL     1      -1.333  -5.365  -0.294  1.00  0.00    -0.119 S 
ATOM     18  C   UNL     1      -1.147  -3.603  -1.790  1.00  0.00     0.159 A 
BRANCH  18  19
ATOM     19  C   UNL     1      -1.390  -3.741  -3.204  1.00  0.00     0.162 A 
ATOM     20  C   UNL     1      -0.839  -2.909  -4.174  1.00  0.00     0.053 A 
ATOM     21  O   UNL     1      -2.230  -4.629  -3.810  1.00  0.00    -0.462 OA
ATOM     22  C   UNL     1      -1.415  -3.263  -5.409  1.00  0.00     0.043 A 
ATOM     23  C   UNL     1      -2.257  -4.313  -5.134  1.00  0.00     0.196 A 
ENDBRANCH  18  19
ENDBRANCH  13  14
ENDBRANCH  10  13
ENDBRANCH   9  10
ENDBRANCH   7   9
ENDBRANCH   6   7
ENDBRANCH   5   6
ENDBRANCH   4   5
ENDBRANCH   3   4
ENDBRANCH   2   3
ENDBRANCH   1   2
BRANCH   1  24
ATOM     24  O   UNL     1       0.126  -4.037  -0.583  1.00  0.00    -0.377 OA
BRANCH  24  25
ATOM     25  C   UNL     1       1.336  -3.912  -1.483  1.00  0.00     0.188 C 
BRANCH  25  26
ATOM     26  C   UNL     1       1.488  -5.259  -2.236  1.00  0.00     0.188 C 
BRANCH  26  27
ATOM     27  O   UNL     1       1.986  -6.416  -1.565  1.00  0.00    -0.376 OA
BRANCH  27  28
ATOM     28  C   UNL     1       2.777  -6.233  -0.406  1.00  0.00     0.202 C 
BRANCH  28  29
ATOM     29  C   UNL     1       4.226  -5.783  -0.626  1.00  0.00     0.261 C 
BRANCH  29  30
ATOM     30  O   UNL     1       4.375  -4.792  -1.649  1.00  0.00    -0.460 OA
BRANCH  30  31
ATOM     31  C   UNL     1       4.617  -5.290  -2.887  1.00  0.00     0.338 C 
ATOM     32  O   UNL     1       4.779  -6.451  -3.214  1.00  0.00    -0.246 OA
BRANCH  31  33
ATOM     33  C   UNL     1       4.527  -4.177  -3.846  1.00  0.00     0.060 A 
ATOM     34  C   UNL     1       3.655  -4.289  -4.941  1.00  0.00     0.016 A 
ATOM     35  C   UNL     1       5.339  -3.054  -3.684  1.00  0.00     0.016 A 
ATOM     36  C   UNL     1       3.605  -3.282  -5.897  1.00  0.00     0.010 A 
ATOM     37  C   UNL     1       5.333  -2.074  -4.670  1.00  0.00     0.010 A 
ATOM     38  C   UNL     1       4.504  -2.216  -5.798  1.00  0.00    -0.014 A 
BRANCH  38  39
ATOM     39  C   UNL     1       4.864  -1.456  -7.009  1.00  0.00     0.031 A 
ATOM     40  C   UNL     1       5.972  -2.023  -7.851  1.00  0.00     0.074 A 
ATOM     41  C   UNL     1       4.286  -0.281  -7.299  1.00  0.00     0.049 A 
ATOM     42  N   UNL     1       6.651  -1.469  -8.818  1.00  0.00    -0.248 NA
ATOM     43  C   UNL     1       6.386  -3.405  -7.540  1.00  0.00     0.031 C 
ATOM     44  C   UNL     1       3.163   0.313  -6.578  1.00  0.00     0.029 A 
ATOM     45  N   UNL     1       4.599   0.639  -8.264  1.00  0.00    -0.354 N 
ATOM     46  C   UNL     1       7.579  -2.425  -9.212  1.00  0.00     0.074 A 
ATOM     47  C   UNL     1       7.390  -3.587  -8.379  1.00  0.00     0.031 C 
ATOM     48  C   UNL     1       2.905   1.525  -7.104  1.00  0.00     0.029 A 
ATOM     49  C   UNL     1       3.879   1.803  -8.158  1.00  0.00     0.049 A 
ATOM     50  H   UNL     1       5.274   0.481  -8.963  1.00  0.00     0.167 HD
ATOM     51  C   UNL     1       8.517  -2.332 -10.181  1.00  0.00     0.037 A 
ATOM     52  C   UNL     1       4.037   2.970  -8.811  1.00  0.00     0.037 A 
ATOM     53  C   UNL     1       8.705  -1.153 -10.978  1.00  0.00     0.049 A 
ATOM     54  C   UNL     1       5.146   3.086  -9.827  1.00  0.00     0.074 A 
ATOM     55  C   UNL     1       9.628  -0.925 -11.979  1.00  0.00     0.029 A 
ATOM     56  N   UNL     1       7.951   0.004 -10.846  1.00  0.00    -0.354 N 
ATOM     57  N   UNL     1       6.027   2.185 -10.198  1.00  0.00    -0.248 NA
ATOM     58  C   UNL     1       5.292   4.379 -10.508  1.00  0.00     0.031 C 
ATOM     59  C   UNL     1       9.462   0.390 -12.423  1.00  0.00     0.029 A 
ATOM     60  C   UNL     1       8.397   0.959 -11.739  1.00  0.00     0.049 A 
ATOM     61  H   UNL     1       7.209   0.127 -10.210  1.00  0.00     0.167 HD
ATOM     62  C   UNL     1       6.801   2.787 -11.182  1.00  0.00     0.074 A 
ATOM     63  C   UNL     1       6.289   4.132 -11.347  1.00  0.00     0.031 C 
ATOM     64  C   UNL     1       7.837   2.277 -11.893  1.00  0.00     0.037 A 
BRANCH  51  65
ATOM     65  C   UNL     1       9.420  -3.511 -10.384  1.00  0.00     0.057 A 
ATOM     66  C   UNL     1       8.957  -4.717 -10.925  1.00  0.00     0.134 A 
ATOM     67  C   UNL     1      10.772  -3.443 -10.023  1.00  0.00     0.134 A 
ATOM     68  F   UNL     1       7.666  -4.858 -11.266  1.00  0.00    -0.206 F 
ATOM     69  C   UNL     1       9.799  -5.820 -11.080  1.00  0.00     0.040 A 
ATOM     70  C   UNL     1      11.630  -4.529 -10.199  1.00  0.00     0.040 A 
ATOM     71  F   UNL     1      11.280  -2.321  -9.491  1.00  0.00    -0.206 F 
ATOM     72  C   UNL     1      11.142  -5.724 -10.723  1.00  0.00     0.006 A 
ENDBRANCH  51  65
BRANCH  52  73
ATOM     73  C   UNL     1       3.152   4.123  -8.509  1.00  0.00     0.057 A 
ATOM     74  C   UNL     1       2.232   4.595  -9.452  1.00  0.00     0.134 A 
ATOM     75  C   UNL     1       3.208   4.790  -7.278  1.00  0.00     0.134 A 
ATOM     76  F   UNL     1       2.144   4.012 -10.657  1.00  0.00    -0.206 F 
ATOM     77  C   UNL     1       1.413   5.695  -9.192  1.00  0.00     0.040 A 
ATOM     78  C   UNL     1       2.377   5.876  -6.994  1.00  0.00     0.040 A 
ATOM     79  F   UNL     1       4.065   4.388  -6.328  1.00  0.00    -0.206 F 
ATOM     80  C   UNL     1       1.481   6.336  -7.956  1.00  0.00     0.006 A 
ENDBRANCH  52  73
BRANCH  64  81
ATOM     81  C   UNL     1       8.439   3.141 -12.960  1.00  0.00     0.057 A 
ATOM     82  C   UNL     1       9.286   4.212 -12.658  1.00  0.00     0.134 A 
ATOM     83  C   UNL     1       8.240   2.826 -14.311  1.00  0.00     0.134 A 
ATOM     84  F   UNL     1       9.508   4.567 -11.383  1.00  0.00    -0.206 F 
ATOM     85  C   UNL     1       9.911   4.948 -13.666  1.00  0.00     0.040 A 
ATOM     86  C   UNL     1       8.880   3.537 -15.325  1.00  0.00     0.040 A 
ATOM     87  F   UNL     1       7.449   1.801 -14.662  1.00  0.00    -0.206 F 
ATOM     88  C   UNL     1       9.717   4.602 -15.003  1.00  0.00     0.006 A 
ENDBRANCH  64  81
ENDBRANCH  38  39
ENDBRANCH  31  33
ENDBRANCH  30  31
ENDBRANCH  29  30
ENDBRANCH  28  29
ENDBRANCH  27  28
ENDBRANCH  26  27
ENDBRANCH  25  26
ENDBRANCH  24  25
ENDBRANCH   1  24
TORSDOF 24
