REMARK SMILES O=C(OCCOCCOCCOCCOC(=O)[C@@H](Cc1c[nH]c2ccccc12)Nc1ncnc2ccccc12)c1ccc(-c2c3nc(c(-c4c(F)cccc4F)c4ccc([nH]4)c(-c4c(F)cccc4F)c4nc(c(-c5c(F)cccc5F)c5ccc2[nH]5)C=C4)C=C3)cc1
REMARK SMILES IDX 9 1 8 2 7 3 6 4 5 5 4 6 3 7 2 8 1 9 40 10 41 11 93 12 42 13
REMARK SMILES IDX 92 14 43 15 44 16 45 17 86 18 46 19 91 20 85 21 87 22 47 23
REMARK SMILES IDX 90 24 84 25 83 26 48 28 74 29 57 30 73 31 58 32 61 33 72 34
REMARK SMILES IDX 88 35 59 36 60 37 71 39 89 40 62 41 49 42 50 43 55 44 51 45
REMARK SMILES IDX 52 46 54 47 56 48 53 49 75 50 76 51 81 52 77 53 78 54 80 55
REMARK SMILES IDX 82 56 79 57 63 58 64 59 69 60 65 61 66 62 68 63 70 64 67 65
REMARK SMILES IDX 10 66 11 67 12 68 13 69 14 70 15 71 16 72 17 73 18 74 19 75
REMARK SMILES IDX 20 76 21 77 28 78 22 79 23 80 27 81 24 83 26 84 25 85 29 86
REMARK SMILES IDX 30 88 31 89 39 90 32 91 34 92 38 93 33 94 35 95 37 96 36 97
REMARK H PARENT 87 27 61 38 22 82 29 87
REMARK Flexibility Score: inf
ROOT
ATOM      1  O   UNL     1       3.872   2.403   2.606  1.00  0.00    -0.377 OA
ENDROOT
BRANCH   1   2
ATOM      2  C   UNL     1       2.821   1.587   2.114  1.00  0.00     0.188 C 
BRANCH   2   3
ATOM      3  C   UNL     1       2.961   1.162   0.671  1.00  0.00     0.188 C 
BRANCH   3   4
ATOM      4  O   UNL     1       4.226   0.556   0.450  1.00  0.00    -0.376 OA
BRANCH   4   5
ATOM      5  C   UNL     1       4.898   1.060  -0.699  1.00  0.00     0.202 C 
BRANCH   5   6
ATOM      6  C   UNL     1       4.288   0.588  -2.027  1.00  0.00     0.261 C 
BRANCH   6   7
ATOM      7  O   UNL     1       2.904   0.187  -1.945  1.00  0.00    -0.460 OA
BRANCH   7   8
ATOM      8  C   UNL     1       2.378  -1.062  -1.861  1.00  0.00     0.338 C 
ATOM      9  O   UNL     1       1.230  -1.238  -2.269  1.00  0.00    -0.246 OA
BRANCH   8  10
ATOM     10  C   UNL     1       3.059  -2.221  -1.194  1.00  0.00     0.060 A 
ATOM     11  C   UNL     1       4.267  -2.145  -0.511  1.00  0.00     0.016 A 
ATOM     12  C   UNL     1       2.400  -3.467  -1.195  1.00  0.00     0.016 A 
ATOM     13  C   UNL     1       4.797  -3.218   0.184  1.00  0.00     0.010 A 
ATOM     14  C   UNL     1       2.951  -4.583  -0.545  1.00  0.00     0.010 A 
ATOM     15  C   UNL     1       4.162  -4.452   0.138  1.00  0.00    -0.014 A 
BRANCH  15  16
ATOM     16  C   UNL     1       4.972  -5.594   0.590  1.00  0.00     0.031 A 
ATOM     17  C   UNL     1       5.800  -6.291  -0.449  1.00  0.00     0.074 A 
ATOM     18  C   UNL     1       5.162  -5.807   1.903  1.00  0.00     0.049 A 
ATOM     19  N   UNL     1       6.629  -7.289  -0.320  1.00  0.00    -0.248 NA
ATOM     20  C   UNL     1       5.713  -5.752  -1.820  1.00  0.00     0.031 C 
ATOM     21  C   UNL     1       4.559  -5.018   2.980  1.00  0.00     0.029 A 
ATOM     22  N   UNL     1       5.958  -6.709   2.554  1.00  0.00    -0.354 N 
ATOM     23  C   UNL     1       7.142  -7.510  -1.592  1.00  0.00     0.074 A 
ATOM     24  C   UNL     1       6.550  -6.536  -2.477  1.00  0.00     0.031 C 
ATOM     25  C   UNL     1       5.020  -5.466   4.160  1.00  0.00     0.029 A 
ATOM     26  C   UNL     1       5.893  -6.611   3.923  1.00  0.00     0.049 A 
ATOM     27  H   UNL     1       6.523  -7.366   2.086  1.00  0.00     0.167 HD
ATOM     28  C   UNL     1       8.019  -8.461  -1.982  1.00  0.00     0.037 A 
ATOM     29  C   UNL     1       6.452  -7.395   4.863  1.00  0.00     0.037 A 
ATOM     30  C   UNL     1       8.571  -9.427  -1.075  1.00  0.00     0.049 A 
ATOM     31  C   UNL     1       7.300  -8.548   4.393  1.00  0.00     0.074 A 
ATOM     32  C   UNL     1       9.356 -10.529  -1.347  1.00  0.00     0.029 A 
ATOM     33  N   UNL     1       8.381  -9.390   0.301  1.00  0.00    -0.354 N 
ATOM     34  N   UNL     1       7.682  -8.848   3.173  1.00  0.00    -0.248 NA
ATOM     35  C   UNL     1       7.769  -9.488   5.418  1.00  0.00     0.031 C 
ATOM     36  C   UNL     1       9.607 -11.184  -0.135  1.00  0.00     0.029 A 
ATOM     37  C   UNL     1       9.017 -10.463   0.894  1.00  0.00     0.049 A 
ATOM     38  H   UNL     1       7.868  -8.701   0.782  1.00  0.00     0.167 HD
ATOM     39  C   UNL     1       8.439 -10.005   3.281  1.00  0.00     0.074 A 
ATOM     40  C   UNL     1       8.484 -10.337   4.693  1.00  0.00     0.031 C 
ATOM     41  C   UNL     1       9.036 -10.739   2.309  1.00  0.00     0.037 A 
BRANCH  28  42
ATOM     42  C   UNL     1       8.314  -8.544  -3.448  1.00  0.00     0.057 A 
ATOM     43  C   UNL     1       9.133  -7.614  -4.101  1.00  0.00     0.134 A 
ATOM     44  C   UNL     1       7.698  -9.527  -4.232  1.00  0.00     0.134 A 
ATOM     45  F   UNL     1       9.718  -6.621  -3.414  1.00  0.00    -0.206 F 
ATOM     46  C   UNL     1       9.308  -7.645  -5.488  1.00  0.00     0.040 A 
ATOM     47  C   UNL     1       7.880  -9.580  -5.615  1.00  0.00     0.040 A 
ATOM     48  F   UNL     1       6.887 -10.436  -3.671  1.00  0.00    -0.206 F 
ATOM     49  C   UNL     1       8.680  -8.631  -6.248  1.00  0.00     0.006 A 
ENDBRANCH  28  42
BRANCH  29  50
ATOM     50  C   UNL     1       6.158  -7.182   6.306  1.00  0.00     0.057 A 
ATOM     51  C   UNL     1       7.164  -6.867   7.227  1.00  0.00     0.134 A 
ATOM     52  C   UNL     1       4.857  -7.327   6.809  1.00  0.00     0.134 A 
ATOM     53  F   UNL     1       8.435  -6.737   6.821  1.00  0.00    -0.206 F 
ATOM     54  C   UNL     1       6.891  -6.719   8.590  1.00  0.00     0.040 A 
ATOM     55  C   UNL     1       4.564  -7.154   8.163  1.00  0.00     0.040 A 
ATOM     56  F   UNL     1       3.843  -7.638   5.987  1.00  0.00    -0.206 F 
ATOM     57  C   UNL     1       5.586  -6.858   9.060  1.00  0.00     0.006 A 
ENDBRANCH  29  50
BRANCH  41  58
ATOM     58  C   UNL     1       9.797 -11.948   2.753  1.00  0.00     0.057 A 
ATOM     59  C   UNL     1       9.144 -13.119   3.155  1.00  0.00     0.134 A 
ATOM     60  C   UNL     1      11.197 -11.954   2.724  1.00  0.00     0.134 A 
ATOM     61  F   UNL     1       7.805 -13.165   3.214  1.00  0.00    -0.206 F 
ATOM     62  C   UNL     1       9.861 -14.254   3.529  1.00  0.00     0.040 A 
ATOM     63  C   UNL     1      11.923 -13.091   3.072  1.00  0.00     0.040 A 
ATOM     64  F   UNL     1      11.875 -10.863   2.338  1.00  0.00    -0.206 F 
ATOM     65  C   UNL     1      11.254 -14.244   3.480  1.00  0.00     0.006 A 
ENDBRANCH  41  58
ENDBRANCH  15  16
ENDBRANCH   8  10
ENDBRANCH   7   8
ENDBRANCH   6   7
ENDBRANCH   5   6
ENDBRANCH   4   5
ENDBRANCH   3   4
ENDBRANCH   2   3
ENDBRANCH   1   2
BRANCH   1  66
ATOM     66  C   UNL     1       5.174   1.865   2.794  1.00  0.00     0.188 C 
BRANCH  66  67
ATOM     67  C   UNL     1       5.386   0.768   3.851  1.00  0.00     0.188 C 
BRANCH  67  68
ATOM     68  O   UNL     1       4.360  -0.204   3.905  1.00  0.00    -0.376 OA
BRANCH  68  69
ATOM     69  C   UNL     1       3.439  -0.157   4.998  1.00  0.00     0.202 C 
BRANCH  69  70
ATOM     70  C   UNL     1       3.334   1.091   5.896  1.00  0.00     0.261 C 
BRANCH  70  71
ATOM     71  O   UNL     1       3.394   2.336   5.175  1.00  0.00    -0.462 OA
BRANCH  71  72
ATOM     72  C   UNL     1       3.799   3.405   5.915  1.00  0.00     0.329 C 
ATOM     73  O   UNL     1       3.945   3.336   7.137  1.00  0.00    -0.250 OA
BRANCH  72  74
ATOM     74  C   UNL     1       4.253   4.643   5.091  1.00  0.00     0.195 C 
BRANCH  74  75
ATOM     75  C   UNL     1       3.519   5.081   3.821  1.00  0.00     0.074 C 
BRANCH  75  76
ATOM     76  C   UNL     1       2.027   5.178   3.779  1.00  0.00    -0.020 A 
ATOM     77  C   UNL     1       1.095   4.173   3.946  1.00  0.00     0.087 A 
ATOM     78  C   UNL     1       1.298   6.342   3.361  1.00  0.00     0.003 A 
ATOM     79  N   UNL     1      -0.139   4.662   3.608  1.00  0.00    -0.361 N 
ATOM     80  C   UNL     1      -0.043   5.982   3.241  1.00  0.00     0.046 A 
ATOM     81  C   UNL     1       1.671   7.661   3.022  1.00  0.00     0.010 A 
ATOM     82  H   UNL     1      -0.974   4.142   3.625  1.00  0.00     0.166 HD
ATOM     83  C   UNL     1      -1.029   6.871   2.797  1.00  0.00     0.026 A 
ATOM     84  C   UNL     1       0.698   8.567   2.591  1.00  0.00     0.001 A 
ATOM     85  C   UNL     1      -0.633   8.174   2.478  1.00  0.00     0.002 A 
ENDBRANCH  75  76
ENDBRANCH  74  75
BRANCH  74  86
ATOM     86  N   UNL     1       4.327   5.818   5.983  1.00  0.00    -0.356 N 
ATOM     87  H   UNL     1       3.486   6.264   6.231  1.00  0.00     0.163 HD
BRANCH  86  88
ATOM     88  C   UNL     1       5.503   6.326   6.488  1.00  0.00     0.137 A 
ATOM     89  N   UNL     1       5.424   6.514   7.815  1.00  0.00    -0.219 NA
ATOM     90  C   UNL     1       6.649   6.680   5.743  1.00  0.00     0.043 A 
ATOM     91  C   UNL     1       6.503   7.011   8.421  1.00  0.00     0.224 A 
ATOM     92  C   UNL     1       7.702   7.214   6.505  1.00  0.00     0.076 A 
ATOM     93  C   UNL     1       6.823   6.596   4.332  1.00  0.00     0.014 A 
ATOM     94  N   UNL     1       7.644   7.367   7.830  1.00  0.00    -0.236 NA
ATOM     95  C   UNL     1       8.863   7.629   5.864  1.00  0.00     0.029 A 
ATOM     96  C   UNL     1       8.001   7.012   3.711  1.00  0.00     0.001 A 
ATOM     97  C   UNL     1       9.025   7.534   4.481  1.00  0.00     0.002 A 
ENDBRANCH  86  88
ENDBRANCH  74  86
ENDBRANCH  72  74
ENDBRANCH  71  72
ENDBRANCH  70  71
ENDBRANCH  69  70
ENDBRANCH  68  69
ENDBRANCH  67  68
ENDBRANCH  66  67
ENDBRANCH   1  66
TORSDOF 24
