REMARK SMILES Cc1c(CCC(=O)N[C@@H](C)C(=O)OCCOCCOCCOCCOC(=O)c2ccc(-c3c4nc(c(-c5c(F)cccc5F)c5ccc([nH]5)c(-c5c(F)cccc5F)c5nc(c(-c6c(F)cccc6F)c6ccc3[nH]6)C=C5)C=C4)cc2)c(=O)oc2cc3oc4c(c3cc12)CCCC4
REMARK SMILES IDX 18 1 17 2 16 3 15 4 14 5 13 6 11 7 12 8 9 9 10 10 8 11 6 12
REMARK SMILES IDX 7 13 5 15 4 16 3 17 1 18 2 19 93 20 82 21 85 22 92 23 83 24
REMARK SMILES IDX 84 25 86 26 91 27 87 28 90 29 88 30 89 31 94 32 97 33 95 34
REMARK SMILES IDX 96 35 19 36 20 37 21 38 22 39 23 40 24 41 25 42 26 43 27 44
REMARK SMILES IDX 28 45 29 46 81 47 30 48 80 49 31 50 32 51 33 52 74 53 34 54
REMARK SMILES IDX 79 55 73 56 75 57 35 58 78 59 72 60 71 61 36 63 62 64 45 65
REMARK SMILES IDX 61 66 46 67 49 68 60 69 76 70 47 71 48 72 59 74 77 75 50 76
REMARK SMILES IDX 37 77 38 78 43 79 39 80 40 81 42 82 44 83 41 84 63 85 64 86
REMARK SMILES IDX 69 87 65 88 66 89 68 90 70 91 67 92 51 93 52 94 57 95 53 96
REMARK SMILES IDX 54 97 56 98 58 99 55 100
REMARK H PARENT 8 14 75 62 49 73
REMARK Flexibility Score: inf
ROOT
ATOM      1  C   UNL     1       5.174   0.951   2.464  1.00  0.00     0.188 C 
ENDROOT
BRANCH   1   2
ATOM      2  C   UNL     1       5.098   0.540   3.941  1.00  0.00     0.188 C 
BRANCH   2   3
ATOM      3  O   UNL     1       5.783  -0.660   4.221  1.00  0.00    -0.376 OA
BRANCH   3   4
ATOM      4  C   UNL     1       5.029  -1.831   4.518  1.00  0.00     0.202 C 
BRANCH   4   5
ATOM      5  C   UNL     1       3.623  -2.103   3.932  1.00  0.00     0.261 C 
BRANCH   5   6
ATOM      6  O   UNL     1       3.382  -1.700   2.569  1.00  0.00    -0.462 OA
BRANCH   6   7
ATOM      7  C   UNL     1       2.581  -0.612   2.384  1.00  0.00     0.328 C 
ATOM      8  O   UNL     1       2.109   0.055   3.302  1.00  0.00    -0.250 OA
BRANCH   7   9
ATOM      9  C   UNL     1       2.303  -0.261   0.899  1.00  0.00     0.189 C 
ATOM     10  C   UNL     1       2.377  -1.437  -0.083  1.00  0.00     0.043 C 
BRANCH   9  11
ATOM     11  N   UNL     1       2.763   0.981   0.264  1.00  0.00    -0.343 N 
ATOM     12  C   UNL     1       2.148   2.200   0.211  1.00  0.00     0.221 C 
ATOM     13  O   UNL     1       2.170   2.807  -0.862  1.00  0.00    -0.275 OA
ATOM     14  H   UNL     1       3.637   0.928  -0.187  1.00  0.00     0.164 HD
BRANCH  12  15
ATOM     15  C   UNL     1       1.588   2.860   1.467  1.00  0.00     0.105 C 
BRANCH  15  16
ATOM     16  C   UNL     1       0.061   3.021   1.562  1.00  0.00     0.053 C 
BRANCH  16  17
ATOM     17  C   UNL     1      -0.563   1.877   2.314  1.00  0.00     0.042 A 
ATOM     18  C   UNL     1      -1.175   0.614   0.192  1.00  0.00     0.046 C 
ATOM     19  C   UNL     1      -0.960   0.773   1.675  1.00  0.00    -0.030 A 
ATOM     20  C   UNL     1      -0.991  -0.404   2.516  1.00  0.00     0.022 A 
ATOM     21  C   UNL     1      -0.716   1.938   3.809  1.00  0.00     0.339 A 
ATOM     22  C   UNL     1      -1.484  -0.349   3.802  1.00  0.00     0.142 A 
ATOM     23  C   UNL     1      -0.465  -1.582   2.046  1.00  0.00     0.024 A 
ATOM     24  O   UNL     1      -0.303   2.898   4.452  1.00  0.00    -0.246 OA
ATOM     25  O   UNL     1      -1.494   0.919   4.412  1.00  0.00    -0.422 OA
ATOM     26  C   UNL     1      -1.947  -1.511   4.448  1.00  0.00     0.095 A 
ATOM     27  C   UNL     1      -0.807  -2.756   2.681  1.00  0.00     0.025 A 
ATOM     28  C   UNL     1      -1.723  -2.688   3.718  1.00  0.00     0.138 A 
ATOM     29  C   UNL     1      -0.776  -4.056   2.158  1.00  0.00     0.001 A 
ATOM     30  O   UNL     1      -2.468  -3.850   3.674  1.00  0.00    -0.461 OA
ATOM     31  C   UNL     1      -2.008  -4.521   2.563  1.00  0.00     0.108 A 
ATOM     32  C   UNL     1      -0.232  -4.429   0.820  1.00  0.00     0.040 C 
ATOM     33  C   UNL     1      -2.941  -5.043   1.516  1.00  0.00     0.076 C 
ATOM     34  C   UNL     1      -1.270  -3.948  -0.210  1.00  0.00     0.005 C 
ATOM     35  C   UNL     1      -2.745  -4.120   0.261  1.00  0.00     0.008 C 
ENDBRANCH  16  17
ENDBRANCH  15  16
ENDBRANCH  12  15
ENDBRANCH   9  11
ENDBRANCH   7   9
ENDBRANCH   6   7
ENDBRANCH   5   6
ENDBRANCH   4   5
ENDBRANCH   3   4
ENDBRANCH   2   3
ENDBRANCH   1   2
BRANCH   1  36
ATOM     36  O   UNL     1       5.199  -0.054   1.455  1.00  0.00    -0.377 OA
BRANCH  36  37
ATOM     37  C   UNL     1       6.165  -1.096   1.512  1.00  0.00     0.188 C 
BRANCH  37  38
ATOM     38  C   UNL     1       7.623  -0.748   1.835  1.00  0.00     0.188 C 
BRANCH  38  39
ATOM     39  O   UNL     1       7.888   0.632   1.861  1.00  0.00    -0.376 OA
BRANCH  39  40
ATOM     40  C   UNL     1       8.205   1.337   0.680  1.00  0.00     0.202 C 
BRANCH  40  41
ATOM     41  C   UNL     1       7.753   0.975  -0.749  1.00  0.00     0.261 C 
BRANCH  41  42
ATOM     42  O   UNL     1       7.234  -0.325  -1.029  1.00  0.00    -0.460 OA
BRANCH  42  43
ATOM     43  C   UNL     1       8.092  -1.300  -1.396  1.00  0.00     0.338 C 
ATOM     44  O   UNL     1       9.311  -1.248  -1.426  1.00  0.00    -0.246 OA
BRANCH  43  45
ATOM     45  C   UNL     1       7.279  -2.512  -1.622  1.00  0.00     0.060 A 
ATOM     46  C   UNL     1       6.425  -2.604  -2.725  1.00  0.00     0.016 A 
ATOM     47  C   UNL     1       7.282  -3.515  -0.651  1.00  0.00     0.016 A 
ATOM     48  C   UNL     1       5.581  -3.714  -2.859  1.00  0.00     0.010 A 
ATOM     49  C   UNL     1       6.392  -4.582  -0.757  1.00  0.00     0.010 A 
ATOM     50  C   UNL     1       5.549  -4.715  -1.872  1.00  0.00    -0.014 A 
BRANCH  50  51
ATOM     51  C   UNL     1       4.784  -5.971  -2.081  1.00  0.00     0.031 A 
ATOM     52  C   UNL     1       5.398  -7.212  -1.514  1.00  0.00     0.074 A 
ATOM     53  C   UNL     1       3.483  -6.043  -2.431  1.00  0.00     0.049 A 
ATOM     54  N   UNL     1       5.200  -7.605  -0.287  1.00  0.00    -0.248 NA
ATOM     55  C   UNL     1       6.453  -7.945  -2.211  1.00  0.00     0.031 C 
ATOM     56  C   UNL     1       2.498  -4.977  -2.248  1.00  0.00     0.029 A 
ATOM     57  N   UNL     1       2.736  -7.105  -2.889  1.00  0.00    -0.354 N 
ATOM     58  C   UNL     1       6.113  -8.612  -0.031  1.00  0.00     0.074 A 
ATOM     59  C   UNL     1       6.867  -8.790  -1.254  1.00  0.00     0.031 C 
ATOM     60  C   UNL     1       1.269  -5.480  -2.476  1.00  0.00     0.029 A 
ATOM     61  C   UNL     1       1.366  -6.869  -2.894  1.00  0.00     0.049 A 
ATOM     62  H   UNL     1       3.136  -7.954  -3.185  1.00  0.00     0.167 HD
ATOM     63  C   UNL     1       6.201  -9.258   1.160  1.00  0.00     0.037 A 
ATOM     64  C   UNL     1       0.361  -7.764  -2.668  1.00  0.00     0.037 A 
ATOM     65  C   UNL     1       5.268  -8.880   2.172  1.00  0.00     0.049 A 
ATOM     66  C   UNL     1       0.746  -8.419  -1.357  1.00  0.00     0.074 A 
ATOM     67  C   UNL     1       5.253  -8.205   3.371  1.00  0.00     0.029 A 
ATOM     68  N   UNL     1       3.998  -9.392   2.072  1.00  0.00    -0.354 N 
ATOM     69  N   UNL     1       0.526  -7.958  -0.145  1.00  0.00    -0.248 NA
ATOM     70  C   UNL     1       1.769  -9.456  -1.443  1.00  0.00     0.031 C 
ATOM     71  C   UNL     1       3.872  -7.969   3.652  1.00  0.00     0.029 A 
ATOM     72  C   UNL     1       3.146  -8.443   2.556  1.00  0.00     0.049 A 
ATOM     73  H   UNL     1       3.750 -10.276   1.718  1.00  0.00     0.167 HD
ATOM     74  C   UNL     1       1.563  -8.471   0.648  1.00  0.00     0.074 A 
ATOM     75  C   UNL     1       2.338  -9.298  -0.259  1.00  0.00     0.031 C 
ATOM     76  C   UNL     1       1.857  -8.140   1.946  1.00  0.00     0.037 A 
BRANCH  63  77
ATOM     77  C   UNL     1       7.003 -10.468   1.400  1.00  0.00     0.057 A 
ATOM     78  C   UNL     1       6.339 -11.701   1.331  1.00  0.00     0.134 A 
ATOM     79  C   UNL     1       8.275 -10.433   1.966  1.00  0.00     0.134 A 
ATOM     80  F   UNL     1       5.095 -11.769   0.826  1.00  0.00    -0.206 F 
ATOM     81  C   UNL     1       6.898 -12.859   1.859  1.00  0.00     0.040 A 
ATOM     82  C   UNL     1       8.855 -11.593   2.483  1.00  0.00     0.040 A 
ATOM     83  F   UNL     1       8.938  -9.273   2.087  1.00  0.00    -0.206 F 
ATOM     84  C   UNL     1       8.158 -12.803   2.448  1.00  0.00     0.006 A 
ENDBRANCH  63  77
BRANCH  64  85
ATOM     85  C   UNL     1      -0.045  -8.504  -3.914  1.00  0.00     0.057 A 
ATOM     86  C   UNL     1      -0.413  -7.744  -5.045  1.00  0.00     0.134 A 
ATOM     87  C   UNL     1      -0.056  -9.893  -4.101  1.00  0.00     0.134 A 
ATOM     88  F   UNL     1      -0.549  -6.412  -4.948  1.00  0.00    -0.206 F 
ATOM     89  C   UNL     1      -0.637  -8.313  -6.303  1.00  0.00     0.040 A 
ATOM     90  C   UNL     1      -0.264 -10.478  -5.361  1.00  0.00     0.040 A 
ATOM     91  F   UNL     1       0.150 -10.739  -3.083  1.00  0.00    -0.206 F 
ATOM     92  C   UNL     1      -0.529  -9.686  -6.472  1.00  0.00     0.006 A 
ENDBRANCH  64  85
BRANCH  76  93
ATOM     93  C   UNL     1       0.903  -7.350   2.792  1.00  0.00     0.057 A 
ATOM     94  C   UNL     1      -0.315  -7.903   3.199  1.00  0.00     0.134 A 
ATOM     95  C   UNL     1       1.325  -6.186   3.460  1.00  0.00     0.134 A 
ATOM     96  F   UNL     1      -0.791  -9.014   2.618  1.00  0.00    -0.206 F 
ATOM     97  C   UNL     1      -1.034  -7.370   4.276  1.00  0.00     0.040 A 
ATOM     98  C   UNL     1       0.646  -5.678   4.570  1.00  0.00     0.040 A 
ATOM     99  F   UNL     1       2.444  -5.544   3.083  1.00  0.00    -0.206 F 
ATOM    100  C   UNL     1      -0.534  -6.280   4.989  1.00  0.00     0.006 A 
ENDBRANCH  76  93
ENDBRANCH  50  51
ENDBRANCH  43  45
ENDBRANCH  42  43
ENDBRANCH  41  42
ENDBRANCH  40  41
ENDBRANCH  39  40
ENDBRANCH  38  39
ENDBRANCH  37  38
ENDBRANCH  36  37
ENDBRANCH   1  36
TORSDOF 24
