REMARK SMILES CCc1ccnc(C(=O)c2[nH]c3ccc(OC(F)(F)F)cc3c2CC(=O)OCCOCCOCCOCCOC(=O)c2ccc(-c3c4nc(c(-c5c(F)cccc5F)c5ccc([nH]5)c(-c5c(F)cccc5F)c5nc(c(-c6c(F)cccc6F)c6ccc3[nH]6)C=C5)C=C4)cc2)c1
REMARK SMILES IDX 32 1 31 2 30 3 29 4 28 5 27 6 25 7 26 8 24 9 23 10 10 11
REMARK SMILES IDX 11 12 12 13 22 15 13 16 21 17 14 18 15 19 8 20 9 21 7 22
REMARK SMILES IDX 3 23 4 24 96 25 5 26 6 27 2 28 1 29 16 30 17 31 18 32 19 33
REMARK SMILES IDX 20 34 33 35 34 36 35 37 36 38 37 39 38 40 39 41 40 42 41 43
REMARK SMILES IDX 42 44 43 45 95 46 44 47 94 48 45 49 46 50 47 51 88 52 48 53
REMARK SMILES IDX 93 54 87 55 89 56 49 57 92 58 86 59 85 60 50 62 76 63 59 64
REMARK SMILES IDX 75 65 60 66 63 67 74 68 90 69 61 70 62 71 73 73 91 74 64 75
REMARK SMILES IDX 51 76 52 77 57 78 53 79 54 80 56 81 58 82 55 83 77 84 78 85
REMARK SMILES IDX 83 86 79 87 80 88 82 89 84 90 81 91 65 92 66 93 71 94 67 95
REMARK SMILES IDX 68 96 70 97 72 98 69 99
REMARK H PARENT 11 14 89 61 63 72
REMARK Flexibility Score: inf
ROOT
ATOM      1  C   UNL     1       5.436  -6.065  -2.227  1.00  0.00     0.188 C 
ENDROOT
BRANCH   1   2
ATOM      2  C   UNL     1       5.667  -7.182  -3.243  1.00  0.00     0.188 C 
BRANCH   2   3
ATOM      3  O   UNL     1       6.739  -8.071  -3.006  1.00  0.00    -0.376 OA
BRANCH   3   4
ATOM      4  C   UNL     1       8.049  -7.512  -2.954  1.00  0.00     0.202 C 
BRANCH   4   5
ATOM      5  C   UNL     1       8.444  -6.370  -3.916  1.00  0.00     0.261 C 
BRANCH   5   6
ATOM      6  O   UNL     1       7.723  -5.117  -3.742  1.00  0.00    -0.463 OA
BRANCH   6   7
ATOM      7  C   UNL     1       7.284  -4.518  -4.878  1.00  0.00     0.310 C 
ATOM      8  O   UNL     1       7.524  -4.970  -5.999  1.00  0.00    -0.252 OA
BRANCH   7   9
ATOM      9  C   UNL     1       6.444  -3.257  -4.750  1.00  0.00     0.161 C 
BRANCH   9  10
ATOM     10  C   UNL     1       6.192  -2.564  -3.428  1.00  0.00     0.000 A 
ATOM     11  C   UNL     1       5.029  -2.600  -2.637  1.00  0.00     0.093 A 
ATOM     12  N   UNL     1       5.312  -1.860  -1.505  1.00  0.00    -0.352 N 
ATOM     13  C   UNL     1       6.369  -1.015  -1.750  1.00  0.00     0.046 A 
ATOM     14  H   UNL     1       4.829  -1.927  -0.650  1.00  0.00     0.167 HD
ATOM     15  C   UNL     1       6.951  -1.444  -2.938  1.00  0.00     0.008 A 
ATOM     16  C   UNL     1       6.830   0.100  -1.038  1.00  0.00     0.030 A 
ATOM     17  C   UNL     1       8.026  -0.693  -3.459  1.00  0.00     0.057 A 
ATOM     18  C   UNL     1       7.864   0.858  -1.611  1.00  0.00     0.049 A 
ATOM     19  C   UNL     1       8.441   0.486  -2.824  1.00  0.00     0.130 A 
BRANCH  11  20
ATOM     20  C   UNL     1       3.760  -3.275  -2.930  1.00  0.00     0.227 C 
ATOM     21  O   UNL     1       3.600  -3.971  -3.933  1.00  0.00    -0.285 OA
BRANCH  20  22
ATOM     22  C   UNL     1       2.559  -3.111  -2.061  1.00  0.00     0.113 A 
ATOM     23  C   UNL     1       0.791  -1.746  -1.192  1.00  0.00    -0.044 A 
ATOM     24  C   UNL     1       0.084  -2.918  -0.909  1.00  0.00     0.024 A 
ATOM     25  C   UNL     1       2.061  -1.846  -1.774  1.00  0.00     0.036 A 
ATOM     26  C   UNL     1       0.671  -4.136  -1.206  1.00  0.00     0.112 A 
ATOM     27  N   UNL     1       1.894  -4.258  -1.762  1.00  0.00    -0.253 NA
BRANCH  23  28
ATOM     28  C   UNL     1       0.175  -0.395  -0.936  1.00  0.00     0.032 C 
ATOM     29  C   UNL     1       0.760   0.273   0.298  1.00  0.00     0.009 C 
ENDBRANCH  23  28
ENDBRANCH  20  22
ENDBRANCH  11  20
BRANCH  19  30
ATOM     30  O   UNL     1       9.395   1.178  -3.516  1.00  0.00    -0.406 OA
BRANCH  30  31
ATOM     31  C   UNL     1       9.686   2.502  -3.106  1.00  0.00     0.573 C 
ATOM     32  F   UNL     1       8.569   3.257  -3.022  1.00  0.00    -0.132 F 
ATOM     33  F   UNL     1      10.322   2.506  -1.915  1.00  0.00    -0.132 F 
ATOM     34  F   UNL     1      10.504   3.069  -4.021  1.00  0.00    -0.132 F 
ENDBRANCH  30  31
ENDBRANCH  19  30
ENDBRANCH   9  10
ENDBRANCH   7   9
ENDBRANCH   6   7
ENDBRANCH   5   6
ENDBRANCH   4   5
ENDBRANCH   3   4
ENDBRANCH   2   3
ENDBRANCH   1   2
BRANCH   1  35
ATOM     35  O   UNL     1       6.529  -5.610  -1.448  1.00  0.00    -0.377 OA
BRANCH  35  36
ATOM     36  C   UNL     1       6.705  -6.087  -0.124  1.00  0.00     0.188 C 
BRANCH  36  37
ATOM     37  C   UNL     1       5.753  -7.168   0.385  1.00  0.00     0.188 C 
BRANCH  37  38
ATOM     38  O   UNL     1       4.378  -6.829   0.574  1.00  0.00    -0.376 OA
BRANCH  38  39
ATOM     39  C   UNL     1       4.003  -5.466   0.754  1.00  0.00     0.202 C 
BRANCH  39  40
ATOM     40  C   UNL     1       4.007  -4.994   2.203  1.00  0.00     0.261 C 
BRANCH  40  41
ATOM     41  O   UNL     1       5.349  -4.813   2.671  1.00  0.00    -0.460 OA
BRANCH  41  42
ATOM     42  C   UNL     1       5.843  -5.847   3.386  1.00  0.00     0.338 C 
ATOM     43  O   UNL     1       5.250  -6.845   3.765  1.00  0.00    -0.246 OA
BRANCH  42  44
ATOM     44  C   UNL     1       7.298  -5.679   3.519  1.00  0.00     0.060 A 
ATOM     45  C   UNL     1       8.110  -6.799   3.297  1.00  0.00     0.016 A 
ATOM     46  C   UNL     1       7.853  -4.455   3.904  1.00  0.00     0.016 A 
ATOM     47  C   UNL     1       9.478  -6.716   3.513  1.00  0.00     0.010 A 
ATOM     48  C   UNL     1       9.224  -4.376   4.137  1.00  0.00     0.010 A 
ATOM     49  C   UNL     1      10.028  -5.519   3.987  1.00  0.00    -0.014 A 
BRANCH  49  50
ATOM     50  C   UNL     1      11.395  -5.532   4.542  1.00  0.00     0.031 A 
ATOM     51  C   UNL     1      11.550  -5.672   6.029  1.00  0.00     0.074 A 
ATOM     52  C   UNL     1      12.464  -5.453   3.735  1.00  0.00     0.049 A 
ATOM     53  N   UNL     1      12.634  -5.654   6.757  1.00  0.00    -0.248 NA
ATOM     54  C   UNL     1      10.307  -5.852   6.801  1.00  0.00     0.031 C 
ATOM     55  C   UNL     1      12.417  -5.368   2.277  1.00  0.00     0.029 A 
ATOM     56  N   UNL     1      13.799  -5.423   4.037  1.00  0.00    -0.354 N 
ATOM     57  C   UNL     1      12.206  -5.810   8.069  1.00  0.00     0.074 A 
ATOM     58  C   UNL     1      10.762  -5.887   8.043  1.00  0.00     0.031 C 
ATOM     59  C   UNL     1      13.674  -5.281   1.808  1.00  0.00     0.029 A 
ATOM     60  C   UNL     1      14.603  -5.266   2.936  1.00  0.00     0.049 A 
ATOM     61  H   UNL     1      14.148  -5.507   4.954  1.00  0.00     0.167 HD
ATOM     62  C   UNL     1      12.954  -5.890   9.194  1.00  0.00     0.037 A 
ATOM     63  C   UNL     1      15.937  -5.101   2.862  1.00  0.00     0.037 A 
ATOM     64  C   UNL     1      14.390  -5.805   9.200  1.00  0.00     0.049 A 
ATOM     65  C   UNL     1      16.742  -5.110   4.134  1.00  0.00     0.074 A 
ATOM     66  C   UNL     1      15.254  -5.882  10.277  1.00  0.00     0.029 A 
ATOM     67  N   UNL     1      15.172  -5.613   8.069  1.00  0.00    -0.354 N 
ATOM     68  N   UNL     1      16.336  -5.275   5.372  1.00  0.00    -0.248 NA
ATOM     69  C   UNL     1      18.192  -4.913   4.001  1.00  0.00     0.031 C 
ATOM     70  C   UNL     1      16.554  -5.674   9.805  1.00  0.00     0.029 A 
ATOM     71  C   UNL     1      16.507  -5.537   8.426  1.00  0.00     0.049 A 
ATOM     72  H   UNL     1      14.827  -5.541   7.150  1.00  0.00     0.167 HD
ATOM     73  C   UNL     1      17.481  -5.235   6.159  1.00  0.00     0.074 A 
ATOM     74  C   UNL     1      18.598  -5.043   5.256  1.00  0.00     0.031 C 
ATOM     75  C   UNL     1      17.601  -5.350   7.505  1.00  0.00     0.037 A 
BRANCH  62  76
ATOM     76  C   UNL     1      12.229  -6.035  10.500  1.00  0.00     0.057 A 
ATOM     77  C   UNL     1      11.539  -7.205  10.846  1.00  0.00     0.134 A 
ATOM     78  C   UNL     1      12.230  -4.989  11.432  1.00  0.00     0.134 A 
ATOM     79  F   UNL     1      11.481  -8.238   9.992  1.00  0.00    -0.206 F 
ATOM     80  C   UNL     1      10.855  -7.319  12.058  1.00  0.00     0.040 A 
ATOM     81  C   UNL     1      11.575  -5.103  12.660  1.00  0.00     0.040 A 
ATOM     82  F   UNL     1      12.869  -3.840  11.167  1.00  0.00    -0.206 F 
ATOM     83  C   UNL     1      10.878  -6.268  12.972  1.00  0.00     0.006 A 
ENDBRANCH  62  76
BRANCH  63  84
ATOM     84  C   UNL     1      16.588  -4.898   1.543  1.00  0.00     0.057 A 
ATOM     85  C   UNL     1      17.454  -5.857   1.005  1.00  0.00     0.134 A 
ATOM     86  C   UNL     1      16.370  -3.735   0.794  1.00  0.00     0.134 A 
ATOM     87  F   UNL     1      17.719  -6.983   1.683  1.00  0.00    -0.206 F 
ATOM     88  C   UNL     1      18.094  -5.659  -0.220  1.00  0.00     0.040 A 
ATOM     89  C   UNL     1      16.980  -3.537  -0.445  1.00  0.00     0.040 A 
ATOM     90  F   UNL     1      15.549  -2.778   1.251  1.00  0.00    -0.206 F 
ATOM     91  C   UNL     1      17.853  -4.498  -0.952  1.00  0.00     0.006 A 
ENDBRANCH  63  84
BRANCH  75  92
ATOM     92  C   UNL     1      18.990  -5.315   8.077  1.00  0.00     0.057 A 
ATOM     93  C   UNL     1      19.753  -4.141   8.107  1.00  0.00     0.134 A 
ATOM     94  C   UNL     1      19.551  -6.466   8.645  1.00  0.00     0.134 A 
ATOM     95  F   UNL     1      19.278  -3.007   7.571  1.00  0.00    -0.206 F 
ATOM     96  C   UNL     1      21.035  -4.120   8.658  1.00  0.00     0.040 A 
ATOM     97  C   UNL     1      20.819  -6.450   9.227  1.00  0.00     0.040 A 
ATOM     98  F   UNL     1      18.869  -7.622   8.661  1.00  0.00    -0.206 F 
ATOM     99  C   UNL     1      21.568  -5.276   9.227  1.00  0.00     0.006 A 
ENDBRANCH  75  92
ENDBRANCH  49  50
ENDBRANCH  42  44
ENDBRANCH  41  42
ENDBRANCH  40  41
ENDBRANCH  39  40
ENDBRANCH  38  39
ENDBRANCH  37  38
ENDBRANCH  36  37
ENDBRANCH  35  36
ENDBRANCH   1  35
TORSDOF 26
