REMARK SMILES COc1ccc(S(=O)(=O)N2CCC[C@H](C(=O)N3CCC[C@H](C(=O)OCCOCCOCCOCCOC(=O)c4ccc(-c5c6nc(c(-c7c(F)cccc7F)c7ccc([nH]7)c(-c7c(F)cccc7F)c7nc(c(-c8c(F)cccc8F)c8ccc5[nH]8)C=C7)C=C6)cc4)C3)C2)cc1
REMARK SMILES IDX 28 1 27 2 26 3 25 4 24 5 22 6 23 7 21 8 17 9 18 10 93 11
REMARK SMILES IDX 19 12 20 13 15 14 16 15 14 16 10 17 11 18 94 19 12 20 13 21
REMARK SMILES IDX 7 22 8 23 9 24 6 25 3 26 4 27 96 28 5 29 95 30 2 31 1 32
REMARK SMILES IDX 29 33 30 34 31 35 32 36 33 37 34 38 35 39 36 40 37 41 38 42
REMARK SMILES IDX 39 43 40 44 92 45 41 46 91 47 42 48 43 49 44 50 85 51 45 52
REMARK SMILES IDX 90 53 84 54 86 55 46 56 89 57 83 58 82 59 47 61 73 62 56 63
REMARK SMILES IDX 72 64 57 65 60 66 71 67 87 68 58 69 59 70 70 72 88 73 61 74
REMARK SMILES IDX 48 75 49 76 54 77 50 78 51 79 53 80 55 81 52 82 74 83 75 84
REMARK SMILES IDX 80 85 76 86 77 87 79 88 81 89 78 90 62 91 63 92 68 93 64 94
REMARK SMILES IDX 65 95 67 96 69 97 66 98
REMARK H PARENT 86 60 60 71
REMARK Flexibility Score: inf
ROOT
ATOM      1  C   UNL     1       9.967  11.326  -2.934  1.00  0.00     0.188 C 
ENDROOT
BRANCH   1   2
ATOM      2  O   UNL     1      10.730  10.808  -4.017  1.00  0.00    -0.376 OA
BRANCH   2   3
ATOM      3  C   UNL     1      10.944   9.405  -3.970  1.00  0.00     0.202 C 
BRANCH   3   4
ATOM      4  C   UNL     1       9.777   8.536  -4.461  1.00  0.00     0.261 C 
BRANCH   4   5
ATOM      5  O   UNL     1       8.459   9.044  -4.206  1.00  0.00    -0.463 OA
BRANCH   5   6
ATOM      6  C   UNL     1       7.912   8.778  -3.005  1.00  0.00     0.310 C 
ATOM      7  O   UNL     1       8.533   8.299  -2.059  1.00  0.00    -0.252 OA
BRANCH   6   8
ATOM      8  C   UNL     1       6.409   9.025  -2.945  1.00  0.00     0.119 C 
ATOM      9  N   UNL     1       5.826   7.034  -4.245  1.00  0.00    -0.342 N 
ATOM     10  C   UNL     1       5.201   7.781  -5.329  1.00  0.00     0.119 C 
ATOM     11  C   UNL     1       5.760   7.649  -2.928  1.00  0.00     0.134 C 
ATOM     12  C   UNL     1       5.689   9.221  -5.400  1.00  0.00     0.022 C 
ATOM     13  C   UNL     1       5.719   9.876  -4.019  1.00  0.00     0.019 C 
BRANCH   9  14
ATOM     14  C   UNL     1       6.587   5.924  -4.542  1.00  0.00     0.227 C 
ATOM     15  O   UNL     1       7.304   5.886  -5.546  1.00  0.00    -0.275 OA
BRANCH  14  16
ATOM     16  C   UNL     1       6.343   4.640  -3.745  1.00  0.00     0.094 C 
ATOM     17  N   UNL     1       3.947   4.871  -3.165  1.00  0.00    -0.197 NA
ATOM     18  C   UNL     1       4.191   5.037  -1.722  1.00  0.00     0.102 C 
ATOM     19  C   UNL     1       4.928   4.155  -3.999  1.00  0.00     0.116 C 
ATOM     20  C   UNL     1       5.617   4.777  -1.249  1.00  0.00     0.018 C 
ATOM     21  C   UNL     1       6.729   4.571  -2.278  1.00  0.00     0.016 C 
BRANCH  17  22
ATOM     22  S   UNL     1       2.319   4.846  -3.664  1.00  0.00     0.243 S 
ATOM     23  O   UNL     1       2.279   4.775  -5.109  1.00  0.00    -0.207 OA
ATOM     24  O   UNL     1       1.641   5.899  -2.938  1.00  0.00    -0.207 OA
BRANCH  22  25
ATOM     25  C   UNL     1       1.660   3.308  -3.050  1.00  0.00     0.082 A 
ATOM     26  C   UNL     1       0.524   1.072  -1.832  1.00  0.00     0.118 A 
ATOM     27  C   UNL     1      -0.291   2.011  -2.467  1.00  0.00     0.048 A 
ATOM     28  C   UNL     1       1.908   1.210  -1.874  1.00  0.00     0.048 A 
ATOM     29  C   UNL     1       0.273   3.141  -3.066  1.00  0.00     0.025 A 
ATOM     30  C   UNL     1       2.474   2.329  -2.478  1.00  0.00     0.025 A 
BRANCH  26  31
ATOM     31  O   UNL     1      -0.103   0.032  -1.204  1.00  0.00    -0.497 OA
ATOM     32  C   UNL     1       0.478  -0.295   0.059  1.00  0.00     0.278 C 
ENDBRANCH  26  31
ENDBRANCH  22  25
ENDBRANCH  17  22
ENDBRANCH  14  16
ENDBRANCH   9  14
ENDBRANCH   6   8
ENDBRANCH   5   6
ENDBRANCH   4   5
ENDBRANCH   3   4
ENDBRANCH   2   3
ENDBRANCH   1   2
BRANCH   1  33
ATOM     33  C   UNL     1       8.667  12.027  -3.353  1.00  0.00     0.188 C 
BRANCH  33  34
ATOM     34  O   UNL     1       8.174  11.843  -4.673  1.00  0.00    -0.377 OA
BRANCH  34  35
ATOM     35  C   UNL     1       9.045  12.033  -5.782  1.00  0.00     0.188 C 
BRANCH  35  36
ATOM     36  C   UNL     1      10.082  13.166  -5.703  1.00  0.00     0.188 C 
BRANCH  36  37
ATOM     37  O   UNL     1       9.768  14.178  -4.756  1.00  0.00    -0.376 OA
BRANCH  37  38
ATOM     38  C   UNL     1       9.086  15.326  -5.242  1.00  0.00     0.202 C 
BRANCH  38  39
ATOM     39  C   UNL     1       7.689  15.081  -5.829  1.00  0.00     0.261 C 
BRANCH  39  40
ATOM     40  O   UNL     1       7.666  14.374  -7.083  1.00  0.00    -0.460 OA
BRANCH  40  41
ATOM     41  C   UNL     1       8.381  14.885  -8.106  1.00  0.00     0.338 C 
ATOM     42  O   UNL     1       8.997  15.933  -8.139  1.00  0.00    -0.246 OA
BRANCH  41  43
ATOM     43  C   UNL     1       8.426  13.870  -9.171  1.00  0.00     0.060 A 
ATOM     44  C   UNL     1       9.664  13.338  -9.550  1.00  0.00     0.016 A 
ATOM     45  C   UNL     1       7.251  13.486  -9.821  1.00  0.00     0.016 A 
ATOM     46  C   UNL     1       9.736  12.449 -10.621  1.00  0.00     0.010 A 
ATOM     47  C   UNL     1       7.327  12.612 -10.905  1.00  0.00     0.010 A 
ATOM     48  C   UNL     1       8.573  12.122 -11.332  1.00  0.00    -0.014 A 
BRANCH  48  49
ATOM     49  C   UNL     1       8.681  11.451 -12.647  1.00  0.00     0.031 A 
ATOM     50  C   UNL     1       8.746  12.310 -13.879  1.00  0.00     0.074 A 
ATOM     51  C   UNL     1       8.723  10.112 -12.748  1.00  0.00     0.049 A 
ATOM     52  N   UNL     1       8.796  11.958 -15.137  1.00  0.00    -0.248 NA
ATOM     53  C   UNL     1       8.753  13.767 -13.660  1.00  0.00     0.031 C 
ATOM     54  C   UNL     1       8.702   9.176 -11.627  1.00  0.00     0.029 A 
ATOM     55  N   UNL     1       8.782   9.310 -13.859  1.00  0.00    -0.354 N 
ATOM     56  C   UNL     1       8.836  13.145 -15.857  1.00  0.00     0.074 A 
ATOM     57  C   UNL     1       8.781  14.228 -14.901  1.00  0.00     0.031 C 
ATOM     58  C   UNL     1       8.734   7.921 -12.109  1.00  0.00     0.029 A 
ATOM     59  C   UNL     1       8.751   7.969 -13.570  1.00  0.00     0.049 A 
ATOM     60  H   UNL     1       8.840   9.663 -14.777  1.00  0.00     0.167 HD
ATOM     61  C   UNL     1       8.918  13.317 -17.197  1.00  0.00     0.037 A 
ATOM     62  C   UNL     1       8.719   6.906 -14.398  1.00  0.00     0.037 A 
ATOM     63  C   UNL     1       8.966  12.242 -18.149  1.00  0.00     0.049 A 
ATOM     64  C   UNL     1       8.735   7.126 -15.888  1.00  0.00     0.074 A 
ATOM     65  C   UNL     1       9.072  12.313 -19.526  1.00  0.00     0.029 A 
ATOM     66  N   UNL     1       8.901  10.897 -17.819  1.00  0.00    -0.354 N 
ATOM     67  N   UNL     1       8.809   8.250 -16.559  1.00  0.00    -0.248 NA
ATOM     68  C   UNL     1       8.659   5.927 -16.735  1.00  0.00     0.031 C 
ATOM     69  C   UNL     1       9.026  11.011 -20.034  1.00  0.00     0.029 A 
ATOM     70  C   UNL     1       8.936  10.128 -18.970  1.00  0.00     0.049 A 
ATOM     71  H   UNL     1       8.838  10.542 -16.903  1.00  0.00     0.167 HD
ATOM     72  C   UNL     1       8.817   7.893 -17.902  1.00  0.00     0.074 A 
ATOM     73  C   UNL     1       8.749   6.448 -17.951  1.00  0.00     0.031 C 
ATOM     74  C   UNL     1       8.877   8.690 -18.998  1.00  0.00     0.037 A 
BRANCH  61  75
ATOM     75  C   UNL     1       8.931  14.726 -17.707  1.00  0.00     0.057 A 
ATOM     76  C   UNL     1      10.057  15.548 -17.575  1.00  0.00     0.134 A 
ATOM     77  C   UNL     1       7.810  15.259 -18.355  1.00  0.00     0.134 A 
ATOM     78  F   UNL     1      11.155  15.101 -16.947  1.00  0.00    -0.206 F 
ATOM     79  C   UNL     1      10.061  16.860 -18.053  1.00  0.00     0.040 A 
ATOM     80  C   UNL     1       7.810  16.561 -18.856  1.00  0.00     0.040 A 
ATOM     81  F   UNL     1       6.700  14.523 -18.512  1.00  0.00    -0.206 F 
ATOM     82  C   UNL     1       8.936  17.367 -18.702  1.00  0.00     0.006 A 
ENDBRANCH  61  75
BRANCH  62  83
ATOM     83  C   UNL     1       8.656   5.531 -13.843  1.00  0.00     0.057 A 
ATOM     84  C   UNL     1       9.742   4.655 -13.954  1.00  0.00     0.134 A 
ATOM     85  C   UNL     1       7.499   5.049 -13.220  1.00  0.00     0.134 A 
ATOM     86  F   UNL     1      10.868   5.051 -14.566  1.00  0.00    -0.206 F 
ATOM     87  C   UNL     1       9.675   3.344 -13.480  1.00  0.00     0.040 A 
ATOM     88  C   UNL     1       7.426   3.748 -12.721  1.00  0.00     0.040 A 
ATOM     89  F   UNL     1       6.422   5.838 -13.089  1.00  0.00    -0.206 F 
ATOM     90  C   UNL     1       8.515   2.889 -12.857  1.00  0.00     0.006 A 
ENDBRANCH  62  83
BRANCH  74  91
ATOM     91  C   UNL     1       8.908   8.018 -20.338  1.00  0.00     0.057 A 
ATOM     92  C   UNL     1       7.765   7.432 -20.896  1.00  0.00     0.134 A 
ATOM     93  C   UNL     1      10.083   8.001 -21.099  1.00  0.00     0.134 A 
ATOM     94  F   UNL     1       6.611   7.405 -20.212  1.00  0.00    -0.206 F 
ATOM     95  C   UNL     1       7.795   6.837 -22.158  1.00  0.00     0.040 A 
ATOM     96  C   UNL     1      10.120   7.430 -22.372  1.00  0.00     0.040 A 
ATOM     97  F   UNL     1      11.210   8.554 -20.626  1.00  0.00    -0.206 F 
ATOM     98  C   UNL     1       8.974   6.841 -22.903  1.00  0.00     0.006 A 
ENDBRANCH  74  91
ENDBRANCH  48  49
ENDBRANCH  41  43
ENDBRANCH  40  41
ENDBRANCH  39  40
ENDBRANCH  38  39
ENDBRANCH  37  38
ENDBRANCH  36  37
ENDBRANCH  35  36
ENDBRANCH  34  35
ENDBRANCH  33  34
ENDBRANCH   1  33
TORSDOF 25
