REMARK SMILES CC1(C)CCSC[C@@]1(Nc1ccccc1Br)C(=O)OCCOCCOCCOCCOC(=O)c1ccc(-c2c3nc(c(-c4c(F)cccc4F)c4ccc([nH]4)c(-c4c(F)cccc4F)c4nc(c(-c5c(F)cccc5F)c5ccc2[nH]5)C=C4)C=C3)cc1
REMARK SMILES IDX 25 1 24 2 23 3 22 4 21 5 20 6 19 7 17 8 18 9 8 10 1 11 2 12
REMARK SMILES IDX 3 13 4 14 5 15 7 16 6 17 9 18 10 20 11 21 15 22 12 23 14 24
REMARK SMILES IDX 16 25 13 26 26 27 27 28 28 29 29 30 30 31 31 32 32 33 33 34
REMARK SMILES IDX 34 35 35 36 87 37 36 38 86 39 37 40 38 41 39 42 80 43 40 44
REMARK SMILES IDX 85 45 79 46 81 47 41 48 84 49 78 50 77 51 42 53 68 54 51 55
REMARK SMILES IDX 67 56 52 57 55 58 66 59 82 60 53 61 54 62 65 64 83 65 56 66
REMARK SMILES IDX 43 67 44 68 49 69 45 70 46 71 48 72 50 73 47 74 69 75 70 76
REMARK SMILES IDX 75 77 71 78 72 79 74 80 76 81 73 82 57 83 58 84 63 85 59 86
REMARK SMILES IDX 60 87 62 88 64 89 61 90
REMARK H PARENT 9 19 81 52 55 63
REMARK Flexibility Score: inf
ROOT
ATOM      1  O   UNL     1      -1.762  -1.199   2.426  1.00  0.00    -0.377 OA
ENDROOT
BRANCH   1   2
ATOM      2  C   UNL     1      -1.858  -0.950   1.032  1.00  0.00     0.188 C 
BRANCH   2   3
ATOM      3  C   UNL     1      -2.725  -2.018   0.355  1.00  0.00     0.188 C 
BRANCH   3   4
ATOM      4  O   UNL     1      -2.951  -3.152   1.182  1.00  0.00    -0.376 OA
BRANCH   4   5
ATOM      5  C   UNL     1      -1.881  -4.072   1.387  1.00  0.00     0.202 C 
BRANCH   5   6
ATOM      6  C   UNL     1      -0.410  -3.670   1.185  1.00  0.00     0.261 C 
BRANCH   6   7
ATOM      7  O   UNL     1      -0.164  -2.972  -0.059  1.00  0.00    -0.461 OA
BRANCH   7   8
ATOM      8  C   UNL     1       0.741  -3.477  -0.922  1.00  0.00     0.333 C 
ATOM      9  O   UNL     1       1.229  -4.596  -0.777  1.00  0.00    -0.249 OA
BRANCH   8  10
ATOM     10  C   UNL     1       1.121  -2.495  -2.114  1.00  0.00     0.150 C 
ATOM     11  C   UNL     1       1.572  -0.486  -0.454  1.00  0.00     0.014 C 
ATOM     12  C   UNL     1       1.024  -0.898  -1.847  1.00  0.00     0.000 C 
ATOM     13  C   UNL     1      -0.429  -0.368  -2.006  1.00  0.00     0.014 C 
ATOM     14  C   UNL     1       1.816  -0.043  -2.904  1.00  0.00     0.020 C 
ATOM     15  C   UNL     1       3.298  -0.335  -3.061  1.00  0.00     0.070 C 
ATOM     16  C   UNL     1       2.618  -2.883  -2.346  1.00  0.00     0.110 C 
ATOM     17  S   UNL     1       3.521  -2.011  -3.665  1.00  0.00    -0.159 SA
BRANCH  10  18
ATOM     18  N   UNL     1       0.262  -2.791  -3.322  1.00  0.00    -0.368 N 
ATOM     19  H   UNL     1      -0.202  -2.050  -3.775  1.00  0.00     0.161 HD
BRANCH  18  20
ATOM     20  C   UNL     1       0.110  -4.093  -3.812  1.00  0.00     0.049 A 
ATOM     21  C   UNL     1       1.028  -4.550  -4.768  1.00  0.00     0.027 A 
ATOM     22  C   UNL     1      -0.888  -4.995  -3.401  1.00  0.00     0.041 A 
ATOM     23  C   UNL     1       1.012  -5.867  -5.230  1.00  0.00     0.002 A 
ATOM     24  C   UNL     1      -0.896  -6.323  -3.846  1.00  0.00     0.018 A 
ATOM     25  Br  UNL     1      -2.381  -4.471  -2.363  1.00  0.00    -0.049 Br
ATOM     26  C   UNL     1       0.064  -6.762  -4.751  1.00  0.00     0.001 A 
ENDBRANCH  18  20
ENDBRANCH  10  18
ENDBRANCH   8  10
ENDBRANCH   7   8
ENDBRANCH   6   7
ENDBRANCH   5   6
ENDBRANCH   4   5
ENDBRANCH   3   4
ENDBRANCH   2   3
ENDBRANCH   1   2
BRANCH   1  27
ATOM     27  C   UNL     1      -2.655  -0.430   3.207  1.00  0.00     0.188 C 
BRANCH  27  28
ATOM     28  C   UNL     1      -4.123  -0.361   2.756  1.00  0.00     0.188 C 
BRANCH  28  29
ATOM     29  O   UNL     1      -4.300   0.245   1.471  1.00  0.00    -0.376 OA
BRANCH  29  30
ATOM     30  C   UNL     1      -4.743   1.597   1.438  1.00  0.00     0.202 C 
BRANCH  30  31
ATOM     31  C   UNL     1      -3.603   2.626   1.431  1.00  0.00     0.261 C 
BRANCH  31  32
ATOM     32  O   UNL     1      -2.791   2.654   2.616  1.00  0.00    -0.460 OA
BRANCH  32  33
ATOM     33  C   UNL     1      -3.417   2.870   3.793  1.00  0.00     0.338 C 
ATOM     34  O   UNL     1      -4.594   3.141   3.965  1.00  0.00    -0.246 OA
BRANCH  33  35
ATOM     35  C   UNL     1      -2.484   2.503   4.878  1.00  0.00     0.060 A 
ATOM     36  C   UNL     1      -2.907   1.560   5.825  1.00  0.00     0.016 A 
ATOM     37  C   UNL     1      -1.190   3.028   4.928  1.00  0.00     0.016 A 
ATOM     38  C   UNL     1      -2.042   1.158   6.842  1.00  0.00     0.010 A 
ATOM     39  C   UNL     1      -0.338   2.657   5.971  1.00  0.00     0.010 A 
ATOM     40  C   UNL     1      -0.775   1.746   6.949  1.00  0.00    -0.014 A 
BRANCH  40  41
ATOM     41  C   UNL     1      -0.030   1.625   8.223  1.00  0.00     0.031 A 
ATOM     42  C   UNL     1      -0.360   2.614   9.309  1.00  0.00     0.074 A 
ATOM     43  C   UNL     1       0.907   0.682   8.419  1.00  0.00     0.049 A 
ATOM     44  N   UNL     1       0.149   2.736  10.507  1.00  0.00    -0.248 NA
ATOM     45  C   UNL     1      -1.408   3.603   8.997  1.00  0.00     0.031 C 
ATOM     46  C   UNL     1       1.302  -0.341   7.453  1.00  0.00     0.029 A 
ATOM     47  N   UNL     1       1.710   0.446   9.508  1.00  0.00    -0.354 N 
ATOM     48  C   UNL     1      -0.518   3.806  11.088  1.00  0.00     0.074 A 
ATOM     49  C   UNL     1      -1.453   4.315  10.111  1.00  0.00     0.031 C 
ATOM     50  C   UNL     1       2.291  -1.083   7.986  1.00  0.00     0.029 A 
ATOM     51  C   UNL     1       2.607  -0.576   9.321  1.00  0.00     0.049 A 
ATOM     52  H   UNL     1       1.647   0.962  10.344  1.00  0.00     0.167 HD
ATOM     53  C   UNL     1      -0.367   4.321  12.328  1.00  0.00     0.037 A 
ATOM     54  C   UNL     1       3.581  -1.031  10.134  1.00  0.00     0.037 A 
ATOM     55  C   UNL     1       0.569   3.828  13.297  1.00  0.00     0.049 A 
ATOM     56  C   UNL     1       3.767  -0.399  11.492  1.00  0.00     0.074 A 
ATOM     57  C   UNL     1       0.776   4.262  14.594  1.00  0.00     0.029 A 
ATOM     58  N   UNL     1       1.466   2.798  13.066  1.00  0.00    -0.354 N 
ATOM     59  N   UNL     1       3.085   0.567  12.057  1.00  0.00    -0.248 NA
ATOM     60  C   UNL     1       4.860  -0.925  12.325  1.00  0.00     0.031 C 
ATOM     61  C   UNL     1       1.832   3.522  15.134  1.00  0.00     0.029 A 
ATOM     62  C   UNL     1       2.251   2.601  14.187  1.00  0.00     0.049 A 
ATOM     63  H   UNL     1       1.535   2.284  12.229  1.00  0.00     0.167 HD
ATOM     64  C   UNL     1       3.642   0.741  13.319  1.00  0.00     0.074 A 
ATOM     65  C   UNL     1       4.714  -0.224  13.441  1.00  0.00     0.031 C 
ATOM     66  C   UNL     1       3.299   1.620  14.292  1.00  0.00     0.037 A 
BRANCH  53  67
ATOM     67  C   UNL     1      -1.218   5.497  12.693  1.00  0.00     0.057 A 
ATOM     68  C   UNL     1      -2.577   5.354  12.998  1.00  0.00     0.134 A 
ATOM     69  C   UNL     1      -0.664   6.779  12.768  1.00  0.00     0.134 A 
ATOM     70  F   UNL     1      -3.170   4.153  12.921  1.00  0.00    -0.206 F 
ATOM     71  C   UNL     1      -3.359   6.452  13.359  1.00  0.00     0.040 A 
ATOM     72  C   UNL     1      -1.431   7.881  13.146  1.00  0.00     0.040 A 
ATOM     73  F   UNL     1       0.630   6.980  12.480  1.00  0.00    -0.206 F 
ATOM     74  C   UNL     1      -2.784   7.719  13.441  1.00  0.00     0.006 A 
ENDBRANCH  53  67
BRANCH  54  75
ATOM     75  C   UNL     1       4.482  -2.128   9.696  1.00  0.00     0.057 A 
ATOM     76  C   UNL     1       4.446  -3.388  10.306  1.00  0.00     0.134 A 
ATOM     77  C   UNL     1       5.447  -1.922   8.703  1.00  0.00     0.134 A 
ATOM     78  F   UNL     1       3.563  -3.638  11.285  1.00  0.00    -0.206 F 
ATOM     79  C   UNL     1       5.354  -4.393   9.966  1.00  0.00     0.040 A 
ATOM     80  C   UNL     1       6.346  -2.925   8.336  1.00  0.00     0.040 A 
ATOM     81  F   UNL     1       5.538  -0.736   8.083  1.00  0.00    -0.206 F 
ATOM     82  C   UNL     1       6.307  -4.162   8.976  1.00  0.00     0.006 A 
ENDBRANCH  54  75
BRANCH  66  83
ATOM     83  C   UNL     1       4.057   1.554  15.584  1.00  0.00     0.057 A 
ATOM     84  C   UNL     1       5.364   2.041  15.697  1.00  0.00     0.134 A 
ATOM     85  C   UNL     1       3.447   1.053  16.741  1.00  0.00     0.134 A 
ATOM     86  F   UNL     1       6.006   2.525  14.623  1.00  0.00    -0.206 F 
ATOM     87  C   UNL     1       6.045   2.016  16.915  1.00  0.00     0.040 A 
ATOM     88  C   UNL     1       4.109   1.045  17.968  1.00  0.00     0.040 A 
ATOM     89  F   UNL     1       2.191   0.583  16.699  1.00  0.00    -0.206 F 
ATOM     90  C   UNL     1       5.414   1.524  18.057  1.00  0.00     0.006 A 
ENDBRANCH  66  83
ENDBRANCH  40  41
ENDBRANCH  33  35
ENDBRANCH  32  33
ENDBRANCH  31  32
ENDBRANCH  30  31
ENDBRANCH  29  30
ENDBRANCH  28  29
ENDBRANCH  27  28
ENDBRANCH   1  27
TORSDOF 22
