REMARK SMILES CC[N@@H+](C)Cc1cc2c(cc1Cl)C=C(C(=O)OCCOCCOCCOCCOC(=O)c1ccc(-c3c4nc(c(-c5c(F)cccc5F)c5ccc([nH]5)c(-c5c(F)cccc5F)c5nc(c(-c6c(F)cccc6F)c6ccc3[nH]6)C=C5)C=C4)cc1)[C@@H](C(F)(F)F)O2
REMARK SMILES IDX 22 1 21 2 20 3 19 4 18 5 17 6 15 7 16 8 14 9 6 10 7 11 11 12
REMARK SMILES IDX 8 13 10 14 12 15 9 16 91 17 13 18 86 19 5 20 3 21 4 22 2 24
REMARK SMILES IDX 1 25 87 26 88 27 89 28 90 29 23 30 24 31 25 32 26 33 27 34
REMARK SMILES IDX 28 35 29 36 30 37 31 38 32 39 33 40 85 41 34 42 84 43 35 44
REMARK SMILES IDX 36 45 37 46 78 47 38 48 83 49 77 50 79 51 39 52 82 53 76 54
REMARK SMILES IDX 75 55 40 57 66 58 49 59 65 60 50 61 53 62 64 63 80 64 51 65
REMARK SMILES IDX 52 66 63 68 81 69 54 70 41 71 42 72 47 73 43 74 44 75 46 76
REMARK SMILES IDX 48 77 45 78 67 79 68 80 73 81 69 82 70 83 72 84 74 85 71 86
REMARK SMILES IDX 55 87 56 88 61 89 57 90 58 91 60 92 62 93 59 94
REMARK H PARENT 3 23 79 56 53 67
REMARK Flexibility Score: inf
ROOT
ATOM      1  C   UNL     1       5.580   5.269  -5.701  1.00  0.00     0.188 C 
ENDROOT
BRANCH   1   2
ATOM      2  C   UNL     1       5.545   5.018  -7.220  1.00  0.00     0.188 C 
BRANCH   2   3
ATOM      3  O   UNL     1       5.371   6.213  -7.978  1.00  0.00    -0.376 OA
BRANCH   3   4
ATOM      4  C   UNL     1       4.080   6.465  -8.518  1.00  0.00     0.202 C 
BRANCH   4   5
ATOM      5  C   UNL     1       2.955   6.796  -7.524  1.00  0.00     0.261 C 
BRANCH   5   6
ATOM      6  O   UNL     1       2.719   5.797  -6.522  1.00  0.00    -0.460 OA
BRANCH   6   7
ATOM      7  C   UNL     1       2.296   4.588  -6.933  1.00  0.00     0.338 C 
ATOM      8  O   UNL     1       1.977   4.269  -8.066  1.00  0.00    -0.246 OA
BRANCH   7   9
ATOM      9  C   UNL     1       2.457   3.650  -5.803  1.00  0.00     0.087 C 
ATOM     10  C   UNL     1       2.941  -0.379  -2.906  1.00  0.00     0.029 A 
ATOM     11  C   UNL     1       2.747   0.988  -2.651  1.00  0.00     0.058 A 
ATOM     12  C   UNL     1       3.415  -0.753  -4.174  1.00  0.00     0.050 A 
ATOM     13  C   UNL     1       2.790   1.919  -3.683  1.00  0.00     0.128 A 
ATOM     14  C   UNL     1       3.513   0.193  -5.199  1.00  0.00     0.033 A 
ATOM     15  Cl  UNL     1       3.841  -2.381  -4.564  1.00  0.00    -0.084 Cl
ATOM     16  C   UNL     1       3.119   1.514  -4.973  1.00  0.00     0.019 A 
ATOM     17  O   UNL     1       2.449   3.194  -3.346  1.00  0.00    -0.475 OA
ATOM     18  C   UNL     1       2.974   2.445  -6.077  1.00  0.00     0.027 C 
ATOM     19  C   UNL     1       2.118   4.125  -4.411  1.00  0.00     0.316 C 
BRANCH  10  20
ATOM     20  C   UNL     1       2.485  -1.382  -1.863  1.00  0.00     0.300 C 
BRANCH  20  21
ATOM     21  N   UNL     1       1.019  -1.587  -1.778  1.00  0.00    -0.334 N 
ATOM     22  C   UNL     1       0.446  -2.022  -3.056  1.00  0.00     0.333 C 
ATOM     23  H   UNL     1       0.939  -2.333  -1.088  1.00  0.00     0.348 HD
BRANCH  21  24
ATOM     24  C   UNL     1       0.235  -0.470  -1.233  1.00  0.00     0.258 C 
ATOM     25  C   UNL     1       0.605  -0.089   0.197  1.00  0.00     0.071 C 
ENDBRANCH  21  24
ENDBRANCH  20  21
ENDBRANCH  10  20
BRANCH  19  26
ATOM     26  C   UNL     1       0.643   4.526  -4.283  1.00  0.00     0.430 C 
ATOM     27  F   UNL     1       0.339   4.893  -3.014  1.00  0.00    -0.167 F 
ATOM     28  F   UNL     1       0.337   5.579  -5.076  1.00  0.00    -0.167 F 
ATOM     29  F   UNL     1      -0.187   3.512  -4.620  1.00  0.00    -0.167 F 
ENDBRANCH  19  26
ENDBRANCH   7   9
ENDBRANCH   6   7
ENDBRANCH   5   6
ENDBRANCH   4   5
ENDBRANCH   3   4
ENDBRANCH   2   3
ENDBRANCH   1   2
BRANCH   1  30
ATOM     30  O   UNL     1       5.160   6.580  -5.357  1.00  0.00    -0.377 OA
BRANCH  30  31
ATOM     31  C   UNL     1       6.138   7.618  -5.434  1.00  0.00     0.188 C 
BRANCH  31  32
ATOM     32  C   UNL     1       7.375   7.499  -6.355  1.00  0.00     0.188 C 
BRANCH  32  33
ATOM     33  O   UNL     1       8.071   6.260  -6.231  1.00  0.00    -0.376 OA
BRANCH  33  34
ATOM     34  C   UNL     1       9.332   6.293  -5.575  1.00  0.00     0.202 C 
BRANCH  34  35
ATOM     35  C   UNL     1       9.235   6.375  -4.047  1.00  0.00     0.261 C 
BRANCH  35  36
ATOM     36  O   UNL     1       8.614   7.567  -3.542  1.00  0.00    -0.460 OA
BRANCH  36  37
ATOM     37  C   UNL     1       9.175   8.753  -3.871  1.00  0.00     0.338 C 
ATOM     38  O   UNL     1      10.208   8.935  -4.485  1.00  0.00    -0.246 OA
BRANCH  37  39
ATOM     39  C   UNL     1       8.199   9.812  -3.534  1.00  0.00     0.060 A 
ATOM     40  C   UNL     1       7.588   9.840  -2.278  1.00  0.00     0.016 A 
ATOM     41  C   UNL     1       7.875  10.770  -4.503  1.00  0.00     0.016 A 
ATOM     42  C   UNL     1       6.688  10.861  -1.974  1.00  0.00     0.010 A 
ATOM     43  C   UNL     1       6.967  11.787  -4.200  1.00  0.00     0.010 A 
ATOM     44  C   UNL     1       6.397  11.859  -2.921  1.00  0.00    -0.014 A 
BRANCH  44  45
ATOM     45  C   UNL     1       5.695  13.088  -2.484  1.00  0.00     0.031 A 
ATOM     46  C   UNL     1       4.244  13.332  -2.755  1.00  0.00     0.074 A 
ATOM     47  C   UNL     1       6.425  14.006  -1.823  1.00  0.00     0.049 A 
ATOM     48  N   UNL     1       3.487  14.313  -2.332  1.00  0.00    -0.248 NA
ATOM     49  C   UNL     1       3.555  12.364  -3.618  1.00  0.00     0.031 C 
ATOM     50  C   UNL     1       7.859  13.895  -1.546  1.00  0.00     0.029 A 
ATOM     51  N   UNL     1       6.066  15.201  -1.259  1.00  0.00    -0.354 N 
ATOM     52  C   UNL     1       2.223  14.072  -2.853  1.00  0.00     0.074 A 
ATOM     53  C   UNL     1       2.331  12.876  -3.665  1.00  0.00     0.031 C 
ATOM     54  C   UNL     1       8.254  14.967  -0.845  1.00  0.00     0.029 A 
ATOM     55  C   UNL     1       7.108  15.844  -0.637  1.00  0.00     0.049 A 
ATOM     56  H   UNL     1       5.152  15.564  -1.297  1.00  0.00     0.167 HD
ATOM     57  C   UNL     1       1.082  14.778  -2.655  1.00  0.00     0.037 A 
ATOM     58  C   UNL     1       7.135  17.007   0.036  1.00  0.00     0.037 A 
ATOM     59  C   UNL     1       0.994  15.987  -1.869  1.00  0.00     0.049 A 
ATOM     60  C   UNL     1       5.862  17.780   0.212  1.00  0.00     0.074 A 
ATOM     61  C   UNL     1      -0.127  16.744  -1.569  1.00  0.00     0.029 A 
ATOM     62  N   UNL     1       2.072  16.629  -1.276  1.00  0.00    -0.354 N 
ATOM     63  N   UNL     1       4.652  17.487  -0.197  1.00  0.00    -0.248 NA
ATOM     64  C   UNL     1       5.960  19.042   0.957  1.00  0.00     0.031 C 
ATOM     65  C   UNL     1       0.280  17.868  -0.839  1.00  0.00     0.029 A 
ATOM     66  C   UNL     1       1.648  17.788  -0.641  1.00  0.00     0.049 A 
ATOM     67  H   UNL     1       3.002  16.308  -1.303  1.00  0.00     0.167 HD
ATOM     68  C   UNL     1       3.840  18.517   0.256  1.00  0.00     0.074 A 
ATOM     69  C   UNL     1       4.693  19.425   0.996  1.00  0.00     0.031 C 
ATOM     70  C   UNL     1       2.509  18.697   0.074  1.00  0.00     0.037 A 
BRANCH  57  71
ATOM     71  C   UNL     1      -0.173  14.261  -3.298  1.00  0.00     0.057 A 
ATOM     72  C   UNL     1      -0.789  14.959  -4.344  1.00  0.00     0.134 A 
ATOM     73  C   UNL     1      -0.805  13.096  -2.841  1.00  0.00     0.134 A 
ATOM     74  F   UNL     1      -0.245  16.088  -4.823  1.00  0.00    -0.206 F 
ATOM     75  C   UNL     1      -1.988  14.520  -4.911  1.00  0.00     0.040 A 
ATOM     76  C   UNL     1      -1.991  12.634  -3.416  1.00  0.00     0.040 A 
ATOM     77  F   UNL     1      -0.268  12.378  -1.844  1.00  0.00    -0.206 F 
ATOM     78  C   UNL     1      -2.589  13.351  -4.450  1.00  0.00     0.006 A 
ENDBRANCH  57  71
BRANCH  58  79
ATOM     79  C   UNL     1       8.406  17.492   0.623  1.00  0.00     0.057 A 
ATOM     80  C   UNL     1       9.449  17.960  -0.184  1.00  0.00     0.134 A 
ATOM     81  C   UNL     1       8.600  17.510   2.008  1.00  0.00     0.134 A 
ATOM     82  F   UNL     1       9.327  17.956  -1.520  1.00  0.00    -0.206 F 
ATOM     83  C   UNL     1      10.642  18.429   0.366  1.00  0.00     0.040 A 
ATOM     84  C   UNL     1       9.777  18.001   2.573  1.00  0.00     0.040 A 
ATOM     85  F   UNL     1       7.629  17.087   2.831  1.00  0.00    -0.206 F 
ATOM     86  C   UNL     1      10.803  18.459   1.750  1.00  0.00     0.006 A 
ENDBRANCH  58  79
BRANCH  70  87
ATOM     87  C   UNL     1       1.907  19.923   0.699  1.00  0.00     0.057 A 
ATOM     88  C   UNL     1       1.068  19.821   1.815  1.00  0.00     0.134 A 
ATOM     89  C   UNL     1       2.185  21.209   0.216  1.00  0.00     0.134 A 
ATOM     90  F   UNL     1       0.757  18.621   2.328  1.00  0.00    -0.206 F 
ATOM     91  C   UNL     1       0.537  20.953   2.436  1.00  0.00     0.040 A 
ATOM     92  C   UNL     1       1.683  22.350   0.845  1.00  0.00     0.040 A 
ATOM     93  F   UNL     1       2.997  21.379  -0.839  1.00  0.00    -0.206 F 
ATOM     94  C   UNL     1       0.855  22.223   1.958  1.00  0.00     0.006 A 
ENDBRANCH  70  87
ENDBRANCH  44  45
ENDBRANCH  37  39
ENDBRANCH  36  37
ENDBRANCH  35  36
ENDBRANCH  34  35
ENDBRANCH  33  34
ENDBRANCH  32  33
ENDBRANCH  31  32
ENDBRANCH  30  31
ENDBRANCH   1  30
TORSDOF 24
