REMARK SMILES O=C(OCCOCCOCCOCCOC(=O)C1(Cc2cccc(Cl)c2)CCCC1)c1ccc(-c2c3nc(c(-c4c(F)cccc4F)c4ccc([nH]4)c(-c4c(F)cccc4F)c4nc(c(-c5c(F)cccc5F)c5ccc2[nH]5)C=C4)C=C3)cc1
REMARK SMILES IDX 9 1 8 2 7 3 6 4 5 5 4 6 3 7 2 8 1 9 31 10 32 11 84 12 33 13
REMARK SMILES IDX 83 14 34 15 35 16 36 17 77 18 37 19 82 20 76 21 78 22 38 23
REMARK SMILES IDX 81 24 75 25 74 26 39 28 65 29 48 30 64 31 49 32 52 33 63 34
REMARK SMILES IDX 79 35 50 36 51 37 62 39 80 40 53 41 40 42 41 43 46 44 42 45
REMARK SMILES IDX 43 46 45 47 47 48 44 49 66 50 67 51 72 52 68 53 69 54 71 55
REMARK SMILES IDX 73 56 70 57 54 58 55 59 60 60 56 61 57 62 59 63 61 64 58 65
REMARK SMILES IDX 10 66 11 67 12 68 13 69 14 70 15 71 16 72 17 73 18 74 27 75
REMARK SMILES IDX 30 76 28 77 29 78 19 79 20 80 21 81 26 82 22 83 24 84 23 85
REMARK SMILES IDX 25 86
REMARK H PARENT 78 27 52 38
REMARK Flexibility Score: inf
ROOT
ATOM      1  O   UNL     1       2.463  -3.082   1.002  1.00  0.00    -0.377 OA
ENDROOT
BRANCH   1   2
ATOM      2  C   UNL     1       2.020  -2.153   0.038  1.00  0.00     0.188 C 
BRANCH   2   3
ATOM      3  C   UNL     1       2.558  -0.742   0.211  1.00  0.00     0.188 C 
BRANCH   3   4
ATOM      4  O   UNL     1       3.954  -0.661  -0.084  1.00  0.00    -0.376 OA
BRANCH   4   5
ATOM      5  C   UNL     1       4.746   0.129   0.800  1.00  0.00     0.202 C 
BRANCH   5   6
ATOM      6  C   UNL     1       4.411   1.619   0.913  1.00  0.00     0.261 C 
BRANCH   6   7
ATOM      7  O   UNL     1       3.112   2.041   0.461  1.00  0.00    -0.460 OA
BRANCH   7   8
ATOM      8  C   UNL     1       2.600   2.228  -0.779  1.00  0.00     0.338 C 
ATOM      9  O   UNL     1       1.486   2.745  -0.870  1.00  0.00    -0.246 OA
BRANCH   8  10
ATOM     10  C   UNL     1       3.223   1.702  -2.035  1.00  0.00     0.060 A 
ATOM     11  C   UNL     1       4.497   1.149  -2.112  1.00  0.00     0.016 A 
ATOM     12  C   UNL     1       2.434   1.701  -3.205  1.00  0.00     0.016 A 
ATOM     13  C   UNL     1       4.936   0.490  -3.246  1.00  0.00     0.010 A 
ATOM     14  C   UNL     1       2.920   1.162  -4.401  1.00  0.00     0.010 A 
ATOM     15  C   UNL     1       4.179   0.559  -4.410  1.00  0.00    -0.014 A 
BRANCH  15  16
ATOM     16  C   UNL     1       4.938   0.319  -5.644  1.00  0.00     0.031 A 
ATOM     17  C   UNL     1       5.714   1.490  -6.175  1.00  0.00     0.074 A 
ATOM     18  C   UNL     1       5.131  -0.932  -6.087  1.00  0.00     0.049 A 
ATOM     19  N   UNL     1       6.524   1.562  -7.192  1.00  0.00    -0.248 NA
ATOM     20  C   UNL     1       5.601   2.749  -5.409  1.00  0.00     0.031 C 
ATOM     21  C   UNL     1       4.585  -2.142  -5.467  1.00  0.00     0.029 A 
ATOM     22  N   UNL     1       5.880  -1.397  -7.131  1.00  0.00    -0.354 N 
ATOM     23  C   UNL     1       7.007   2.865  -7.188  1.00  0.00     0.074 A 
ATOM     24  C   UNL     1       6.419   3.550  -6.066  1.00  0.00     0.031 C 
ATOM     25  C   UNL     1       5.016  -3.214  -6.154  1.00  0.00     0.029 A 
ATOM     26  C   UNL     1       5.815  -2.759  -7.286  1.00  0.00     0.049 A 
ATOM     27  H   UNL     1       6.413  -0.811  -7.716  1.00  0.00     0.167 HD
ATOM     28  C   UNL     1       7.856   3.438  -8.069  1.00  0.00     0.037 A 
ATOM     29  C   UNL     1       6.320  -3.524  -8.271  1.00  0.00     0.037 A 
ATOM     30  C   UNL     1       8.380   2.729  -9.199  1.00  0.00     0.049 A 
ATOM     31  C   UNL     1       7.108  -2.827  -9.351  1.00  0.00     0.074 A 
ATOM     32  C   UNL     1       9.136   3.204 -10.251  1.00  0.00     0.029 A 
ATOM     33  N   UNL     1       8.177   1.371  -9.420  1.00  0.00    -0.354 N 
ATOM     34  N   UNL     1       7.475  -1.567  -9.423  1.00  0.00    -0.248 NA
ATOM     35  C   UNL     1       7.534  -3.643 -10.493  1.00  0.00     0.031 C 
ATOM     36  C   UNL     1       9.341   2.142 -11.139  1.00  0.00     0.029 A 
ATOM     37  C   UNL     1       8.771   0.993 -10.607  1.00  0.00     0.049 A 
ATOM     38  H   UNL     1       7.682   0.769  -8.819  1.00  0.00     0.167 HD
ATOM     39  C   UNL     1       8.193  -1.442 -10.603  1.00  0.00     0.074 A 
ATOM     40  C   UNL     1       8.223  -2.762 -11.205  1.00  0.00     0.031 C 
ATOM     41  C   UNL     1       8.776  -0.344 -11.149  1.00  0.00     0.037 A 
BRANCH  28  42
ATOM     42  C   UNL     1       8.133   4.901  -7.887  1.00  0.00     0.057 A 
ATOM     43  C   UNL     1       8.921   5.393  -6.837  1.00  0.00     0.134 A 
ATOM     44  C   UNL     1       7.526   5.839  -8.731  1.00  0.00     0.134 A 
ATOM     45  F   UNL     1       9.493   4.551  -5.963  1.00  0.00    -0.206 F 
ATOM     46  C   UNL     1       9.071   6.766  -6.619  1.00  0.00     0.040 A 
ATOM     47  C   UNL     1       7.688   7.212  -8.538  1.00  0.00     0.040 A 
ATOM     48  F   UNL     1       6.741   5.437  -9.742  1.00  0.00    -0.206 F 
ATOM     49  C   UNL     1       8.455   7.679  -7.473  1.00  0.00     0.006 A 
ENDBRANCH  28  42
BRANCH  29  50
ATOM     50  C   UNL     1       6.034  -4.983  -8.329  1.00  0.00     0.057 A 
ATOM     51  C   UNL     1       7.054  -5.939  -8.271  1.00  0.00     0.134 A 
ATOM     52  C   UNL     1       4.724  -5.458  -8.489  1.00  0.00     0.134 A 
ATOM     53  F   UNL     1       8.333  -5.556  -8.141  1.00  0.00    -0.206 F 
ATOM     54  C   UNL     1       6.787  -7.306  -8.388  1.00  0.00     0.040 A 
ATOM     55  C   UNL     1       4.439  -6.822  -8.578  1.00  0.00     0.040 A 
ATOM     56  F   UNL     1       3.695  -4.601  -8.560  1.00  0.00    -0.206 F 
ATOM     57  C   UNL     1       5.475  -7.752  -8.538  1.00  0.00     0.006 A 
ENDBRANCH  29  50
BRANCH  41  58
ATOM     58  C   UNL     1       9.525  -0.545 -12.430  1.00  0.00     0.057 A 
ATOM     59  C   UNL     1       8.868  -0.765 -13.645  1.00  0.00     0.134 A 
ATOM     60  C   UNL     1      10.922  -0.445 -12.449  1.00  0.00     0.134 A 
ATOM     61  F   UNL     1       7.532  -0.880 -13.685  1.00  0.00    -0.206 F 
ATOM     62  C   UNL     1       9.578  -0.900 -14.837  1.00  0.00     0.040 A 
ATOM     63  C   UNL     1      11.640  -0.545 -13.639  1.00  0.00     0.040 A 
ATOM     64  F   UNL     1      11.606  -0.220 -11.317  1.00  0.00    -0.206 F 
ATOM     65  C   UNL     1      10.967  -0.779 -14.836  1.00  0.00     0.006 A 
ENDBRANCH  41  58
ENDBRANCH  15  16
ENDBRANCH   8  10
ENDBRANCH   7   8
ENDBRANCH   6   7
ENDBRANCH   5   6
ENDBRANCH   4   5
ENDBRANCH   3   4
ENDBRANCH   2   3
ENDBRANCH   1   2
BRANCH   1  66
ATOM     66  C   UNL     1       3.827  -3.016   1.356  1.00  0.00     0.188 C 
BRANCH  66  67
ATOM     67  C   UNL     1       4.876  -3.492   0.345  1.00  0.00     0.188 C 
BRANCH  67  68
ATOM     68  O   UNL     1       4.407  -3.991  -0.883  1.00  0.00    -0.376 OA
BRANCH  68  69
ATOM     69  C   UNL     1       3.545  -5.113  -0.920  1.00  0.00     0.202 C 
BRANCH  69  70
ATOM     70  C   UNL     1       3.218  -6.079   0.249  1.00  0.00     0.261 C 
BRANCH  70  71
ATOM     71  O   UNL     1       3.467  -5.696   1.611  1.00  0.00    -0.463 OA
BRANCH  71  72
ATOM     72  C   UNL     1       4.619  -6.109   2.190  1.00  0.00     0.312 C 
ATOM     73  O   UNL     1       5.449  -6.782   1.580  1.00  0.00    -0.252 OA
BRANCH  72  74
ATOM     74  C   UNL     1       4.830  -5.577   3.645  1.00  0.00     0.072 C 
ATOM     75  C   UNL     1       5.829  -6.580   4.292  1.00  0.00     0.019 C 
ATOM     76  C   UNL     1       5.684  -4.284   3.722  1.00  0.00     0.019 C 
ATOM     77  C   UNL     1       6.558  -5.828   5.392  1.00  0.00     0.001 C 
ATOM     78  C   UNL     1       6.590  -4.380   4.945  1.00  0.00     0.001 C 
BRANCH  74  79
ATOM     79  C   UNL     1       3.519  -5.514   4.506  1.00  0.00     0.054 C 
BRANCH  79  80
ATOM     80  C   UNL     1       2.501  -4.391   4.325  1.00  0.00    -0.045 A 
ATOM     81  C   UNL     1       1.380  -4.563   3.495  1.00  0.00     0.004 A 
ATOM     82  C   UNL     1       2.621  -3.169   5.009  1.00  0.00     0.024 A 
ATOM     83  C   UNL     1       0.443  -3.537   3.309  1.00  0.00     0.002 A 
ATOM     84  C   UNL     1       1.678  -2.147   4.824  1.00  0.00     0.041 A 
ATOM     85  C   UNL     1       0.595  -2.321   3.968  1.00  0.00     0.020 A 
ATOM     86  Cl  UNL     1       1.861  -0.651   5.658  1.00  0.00    -0.084 Cl
ENDBRANCH  79  80
ENDBRANCH  74  79
ENDBRANCH  72  74
ENDBRANCH  71  72
ENDBRANCH  70  71
ENDBRANCH  69  70
ENDBRANCH  68  69
ENDBRANCH  67  68
ENDBRANCH  66  67
ENDBRANCH   1  66
TORSDOF 22
