REMARK SMILES CC(C)N(CCCC(=O)OCCOCCOCCOCCOC(=O)c1ccc(-c2c3nc(c(-c4c(F)cccc4F)c4ccc([nH]4)c(-c4c(F)cccc4F)c4nc(c(-c5c(F)cccc5F)c5ccc2[nH]5)C=C4)C=C3)cc1)C(=O)Cc1c(F)cccc1F
REMARK SMILES IDX 14 1 13 2 12 3 11 4 10 5 8 6 9 7 7 8 6 9 5 10 4 11 2 12 1 13
REMARK SMILES IDX 3 14 79 15 80 16 81 17 82 18 83 19 88 20 84 21 85 22 87 23
REMARK SMILES IDX 89 24 86 25 15 26 16 27 17 28 18 29 19 30 20 31 21 32 22 33
REMARK SMILES IDX 23 34 24 35 25 36 26 37 78 38 27 39 77 40 28 41 29 42 30 43
REMARK SMILES IDX 71 44 31 45 76 46 70 47 72 48 32 49 75 50 69 51 68 52 33 54
REMARK SMILES IDX 59 55 42 56 58 57 43 58 46 59 57 60 73 61 44 62 45 63 56 65
REMARK SMILES IDX 74 66 47 67 34 68 35 69 40 70 36 71 37 72 39 73 41 74 38 75
REMARK SMILES IDX 60 76 61 77 66 78 62 79 63 80 65 81 67 82 64 83 48 84 49 85
REMARK SMILES IDX 54 86 50 87 51 88 53 89 55 90 52 91
REMARK H PARENT 72 53 46 64
REMARK Flexibility Score: inf
ROOT
ATOM      1  C   UNL     1      -6.304  -1.129  -3.613  1.00  0.00     0.188 C 
ENDROOT
BRANCH   1   2
ATOM      2  O   UNL     1      -6.615   0.159  -3.119  1.00  0.00    -0.376 OA
BRANCH   2   3
ATOM      3  C   UNL     1      -6.351   0.409  -1.754  1.00  0.00     0.202 C 
BRANCH   3   4
ATOM      4  C   UNL     1      -4.897   0.295  -1.376  1.00  0.00     0.261 C 
BRANCH   4   5
ATOM      5  O   UNL     1      -4.287  -0.972  -1.582  1.00  0.00    -0.463 OA
BRANCH   5   6
ATOM      6  C   UNL     1      -4.558  -2.031  -0.797  1.00  0.00     0.305 C 
ATOM      7  O   UNL     1      -5.564  -2.164  -0.122  1.00  0.00    -0.252 OA
BRANCH   6   8
ATOM      8  C   UNL     1      -3.396  -3.010  -0.844  1.00  0.00     0.124 C 
BRANCH   8   9
ATOM      9  C   UNL     1      -2.120  -2.495  -1.537  1.00  0.00     0.033 C 
BRANCH   9  10
ATOM     10  C   UNL     1      -1.589  -1.091  -1.163  1.00  0.00     0.120 C 
BRANCH  10  11
ATOM     11  N   UNL     1      -0.757  -1.014   0.038  1.00  0.00    -0.340 N 
BRANCH  11  12
ATOM     12  C   UNL     1       0.699  -1.081  -0.218  1.00  0.00     0.078 C 
ATOM     13  C   UNL     1       1.445   0.165   0.272  1.00  0.00     0.031 C 
ATOM     14  C   UNL     1       1.303  -2.392   0.268  1.00  0.00     0.031 C 
ENDBRANCH  11  12
BRANCH  11  15
ATOM     15  C   UNL     1      -1.203  -0.783   1.349  1.00  0.00     0.227 C 
ATOM     16  O   UNL     1      -0.413  -0.763   2.300  1.00  0.00    -0.275 OA
BRANCH  15  17
ATOM     17  C   UNL     1      -2.679  -0.614   1.680  1.00  0.00     0.142 C 
BRANCH  17  18
ATOM     18  C   UNL     1      -3.318   0.754   1.642  1.00  0.00     0.033 A 
ATOM     19  C   UNL     1      -2.685   1.917   1.211  1.00  0.00     0.129 A 
ATOM     20  C   UNL     1      -4.695   0.850   1.932  1.00  0.00     0.129 A 
ATOM     21  F   UNL     1      -1.377   1.917   0.932  1.00  0.00    -0.207 F 
ATOM     22  C   UNL     1      -3.402   3.100   0.991  1.00  0.00     0.040 A 
ATOM     23  C   UNL     1      -5.430   2.015   1.688  1.00  0.00     0.040 A 
ATOM     24  F   UNL     1      -5.372  -0.254   2.281  1.00  0.00    -0.207 F 
ATOM     25  C   UNL     1      -4.781   3.144   1.198  1.00  0.00     0.006 A 
ENDBRANCH  17  18
ENDBRANCH  15  17
ENDBRANCH  11  15
ENDBRANCH  10  11
ENDBRANCH   9  10
ENDBRANCH   8   9
ENDBRANCH   6   8
ENDBRANCH   5   6
ENDBRANCH   4   5
ENDBRANCH   3   4
ENDBRANCH   2   3
ENDBRANCH   1   2
BRANCH   1  26
ATOM     26  C   UNL     1      -4.895  -1.309  -4.198  1.00  0.00     0.188 C 
BRANCH  26  27
ATOM     27  O   UNL     1      -4.066  -0.233  -4.595  1.00  0.00    -0.377 OA
BRANCH  27  28
ATOM     28  C   UNL     1      -4.461   1.123  -4.655  1.00  0.00     0.188 C 
BRANCH  28  29
ATOM     29  C   UNL     1      -5.727   1.597  -5.387  1.00  0.00     0.188 C 
BRANCH  29  30
ATOM     30  O   UNL     1      -6.196   1.061  -6.608  1.00  0.00    -0.376 OA
BRANCH  30  31
ATOM     31  C   UNL     1      -5.587  -0.066  -7.186  1.00  0.00     0.202 C 
BRANCH  31  32
ATOM     32  C   UNL     1      -4.223   0.126  -7.861  1.00  0.00     0.261 C 
BRANCH  32  33
ATOM     33  O   UNL     1      -3.385   1.164  -7.338  1.00  0.00    -0.460 OA
BRANCH  33  34
ATOM     34  C   UNL     1      -3.705   2.428  -7.718  1.00  0.00     0.338 C 
ATOM     35  O   UNL     1      -4.581   2.772  -8.477  1.00  0.00    -0.246 OA
BRANCH  34  36
ATOM     36  C   UNL     1      -2.865   3.379  -6.948  1.00  0.00     0.060 A 
ATOM     37  C   UNL     1      -3.493   4.405  -6.229  1.00  0.00     0.016 A 
ATOM     38  C   UNL     1      -1.472   3.290  -6.976  1.00  0.00     0.016 A 
ATOM     39  C   UNL     1      -2.732   5.373  -5.574  1.00  0.00     0.010 A 
ATOM     40  C   UNL     1      -0.708   4.281  -6.351  1.00  0.00     0.010 A 
ATOM     41  C   UNL     1      -1.337   5.352  -5.690  1.00  0.00    -0.014 A 
BRANCH  41  42
ATOM     42  C   UNL     1      -0.569   6.583  -5.378  1.00  0.00     0.031 A 
ATOM     43  C   UNL     1      -0.254   7.515  -6.519  1.00  0.00     0.074 A 
ATOM     44  C   UNL     1      -0.196   6.897  -4.125  1.00  0.00     0.049 A 
ATOM     45  N   UNL     1       0.464   8.608  -6.531  1.00  0.00    -0.248 NA
ATOM     46  C   UNL     1      -0.829   7.160  -7.829  1.00  0.00     0.031 C 
ATOM     47  C   UNL     1      -0.497   6.115  -2.929  1.00  0.00     0.029 A 
ATOM     48  N   UNL     1       0.532   7.963  -3.659  1.00  0.00    -0.354 N 
ATOM     49  C   UNL     1       0.435   9.062  -7.844  1.00  0.00     0.074 A 
ATOM     50  C   UNL     1      -0.344   8.114  -8.607  1.00  0.00     0.031 C 
ATOM     51  C   UNL     1       0.064   6.717  -1.864  1.00  0.00     0.029 A 
ATOM     52  C   UNL     1       0.792   7.904  -2.311  1.00  0.00     0.049 A 
ATOM     53  H   UNL     1       0.840   8.700  -4.235  1.00  0.00     0.167 HD
ATOM     54  C   UNL     1       0.999  10.175  -8.368  1.00  0.00     0.037 A 
ATOM     55  C   UNL     1       1.559   8.701  -1.540  1.00  0.00     0.037 A 
ATOM     56  C   UNL     1       1.775  11.117  -7.607  1.00  0.00     0.049 A 
ATOM     57  C   UNL     1       2.257   9.885  -2.165  1.00  0.00     0.074 A 
ATOM     58  C   UNL     1       2.393  12.275  -8.043  1.00  0.00     0.029 A 
ATOM     59  N   UNL     1       2.043  11.004  -6.252  1.00  0.00    -0.354 N 
ATOM     60  N   UNL     1       2.222  10.310  -3.406  1.00  0.00    -0.248 NA
ATOM     61  C   UNL     1       3.101  10.702  -1.280  1.00  0.00     0.031 C 
ATOM     62  C   UNL     1       3.081  12.834  -6.963  1.00  0.00     0.029 A 
ATOM     63  C   UNL     1       2.837  12.059  -5.839  1.00  0.00     0.049 A 
ATOM     64  H   UNL     1       1.716  10.280  -5.669  1.00  0.00     0.167 HD
ATOM     65  C   UNL     1       3.006  11.458  -3.440  1.00  0.00     0.074 A 
ATOM     66  C   UNL     1       3.493  11.671  -2.094  1.00  0.00     0.031 C 
ATOM     67  C   UNL     1       3.298  12.266  -4.490  1.00  0.00     0.037 A 
BRANCH  54  68
ATOM     68  C   UNL     1       0.824  10.416  -9.838  1.00  0.00     0.057 A 
ATOM     69  C   UNL     1      -0.411  10.784 -10.389  1.00  0.00     0.134 A 
ATOM     70  C   UNL     1       1.914  10.311 -10.712  1.00  0.00     0.134 A 
ATOM     71  F   UNL     1      -1.500  10.884  -9.611  1.00  0.00    -0.206 F 
ATOM     72  C   UNL     1      -0.559  11.021 -11.757  1.00  0.00     0.040 A 
ATOM     73  C   UNL     1       1.785  10.574 -12.076  1.00  0.00     0.040 A 
ATOM     74  F   UNL     1       3.125   9.963 -10.251  1.00  0.00    -0.206 F 
ATOM     75  C   UNL     1       0.544  10.925 -12.603  1.00  0.00     0.006 A 
ENDBRANCH  54  68
BRANCH  55  76
ATOM     76  C   UNL     1       1.747   8.397  -0.096  1.00  0.00     0.057 A 
ATOM     77  C   UNL     1       1.274   9.259   0.900  1.00  0.00     0.134 A 
ATOM     78  C   UNL     1       2.450   7.260   0.322  1.00  0.00     0.134 A 
ATOM     79  F   UNL     1       0.616  10.379   0.566  1.00  0.00    -0.206 F 
ATOM     80  C   UNL     1       1.516   9.019   2.254  1.00  0.00     0.040 A 
ATOM     81  C   UNL     1       2.672   6.990   1.673  1.00  0.00     0.040 A 
ATOM     82  F   UNL     1       2.933   6.392  -0.580  1.00  0.00    -0.206 F 
ATOM     83  C   UNL     1       2.215   7.878   2.644  1.00  0.00     0.006 A 
ENDBRANCH  55  76
BRANCH  67  84
ATOM     84  C   UNL     1       4.137  13.483  -4.220  1.00  0.00     0.057 A 
ATOM     85  C   UNL     1       5.501  13.396  -3.916  1.00  0.00     0.134 A 
ATOM     86  C   UNL     1       3.577  14.765  -4.315  1.00  0.00     0.134 A 
ATOM     87  F   UNL     1       6.098  12.200  -3.802  1.00  0.00    -0.206 F 
ATOM     88  C   UNL     1       6.272  14.538  -3.690  1.00  0.00     0.040 A 
ATOM     89  C   UNL     1       4.345  15.914  -4.123  1.00  0.00     0.040 A 
ATOM     90  F   UNL     1       2.279  14.921  -4.616  1.00  0.00    -0.206 F 
ATOM     91  C   UNL     1       5.695  15.802  -3.801  1.00  0.00     0.006 A 
ENDBRANCH  67  84
ENDBRANCH  41  42
ENDBRANCH  34  36
ENDBRANCH  33  34
ENDBRANCH  32  33
ENDBRANCH  31  32
ENDBRANCH  30  31
ENDBRANCH  29  30
ENDBRANCH  28  29
ENDBRANCH  27  28
ENDBRANCH  26  27
ENDBRANCH   1  26
TORSDOF 27
