REMARK SMILES O=C(OCCOCCOCCOCCOC(=O)c1ccc(-c2c3nc(c(-c4c(F)cccc4F)c4ccc([nH]4)c(-c4c(F)cccc4F)c4nc(c(-c5c(F)cccc5F)c5ccc2[nH]5)C=C4)C=C3)cc1)C1=Cc2c(Cl)cc(Cl)cc2O[C@@H]1C(F)(F)F
REMARK SMILES IDX 10 1 9 2 8 3 7 4 6 5 5 6 4 7 3 8 2 9 1 10 72 11 73 12 83 13
REMARK SMILES IDX 74 14 82 15 75 16 81 17 76 18 77 19 80 20 78 21 79 22 84 23
REMARK SMILES IDX 85 24 86 25 87 26 11 27 12 28 13 29 14 30 15 31 16 32 17 33
REMARK SMILES IDX 18 34 19 35 71 36 20 37 70 38 21 39 22 40 23 41 64 42 24 43
REMARK SMILES IDX 69 44 63 45 65 46 25 47 68 48 62 49 61 50 26 52 52 53 35 54
REMARK SMILES IDX 51 55 36 56 39 57 50 58 66 59 37 60 38 61 49 63 67 64 40 65
REMARK SMILES IDX 27 66 28 67 33 68 29 69 30 70 32 71 34 72 31 73 53 74 54 75
REMARK SMILES IDX 59 76 55 77 56 78 58 79 60 80 57 81 41 82 42 83 47 84 43 85
REMARK SMILES IDX 44 86 46 87 48 88 45 89
REMARK H PARENT 65 51 39 62
REMARK Flexibility Score: inf
ROOT
ATOM      1  C   UNL     1       4.046  -3.171   1.783  1.00  0.00     0.188 C 
ENDROOT
BRANCH   1   2
ATOM      2  O   UNL     1       2.714  -3.614   1.700  1.00  0.00    -0.377 OA
BRANCH   2   3
ATOM      3  C   UNL     1       1.892  -2.671   1.054  1.00  0.00     0.188 C 
BRANCH   3   4
ATOM      4  C   UNL     1       2.272  -2.326  -0.397  1.00  0.00     0.188 C 
BRANCH   4   5
ATOM      5  O   UNL     1       3.611  -1.897  -0.841  1.00  0.00    -0.376 OA
BRANCH   5   6
ATOM      6  C   UNL     1       4.339  -0.396  -0.998  1.00  0.00     0.202 C 
BRANCH   6   7
ATOM      7  C   UNL     1       3.606   1.484  -0.167  1.00  0.00     0.261 C 
BRANCH   7   8
ATOM      8  O   UNL     1       2.644   2.439  -0.821  1.00  0.00    -0.460 OA
BRANCH   8   9
ATOM      9  C   UNL     1       2.804   2.480  -2.149  1.00  0.00     0.338 C 
ATOM     10  O   UNL     1       2.093   3.018  -2.962  1.00  0.00    -0.246 OA
BRANCH   9  11
ATOM     11  C   UNL     1       3.698   1.334  -2.276  1.00  0.00     0.087 C 
ATOM     12  C   UNL     1       5.082   1.599  -1.865  1.00  0.00     0.029 C 
ATOM     13  C   UNL     1       2.486   0.189  -1.328  1.00  0.00     0.316 C 
ATOM     14  C   UNL     1       5.813   1.095  -0.290  1.00  0.00     0.036 A 
ATOM     15  O   UNL     1       3.172  -0.255   0.444  1.00  0.00    -0.475 OA
ATOM     16  C   UNL     1       7.095   1.451   0.054  1.00  0.00     0.053 A 
ATOM     17  C   UNL     1       4.881   0.258   0.908  1.00  0.00     0.130 A 
ATOM     18  Cl  UNL     1       8.130   2.349  -0.975  1.00  0.00    -0.083 Cl
ATOM     19  C   UNL     1       7.527   1.069   1.339  1.00  0.00     0.042 A 
ATOM     20  C   UNL     1       5.372  -0.059   2.149  1.00  0.00     0.067 A 
ATOM     21  C   UNL     1       6.716   0.357   2.315  1.00  0.00     0.046 A 
ATOM     22  Cl  UNL     1       7.495  -0.005   3.825  1.00  0.00    -0.084 Cl
BRANCH  13  23
ATOM     23  C   UNL     1       2.187  -0.753  -2.689  1.00  0.00     0.430 C 
ATOM     24  F   UNL     1       1.310  -1.768  -2.583  1.00  0.00    -0.167 F 
ATOM     25  F   UNL     1       1.615   0.079  -3.614  1.00  0.00    -0.167 F 
ATOM     26  F   UNL     1       3.290  -1.234  -3.313  1.00  0.00    -0.167 F 
ENDBRANCH  13  23
ENDBRANCH   9  11
ENDBRANCH   8   9
ENDBRANCH   7   8
ENDBRANCH   6   7
ENDBRANCH   5   6
ENDBRANCH   4   5
ENDBRANCH   3   4
ENDBRANCH   2   3
ENDBRANCH   1   2
BRANCH   1  27
ATOM     27  C   UNL     1       5.054  -3.851   0.847  1.00  0.00     0.188 C 
BRANCH  27  28
ATOM     28  O   UNL     1       4.684  -4.734  -0.198  1.00  0.00    -0.376 OA
BRANCH  28  29
ATOM     29  C   UNL     1       3.498  -5.504  -0.154  1.00  0.00     0.202 C 
BRANCH  29  30
ATOM     30  C   UNL     1       3.225  -6.515   0.967  1.00  0.00     0.261 C 
BRANCH  30  31
ATOM     31  O   UNL     1       3.523  -6.080   2.297  1.00  0.00    -0.460 OA
BRANCH  31  32
ATOM     32  C   UNL     1       4.782  -6.336   2.710  1.00  0.00     0.338 C 
ATOM     33  O   UNL     1       5.642  -6.958   2.111  1.00  0.00    -0.246 OA
BRANCH  32  34
ATOM     34  C   UNL     1       5.055  -5.580   3.951  1.00  0.00     0.060 A 
ATOM     35  C   UNL     1       6.248  -4.843   4.019  1.00  0.00     0.016 A 
ATOM     36  C   UNL     1       4.175  -5.601   5.035  1.00  0.00     0.016 A 
ATOM     37  C   UNL     1       6.596  -4.174   5.183  1.00  0.00     0.010 A 
ATOM     38  C   UNL     1       4.549  -4.973   6.225  1.00  0.00     0.010 A 
ATOM     39  C   UNL     1       5.786  -4.307   6.314  1.00  0.00    -0.014 A 
BRANCH  39  40
ATOM     40  C   UNL     1       6.372  -3.992   7.634  1.00  0.00     0.031 A 
ATOM     41  C   UNL     1       6.921  -5.132   8.448  1.00  0.00     0.074 A 
ATOM     42  C   UNL     1       6.477  -2.726   8.068  1.00  0.00     0.049 A 
ATOM     43  N   UNL     1       7.440  -5.124   9.647  1.00  0.00    -0.248 NA
ATOM     44  C   UNL     1       6.874  -6.465   7.822  1.00  0.00     0.031 C 
ATOM     45  C   UNL     1       6.049  -1.541   7.329  1.00  0.00     0.029 A 
ATOM     46  N   UNL     1       6.976  -2.234   9.245  1.00  0.00    -0.354 N 
ATOM     47  C   UNL     1       7.763  -6.447   9.925  1.00  0.00     0.074 A 
ATOM     48  C   UNL     1       7.352  -7.235   8.786  1.00  0.00     0.031 C 
ATOM     49  C   UNL     1       6.289  -0.453   8.082  1.00  0.00     0.029 A 
ATOM     50  C   UNL     1       6.846  -0.873   9.366  1.00  0.00     0.049 A 
ATOM     51  H   UNL     1       7.388  -2.801   9.936  1.00  0.00     0.167 HD
ATOM     52  C   UNL     1       8.356  -6.955  11.029  1.00  0.00     0.037 A 
ATOM     53  C   UNL     1       7.118  -0.070  10.412  1.00  0.00     0.037 A 
ATOM     54  C   UNL     1       8.758  -6.158  12.158  1.00  0.00     0.049 A 
ATOM     55  C   UNL     1       7.690  -0.672  11.669  1.00  0.00     0.074 A 
ATOM     56  C   UNL     1       9.376  -6.569  13.325  1.00  0.00     0.029 A 
ATOM     57  N   UNL     1       8.568  -4.788  12.264  1.00  0.00    -0.354 N 
ATOM     58  N   UNL     1       8.003  -1.920  11.924  1.00  0.00    -0.248 NA
ATOM     59  C   UNL     1       7.952   0.249  12.783  1.00  0.00     0.031 C 
ATOM     60  C   UNL     1       9.489  -5.461  14.169  1.00  0.00     0.029 A 
ATOM     61  C   UNL     1       9.024  -4.343  13.494  1.00  0.00     0.049 A 
ATOM     62  H   UNL     1       8.169  -4.217  11.569  1.00  0.00     0.167 HD
ATOM     63  C   UNL     1       8.533  -1.928  13.210  1.00  0.00     0.074 A 
ATOM     64  C   UNL     1       8.512  -0.556  13.674  1.00  0.00     0.031 C 
ATOM     65  C   UNL     1       9.001  -2.972  13.939  1.00  0.00     0.037 A 
BRANCH  52  66
ATOM     66  C   UNL     1       8.561  -8.442  11.089  1.00  0.00     0.057 A 
ATOM     67  C   UNL     1       9.468  -9.108  10.253  1.00  0.00     0.134 A 
ATOM     68  C   UNL     1       7.857  -9.216  12.020  1.00  0.00     0.134 A 
ATOM     69  F   UNL     1      10.165  -8.431   9.328  1.00  0.00    -0.206 F 
ATOM     70  C   UNL     1       9.645 -10.492  10.323  1.00  0.00     0.040 A 
ATOM     71  C   UNL     1       8.052 -10.594  12.124  1.00  0.00     0.040 A 
ATOM     72  F   UNL     1       6.975  -8.645  12.854  1.00  0.00    -0.206 F 
ATOM     73  C   UNL     1       8.942 -11.237  11.268  1.00  0.00     0.006 A 
ENDBRANCH  52  66
BRANCH  53  74
ATOM     74  C   UNL     1       6.830   1.385  10.327  1.00  0.00     0.057 A 
ATOM     75  C   UNL     1       7.858   2.335  10.368  1.00  0.00     0.134 A 
ATOM     76  C   UNL     1       5.517   1.864  10.232  1.00  0.00     0.134 A 
ATOM     77  F   UNL     1       9.136   1.943  10.478  1.00  0.00    -0.206 F 
ATOM     78  C   UNL     1       7.590   3.705  10.345  1.00  0.00     0.040 A 
ATOM     79  C   UNL     1       5.237   3.229  10.175  1.00  0.00     0.040 A 
ATOM     80  F   UNL     1       4.485   1.008  10.185  1.00  0.00    -0.206 F 
ATOM     81  C   UNL     1       6.275   4.155  10.243  1.00  0.00     0.006 A 
ENDBRANCH  53  74
BRANCH  65  82
ATOM     82  C   UNL     1       9.579  -2.667  15.293  1.00  0.00     0.057 A 
ATOM     83  C   UNL     1       8.790  -2.228  16.364  1.00  0.00     0.134 A 
ATOM     84  C   UNL     1      10.947  -2.853  15.537  1.00  0.00     0.134 A 
ATOM     85  F   UNL     1       7.474  -2.022  16.201  1.00  0.00    -0.206 F 
ATOM     86  C   UNL     1       9.346  -1.948  17.614  1.00  0.00     0.040 A 
ATOM     87  C   UNL     1      11.507  -2.615  16.792  1.00  0.00     0.040 A 
ATOM     88  F   UNL     1      11.761  -3.288  14.562  1.00  0.00    -0.206 F 
ATOM     89  C   UNL     1      10.707  -2.149  17.832  1.00  0.00     0.006 A 
ENDBRANCH  65  82
ENDBRANCH  39  40
ENDBRANCH  32  34
ENDBRANCH  31  32
ENDBRANCH  30  31
ENDBRANCH  29  30
ENDBRANCH  28  29
ENDBRANCH  27  28
ENDBRANCH   1  27
TORSDOF 21
