REMARK SMILES O=C(Cc1ccn[nH]1)Nc1sc2c(c1C(=O)OCCOCCOCCOCCOC(=O)c1ccc(-c3c4nc(c(-c5c(F)cccc5F)c5ccc([nH]5)c(-c5c(F)cccc5F)c5nc(c(-c6c(F)cccc6F)c6ccc3[nH]6)C=C5)C=C4)cc1)CCC2
REMARK SMILES IDX 22 1 21 2 20 3 19 4 18 5 17 6 15 7 16 8 14 9 10 10 11 11
REMARK SMILES IDX 12 12 13 13 88 14 86 15 87 16 9 17 1 18 2 19 3 21 4 22 5 23
REMARK SMILES IDX 8 24 6 25 7 26 23 28 24 29 25 30 26 31 27 32 28 33 29 34
REMARK SMILES IDX 30 35 31 36 32 37 33 38 85 39 34 40 84 41 35 42 36 43 37 44
REMARK SMILES IDX 78 45 38 46 83 47 77 48 79 49 39 50 82 51 76 52 75 53 40 55
REMARK SMILES IDX 66 56 49 57 65 58 50 59 53 60 64 61 80 62 51 63 52 64 63 66
REMARK SMILES IDX 81 67 54 68 41 69 42 70 47 71 43 72 44 73 46 74 48 75 45 76
REMARK SMILES IDX 67 77 68 78 73 79 69 80 70 81 72 82 74 83 71 84 55 85 56 86
REMARK SMILES IDX 61 87 57 88 58 89 60 90 62 91 59 92
REMARK H PARENT 9 20 8 27 79 54 53 65
REMARK Flexibility Score: inf
ROOT
ATOM      1  C   UNL     1      -0.940   1.063   0.842  1.00  0.00     0.188 C 
ENDROOT
BRANCH   1   2
ATOM      2  C   UNL     1      -0.272  -0.180   1.484  1.00  0.00     0.188 C 
BRANCH   2   3
ATOM      3  O   UNL     1      -1.048  -0.799   2.492  1.00  0.00    -0.376 OA
BRANCH   3   4
ATOM      4  C   UNL     1      -0.597  -0.745   3.825  1.00  0.00     0.202 C 
BRANCH   4   5
ATOM      5  C   UNL     1      -0.475   0.639   4.477  1.00  0.00     0.261 C 
BRANCH   5   6
ATOM      6  O   UNL     1       0.114   1.680   3.683  1.00  0.00    -0.460 OA
BRANCH   6   7
ATOM      7  C   UNL     1       1.440   1.575   3.396  1.00  0.00     0.341 C 
ATOM      8  O   UNL     1       2.163   0.678   3.816  1.00  0.00    -0.246 OA
BRANCH   7   9
ATOM      9  C   UNL     1       1.882   2.601   2.456  1.00  0.00     0.098 A 
ATOM     10  C   UNL     1       2.858   2.410   1.483  1.00  0.00     0.110 A 
ATOM     11  S   UNL     1       3.356   3.856   0.708  1.00  0.00    -0.122 S 
ATOM     12  C   UNL     1       2.102   4.682   1.444  1.00  0.00     0.011 A 
ATOM     13  C   UNL     1       1.373   3.926   2.321  1.00  0.00    -0.017 A 
ATOM     14  C   UNL     1       1.643   6.085   1.326  1.00  0.00     0.047 C 
ATOM     15  C   UNL     1       0.260   4.715   2.913  1.00  0.00     0.038 C 
ATOM     16  C   UNL     1       0.261   6.013   2.043  1.00  0.00     0.010 C 
BRANCH  10  17
ATOM     17  N   UNL     1       3.426   1.251   0.988  1.00  0.00    -0.317 N 
ATOM     18  O   UNL     1       1.703   0.959  -0.537  1.00  0.00    -0.274 OA
ATOM     19  C   UNL     1       2.729   0.554   0.009  1.00  0.00     0.230 C 
ATOM     20  H   UNL     1       4.297   0.930   1.318  1.00  0.00     0.170 HD
BRANCH  19  21
ATOM     21  C   UNL     1       3.373  -0.748  -0.428  1.00  0.00     0.155 C 
BRANCH  21  22
ATOM     22  C   UNL     1       4.128  -0.611  -1.709  1.00  0.00     0.044 A 
ATOM     23  C   UNL     1       4.832  -1.552  -2.433  1.00  0.00     0.045 A 
ATOM     24  N   UNL     1       4.211   0.547  -2.442  1.00  0.00    -0.282 N 
ATOM     25  C   UNL     1       5.359  -0.848  -3.529  1.00  0.00     0.135 A 
ATOM     26  N   UNL     1       5.005   0.438  -3.520  1.00  0.00    -0.184 NA
ATOM     27  H   UNL     1       3.737   1.375  -2.201  1.00  0.00     0.190 HD
ENDBRANCH  21  22
ENDBRANCH  19  21
ENDBRANCH  10  17
ENDBRANCH   7   9
ENDBRANCH   6   7
ENDBRANCH   5   6
ENDBRANCH   4   5
ENDBRANCH   3   4
ENDBRANCH   2   3
ENDBRANCH   1   2
BRANCH   1  28
ATOM     28  O   UNL     1      -2.309   1.386   1.082  1.00  0.00    -0.377 OA
BRANCH  28  29
ATOM     29  C   UNL     1      -3.196   0.361   1.503  1.00  0.00     0.188 C 
BRANCH  29  30
ATOM     30  C   UNL     1      -3.219  -0.987   0.732  1.00  0.00     0.188 C 
BRANCH  30  31
ATOM     31  O   UNL     1      -2.101  -1.240  -0.102  1.00  0.00    -0.376 OA
BRANCH  31  32
ATOM     32  C   UNL     1      -2.105  -1.150  -1.516  1.00  0.00     0.202 C 
BRANCH  32  33
ATOM     33  C   UNL     1      -2.542   0.130  -2.229  1.00  0.00     0.261 C 
BRANCH  33  34
ATOM     34  O   UNL     1      -3.547   0.833  -1.541  1.00  0.00    -0.460 OA
BRANCH  34  35
ATOM     35  C   UNL     1      -4.724   0.199  -1.490  1.00  0.00     0.338 C 
ATOM     36  O   UNL     1      -5.017  -0.875  -2.010  1.00  0.00    -0.246 OA
BRANCH  35  37
ATOM     37  C   UNL     1      -5.645   1.025  -0.706  1.00  0.00     0.060 A 
ATOM     38  C   UNL     1      -6.913   0.473  -0.537  1.00  0.00     0.016 A 
ATOM     39  C   UNL     1      -5.398   2.405  -0.703  1.00  0.00     0.016 A 
ATOM     40  C   UNL     1      -7.965   1.280  -0.859  1.00  0.00     0.010 A 
ATOM     41  C   UNL     1      -6.440   3.203  -1.059  1.00  0.00     0.010 A 
ATOM     42  C   UNL     1      -7.666   2.581  -1.270  1.00  0.00    -0.014 A 
BRANCH  42  43
ATOM     43  C   UNL     1      -8.656   3.272  -2.045  1.00  0.00     0.031 A 
ATOM     44  C   UNL     1      -9.652   3.944  -1.206  1.00  0.00     0.074 A 
ATOM     45  C   UNL     1      -8.563   3.322  -3.385  1.00  0.00     0.049 A 
ATOM     46  N   UNL     1     -10.886   3.611  -1.042  1.00  0.00    -0.248 NA
ATOM     47  C   UNL     1      -9.158   4.960  -0.264  1.00  0.00     0.031 C 
ATOM     48  C   UNL     1      -7.459   2.898  -4.254  1.00  0.00     0.029 A 
ATOM     49  N   UNL     1      -9.437   3.888  -4.251  1.00  0.00    -0.354 N 
ATOM     50  C   UNL     1     -11.377   4.517  -0.114  1.00  0.00     0.074 A 
ATOM     51  C   UNL     1     -10.237   5.150   0.490  1.00  0.00     0.031 C 
ATOM     52  C   UNL     1      -7.635   3.435  -5.484  1.00  0.00     0.029 A 
ATOM     53  C   UNL     1      -8.909   4.130  -5.511  1.00  0.00     0.049 A 
ATOM     54  H   UNL     1     -10.365   4.109  -4.008  1.00  0.00     0.167 HD
ATOM     55  C   UNL     1     -12.687   4.870  -0.102  1.00  0.00     0.037 A 
ATOM     56  C   UNL     1      -9.470   4.964  -6.420  1.00  0.00     0.037 A 
ATOM     57  C   UNL     1     -13.487   3.950  -0.869  1.00  0.00     0.049 A 
ATOM     58  C   UNL     1     -10.898   5.146  -6.018  1.00  0.00     0.074 A 
ATOM     59  C   UNL     1     -13.771   2.603  -0.756  1.00  0.00     0.029 A 
ATOM     60  N   UNL     1     -13.799   4.301  -2.161  1.00  0.00    -0.354 N 
ATOM     61  N   UNL     1     -11.787   4.189  -6.072  1.00  0.00    -0.248 NA
ATOM     62  C   UNL     1     -11.207   6.223  -5.084  1.00  0.00     0.031 C 
ATOM     63  C   UNL     1     -13.803   2.117  -2.094  1.00  0.00     0.029 A 
ATOM     64  C   UNL     1     -13.590   3.198  -2.951  1.00  0.00     0.049 A 
ATOM     65  H   UNL     1     -14.114   5.182  -2.465  1.00  0.00     0.167 HD
ATOM     66  C   UNL     1     -12.544   4.331  -4.913  1.00  0.00     0.074 A 
ATOM     67  C   UNL     1     -12.184   5.641  -4.379  1.00  0.00     0.031 C 
ATOM     68  C   UNL     1     -13.161   3.259  -4.331  1.00  0.00     0.037 A 
BRANCH  55  69
ATOM     69  C   UNL     1     -13.171   6.231   0.301  1.00  0.00     0.057 A 
ATOM     70  C   UNL     1     -14.542   6.431   0.512  1.00  0.00     0.134 A 
ATOM     71  C   UNL     1     -12.389   7.404   0.242  1.00  0.00     0.134 A 
ATOM     72  F   UNL     1     -15.389   5.392   0.566  1.00  0.00    -0.206 F 
ATOM     73  C   UNL     1     -15.102   7.710   0.601  1.00  0.00     0.040 A 
ATOM     74  C   UNL     1     -12.928   8.681   0.391  1.00  0.00     0.040 A 
ATOM     75  F   UNL     1     -11.085   7.390  -0.065  1.00  0.00    -0.206 F 
ATOM     76  C   UNL     1     -14.294   8.839   0.539  1.00  0.00     0.006 A 
ENDBRANCH  55  69
BRANCH  56  77
ATOM     77  C   UNL     1      -8.767   5.858  -7.367  1.00  0.00     0.057 A 
ATOM     78  C   UNL     1      -9.431   6.436  -8.457  1.00  0.00     0.134 A 
ATOM     79  C   UNL     1      -7.479   6.360  -7.096  1.00  0.00     0.134 A 
ATOM     80  F   UNL     1     -10.681   6.062  -8.766  1.00  0.00    -0.206 F 
ATOM     81  C   UNL     1      -8.850   7.452  -9.229  1.00  0.00     0.040 A 
ATOM     82  C   UNL     1      -6.885   7.366  -7.864  1.00  0.00     0.040 A 
ATOM     83  F   UNL     1      -6.784   5.951  -6.026  1.00  0.00    -0.206 F 
ATOM     84  C   UNL     1      -7.575   7.924  -8.930  1.00  0.00     0.006 A 
ENDBRANCH  56  77
BRANCH  68  85
ATOM     85  C   UNL     1     -13.160   1.954  -5.080  1.00  0.00     0.057 A 
ATOM     86  C   UNL     1     -11.997   1.211  -5.336  1.00  0.00     0.134 A 
ATOM     87  C   UNL     1     -14.381   1.336  -5.367  1.00  0.00     0.134 A 
ATOM     88  F   UNL     1     -10.791   1.679  -4.995  1.00  0.00    -0.206 F 
ATOM     89  C   UNL     1     -12.046  -0.076  -5.880  1.00  0.00     0.040 A 
ATOM     90  C   UNL     1     -14.445   0.038  -5.881  1.00  0.00     0.040 A 
ATOM     91  F   UNL     1     -15.536   1.960  -5.089  1.00  0.00    -0.206 F 
ATOM     92  C   UNL     1     -13.275  -0.670  -6.145  1.00  0.00     0.006 A 
ENDBRANCH  68  85
ENDBRANCH  42  43
ENDBRANCH  35  37
ENDBRANCH  34  35
ENDBRANCH  33  34
ENDBRANCH  32  33
ENDBRANCH  31  32
ENDBRANCH  30  31
ENDBRANCH  29  30
ENDBRANCH  28  29
ENDBRANCH   1  28
TORSDOF 23
