REMARK SMILES C[C@@H](C(=O)OCCOCCOCCOCCOC(=O)c1ccc(-c2c3nc(c(-c4c(F)cccc4F)c4ccc([nH]4)c(-c4c(F)cccc4F)c4nc(c(-c5c(F)cccc5F)c5ccc2[nH]5)C=C4)C=C3)cc1)c1ccc2c3cc(Cl)ccc3n(C(=O)c3ccc(Cl)cc3)c2c1
REMARK SMILES IDX 10 1 9 2 8 3 7 4 6 5 5 6 3 7 4 8 2 9 1 10 74 11 75 12 96 13
REMARK SMILES IDX 76 14 95 15 77 16 85 17 78 18 84 19 79 20 83 21 80 22 82 23
REMARK SMILES IDX 81 24 86 25 87 26 88 27 89 28 94 29 90 30 93 31 91 32 92 33
REMARK SMILES IDX 11 34 12 35 13 36 14 37 15 38 16 39 17 40 18 41 19 42 20 43
REMARK SMILES IDX 21 44 73 45 22 46 72 47 23 48 24 49 25 50 66 51 26 52 71 53
REMARK SMILES IDX 65 54 67 55 27 56 70 57 64 58 63 59 28 61 54 62 37 63 53 64
REMARK SMILES IDX 38 65 41 66 52 67 68 68 39 69 40 70 51 72 69 73 42 74 29 75
REMARK SMILES IDX 30 76 35 77 31 78 32 79 34 80 36 81 33 82 55 83 56 84 61 85
REMARK SMILES IDX 57 86 58 87 60 88 62 89 59 90 43 91 44 92 49 93 45 94 46 95
REMARK SMILES IDX 48 96 50 97 47 98
REMARK H PARENT 67 60 41 71
REMARK Flexibility Score: inf
ROOT
ATOM      1  C   UNL     1       1.270   2.412   1.538  1.00  0.00     0.188 C 
ENDROOT
BRANCH   1   2
ATOM      2  C   UNL     1       0.435   2.435   2.829  1.00  0.00     0.188 C 
BRANCH   2   3
ATOM      3  O   UNL     1       1.077   2.781   4.042  1.00  0.00    -0.376 OA
BRANCH   3   4
ATOM      4  C   UNL     1       2.250   2.098   4.458  1.00  0.00     0.202 C 
BRANCH   4   5
ATOM      5  C   UNL     1       2.590   0.632   4.098  1.00  0.00     0.261 C 
BRANCH   5   6
ATOM      6  O   UNL     1       2.174   0.128   2.817  1.00  0.00    -0.463 OA
BRANCH   6   7
ATOM      7  C   UNL     1       1.134  -0.745   2.817  1.00  0.00     0.313 C 
ATOM      8  O   UNL     1       0.584  -1.135   3.843  1.00  0.00    -0.252 OA
BRANCH   7   9
ATOM      9  C   UNL     1       0.688  -1.197   1.411  1.00  0.00     0.126 C 
ATOM     10  C   UNL     1       1.535  -0.826   0.189  1.00  0.00     0.025 C 
BRANCH   9  11
ATOM     11  C   UNL     1      -0.810  -0.963   1.203  1.00  0.00    -0.032 A 
ATOM     12  C   UNL     1      -1.387   0.227   0.741  1.00  0.00     0.005 A 
ATOM     13  C   UNL     1      -1.661  -1.998   1.595  1.00  0.00     0.032 A 
ATOM     14  C   UNL     1      -2.780   0.400   0.681  1.00  0.00     0.011 A 
ATOM     15  C   UNL     1      -3.053  -1.818   1.557  1.00  0.00     0.057 A 
ATOM     16  C   UNL     1      -3.627  -0.650   1.081  1.00  0.00     0.008 A 
ATOM     17  N   UNL     1      -4.067  -2.689   1.951  1.00  0.00    -0.276 N 
ATOM     18  C   UNL     1      -5.038  -0.815   1.154  1.00  0.00     0.009 A 
ATOM     19  C   UNL     1      -5.298  -2.064   1.739  1.00  0.00     0.057 A 
ATOM     20  C   UNL     1      -6.113   0.033   0.809  1.00  0.00     0.031 A 
ATOM     21  C   UNL     1      -6.610  -2.434   2.089  1.00  0.00     0.029 A 
ATOM     22  C   UNL     1      -7.414  -0.359   1.112  1.00  0.00     0.041 A 
ATOM     23  C   UNL     1      -7.659  -1.563   1.763  1.00  0.00     0.023 A 
ATOM     24  Cl  UNL     1      -8.725   0.680   0.705  1.00  0.00    -0.084 Cl
BRANCH  17  25
ATOM     25  C   UNL     1      -3.780  -3.932   2.559  1.00  0.00     0.262 C 
ATOM     26  O   UNL     1      -2.877  -3.911   3.398  1.00  0.00    -0.268 OA
BRANCH  25  27
ATOM     27  C   UNL     1      -4.341  -5.272   2.236  1.00  0.00     0.040 A 
ATOM     28  C   UNL     1      -3.733  -6.372   2.879  1.00  0.00     0.015 A 
ATOM     29  C   UNL     1      -5.330  -5.518   1.282  1.00  0.00     0.015 A 
ATOM     30  C   UNL     1      -4.122  -7.682   2.606  1.00  0.00     0.021 A 
ATOM     31  C   UNL     1      -5.739  -6.837   1.025  1.00  0.00     0.021 A 
ATOM     32  C   UNL     1      -5.136  -7.910   1.687  1.00  0.00     0.041 A 
ATOM     33  Cl  UNL     1      -5.633  -9.521   1.355  1.00  0.00    -0.084 Cl
ENDBRANCH  25  27
ENDBRANCH  17  25
ENDBRANCH   9  11
ENDBRANCH   7   9
ENDBRANCH   6   7
ENDBRANCH   5   6
ENDBRANCH   4   5
ENDBRANCH   3   4
ENDBRANCH   2   3
ENDBRANCH   1   2
BRANCH   1  34
ATOM     34  O   UNL     1       2.659   2.574   1.725  1.00  0.00    -0.377 OA
BRANCH  34  35
ATOM     35  C   UNL     1       3.160   3.897   1.701  1.00  0.00     0.188 C 
BRANCH  35  36
ATOM     36  C   UNL     1       2.235   5.071   2.081  1.00  0.00     0.188 C 
BRANCH  36  37
ATOM     37  O   UNL     1       0.934   5.018   1.506  1.00  0.00    -0.376 OA
BRANCH  37  38
ATOM     38  C   UNL     1       0.655   5.801   0.356  1.00  0.00     0.202 C 
BRANCH  38  39
ATOM     39  C   UNL     1       1.308   5.362  -0.965  1.00  0.00     0.261 C 
BRANCH  39  40
ATOM     40  O   UNL     1       2.740   5.286  -0.967  1.00  0.00    -0.460 OA
BRANCH  40  41
ATOM     41  C   UNL     1       3.427   6.416  -0.700  1.00  0.00     0.338 C 
ATOM     42  O   UNL     1       2.970   7.529  -0.501  1.00  0.00    -0.246 OA
BRANCH  41  43
ATOM     43  C   UNL     1       4.839   6.038  -0.483  1.00  0.00     0.060 A 
ATOM     44  C   UNL     1       5.423   6.291   0.765  1.00  0.00     0.016 A 
ATOM     45  C   UNL     1       5.566   5.400  -1.491  1.00  0.00     0.016 A 
ATOM     46  C   UNL     1       6.749   5.931   1.001  1.00  0.00     0.010 A 
ATOM     47  C   UNL     1       6.904   5.069  -1.264  1.00  0.00     0.010 A 
ATOM     48  C   UNL     1       7.509   5.364  -0.029  1.00  0.00    -0.014 A 
BRANCH  48  49
ATOM     49  C   UNL     1       8.983   5.296   0.107  1.00  0.00     0.031 A 
ATOM     50  C   UNL     1       9.795   6.413  -0.488  1.00  0.00     0.074 A 
ATOM     51  C   UNL     1       9.588   4.290   0.761  1.00  0.00     0.049 A 
ATOM     52  N   UNL     1      11.093   6.561  -0.548  1.00  0.00    -0.248 NA
ATOM     53  C   UNL     1       9.034   7.514  -1.104  1.00  0.00     0.031 C 
ATOM     54  C   UNL     1       8.908   3.180   1.425  1.00  0.00     0.029 A 
ATOM     55  N   UNL     1      10.922   4.041   0.966  1.00  0.00    -0.354 N 
ATOM     56  C   UNL     1      11.303   7.761  -1.214  1.00  0.00     0.074 A 
ATOM     57  C   UNL     1      10.003   8.289  -1.565  1.00  0.00     0.031 C 
ATOM     58  C   UNL     1       9.834   2.360   1.955  1.00  0.00     0.029 A 
ATOM     59  C   UNL     1      11.167   2.868   1.636  1.00  0.00     0.049 A 
ATOM     60  H   UNL     1      11.636   4.646   0.660  1.00  0.00     0.167 HD
ATOM     61  C   UNL     1      12.475   8.373  -1.503  1.00  0.00     0.037 A 
ATOM     62  C   UNL     1      12.336   2.267   1.933  1.00  0.00     0.037 A 
ATOM     63  C   UNL     1      13.766   7.843  -1.155  1.00  0.00     0.049 A 
ATOM     64  C   UNL     1      13.630   2.925   1.523  1.00  0.00     0.074 A 
ATOM     65  C   UNL     1      15.014   8.393  -1.386  1.00  0.00     0.029 A 
ATOM     66  N   UNL     1      13.974   6.632  -0.511  1.00  0.00    -0.354 N 
ATOM     67  N   UNL     1      13.822   4.072   0.916  1.00  0.00    -0.248 NA
ATOM     68  C   UNL     1      14.871   2.204   1.842  1.00  0.00     0.031 C 
ATOM     69  C   UNL     1      15.979   7.487  -0.939  1.00  0.00     0.029 A 
ATOM     70  C   UNL     1      15.332   6.403  -0.367  1.00  0.00     0.049 A 
ATOM     71  H   UNL     1      13.262   6.026  -0.203  1.00  0.00     0.167 HD
ATOM     72  C   UNL     1      15.200   4.226   0.814  1.00  0.00     0.074 A 
ATOM     73  C   UNL     1      15.796   3.060   1.431  1.00  0.00     0.031 C 
ATOM     74  C   UNL     1      15.910   5.242   0.262  1.00  0.00     0.037 A 
BRANCH  61  75
ATOM     75  C   UNL     1      12.413   9.663  -2.267  1.00  0.00     0.057 A 
ATOM     76  C   UNL     1      11.926  10.846  -1.695  1.00  0.00     0.134 A 
ATOM     77  C   UNL     1      12.871   9.727  -3.589  1.00  0.00     0.134 A 
ATOM     78  F   UNL     1      11.454  10.850  -0.439  1.00  0.00    -0.206 F 
ATOM     79  C   UNL     1      11.875  12.039  -2.418  1.00  0.00     0.040 A 
ATOM     80  C   UNL     1      12.853  10.921  -4.312  1.00  0.00     0.040 A 
ATOM     81  F   UNL     1      13.350   8.632  -4.198  1.00  0.00    -0.206 F 
ATOM     82  C   UNL     1      12.348  12.080  -3.728  1.00  0.00     0.006 A 
ENDBRANCH  61  75
BRANCH  62  83
ATOM     83  C   UNL     1      12.349   0.960   2.641  1.00  0.00     0.057 A 
ATOM     84  C   UNL     1      12.868   0.840   3.936  1.00  0.00     0.134 A 
ATOM     85  C   UNL     1      11.882  -0.208   2.026  1.00  0.00     0.134 A 
ATOM     86  F   UNL     1      13.357   1.917   4.570  1.00  0.00    -0.206 F 
ATOM     87  C   UNL     1      12.942  -0.394   4.585  1.00  0.00     0.040 A 
ATOM     88  C   UNL     1      11.922  -1.444   2.674  1.00  0.00     0.040 A 
ATOM     89  F   UNL     1      11.375  -0.165   0.785  1.00  0.00    -0.206 F 
ATOM     90  C   UNL     1      12.463  -1.541   3.955  1.00  0.00     0.006 A 
ENDBRANCH  62  83
BRANCH  74  91
ATOM     91  C   UNL     1      17.408   5.166   0.344  1.00  0.00     0.057 A 
ATOM     92  C   UNL     1      18.151   4.244  -0.405  1.00  0.00     0.134 A 
ATOM     93  C   UNL     1      18.121   6.065   1.150  1.00  0.00     0.134 A 
ATOM     94  F   UNL     1      17.532   3.349  -1.190  1.00  0.00    -0.206 F 
ATOM     95  C   UNL     1      19.545   4.201  -0.334  1.00  0.00     0.040 A 
ATOM     96  C   UNL     1      19.515   6.053   1.204  1.00  0.00     0.040 A 
ATOM     97  F   UNL     1      17.474   6.984   1.883  1.00  0.00    -0.206 F 
ATOM     98  C   UNL     1      20.231   5.113   0.467  1.00  0.00     0.006 A 
ENDBRANCH  74  91
ENDBRANCH  48  49
ENDBRANCH  41  43
ENDBRANCH  40  41
ENDBRANCH  39  40
ENDBRANCH  38  39
ENDBRANCH  37  38
ENDBRANCH  36  37
ENDBRANCH  35  36
ENDBRANCH  34  35
ENDBRANCH   1  34
TORSDOF 23
