REMARK SMILES Cc1c(CC(=O)OCCOCCOCCOCCOC(=O)c2ccc(-c3c4nc(c(-c5c(F)cccc5F)c5ccc([nH]5)c(-c5c(F)cccc5F)c5nc(c(-c6c(F)cccc6F)c6ccc3[nH]6)C=C5)C=C4)cc2)cccc1-c1ccn(C(F)F)c(=O)c1
REMARK SMILES IDX 12 1 11 2 10 3 9 4 8 5 7 6 5 7 6 8 4 9 3 10 1 11 2 12 79 13
REMARK SMILES IDX 76 14 78 15 77 16 80 17 81 18 89 19 82 20 87 21 83 22 88 23
REMARK SMILES IDX 84 24 85 25 86 26 13 27 14 28 15 29 16 30 17 31 18 32 19 33
REMARK SMILES IDX 20 34 21 35 22 36 23 37 75 38 24 39 74 40 25 41 26 42 27 43
REMARK SMILES IDX 68 44 28 45 73 46 67 47 69 48 29 49 72 50 66 51 65 52 30 54
REMARK SMILES IDX 56 55 39 56 55 57 40 58 43 59 54 60 70 61 41 62 42 63 53 65
REMARK SMILES IDX 71 66 44 67 31 68 32 69 37 70 33 71 34 72 36 73 38 74 35 75
REMARK SMILES IDX 57 76 58 77 63 78 59 79 60 80 62 81 64 82 61 83 45 84 46 85
REMARK SMILES IDX 51 86 47 87 48 88 50 89 52 90 49 91
REMARK H PARENT 69 53 43 64
REMARK Flexibility Score: inf
ROOT
ATOM      1  C   UNL     1      -1.451  -2.208   0.429  1.00  0.00     0.188 C 
ENDROOT
BRANCH   1   2
ATOM      2  C   UNL     1      -2.076  -3.542  -0.040  1.00  0.00     0.188 C 
BRANCH   2   3
ATOM      3  O   UNL     1      -1.305  -4.737  -0.103  1.00  0.00    -0.376 OA
BRANCH   3   4
ATOM      4  C   UNL     1      -0.327  -4.914   0.897  1.00  0.00     0.202 C 
BRANCH   4   5
ATOM      5  C   UNL     1       1.051  -4.922   0.249  1.00  0.00     0.261 C 
BRANCH   5   6
ATOM      6  O   UNL     1       1.428  -3.636  -0.278  1.00  0.00    -0.463 OA
BRANCH   6   7
ATOM      7  C   UNL     1       1.218  -3.450  -1.608  1.00  0.00     0.310 C 
ATOM      8  O   UNL     1       0.719  -4.268  -2.372  1.00  0.00    -0.252 OA
BRANCH   7   9
ATOM      9  C   UNL     1       1.745  -2.111  -2.069  1.00  0.00     0.158 C 
BRANCH   9  10
ATOM     10  C   UNL     1       0.942  -0.892  -1.651  1.00  0.00    -0.033 A 
ATOM     11  C   UNL     1       2.909   0.060  -0.361  1.00  0.00     0.045 C 
ATOM     12  C   UNL     1       1.488   0.152  -0.866  1.00  0.00    -0.039 A 
ATOM     13  C   UNL     1       0.707   1.311  -0.613  1.00  0.00    -0.015 A 
ATOM     14  C   UNL     1      -0.382  -0.766  -2.117  1.00  0.00     0.004 A 
ATOM     15  C   UNL     1      -0.641   1.353  -0.992  1.00  0.00     0.009 A 
ATOM     16  C   UNL     1      -1.179   0.321  -1.750  1.00  0.00     0.001 A 
BRANCH  13  17
ATOM     17  C   UNL     1       1.354   2.596  -0.266  1.00  0.00    -0.011 A 
ATOM     18  C   UNL     1       2.211   3.218  -1.261  1.00  0.00     0.027 A 
ATOM     19  C   UNL     1       1.153   3.220   0.907  1.00  0.00     0.080 A 
ATOM     20  C   UNL     1       2.866   4.347  -0.994  1.00  0.00     0.095 A 
ATOM     21  C   UNL     1       1.848   4.514   1.201  1.00  0.00     0.255 A 
ATOM     22  N   UNL     1       2.715   4.979   0.221  1.00  0.00    -0.258 N 
ATOM     23  O   UNL     1       1.620   5.077   2.268  1.00  0.00    -0.269 OA
BRANCH  22  24
ATOM     24  C   UNL     1       3.476   6.167   0.506  1.00  0.00     0.451 C 
ATOM     25  F   UNL     1       2.668   7.233   0.720  1.00  0.00    -0.185 F 
ATOM     26  F   UNL     1       4.254   5.997   1.602  1.00  0.00    -0.185 F 
ENDBRANCH  22  24
ENDBRANCH  13  17
ENDBRANCH   9  10
ENDBRANCH   7   9
ENDBRANCH   6   7
ENDBRANCH   5   6
ENDBRANCH   4   5
ENDBRANCH   3   4
ENDBRANCH   2   3
ENDBRANCH   1   2
BRANCH   1  27
ATOM     27  O   UNL     1      -1.413  -1.802   1.794  1.00  0.00    -0.377 OA
BRANCH  27  28
ATOM     28  C   UNL     1      -2.638  -1.817   2.495  1.00  0.00     0.188 C 
BRANCH  28  29
ATOM     29  C   UNL     1      -3.848  -1.200   1.840  1.00  0.00     0.188 C 
BRANCH  29  30
ATOM     30  O   UNL     1      -4.492  -2.282   1.184  1.00  0.00    -0.376 OA
BRANCH  30  31
ATOM     31  C   UNL     1      -5.862  -2.121   0.873  1.00  0.00     0.202 C 
BRANCH  31  32
ATOM     32  C   UNL     1      -6.750  -1.892   2.104  1.00  0.00     0.261 C 
BRANCH  32  33
ATOM     33  O   UNL     1      -6.456  -2.912   3.083  1.00  0.00    -0.460 OA
BRANCH  33  34
ATOM     34  C   UNL     1      -6.006  -2.494   4.290  1.00  0.00     0.338 C 
ATOM     35  O   UNL     1      -6.309  -1.427   4.836  1.00  0.00    -0.246 OA
BRANCH  34  36
ATOM     36  C   UNL     1      -4.854  -3.335   4.731  1.00  0.00     0.060 A 
ATOM     37  C   UNL     1      -3.999  -2.860   5.743  1.00  0.00     0.016 A 
ATOM     38  C   UNL     1      -4.437  -4.404   3.939  1.00  0.00     0.016 A 
ATOM     39  C   UNL     1      -2.669  -3.313   5.829  1.00  0.00     0.010 A 
ATOM     40  C   UNL     1      -3.108  -4.821   4.005  1.00  0.00     0.010 A 
ATOM     41  C   UNL     1      -2.183  -4.224   4.889  1.00  0.00    -0.014 A 
BRANCH  41  42
ATOM     42  C   UNL     1      -0.742  -4.439   4.582  1.00  0.00     0.031 A 
ATOM     43  C   UNL     1      -0.237  -5.836   4.360  1.00  0.00     0.074 A 
ATOM     44  C   UNL     1       0.046  -3.400   4.172  1.00  0.00     0.049 A 
ATOM     45  N   UNL     1       0.966  -6.123   3.991  1.00  0.00    -0.248 NA
ATOM     46  C   UNL     1      -1.044  -7.046   4.516  1.00  0.00     0.031 C 
ATOM     47  C   UNL     1       1.242  -3.483   3.322  1.00  0.00     0.029 A 
ATOM     48  N   UNL     1      -0.091  -2.008   4.333  1.00  0.00    -0.354 N 
ATOM     49  C   UNL     1       1.015  -7.427   3.561  1.00  0.00     0.074 A 
ATOM     50  C   UNL     1      -0.239  -7.984   4.001  1.00  0.00     0.031 C 
ATOM     51  C   UNL     1       1.798  -2.280   3.136  1.00  0.00     0.029 A 
ATOM     52  C   UNL     1       1.176  -1.416   4.103  1.00  0.00     0.049 A 
ATOM     53  H   UNL     1      -0.920  -1.530   4.564  1.00  0.00     0.167 HD
ATOM     54  C   UNL     1       2.077  -7.822   2.796  1.00  0.00     0.037 A 
ATOM     55  C   UNL     1       1.858  -0.769   5.089  1.00  0.00     0.037 A 
ATOM     56  C   UNL     1       3.168  -6.818   2.826  1.00  0.00     0.049 A 
ATOM     57  C   UNL     1       3.105  -1.545   5.442  1.00  0.00     0.074 A 
ATOM     58  C   UNL     1       3.912  -6.141   1.873  1.00  0.00     0.029 A 
ATOM     59  N   UNL     1       3.543  -6.252   4.054  1.00  0.00    -0.354 N 
ATOM     60  N   UNL     1       3.224  -2.823   5.173  1.00  0.00    -0.248 NA
ATOM     61  C   UNL     1       4.346  -0.982   5.964  1.00  0.00     0.031 C 
ATOM     62  C   UNL     1       4.582  -5.059   2.518  1.00  0.00     0.029 A 
ATOM     63  C   UNL     1       4.353  -5.148   3.883  1.00  0.00     0.049 A 
ATOM     64  H   UNL     1       3.262  -6.600   4.931  1.00  0.00     0.167 HD
ATOM     65  C   UNL     1       4.507  -3.221   5.358  1.00  0.00     0.074 A 
ATOM     66  C   UNL     1       5.165  -2.053   5.918  1.00  0.00     0.031 C 
ATOM     67  C   UNL     1       4.952  -4.466   5.028  1.00  0.00     0.037 A 
BRANCH  54  68
ATOM     68  C   UNL     1       2.100  -9.062   1.895  1.00  0.00     0.057 A 
ATOM     69  C   UNL     1       3.275  -9.437   1.205  1.00  0.00     0.134 A 
ATOM     70  C   UNL     1       0.988  -9.873   1.579  1.00  0.00     0.134 A 
ATOM     71  F   UNL     1       4.428  -8.776   1.373  1.00  0.00    -0.206 F 
ATOM     72  C   UNL     1       3.334 -10.507   0.292  1.00  0.00     0.040 A 
ATOM     73  C   UNL     1       1.049 -10.983   0.715  1.00  0.00     0.040 A 
ATOM     74  F   UNL     1      -0.240  -9.615   2.037  1.00  0.00    -0.206 F 
ATOM     75  C   UNL     1       2.222 -11.298   0.055  1.00  0.00     0.006 A 
ENDBRANCH  54  68
BRANCH  55  76
ATOM     76  C   UNL     1       0.936   0.093   5.878  1.00  0.00     0.057 A 
ATOM     77  C   UNL     1       0.389   1.174   5.149  1.00  0.00     0.134 A 
ATOM     78  C   UNL     1       0.137  -0.448   6.892  1.00  0.00     0.134 A 
ATOM     79  F   UNL     1       1.108   1.753   4.173  1.00  0.00    -0.206 F 
ATOM     80  C   UNL     1      -0.960   1.529   5.252  1.00  0.00     0.040 A 
ATOM     81  C   UNL     1      -1.214  -0.080   7.017  1.00  0.00     0.040 A 
ATOM     82  F   UNL     1       0.584  -1.465   7.642  1.00  0.00    -0.206 F 
ATOM     83  C   UNL     1      -1.780   0.858   6.152  1.00  0.00     0.006 A 
ENDBRANCH  55  76
BRANCH  67  84
ATOM     84  C   UNL     1       6.056  -5.146   5.780  1.00  0.00     0.057 A 
ATOM     85  C   UNL     1       6.321  -4.866   7.130  1.00  0.00     0.134 A 
ATOM     86  C   UNL     1       6.716  -6.272   5.249  1.00  0.00     0.134 A 
ATOM     87  F   UNL     1       5.673  -3.893   7.787  1.00  0.00    -0.206 F 
ATOM     88  C   UNL     1       7.220  -5.620   7.886  1.00  0.00     0.040 A 
ATOM     89  C   UNL     1       7.577  -7.063   6.010  1.00  0.00     0.040 A 
ATOM     90  F   UNL     1       6.519  -6.680   3.986  1.00  0.00    -0.206 F 
ATOM     91  C   UNL     1       7.841  -6.730   7.330  1.00  0.00     0.006 A 
ENDBRANCH  67  84
ENDBRANCH  41  42
ENDBRANCH  34  36
ENDBRANCH  33  34
ENDBRANCH  32  33
ENDBRANCH  31  32
ENDBRANCH  30  31
ENDBRANCH  29  30
ENDBRANCH  28  29
ENDBRANCH  27  28
ENDBRANCH   1  27
TORSDOF 23
