REMARK SMILES O=C(OCCOCCOCCOCCOC(=O)[C@@H]1CCCC[C@H]1C(=O)Nc1ccc(NC(=O)c2ccco2)cc1)c1ccc(-c2c3nc(c(-c4c(F)cccc4F)c4ccc([nH]4)c(-c4c(F)cccc4F)c4nc(c(-c5c(F)cccc5F)c5ccc2[nH]5)C=C4)C=C3)cc1
REMARK SMILES IDX 10 1 9 2 8 3 7 4 6 5 5 6 4 7 3 8 2 9 1 10 41 11 42 12 94 13
REMARK SMILES IDX 43 14 93 15 44 16 45 17 46 18 87 19 47 20 92 21 86 22 88 23
REMARK SMILES IDX 48 24 91 25 85 26 84 27 49 29 75 30 58 31 74 32 59 33 62 34
REMARK SMILES IDX 73 35 89 36 60 37 61 38 72 40 90 41 63 42 50 43 51 44 56 45
REMARK SMILES IDX 52 46 53 47 55 48 57 49 54 50 76 51 77 52 82 53 78 54 79 55
REMARK SMILES IDX 81 56 83 57 80 58 64 59 65 60 70 61 66 62 67 63 69 64 71 65
REMARK SMILES IDX 68 66 11 67 12 68 13 69 14 70 15 71 16 72 17 73 18 74 19 75
REMARK SMILES IDX 23 76 20 77 22 78 21 79 24 80 25 81 26 82 27 84 28 85 40 86
REMARK SMILES IDX 29 87 39 88 30 89 31 90 32 91 33 93 34 94 35 95 38 96 36 97
REMARK SMILES IDX 37 98
REMARK H PARENT 88 28 62 39 26 83 31 92
REMARK Flexibility Score: inf
ROOT
ATOM      1  C   UNL     1       4.466  -3.323   0.872  1.00  0.00     0.188 C 
ENDROOT
BRANCH   1   2
ATOM      2  O   UNL     1       3.225  -3.251   1.564  1.00  0.00    -0.377 OA
BRANCH   2   3
ATOM      3  C   UNL     1       2.269  -2.330   1.024  1.00  0.00     0.188 C 
BRANCH   3   4
ATOM      4  C   UNL     1       2.541  -0.883   1.435  1.00  0.00     0.188 C 
BRANCH   4   5
ATOM      5  O   UNL     1       3.768  -0.484   0.831  1.00  0.00    -0.376 OA
BRANCH   5   6
ATOM      6  C   UNL     1       4.356   0.700   1.337  1.00  0.00     0.202 C 
BRANCH   6   7
ATOM      7  C   UNL     1       4.054   1.906   0.446  1.00  0.00     0.261 C 
BRANCH   7   8
ATOM      8  O   UNL     1       2.655   1.968   0.116  1.00  0.00    -0.460 OA
BRANCH   8   9
ATOM      9  C   UNL     1       2.054   1.572  -1.034  1.00  0.00     0.338 C 
ATOM     10  O   UNL     1       0.840   1.726  -1.156  1.00  0.00    -0.246 OA
BRANCH   9  11
ATOM     11  C   UNL     1       2.800   1.019  -2.204  1.00  0.00     0.060 A 
ATOM     12  C   UNL     1       3.888   0.149  -2.116  1.00  0.00     0.016 A 
ATOM     13  C   UNL     1       2.312   1.336  -3.482  1.00  0.00     0.016 A 
ATOM     14  C   UNL     1       4.535  -0.324  -3.251  1.00  0.00     0.010 A 
ATOM     15  C   UNL     1       2.936   0.840  -4.632  1.00  0.00     0.010 A 
ATOM     16  C   UNL     1       4.074   0.032  -4.515  1.00  0.00    -0.014 A 
BRANCH  16  17
ATOM     17  C   UNL     1       4.909  -0.307  -5.683  1.00  0.00     0.031 A 
ATOM     18  C   UNL     1       5.734   0.785  -6.293  1.00  0.00     0.074 A 
ATOM     19  C   UNL     1       5.038  -1.583  -6.086  1.00  0.00     0.049 A 
ATOM     20  N   UNL     1       6.474   0.768  -7.368  1.00  0.00    -0.248 NA
ATOM     21  C   UNL     1       5.734   2.076  -5.581  1.00  0.00     0.031 C 
ATOM     22  C   UNL     1       4.394  -2.738  -5.457  1.00  0.00     0.029 A 
ATOM     23  N   UNL     1       5.783  -2.126  -7.099  1.00  0.00    -0.354 N 
ATOM     24  C   UNL     1       6.989   2.051  -7.485  1.00  0.00     0.074 A 
ATOM     25  C   UNL     1       6.490   2.822  -6.369  1.00  0.00     0.031 C 
ATOM     26  C   UNL     1       4.798  -3.857  -6.082  1.00  0.00     0.029 A 
ATOM     27  C   UNL     1       5.666  -3.491  -7.196  1.00  0.00     0.049 A 
ATOM     28  H   UNL     1       6.348  -1.589  -7.701  1.00  0.00     0.167 HD
ATOM     29  C   UNL     1       7.798   2.542  -8.452  1.00  0.00     0.037 A 
ATOM     30  C   UNL     1       6.181  -4.336  -8.110  1.00  0.00     0.037 A 
ATOM     31  C   UNL     1       8.287   1.750  -9.545  1.00  0.00     0.049 A 
ATOM     32  C   UNL     1       7.008  -3.756  -9.225  1.00  0.00     0.074 A 
ATOM     33  C   UNL     1       9.027   2.143 -10.644  1.00  0.00     0.029 A 
ATOM     34  N   UNL     1       8.088   0.381  -9.660  1.00  0.00    -0.354 N 
ATOM     35  N   UNL     1       7.389  -2.513  -9.410  1.00  0.00    -0.248 NA
ATOM     36  C   UNL     1       7.449  -4.682 -10.275  1.00  0.00     0.031 C 
ATOM     37  C   UNL     1       9.255   1.012 -11.437  1.00  0.00     0.029 A 
ATOM     38  C   UNL     1       8.687  -0.090 -10.813  1.00  0.00     0.049 A 
ATOM     39  H   UNL     1       7.592  -0.174  -9.014  1.00  0.00     0.167 HD
ATOM     40  C   UNL     1       8.113  -2.506 -10.594  1.00  0.00     0.074 A 
ATOM     41  C   UNL     1       8.140  -3.876 -11.070  1.00  0.00     0.031 C 
ATOM     42  C   UNL     1       8.692  -1.465 -11.241  1.00  0.00     0.037 A 
BRANCH  29  43
ATOM     43  C   UNL     1       8.111   4.005  -8.388  1.00  0.00     0.057 A 
ATOM     44  C   UNL     1       9.003   4.537  -7.448  1.00  0.00     0.134 A 
ATOM     45  C   UNL     1       7.453   4.905  -9.236  1.00  0.00     0.134 A 
ATOM     46  F   UNL     1       9.637   3.731  -6.582  1.00  0.00    -0.206 F 
ATOM     47  C   UNL     1       9.207   5.914  -7.334  1.00  0.00     0.040 A 
ATOM     48  C   UNL     1       7.664   6.282  -9.145  1.00  0.00     0.040 A 
ATOM     49  F   UNL     1       6.577   4.462 -10.150  1.00  0.00    -0.206 F 
ATOM     50  C   UNL     1       8.536   6.790  -8.185  1.00  0.00     0.006 A 
ENDBRANCH  29  43
BRANCH  30  51
ATOM     51  C   UNL     1       5.884  -5.791  -8.042  1.00  0.00     0.057 A 
ATOM     52  C   UNL     1       6.890  -6.729  -7.786  1.00  0.00     0.134 A 
ATOM     53  C   UNL     1       4.587  -6.281  -8.239  1.00  0.00     0.134 A 
ATOM     54  F   UNL     1       8.159  -6.330  -7.613  1.00  0.00    -0.206 F 
ATOM     55  C   UNL     1       6.619  -8.099  -7.733  1.00  0.00     0.040 A 
ATOM     56  C   UNL     1       4.296  -7.644  -8.164  1.00  0.00     0.040 A 
ATOM     57  F   UNL     1       3.576  -5.438  -8.497  1.00  0.00    -0.206 F 
ATOM     58  C   UNL     1       5.316  -8.559  -7.915  1.00  0.00     0.006 A 
ENDBRANCH  30  51
BRANCH  42  59
ATOM     59  C   UNL     1       9.410  -1.780 -12.516  1.00  0.00     0.057 A 
ATOM     60  C   UNL     1       8.714  -2.008 -13.708  1.00  0.00     0.134 A 
ATOM     61  C   UNL     1      10.809  -1.798 -12.559  1.00  0.00     0.134 A 
ATOM     62  F   UNL     1       7.373  -2.013 -13.723  1.00  0.00    -0.206 F 
ATOM     63  C   UNL     1       9.389  -2.256 -14.903  1.00  0.00     0.040 A 
ATOM     64  C   UNL     1      11.494  -2.027 -13.751  1.00  0.00     0.040 A 
ATOM     65  F   UNL     1      11.528  -1.579 -11.447  1.00  0.00    -0.206 F 
ATOM     66  C   UNL     1      10.783  -2.259 -14.927  1.00  0.00     0.006 A 
ENDBRANCH  42  59
ENDBRANCH  16  17
ENDBRANCH   9  11
ENDBRANCH   8   9
ENDBRANCH   7   8
ENDBRANCH   6   7
ENDBRANCH   5   6
ENDBRANCH   4   5
ENDBRANCH   3   4
ENDBRANCH   2   3
ENDBRANCH   1   2
BRANCH   1  67
ATOM     67  C   UNL     1       4.555  -4.328  -0.273  1.00  0.00     0.188 C 
BRANCH  67  68
ATOM     68  O   UNL     1       3.344  -4.743  -0.875  1.00  0.00    -0.376 OA
BRANCH  68  69
ATOM     69  C   UNL     1       2.420  -5.496  -0.083  1.00  0.00     0.202 C 
BRANCH  69  70
ATOM     70  C   UNL     1       2.958  -6.459   0.988  1.00  0.00     0.261 C 
BRANCH  70  71
ATOM     71  O   UNL     1       3.138  -5.833   2.289  1.00  0.00    -0.463 OA
BRANCH  71  72
ATOM     72  C   UNL     1       4.366  -5.956   2.848  1.00  0.00     0.309 C 
ATOM     73  O   UNL     1       5.310  -6.509   2.289  1.00  0.00    -0.252 OA
BRANCH  72  74
ATOM     74  C   UNL     1       4.477  -5.478   4.296  1.00  0.00     0.111 C 
ATOM     75  C   UNL     1       3.609  -6.393   5.179  1.00  0.00     0.016 C 
ATOM     76  C   UNL     1       4.255  -3.996   4.647  1.00  0.00     0.093 C 
ATOM     77  C   UNL     1       3.949  -6.179   6.651  1.00  0.00     0.001 C 
ATOM     78  C   UNL     1       4.469  -3.760   6.164  1.00  0.00     0.014 C 
ATOM     79  C   UNL     1       3.703  -4.733   7.053  1.00  0.00     0.001 C 
BRANCH  76  80
ATOM     80  C   UNL     1       4.959  -2.803   3.979  1.00  0.00     0.228 C 
ATOM     81  O   UNL     1       4.285  -1.770   3.814  1.00  0.00    -0.274 OA
ATOM     82  N   UNL     1       6.280  -2.589   3.770  1.00  0.00    -0.326 N 
ATOM     83  H   UNL     1       6.452  -1.703   3.376  1.00  0.00     0.169 HD
BRANCH  82  84
ATOM     84  C   UNL     1       7.456  -3.307   3.971  1.00  0.00     0.041 A 
ATOM     85  C   UNL     1       8.595  -2.584   4.312  1.00  0.00     0.028 A 
ATOM     86  C   UNL     1       7.586  -4.670   3.825  1.00  0.00     0.028 A 
ATOM     87  C   UNL     1       9.749  -3.247   4.737  1.00  0.00     0.028 A 
ATOM     88  C   UNL     1       8.708  -5.345   4.304  1.00  0.00     0.028 A 
ATOM     89  C   UNL     1       9.761  -4.633   4.869  1.00  0.00     0.041 A 
BRANCH  89  90
ATOM     90  N   UNL     1      10.736  -5.383   5.543  1.00  0.00    -0.319 N 
ATOM     91  C   UNL     1      11.755  -5.038   6.412  1.00  0.00     0.291 C 
ATOM     92  H   UNL     1      10.684  -6.349   5.360  1.00  0.00     0.170 HD
ATOM     93  O   UNL     1      12.447  -5.951   6.852  1.00  0.00    -0.265 OA
BRANCH  91  94
ATOM     94  C   UNL     1      11.946  -3.661   6.795  1.00  0.00     0.191 A 
ATOM     95  C   UNL     1      11.194  -2.782   7.556  1.00  0.00     0.056 A 
ATOM     96  O   UNL     1      13.060  -3.020   6.327  1.00  0.00    -0.459 OA
ATOM     97  C   UNL     1      11.859  -1.531   7.501  1.00  0.00     0.043 A 
ATOM     98  C   UNL     1      12.993  -1.733   6.751  1.00  0.00     0.196 A 
ENDBRANCH  91  94
ENDBRANCH  89  90
ENDBRANCH  82  84
ENDBRANCH  76  80
ENDBRANCH  72  74
ENDBRANCH  71  72
ENDBRANCH  70  71
ENDBRANCH  69  70
ENDBRANCH  68  69
ENDBRANCH  67  68
ENDBRANCH   1  67
TORSDOF 24
