REMARK SMILES CCCC1C[NH+]([C@H](CC(=O)OCCOCCOCCOCCOC(=O)c2ccc(-c3c4nc(c(-c5c(F)cccc5F)c5ccc([nH]5)c(-c5c(F)cccc5F)c5nc(c(-c6c(F)cccc6F)c6ccc3[nH]6)C=C5)C=C4)cc2)c2ccccc2)C1
REMARK SMILES IDX 16 1 15 2 14 3 13 4 12 5 11 6 9 7 10 8 8 9 7 10 6 11 4 12
REMARK SMILES IDX 5 13 86 14 3 16 2 17 1 18 80 19 81 20 85 21 82 22 84 23
REMARK SMILES IDX 83 24 17 25 18 26 19 27 20 28 21 29 22 30 23 31 24 32 25 33
REMARK SMILES IDX 26 34 27 35 79 36 28 37 78 38 29 39 30 40 31 41 72 42 32 43
REMARK SMILES IDX 77 44 71 45 73 46 33 47 76 48 70 49 69 50 34 52 60 53 43 54
REMARK SMILES IDX 59 55 44 56 47 57 58 58 74 59 45 60 46 61 57 63 75 64 48 65
REMARK SMILES IDX 35 66 36 67 41 68 37 69 38 70 40 71 42 72 39 73 61 74 62 75
REMARK SMILES IDX 67 76 63 77 64 78 66 79 68 80 65 81 49 82 50 83 55 84 51 85
REMARK SMILES IDX 52 86 54 87 56 88 53 89
REMARK H PARENT 6 15 73 51 47 62
REMARK Flexibility Score: inf
ROOT
ATOM      1  C   UNL     1      -1.112   5.869  -3.063  1.00  0.00     0.188 C 
ENDROOT
BRANCH   1   2
ATOM      2  C   UNL     1      -1.547   6.292  -1.657  1.00  0.00     0.188 C 
BRANCH   2   3
ATOM      3  O   UNL     1      -0.674   7.070  -0.864  1.00  0.00    -0.376 OA
BRANCH   3   4
ATOM      4  C   UNL     1       0.547   6.524  -0.389  1.00  0.00     0.202 C 
BRANCH   4   5
ATOM      5  C   UNL     1       0.800   5.018  -0.177  1.00  0.00     0.261 C 
BRANCH   5   6
ATOM      6  O   UNL     1       0.292   4.120  -1.180  1.00  0.00    -0.463 OA
BRANCH   6   7
ATOM      7  C   UNL     1      -0.497   3.115  -0.745  1.00  0.00     0.312 C 
ATOM      8  O   UNL     1      -0.832   2.977   0.432  1.00  0.00    -0.252 OA
BRANCH   7   9
ATOM      9  C   UNL     1      -1.050   2.175  -1.797  1.00  0.00     0.192 C 
BRANCH   9  10
ATOM     10  C   UNL     1      -0.647   2.243  -3.286  1.00  0.00     0.226 C 
BRANCH  10  11
ATOM     11  N   UNL     1       0.804   2.344  -3.471  1.00  0.00    -0.327 N 
ATOM     12  C   UNL     1       2.396   1.581  -4.620  1.00  0.00     0.099 C 
ATOM     13  C   UNL     1       1.216   2.562  -4.853  1.00  0.00     0.272 C 
ATOM     14  C   UNL     1       1.644   1.171  -3.310  1.00  0.00     0.272 C 
ATOM     15  H   UNL     1       0.933   3.068  -2.764  1.00  0.00     0.348 HD
BRANCH  12  16
ATOM     16  C   UNL     1       2.694   0.470  -5.626  1.00  0.00     0.015 C 
BRANCH  16  17
ATOM     17  C   UNL     1       2.521   0.901  -7.084  1.00  0.00    -0.003 C 
ATOM     18  C   UNL     1       3.418   2.055  -7.500  1.00  0.00     0.004 C 
ENDBRANCH  16  17
ENDBRANCH  12  16
ENDBRANCH  10  11
BRANCH  10  19
ATOM     19  C   UNL     1      -1.532   1.279  -4.120  1.00  0.00     0.010 A 
ATOM     20  C   UNL     1      -1.075   0.202  -4.887  1.00  0.00     0.010 A 
ATOM     21  C   UNL     1      -2.928   1.511  -4.141  1.00  0.00     0.010 A 
ATOM     22  C   UNL     1      -1.947  -0.608  -5.627  1.00  0.00     0.001 A 
ATOM     23  C   UNL     1      -3.807   0.695  -4.863  1.00  0.00     0.001 A 
ATOM     24  C   UNL     1      -3.314  -0.367  -5.609  1.00  0.00     0.000 A 
ENDBRANCH  10  19
ENDBRANCH   9  10
ENDBRANCH   7   9
ENDBRANCH   6   7
ENDBRANCH   5   6
ENDBRANCH   4   5
ENDBRANCH   3   4
ENDBRANCH   2   3
ENDBRANCH   1   2
BRANCH   1  25
ATOM     25  O   UNL     1       0.272   5.689  -3.272  1.00  0.00    -0.377 OA
BRANCH  25  26
ATOM     26  C   UNL     1       1.089   6.801  -3.612  1.00  0.00     0.188 C 
BRANCH  26  27
ATOM     27  C   UNL     1       0.528   8.234  -3.554  1.00  0.00     0.188 C 
BRANCH  27  28
ATOM     28  O   UNL     1      -0.810   8.373  -4.001  1.00  0.00    -0.376 OA
BRANCH  28  29
ATOM     29  C   UNL     1      -1.051   8.694  -5.363  1.00  0.00     0.202 C 
BRANCH  29  30
ATOM     30  C   UNL     1      -0.539   7.723  -6.439  1.00  0.00     0.261 C 
BRANCH  30  31
ATOM     31  O   UNL     1       0.884   7.532  -6.508  1.00  0.00    -0.460 OA
BRANCH  31  32
ATOM     32  C   UNL     1       1.667   8.617  -6.658  1.00  0.00     0.338 C 
ATOM     33  O   UNL     1       1.310   9.773  -6.825  1.00  0.00    -0.246 OA
BRANCH  32  34
ATOM     34  C   UNL     1       3.062   8.208  -6.403  1.00  0.00     0.060 A 
ATOM     35  C   UNL     1       3.760   8.803  -5.344  1.00  0.00     0.016 A 
ATOM     36  C   UNL     1       3.684   7.259  -7.217  1.00  0.00     0.016 A 
ATOM     37  C   UNL     1       5.099   8.482  -5.124  1.00  0.00     0.010 A 
ATOM     38  C   UNL     1       5.032   6.954  -7.008  1.00  0.00     0.010 A 
ATOM     39  C   UNL     1       5.755   7.594  -5.985  1.00  0.00    -0.014 A 
BRANCH  39  40
ATOM     40  C   UNL     1       7.234   7.489  -5.942  1.00  0.00     0.031 A 
ATOM     41  C   UNL     1       8.037   8.274  -6.945  1.00  0.00     0.074 A 
ATOM     42  C   UNL     1       7.859   6.737  -5.019  1.00  0.00     0.049 A 
ATOM     43  N   UNL     1       9.330   8.305  -7.137  1.00  0.00    -0.248 NA
ATOM     44  C   UNL     1       7.271   9.141  -7.856  1.00  0.00     0.031 C 
ATOM     45  C   UNL     1       7.199   5.969  -3.966  1.00  0.00     0.029 A 
ATOM     46  N   UNL     1       9.196   6.493  -4.829  1.00  0.00    -0.354 N 
ATOM     47  C   UNL     1       9.532   9.183  -8.195  1.00  0.00     0.074 A 
ATOM     48  C   UNL     1       8.229   9.639  -8.623  1.00  0.00     0.031 C 
ATOM     49  C   UNL     1       8.136   5.326  -3.246  1.00  0.00     0.029 A 
ATOM     50  C   UNL     1       9.455   5.609  -3.810  1.00  0.00     0.049 A 
ATOM     51  H   UNL     1       9.903   6.912  -5.372  1.00  0.00     0.167 HD
ATOM     52  C   UNL     1      10.700   9.581  -8.754  1.00  0.00     0.037 A 
ATOM     53  C   UNL     1      10.621   5.072  -3.400  1.00  0.00     0.037 A 
ATOM     54  C   UNL     1      11.996   9.123  -8.327  1.00  0.00     0.049 A 
ATOM     55  C   UNL     1      11.901   5.466  -4.092  1.00  0.00     0.074 A 
ATOM     56  C   UNL     1      13.240   9.478  -8.818  1.00  0.00     0.029 A 
ATOM     57  N   UNL     1      12.214   8.201  -7.314  1.00  0.00    -0.354 N 
ATOM     58  N   UNL     1      12.086   6.314  -5.075  1.00  0.00    -0.248 NA
ATOM     59  C   UNL     1      13.137   4.828  -3.614  1.00  0.00     0.031 C 
ATOM     60  C   UNL     1      14.206   8.725  -8.145  1.00  0.00     0.029 A 
ATOM     61  C   UNL     1      13.570   7.952  -7.186  1.00  0.00     0.049 A 
ATOM     62  H   UNL     1      11.509   7.785  -6.766  1.00  0.00     0.167 HD
ATOM     63  C   UNL     1      13.457   6.337  -5.309  1.00  0.00     0.074 A 
ATOM     64  C   UNL     1      14.057   5.427  -4.356  1.00  0.00     0.031 C 
ATOM     65  C   UNL     1      14.156   7.049  -6.227  1.00  0.00     0.037 A 
BRANCH  52  66
ATOM     66  C   UNL     1      10.625  10.533  -9.912  1.00  0.00     0.057 A 
ATOM     67  C   UNL     1      10.231  11.868  -9.755  1.00  0.00     0.134 A 
ATOM     68  C   UNL     1      10.979  10.113 -11.201  1.00  0.00     0.134 A 
ATOM     69  F   UNL     1       9.864  12.332  -8.552  1.00  0.00    -0.206 F 
ATOM     70  C   UNL     1      10.168  12.743 -10.842  1.00  0.00     0.040 A 
ATOM     71  C   UNL     1      10.950  10.986 -12.289  1.00  0.00     0.040 A 
ATOM     72  F   UNL     1      11.370   8.848 -11.422  1.00  0.00    -0.206 F 
ATOM     73  C   UNL     1      10.536  12.304 -12.112  1.00  0.00     0.006 A 
ENDBRANCH  52  66
BRANCH  53  74
ATOM     74  C   UNL     1      10.638   4.083  -2.290  1.00  0.00     0.057 A 
ATOM     75  C   UNL     1      11.247   4.375  -1.064  1.00  0.00     0.134 A 
ATOM     76  C   UNL     1      10.075   2.810  -2.441  1.00  0.00     0.134 A 
ATOM     77  F   UNL     1      11.828   5.568  -0.866  1.00  0.00    -0.206 F 
ATOM     78  C   UNL     1      11.315   3.432  -0.037  1.00  0.00     0.040 A 
ATOM     79  C   UNL     1      10.108   1.867  -1.411  1.00  0.00     0.040 A 
ATOM     80  F   UNL     1       9.477   2.464  -3.590  1.00  0.00    -0.206 F 
ATOM     81  C   UNL     1      10.739   2.175  -0.208  1.00  0.00     0.006 A 
ENDBRANCH  53  74
BRANCH  65  82
ATOM     82  C   UNL     1      15.653   6.913  -6.218  1.00  0.00     0.057 A 
ATOM     83  C   UNL     1      16.298   5.742  -6.635  1.00  0.00     0.134 A 
ATOM     84  C   UNL     1      16.462   7.989  -5.828  1.00  0.00     0.134 A 
ATOM     85  F   UNL     1      15.585   4.670  -7.013  1.00  0.00    -0.206 F 
ATOM     86  C   UNL     1      17.691   5.636  -6.638  1.00  0.00     0.040 A 
ATOM     87  C   UNL     1      17.855   7.907  -5.857  1.00  0.00     0.040 A 
ATOM     88  F   UNL     1      15.912   9.146  -5.429  1.00  0.00    -0.206 F 
ATOM     89  C   UNL     1      18.473   6.724  -6.255  1.00  0.00     0.006 A 
ENDBRANCH  65  82
ENDBRANCH  39  40
ENDBRANCH  32  34
ENDBRANCH  31  32
ENDBRANCH  30  31
ENDBRANCH  29  30
ENDBRANCH  28  29
ENDBRANCH  27  28
ENDBRANCH  26  27
ENDBRANCH  25  26
ENDBRANCH   1  25
TORSDOF 25
