REMARK SMILES C=CCN1C(=O)/C(=C/c2ccc(OCc3cccc(C(=O)OCCOCCOCCOCCOC(=O)c4ccc(-c5c6nc(c(-c7c(F)cccc7F)c7ccc([nH]7)c(-c7c(F)cccc7F)c7nc(c(-c8c(F)cccc8F)c8ccc5[nH]8)C=C7)C=C6)cc4)c3)cc2)C(=O)NC1=S
REMARK SMILES IDX 26 1 25 2 24 3 23 4 22 5 20 6 21 7 19 8 15 9 16 10 91 11
REMARK SMILES IDX 17 12 18 13 14 14 13 15 12 16 9 17 10 18 93 19 11 20 92 21
REMARK SMILES IDX 8 22 4 23 5 24 97 25 6 26 7 27 96 28 98 29 94 30 95 32 3 33
REMARK SMILES IDX 2 34 1 35 27 36 28 37 29 38 30 39 31 40 32 41 33 42 34 43
REMARK SMILES IDX 35 44 36 45 37 46 38 47 90 48 39 49 89 50 40 51 41 52 42 53
REMARK SMILES IDX 83 54 43 55 88 56 82 57 84 58 44 59 87 60 81 61 80 62 45 64
REMARK SMILES IDX 71 65 54 66 70 67 55 68 58 69 69 70 85 71 56 72 57 73 68 75
REMARK SMILES IDX 86 76 59 77 46 78 47 79 52 80 48 81 49 82 51 83 53 84 50 85
REMARK SMILES IDX 72 86 73 87 78 88 74 89 75 90 77 91 79 92 76 93 60 94 61 95
REMARK SMILES IDX 66 96 62 97 63 98 65 99 67 100 64 101
REMARK H PARENT 96 31 84 63 58 74
REMARK Flexibility Score: inf
ROOT
ATOM      1  C   UNL     1      -2.164  12.838  -6.285  1.00  0.00     0.188 C 
ENDROOT
BRANCH   1   2
ATOM      2  O   UNL     1      -2.990  13.974  -6.477  1.00  0.00    -0.376 OA
BRANCH   2   3
ATOM      3  C   UNL     1      -4.265  14.005  -5.864  1.00  0.00     0.202 C 
BRANCH   3   4
ATOM      4  C   UNL     1      -4.354  13.929  -4.332  1.00  0.00     0.261 C 
BRANCH   4   5
ATOM      5  O   UNL     1      -3.497  12.974  -3.698  1.00  0.00    -0.460 OA
BRANCH   5   6
ATOM      6  C   UNL     1      -3.853  11.670  -3.765  1.00  0.00     0.338 C 
ATOM      7  O   UNL     1      -4.861  11.214  -4.273  1.00  0.00    -0.246 OA
BRANCH   6   8
ATOM      8  C   UNL     1      -2.673  10.880  -3.336  1.00  0.00     0.060 A 
ATOM      9  C   UNL     1      -0.742  10.565  -1.892  1.00  0.00    -0.010 A 
ATOM     10  C   UNL     1      -0.270   9.584  -2.778  1.00  0.00     0.007 A 
ATOM     11  C   UNL     1      -1.927  11.248  -2.208  1.00  0.00     0.023 A 
ATOM     12  C   UNL     1      -1.024   9.204  -3.890  1.00  0.00     0.001 A 
ATOM     13  C   UNL     1      -2.238   9.834  -4.157  1.00  0.00     0.016 A 
BRANCH   9  14
ATOM     14  C   UNL     1      -0.038  10.873  -0.582  1.00  0.00     0.265 C 
BRANCH  14  15
ATOM     15  O   UNL     1       0.752   9.813  -0.023  1.00  0.00    -0.489 OA
BRANCH  15  16
ATOM     16  C   UNL     1       0.153   8.607   0.227  1.00  0.00     0.119 A 
ATOM     17  C   UNL     1      -0.794   5.976   0.386  1.00  0.00    -0.024 A 
ATOM     18  C   UNL     1       0.571   6.242   0.534  1.00  0.00     0.012 A 
ATOM     19  C   UNL     1      -1.690   7.035   0.245  1.00  0.00     0.012 A 
ATOM     20  C   UNL     1       1.041   7.553   0.453  1.00  0.00     0.047 A 
ATOM     21  C   UNL     1      -1.218   8.348   0.185  1.00  0.00     0.047 A 
BRANCH  17  22
ATOM     22  C   UNL     1      -1.251   4.589   0.375  1.00  0.00     0.027 C 
ATOM     23  N   UNL     1      -1.573   1.605  -1.554  1.00  0.00    -0.281 N 
ATOM     24  C   UNL     1      -1.836   2.428  -0.458  1.00  0.00     0.265 C 
ATOM     25  C   UNL     1      -1.590   2.062  -2.865  1.00  0.00     0.183 C 
ATOM     26  O   UNL     1      -2.171   2.011   0.649  1.00  0.00    -0.268 OA
ATOM     27  C   UNL     1      -1.639   3.877  -0.702  1.00  0.00     0.106 C 
ATOM     28  N   UNL     1      -1.739   3.413  -3.041  1.00  0.00    -0.298 N 
ATOM     29  S   UNL     1      -1.444   1.144  -4.262  1.00  0.00    -0.040 S 
ATOM     30  C   UNL     1      -1.745   4.388  -2.082  1.00  0.00     0.263 C 
ATOM     31  H   UNL     1      -1.857   3.718  -3.969  1.00  0.00     0.172 HD
ATOM     32  O   UNL     1      -1.832   5.567  -2.399  1.00  0.00    -0.269 OA
BRANCH  23  33
ATOM     33  C   UNL     1      -1.265   0.214  -1.216  1.00  0.00     0.155 C 
BRANCH  33  34
ATOM     34  C   UNL     1       0.234   0.117  -1.077  1.00  0.00    -0.013 C 
ATOM     35  C   UNL     1       0.888  -0.011   0.085  1.00  0.00     0.006 C 
ENDBRANCH  33  34
ENDBRANCH  23  33
ENDBRANCH  17  22
ENDBRANCH  15  16
ENDBRANCH  14  15
ENDBRANCH   9  14
ENDBRANCH   6   8
ENDBRANCH   5   6
ENDBRANCH   4   5
ENDBRANCH   3   4
ENDBRANCH   2   3
ENDBRANCH   1   2
BRANCH   1  36
ATOM     36  C   UNL     1      -0.919  13.120  -5.416  1.00  0.00     0.188 C 
BRANCH  36  37
ATOM     37  O   UNL     1      -0.848  14.348  -4.705  1.00  0.00    -0.377 OA
BRANCH  37  38
ATOM     38  C   UNL     1      -1.097  15.575  -5.387  1.00  0.00     0.188 C 
BRANCH  38  39
ATOM     39  C   UNL     1      -0.924  15.712  -6.921  1.00  0.00     0.188 C 
BRANCH  39  40
ATOM     40  O   UNL     1      -0.330  14.595  -7.558  1.00  0.00    -0.376 OA
BRANCH  40  41
ATOM     41  C   UNL     1       0.997  14.729  -8.030  1.00  0.00     0.202 C 
BRANCH  41  42
ATOM     42  C   UNL     1       2.088  14.981  -6.981  1.00  0.00     0.261 C 
BRANCH  42  43
ATOM     43  O   UNL     1       1.861  16.079  -6.085  1.00  0.00    -0.460 OA
BRANCH  43  44
ATOM     44  C   UNL     1       1.870  17.321  -6.612  1.00  0.00     0.338 C 
ATOM     45  O   UNL     1       2.054  17.629  -7.779  1.00  0.00    -0.246 OA
BRANCH  44  46
ATOM     46  C   UNL     1       1.431  18.254  -5.557  1.00  0.00     0.060 A 
ATOM     47  C   UNL     1       0.258  18.999  -5.742  1.00  0.00     0.016 A 
ATOM     48  C   UNL     1       2.170  18.377  -4.378  1.00  0.00     0.016 A 
ATOM     49  C   UNL     1      -0.162  19.895  -4.759  1.00  0.00     0.010 A 
ATOM     50  C   UNL     1       1.762  19.291  -3.405  1.00  0.00     0.010 A 
ATOM     51  C   UNL     1       0.613  20.077  -3.606  1.00  0.00    -0.014 A 
BRANCH  51  52
ATOM     52  C   UNL     1       0.341  21.224  -2.708  1.00  0.00     0.031 A 
ATOM     53  C   UNL     1       1.172  22.467  -2.871  1.00  0.00     0.074 A 
ATOM     54  C   UNL     1      -0.623  21.173  -1.774  1.00  0.00     0.049 A 
ATOM     55  N   UNL     1       1.167  23.571  -2.171  1.00  0.00    -0.248 NA
ATOM     56  C   UNL     1       2.148  22.455  -3.973  1.00  0.00     0.031 C 
ATOM     57  C   UNL     1      -1.519  20.043  -1.544  1.00  0.00     0.029 A 
ATOM     58  N   UNL     1      -0.996  22.100  -0.833  1.00  0.00    -0.354 N 
ATOM     59  C   UNL     1       2.143  24.380  -2.739  1.00  0.00     0.074 A 
ATOM     60  C   UNL     1       2.743  23.627  -3.818  1.00  0.00     0.031 C 
ATOM     61  C   UNL     1      -2.332  20.337  -0.514  1.00  0.00     0.029 A 
ATOM     62  C   UNL     1      -1.988  21.659   0.008  1.00  0.00     0.049 A 
ATOM     63  H   UNL     1      -0.592  22.995  -0.768  1.00  0.00     0.167 HD
ATOM     64  C   UNL     1       2.504  25.639  -2.395  1.00  0.00     0.037 A 
ATOM     65  C   UNL     1      -2.533  22.247   1.091  1.00  0.00     0.037 A 
ATOM     66  C   UNL     1       1.909  26.380  -1.315  1.00  0.00     0.049 A 
ATOM     67  C   UNL     1      -2.064  23.619   1.504  1.00  0.00     0.074 A 
ATOM     68  C   UNL     1       2.186  27.671  -0.900  1.00  0.00     0.029 A 
ATOM     69  N   UNL     1       0.927  25.889  -0.467  1.00  0.00    -0.354 N 
ATOM     70  N   UNL     1      -1.164  24.391   0.944  1.00  0.00    -0.248 NA
ATOM     71  C   UNL     1      -2.692  24.203   2.699  1.00  0.00     0.031 C 
ATOM     72  C   UNL     1       1.419  27.937   0.238  1.00  0.00     0.029 A 
ATOM     73  C   UNL     1       0.612  26.839   0.491  1.00  0.00     0.049 A 
ATOM     74  H   UNL     1       0.515  24.997  -0.535  1.00  0.00     0.167 HD
ATOM     75  C   UNL     1      -1.138  25.559   1.697  1.00  0.00     0.074 A 
ATOM     76  C   UNL     1      -2.122  25.399   2.747  1.00  0.00     0.031 C 
ATOM     77  C   UNL     1      -0.372  26.667   1.531  1.00  0.00     0.037 A 
BRANCH  64  78
ATOM     78  C   UNL     1       3.623  26.271  -3.173  1.00  0.00     0.057 A 
ATOM     79  C   UNL     1       3.482  26.642  -4.517  1.00  0.00     0.134 A 
ATOM     80  C   UNL     1       4.860  26.517  -2.563  1.00  0.00     0.134 A 
ATOM     81  F   UNL     1       2.329  26.419  -5.167  1.00  0.00    -0.206 F 
ATOM     82  C   UNL     1       4.540  27.203  -5.235  1.00  0.00     0.040 A 
ATOM     83  C   UNL     1       5.914  27.108  -3.261  1.00  0.00     0.040 A 
ATOM     84  F   UNL     1       5.064  26.191  -1.278  1.00  0.00    -0.206 F 
ATOM     85  C   UNL     1       5.759  27.443  -4.604  1.00  0.00     0.006 A 
ENDBRANCH  64  78
BRANCH  65  86
ATOM     86  C   UNL     1      -3.576  21.535   1.874  1.00  0.00     0.057 A 
ATOM     87  C   UNL     1      -4.901  21.985   1.899  1.00  0.00     0.134 A 
ATOM     88  C   UNL     1      -3.270  20.392   2.624  1.00  0.00     0.134 A 
ATOM     89  F   UNL     1      -5.252  23.088   1.222  1.00  0.00    -0.206 F 
ATOM     90  C   UNL     1      -5.881  21.334   2.651  1.00  0.00     0.040 A 
ATOM     91  C   UNL     1      -4.245  19.715   3.358  1.00  0.00     0.040 A 
ATOM     92  F   UNL     1      -2.019  19.910   2.644  1.00  0.00    -0.206 F 
ATOM     93  C   UNL     1      -5.554  20.190   3.378  1.00  0.00     0.006 A 
ENDBRANCH  65  86
BRANCH  77  94
ATOM     94  C   UNL     1      -0.593  27.812   2.480  1.00  0.00     0.057 A 
ATOM     95  C   UNL     1      -0.211  27.750   3.826  1.00  0.00     0.134 A 
ATOM     96  C   UNL     1      -1.156  29.013   2.025  1.00  0.00     0.134 A 
ATOM     97  F   UNL     1       0.324  26.628   4.330  1.00  0.00    -0.206 F 
ATOM     98  C   UNL     1      -0.404  28.830   4.691  1.00  0.00     0.040 A 
ATOM     99  C   UNL     1      -1.324  30.110   2.872  1.00  0.00     0.040 A 
ATOM    100  F   UNL     1      -1.534  29.147   0.745  1.00  0.00    -0.206 F 
ATOM    101  C   UNL     1      -0.954  30.017   4.211  1.00  0.00     0.006 A 
ENDBRANCH  77  94
ENDBRANCH  51  52
ENDBRANCH  44  46
ENDBRANCH  43  44
ENDBRANCH  42  43
ENDBRANCH  41  42
ENDBRANCH  40  41
ENDBRANCH  39  40
ENDBRANCH  38  39
ENDBRANCH  37  38
ENDBRANCH  36  37
ENDBRANCH   1  36
TORSDOF 26
