REMARK SMILES O=C(OCCOCCOCCOCCOC(=O)c1ccccc1S[C@H]1CCOC2(CCCCC2)C1)c1ccc(-c2c3nc(c(-c4c(F)cccc4F)c4ccc([nH]4)c(-c4c(F)cccc4F)c4nc(c(-c5c(F)cccc5F)c5ccc2[nH]5)C=C4)C=C3)cc1
REMARK SMILES IDX 9 1 8 2 7 3 6 4 5 5 4 6 3 7 2 8 1 9 36 10 37 11 89 12 38 13
REMARK SMILES IDX 88 14 39 15 40 16 41 17 82 18 42 19 87 20 81 21 83 22 43 23
REMARK SMILES IDX 86 24 80 25 79 26 44 28 70 29 53 30 69 31 54 32 57 33 68 34
REMARK SMILES IDX 84 35 55 36 56 37 67 39 85 40 58 41 45 42 46 43 51 44 47 45
REMARK SMILES IDX 48 46 50 47 52 48 49 49 71 50 72 51 77 52 73 53 74 54 76 55
REMARK SMILES IDX 78 56 75 57 59 58 60 59 65 60 61 61 62 62 64 63 66 64 63 65
REMARK SMILES IDX 10 66 11 67 12 68 13 69 14 70 15 71 16 72 17 73 18 74 19 75
REMARK SMILES IDX 23 76 20 77 22 78 21 79 24 80 25 81 26 82 35 83 27 84 29 85
REMARK SMILES IDX 28 86 30 87 34 88 31 89 33 90 32 91
REMARK H PARENT 83 27 57 38
REMARK Flexibility Score: inf
ROOT
ATOM      1  O   UNL     1      -1.055  -8.066  -3.643  1.00  0.00    -0.377 OA
ENDROOT
BRANCH   1   2
ATOM      2  C   UNL     1      -2.034  -7.591  -4.565  1.00  0.00     0.188 C 
BRANCH   2   3
ATOM      3  C   UNL     1      -2.196  -8.431  -5.833  1.00  0.00     0.188 C 
BRANCH   3   4
ATOM      4  O   UNL     1      -2.714  -9.723  -5.520  1.00  0.00    -0.376 OA
BRANCH   4   5
ATOM      5  C   UNL     1      -2.161 -10.828  -6.227  1.00  0.00     0.202 C 
BRANCH   5   6
ATOM      6  C   UNL     1      -2.670 -10.986  -7.656  1.00  0.00     0.261 C 
BRANCH   6   7
ATOM      7  O   UNL     1      -3.118  -9.755  -8.238  1.00  0.00    -0.460 OA
BRANCH   7   8
ATOM      8  C   UNL     1      -4.341  -9.179  -8.154  1.00  0.00     0.338 C 
ATOM      9  O   UNL     1      -4.529  -8.129  -8.769  1.00  0.00    -0.246 OA
BRANCH   8  10
ATOM     10  C   UNL     1      -5.494  -9.734  -7.379  1.00  0.00     0.060 A 
ATOM     11  C   UNL     1      -5.408 -10.524  -6.233  1.00  0.00     0.016 A 
ATOM     12  C   UNL     1      -6.776  -9.341  -7.802  1.00  0.00     0.016 A 
ATOM     13  C   UNL     1      -6.532 -10.953  -5.547  1.00  0.00     0.010 A 
ATOM     14  C   UNL     1      -7.920  -9.758  -7.117  1.00  0.00     0.010 A 
ATOM     15  C   UNL     1      -7.791 -10.591  -6.001  1.00  0.00    -0.014 A 
BRANCH  15  16
ATOM     16  C   UNL     1      -8.944 -11.287  -5.416  1.00  0.00     0.031 A 
ATOM     17  C   UNL     1      -9.547 -12.396  -6.218  1.00  0.00     0.074 A 
ATOM     18  C   UNL     1      -9.324 -11.025  -4.156  1.00  0.00     0.049 A 
ATOM     19  N   UNL     1     -10.623 -13.096  -5.991  1.00  0.00    -0.248 NA
ATOM     20  C   UNL     1      -8.827 -12.774  -7.447  1.00  0.00     0.031 C 
ATOM     21  C   UNL     1      -8.668 -10.072  -3.257  1.00  0.00     0.029 A 
ATOM     22  N   UNL     1     -10.341 -11.549  -3.408  1.00  0.00    -0.354 N 
ATOM     23  C   UNL     1     -10.735 -13.958  -7.074  1.00  0.00     0.074 A 
ATOM     24  C   UNL     1      -9.620 -13.701  -7.954  1.00  0.00     0.031 C 
ATOM     25  C   UNL     1      -9.309 -10.073  -2.078  1.00  0.00     0.029 A 
ATOM     26  C   UNL     1     -10.460 -10.964  -2.172  1.00  0.00     0.049 A 
ATOM     27  H   UNL     1     -10.928 -12.273  -3.723  1.00  0.00     0.167 HD
ATOM     28  C   UNL     1     -11.706 -14.869  -7.307  1.00  0.00     0.037 A 
ATOM     29  C   UNL     1     -11.436 -11.098  -1.256  1.00  0.00     0.037 A 
ATOM     30  C   UNL     1     -12.794 -15.085  -6.395  1.00  0.00     0.049 A 
ATOM     31  C   UNL     1     -12.565 -12.039  -1.577  1.00  0.00     0.074 A 
ATOM     32  C   UNL     1     -13.880 -15.929  -6.520  1.00  0.00     0.029 A 
ATOM     33  N   UNL     1     -12.926 -14.431  -5.174  1.00  0.00    -0.354 N 
ATOM     34  N   UNL     1     -12.726 -12.800  -2.636  1.00  0.00    -0.248 NA
ATOM     35  C   UNL     1     -13.651 -12.132  -0.597  1.00  0.00     0.031 C 
ATOM     36  C   UNL     1     -14.697 -15.742  -5.399  1.00  0.00     0.029 A 
ATOM     37  C   UNL     1     -14.089 -14.830  -4.545  1.00  0.00     0.049 A 
ATOM     38  H   UNL     1     -12.283 -13.779  -4.811  1.00  0.00     0.167 HD
ATOM     39  C   UNL     1     -13.923 -13.474  -2.448  1.00  0.00     0.074 A 
ATOM     40  C   UNL     1     -14.437 -13.040  -1.161  1.00  0.00     0.031 C 
ATOM     41  C   UNL     1     -14.547 -14.367  -3.257  1.00  0.00     0.037 A 
BRANCH  28  42
ATOM     42  C   UNL     1     -11.662 -15.582  -8.626  1.00  0.00     0.057 A 
ATOM     43  C   UNL     1     -10.668 -16.517  -8.949  1.00  0.00     0.134 A 
ATOM     44  C   UNL     1     -12.585 -15.254  -9.628  1.00  0.00     0.134 A 
ATOM     45  F   UNL     1      -9.729 -16.849  -8.051  1.00  0.00    -0.206 F 
ATOM     46  C   UNL     1     -10.569 -17.065 -10.231  1.00  0.00     0.040 A 
ATOM     47  C   UNL     1     -12.514 -15.817 -10.903  1.00  0.00     0.040 A 
ATOM     48  F   UNL     1     -13.556 -14.359  -9.393  1.00  0.00    -0.206 F 
ATOM     49  C   UNL     1     -11.495 -16.715 -11.212  1.00  0.00     0.006 A 
ENDBRANCH  28  42
BRANCH  29  50
ATOM     50  C   UNL     1     -11.417 -10.271  -0.022  1.00  0.00     0.057 A 
ATOM     51  C   UNL     1     -11.257 -10.841   1.245  1.00  0.00     0.134 A 
ATOM     52  C   UNL     1     -11.537  -8.875  -0.084  1.00  0.00     0.134 A 
ATOM     53  F   UNL     1     -11.153 -12.171   1.379  1.00  0.00    -0.206 F 
ATOM     54  C   UNL     1     -11.223 -10.056   2.402  1.00  0.00     0.040 A 
ATOM     55  C   UNL     1     -11.477  -8.077   1.059  1.00  0.00     0.040 A 
ATOM     56  F   UNL     1     -11.692  -8.260  -1.267  1.00  0.00    -0.206 F 
ATOM     57  C   UNL     1     -11.325  -8.669   2.310  1.00  0.00     0.006 A 
ENDBRANCH  29  50
BRANCH  41  58
ATOM     58  C   UNL     1     -15.830 -14.953  -2.752  1.00  0.00     0.057 A 
ATOM     59  C   UNL     1     -17.019 -14.215  -2.727  1.00  0.00     0.134 A 
ATOM     60  C   UNL     1     -15.884 -16.296  -2.360  1.00  0.00     0.134 A 
ATOM     61  F   UNL     1     -17.025 -12.921  -3.079  1.00  0.00    -0.206 F 
ATOM     62  C   UNL     1     -18.220 -14.793  -2.318  1.00  0.00     0.040 A 
ATOM     63  C   UNL     1     -17.084 -16.892  -1.978  1.00  0.00     0.040 A 
ATOM     64  F   UNL     1     -14.778 -17.055  -2.374  1.00  0.00    -0.206 F 
ATOM     65  C   UNL     1     -18.256 -16.139  -1.954  1.00  0.00     0.006 A 
ENDBRANCH  41  58
ENDBRANCH  15  16
ENDBRANCH   8  10
ENDBRANCH   7   8
ENDBRANCH   6   7
ENDBRANCH   5   6
ENDBRANCH   4   5
ENDBRANCH   3   4
ENDBRANCH   2   3
ENDBRANCH   1   2
BRANCH   1  66
ATOM     66  C   UNL     1      -1.076  -9.458  -3.345  1.00  0.00     0.188 C 
BRANCH  66  67
ATOM     67  C   UNL     1      -2.354 -10.075  -2.721  1.00  0.00     0.188 C 
BRANCH  67  68
ATOM     68  O   UNL     1      -3.489  -9.223  -2.749  1.00  0.00    -0.376 OA
BRANCH  68  69
ATOM     69  C   UNL     1      -3.888  -8.647  -1.510  1.00  0.00     0.202 C 
BRANCH  69  70
ATOM     70  C   UNL     1      -2.871  -7.808  -0.722  1.00  0.00     0.261 C 
BRANCH  70  71
ATOM     71  O   UNL     1      -1.534  -8.312  -0.740  1.00  0.00    -0.460 OA
BRANCH  71  72
ATOM     72  C   UNL     1      -1.126  -9.207   0.188  1.00  0.00     0.339 C 
ATOM     73  O   UNL     1      -1.799  -9.700   1.056  1.00  0.00    -0.246 OA
BRANCH  72  74
ATOM     74  C   UNL     1       0.243  -9.676  -0.199  1.00  0.00     0.073 A 
ATOM     75  C   UNL     1       0.381 -11.072  -0.355  1.00  0.00     0.017 A 
ATOM     76  C   UNL     1       1.318  -8.819  -0.520  1.00  0.00     0.022 A 
ATOM     77  C   UNL     1       1.578 -11.623  -0.812  1.00  0.00     0.001 A 
ATOM     78  C   UNL     1       2.541  -9.413  -0.876  1.00  0.00     0.016 A 
ATOM     79  C   UNL     1       2.668 -10.796  -1.036  1.00  0.00     0.001 A 
BRANCH  76  80
ATOM     80  S   UNL     1       1.081  -7.043  -0.700  1.00  0.00    -0.122 SA
BRANCH  80  81
ATOM     81  C   UNL     1       2.669  -6.304  -0.239  1.00  0.00     0.057 C 
ATOM     82  C   UNL     1       3.628  -6.129  -1.416  1.00  0.00     0.043 C 
ATOM     83  C   UNL     1       2.384  -4.909   0.327  1.00  0.00     0.050 C 
ATOM     84  C   UNL     1       4.915  -5.529  -0.874  1.00  0.00     0.162 C 
ATOM     85  C   UNL     1       3.691  -4.247   0.794  1.00  0.00     0.069 C 
ATOM     86  O   UNL     1       4.671  -4.269  -0.258  1.00  0.00    -0.375 OA
ATOM     87  C   UNL     1       4.212  -4.931   2.077  1.00  0.00     0.035 C 
ATOM     88  C   UNL     1       3.429  -2.755   1.089  1.00  0.00     0.035 C 
ATOM     89  C   UNL     1       5.452  -4.246   2.638  1.00  0.00     0.003 C 
ATOM     90  C   UNL     1       4.672  -2.058   1.646  1.00  0.00     0.003 C 
ATOM     91  C   UNL     1       5.204  -2.764   2.888  1.00  0.00     0.000 C 
ENDBRANCH  80  81
ENDBRANCH  76  80
ENDBRANCH  72  74
ENDBRANCH  71  72
ENDBRANCH  70  71
ENDBRANCH  69  70
ENDBRANCH  68  69
ENDBRANCH  67  68
ENDBRANCH  66  67
ENDBRANCH   1  66
TORSDOF 22
