REMARK SMILES CC(=O)N[C@@H](C)C(=O)N1CCC[C@H]1C(=O)OCCOCCOCCOCCOC(=O)c1ccc(-c2c3nc(c(-c4c(F)cccc4F)c4ccc([nH]4)c(-c4c(F)cccc4F)c4nc(c(-c5c(F)cccc5F)c5ccc2[nH]5)C=C4)C=C3)cc1
REMARK SMILES IDX 21 1 20 2 19 3 18 4 17 5 16 6 14 7 15 8 13 9 9 10 10 11
REMARK SMILES IDX 11 12 12 13 7 14 8 15 5 16 6 17 4 18 1 19 2 20 3 21 22 23
REMARK SMILES IDX 23 24 24 25 25 26 26 27 27 28 28 29 29 30 30 31 31 32 32 33
REMARK SMILES IDX 84 34 33 35 83 36 34 37 35 38 36 39 77 40 37 41 82 42 76 43
REMARK SMILES IDX 78 44 38 45 81 46 75 47 74 48 39 50 65 51 48 52 64 53 49 54
REMARK SMILES IDX 52 55 63 56 79 57 50 58 51 59 62 61 80 62 53 63 40 64 41 65
REMARK SMILES IDX 46 66 42 67 43 68 45 69 47 70 44 71 66 72 67 73 72 74 68 75
REMARK SMILES IDX 69 76 71 77 73 78 70 79 54 80 55 81 60 82 56 83 57 84 59 85
REMARK SMILES IDX 61 86 58 87
REMARK H PARENT 4 22 78 49 52 60
REMARK Flexibility Score: inf
ROOT
ATOM      1  C   UNL     1      -2.260   5.870  -3.801  1.00  0.00     0.188 C 
ENDROOT
BRANCH   1   2
ATOM      2  C   UNL     1      -2.485   5.753  -2.286  1.00  0.00     0.188 C 
BRANCH   2   3
ATOM      3  O   UNL     1      -2.927   6.983  -1.716  1.00  0.00    -0.376 OA
BRANCH   3   4
ATOM      4  C   UNL     1      -1.967   7.771  -1.022  1.00  0.00     0.202 C 
BRANCH   4   5
ATOM      5  C   UNL     1      -0.872   8.416  -1.883  1.00  0.00     0.261 C 
BRANCH   5   6
ATOM      6  O   UNL     1      -0.120   7.483  -2.680  1.00  0.00    -0.462 OA
BRANCH   6   7
ATOM      7  C   UNL     1       0.839   6.747  -2.066  1.00  0.00     0.328 C 
ATOM      8  O   UNL     1       1.139   6.918  -0.893  1.00  0.00    -0.250 OA
BRANCH   7   9
ATOM      9  C   UNL     1       1.443   5.662  -3.015  1.00  0.00     0.195 C 
ATOM     10  N   UNL     1       1.079   4.248  -2.783  1.00  0.00    -0.327 N 
ATOM     11  C   UNL     1       0.574   3.604  -3.980  1.00  0.00     0.120 C 
ATOM     12  C   UNL     1       0.914   4.523  -5.133  1.00  0.00     0.024 C 
ATOM     13  C   UNL     1       1.214   5.887  -4.522  1.00  0.00     0.039 C 
BRANCH  10  14
ATOM     14  C   UNL     1       1.480   3.631  -1.615  1.00  0.00     0.245 C 
ATOM     15  O   UNL     1       1.703   4.292  -0.598  1.00  0.00    -0.272 OA
BRANCH  14  16
ATOM     16  C   UNL     1       1.922   2.151  -1.622  1.00  0.00     0.168 C 
ATOM     17  C   UNL     1       3.204   2.038  -2.450  1.00  0.00     0.041 C 
BRANCH  16  18
ATOM     18  N   UNL     1       0.948   1.141  -2.018  1.00  0.00    -0.345 N 
ATOM     19  C   UNL     1       0.967  -0.065   0.140  1.00  0.00     0.114 C 
ATOM     20  C   UNL     1       0.498   0.085  -1.281  1.00  0.00     0.217 C 
ATOM     21  O   UNL     1      -0.276  -0.717  -1.801  1.00  0.00    -0.275 OA
ATOM     22  H   UNL     1       0.571   1.232  -2.923  1.00  0.00     0.164 HD
ENDBRANCH  16  18
ENDBRANCH  14  16
ENDBRANCH  10  14
ENDBRANCH   7   9
ENDBRANCH   6   7
ENDBRANCH   5   6
ENDBRANCH   4   5
ENDBRANCH   3   4
ENDBRANCH   2   3
ENDBRANCH   1   2
BRANCH   1  23
ATOM     23  O   UNL     1      -3.364   6.216  -4.614  1.00  0.00    -0.377 OA
BRANCH  23  24
ATOM     24  C   UNL     1      -4.096   7.345  -4.182  1.00  0.00     0.188 C 
BRANCH  24  25
ATOM     25  C   UNL     1      -5.379   6.978  -3.416  1.00  0.00     0.188 C 
BRANCH  25  26
ATOM     26  O   UNL     1      -5.867   5.644  -3.334  1.00  0.00    -0.376 OA
BRANCH  26  27
ATOM     27  C   UNL     1      -5.514   4.651  -4.281  1.00  0.00     0.202 C 
BRANCH  27  28
ATOM     28  C   UNL     1      -5.772   4.855  -5.786  1.00  0.00     0.261 C 
BRANCH  28  29
ATOM     29  O   UNL     1      -5.667   6.188  -6.297  1.00  0.00    -0.460 OA
BRANCH  29  30
ATOM     30  C   UNL     1      -6.807   6.914  -6.306  1.00  0.00     0.338 C 
ATOM     31  O   UNL     1      -7.918   6.561  -5.949  1.00  0.00    -0.246 OA
BRANCH  30  32
ATOM     32  C   UNL     1      -6.466   8.302  -6.687  1.00  0.00     0.060 A 
ATOM     33  C   UNL     1      -6.779   9.340  -5.799  1.00  0.00     0.016 A 
ATOM     34  C   UNL     1      -5.822   8.578  -7.896  1.00  0.00     0.016 A 
ATOM     35  C   UNL     1      -6.452  10.657  -6.116  1.00  0.00     0.010 A 
ATOM     36  C   UNL     1      -5.532   9.903  -8.233  1.00  0.00     0.010 A 
ATOM     37  C   UNL     1      -5.865  10.948  -7.353  1.00  0.00    -0.014 A 
BRANCH  37  38
ATOM     38  C   UNL     1      -5.790  12.356  -7.808  1.00  0.00     0.031 A 
ATOM     39  C   UNL     1      -6.920  12.890  -8.642  1.00  0.00     0.074 A 
ATOM     40  C   UNL     1      -4.756  13.148  -7.474  1.00  0.00     0.049 A 
ATOM     41  N   UNL     1      -7.061  14.066  -9.195  1.00  0.00    -0.248 NA
ATOM     42  C   UNL     1      -8.045  11.970  -8.886  1.00  0.00     0.031 C 
ATOM     43  C   UNL     1      -3.628  12.761  -6.629  1.00  0.00     0.029 A 
ATOM     44  N   UNL     1      -4.488  14.449  -7.819  1.00  0.00    -0.354 N 
ATOM     45  C   UNL     1      -8.281  14.025  -9.858  1.00  0.00     0.074 A 
ATOM     46  C   UNL     1      -8.834  12.705  -9.656  1.00  0.00     0.031 C 
ATOM     47  C   UNL     1      -2.780  13.801  -6.533  1.00  0.00     0.029 A 
ATOM     48  C   UNL     1      -3.289  14.912  -7.336  1.00  0.00     0.049 A 
ATOM     49  H   UNL     1      -5.098  14.999  -8.362  1.00  0.00     0.167 HD
ATOM     50  C   UNL     1      -8.886  15.003 -10.570  1.00  0.00     0.037 A 
ATOM     51  C   UNL     1      -2.667  16.090  -7.543  1.00  0.00     0.037 A 
ATOM     52  C   UNL     1      -8.337  16.317 -10.766  1.00  0.00     0.049 A 
ATOM     53  C   UNL     1      -3.326  17.129  -8.417  1.00  0.00     0.074 A 
ATOM     54  C   UNL     1      -8.893  17.389 -11.441  1.00  0.00     0.029 A 
ATOM     55  N   UNL     1      -7.100  16.733 -10.300  1.00  0.00    -0.354 N 
ATOM     56  N   UNL     1      -4.498  17.098  -9.004  1.00  0.00    -0.248 NA
ATOM     57  C   UNL     1      -2.569  18.367  -8.661  1.00  0.00     0.031 C 
ATOM     58  C   UNL     1      -7.967  18.436 -11.433  1.00  0.00     0.029 A 
ATOM     59  C   UNL     1      -6.858  18.034 -10.706  1.00  0.00     0.049 A 
ATOM     60  H   UNL     1      -6.486  16.184  -9.760  1.00  0.00     0.167 HD
ATOM     61  C   UNL     1      -4.632  18.319  -9.656  1.00  0.00     0.074 A 
ATOM     62  C   UNL     1      -3.428  19.073  -9.382  1.00  0.00     0.031 C 
ATOM     63  C   UNL     1      -5.659  18.775 -10.414  1.00  0.00     0.037 A 
BRANCH  50  64
ATOM     64  C   UNL     1     -10.197  14.681 -11.220  1.00  0.00     0.057 A 
ATOM     65  C   UNL     1     -11.380  14.549 -10.483  1.00  0.00     0.134 A 
ATOM     66  C   UNL     1     -10.283  14.552 -12.613  1.00  0.00     0.134 A 
ATOM     67  F   UNL     1     -11.361  14.644  -9.145  1.00  0.00    -0.206 F 
ATOM     68  C   UNL     1     -12.602  14.292 -11.107  1.00  0.00     0.040 A 
ATOM     69  C   UNL     1     -11.502  14.319 -13.249  1.00  0.00     0.040 A 
ATOM     70  F   UNL     1      -9.186  14.667 -13.376  1.00  0.00    -0.206 F 
ATOM     71  C   UNL     1     -12.666  14.186 -12.495  1.00  0.00     0.006 A 
ENDBRANCH  50  64
BRANCH  51  72
ATOM     72  C   UNL     1      -1.333  16.358  -6.946  1.00  0.00     0.057 A 
ATOM     73  C   UNL     1      -1.158  17.356  -5.979  1.00  0.00     0.134 A 
ATOM     74  C   UNL     1      -0.190  15.671  -7.374  1.00  0.00     0.134 A 
ATOM     75  F   UNL     1      -2.209  18.069  -5.548  1.00  0.00    -0.206 F 
ATOM     76  C   UNL     1       0.105  17.680  -5.480  1.00  0.00     0.040 A 
ATOM     77  C   UNL     1       1.075  15.966  -6.864  1.00  0.00     0.040 A 
ATOM     78  F   UNL     1      -0.286  14.706  -8.300  1.00  0.00    -0.206 F 
ATOM     79  C   UNL     1       1.227  16.982  -5.922  1.00  0.00     0.006 A 
ENDBRANCH  51  72
BRANCH  63  80
ATOM     80  C   UNL     1      -5.545  20.165 -10.970  1.00  0.00     0.057 A 
ATOM     81  C   UNL     1      -4.665  20.475 -12.015  1.00  0.00     0.134 A 
ATOM     82  C   UNL     1      -6.364  21.195 -10.488  1.00  0.00     0.134 A 
ATOM     83  F   UNL     1      -3.845  19.538 -12.514  1.00  0.00    -0.206 F 
ATOM     84  C   UNL     1      -4.589  21.764 -12.545  1.00  0.00     0.040 A 
ATOM     85  C   UNL     1      -6.317  22.480 -11.029  1.00  0.00     0.040 A 
ATOM     86  F   UNL     1      -7.238  20.963  -9.496  1.00  0.00    -0.206 F 
ATOM     87  C   UNL     1      -5.423  22.769 -12.057  1.00  0.00     0.006 A 
ENDBRANCH  63  80
ENDBRANCH  37  38
ENDBRANCH  30  32
ENDBRANCH  29  30
ENDBRANCH  28  29
ENDBRANCH  27  28
ENDBRANCH  26  27
ENDBRANCH  25  26
ENDBRANCH  24  25
ENDBRANCH  23  24
ENDBRANCH   1  23
TORSDOF 23
