REMARK SMILES COc1ccc(-c2cc(Cl)cc3c2O[C@@H](C(F)(F)F)C(C(=O)OCCOCCOCCOCCOC(=O)c2ccc(-c4c5nc(c(-c6c(F)cccc6F)c6ccc([nH]6)c(-c6c(F)cccc6F)c6nc(c(-c7c(F)cccc7F)c7ccc4[nH]7)C=C6)C=C5)cc2)=C3)cc1C
REMARK SMILES IDX 29 1 28 2 27 3 26 4 25 5 24 6 23 7 21 8 22 9 20 10 7 11 8 12
REMARK SMILES IDX 13 13 9 14 12 15 14 16 10 17 11 18 92 19 15 20 6 21 3 22
REMARK SMILES IDX 4 23 94 24 5 25 93 26 95 27 2 28 1 29 16 30 17 31 18 32
REMARK SMILES IDX 19 33 30 34 31 35 32 36 33 37 34 38 35 39 36 40 37 41 38 42
REMARK SMILES IDX 39 43 91 44 40 45 90 46 41 47 42 48 43 49 84 50 44 51 89 52
REMARK SMILES IDX 83 53 85 54 45 55 88 56 82 57 81 58 46 60 72 61 55 62 71 63
REMARK SMILES IDX 56 64 59 65 70 66 86 67 57 68 58 69 69 71 87 72 60 73 47 74
REMARK SMILES IDX 48 75 53 76 49 77 50 78 52 79 54 80 51 81 73 82 74 83 79 84
REMARK SMILES IDX 75 85 76 86 78 87 80 88 77 89 61 90 62 91 67 92 63 93 64 94
REMARK SMILES IDX 66 95 68 96 65 97
REMARK H PARENT 85 59 59 70
REMARK Flexibility Score: inf
ROOT
ATOM      1  O   UNL     1      -3.455   9.518  -2.411  1.00  0.00    -0.377 OA
ENDROOT
BRANCH   1   2
ATOM      2  C   UNL     1      -2.485   9.201  -3.400  1.00  0.00     0.188 C 
BRANCH   2   3
ATOM      3  C   UNL     1      -1.209   8.581  -2.857  1.00  0.00     0.188 C 
BRANCH   3   4
ATOM      4  O   UNL     1      -1.070   7.222  -2.410  1.00  0.00    -0.376 OA
BRANCH   4   5
ATOM      5  C   UNL     1      -0.572   7.024  -1.041  1.00  0.00     0.202 C 
BRANCH   5   6
ATOM      6  C   UNL     1       0.941   6.810  -0.464  1.00  0.00     0.261 C 
BRANCH   6   7
ATOM      7  O   UNL     1       1.646   7.956   0.091  1.00  0.00    -0.460 OA
BRANCH   7   8
ATOM      8  C   UNL     1       2.898   8.254  -0.360  1.00  0.00     0.338 C 
ATOM      9  O   UNL     1       3.877   7.515  -0.352  1.00  0.00    -0.246 OA
BRANCH   8  10
ATOM     10  C   UNL     1       2.835   9.565  -1.136  1.00  0.00     0.087 C 
ATOM     11  C   UNL     1       1.798   6.434  -3.567  1.00  0.00     0.026 A 
ATOM     12  C   UNL     1       2.717   6.167  -4.602  1.00  0.00     0.033 A 
ATOM     13  C   UNL     1       1.970   7.795  -3.002  1.00  0.00     0.135 A 
ATOM     14  C   UNL     1       3.704   7.082  -5.010  1.00  0.00     0.042 A 
ATOM     15  C   UNL     1       3.137   8.575  -3.253  1.00  0.00     0.019 A 
ATOM     16  O   UNL     1       1.061   8.495  -2.179  1.00  0.00    -0.475 OA
ATOM     17  Cl  UNL     1       4.713   6.691  -6.346  1.00  0.00    -0.084 Cl
ATOM     18  C   UNL     1       3.943   8.266  -4.323  1.00  0.00     0.032 A 
ATOM     19  C   UNL     1       3.530   9.665  -2.295  1.00  0.00     0.027 C 
ATOM     20  C   UNL     1       1.398   9.790  -1.470  1.00  0.00     0.316 C 
BRANCH  11  21
ATOM     21  C   UNL     1       0.996   5.085  -3.163  1.00  0.00    -0.014 A 
ATOM     22  C   UNL     1       0.119   2.213  -2.892  1.00  0.00     0.121 A 
ATOM     23  C   UNL     1      -0.554   3.190  -3.651  1.00  0.00     0.047 A 
ATOM     24  C   UNL     1       1.300   2.623  -2.308  1.00  0.00    -0.008 A 
ATOM     25  C   UNL     1      -0.123   4.567  -3.812  1.00  0.00     0.013 A 
ATOM     26  C   UNL     1       1.616   4.061  -2.375  1.00  0.00     0.016 A 
ATOM     27  C   UNL     1       2.237   1.546  -1.786  1.00  0.00     0.048 C 
BRANCH  22  28
ATOM     28  O   UNL     1      -0.447   0.961  -2.900  1.00  0.00    -0.496 OA
ATOM     29  C   UNL     1      -0.179  -0.042  -1.911  1.00  0.00     0.278 C 
ENDBRANCH  22  28
ENDBRANCH  11  21
BRANCH  20  30
ATOM     30  C   UNL     1       0.569  10.370  -0.224  1.00  0.00     0.430 C 
ATOM     31  F   UNL     1       1.011  11.643   0.017  1.00  0.00    -0.167 F 
ATOM     32  F   UNL     1      -0.752  10.504  -0.476  1.00  0.00    -0.167 F 
ATOM     33  F   UNL     1       0.673   9.749   0.966  1.00  0.00    -0.167 F 
ENDBRANCH  20  30
ENDBRANCH   8  10
ENDBRANCH   7   8
ENDBRANCH   6   7
ENDBRANCH   5   6
ENDBRANCH   4   5
ENDBRANCH   3   4
ENDBRANCH   2   3
ENDBRANCH   1   2
BRANCH   1  34
ATOM     34  C   UNL     1      -4.005   8.373  -1.773  1.00  0.00     0.188 C 
BRANCH  34  35
ATOM     35  C   UNL     1      -4.779   7.508  -2.758  1.00  0.00     0.188 C 
BRANCH  35  36
ATOM     36  O   UNL     1      -3.868   6.676  -3.478  1.00  0.00    -0.376 OA
BRANCH  36  37
ATOM     37  C   UNL     1      -4.147   6.470  -4.862  1.00  0.00     0.202 C 
BRANCH  37  38
ATOM     38  C   UNL     1      -5.521   5.860  -5.127  1.00  0.00     0.261 C 
BRANCH  38  39
ATOM     39  O   UNL     1      -5.555   4.551  -4.526  1.00  0.00    -0.460 OA
BRANCH  39  40
ATOM     40  C   UNL     1      -6.199   4.494  -3.331  1.00  0.00     0.338 C 
ATOM     41  O   UNL     1      -7.319   4.936  -3.120  1.00  0.00    -0.246 OA
BRANCH  40  42
ATOM     42  C   UNL     1      -5.260   4.075  -2.241  1.00  0.00     0.060 A 
ATOM     43  C   UNL     1      -5.680   4.127  -0.905  1.00  0.00     0.016 A 
ATOM     44  C   UNL     1      -3.901   3.942  -2.505  1.00  0.00     0.016 A 
ATOM     45  C   UNL     1      -4.734   4.195   0.142  1.00  0.00     0.010 A 
ATOM     46  C   UNL     1      -2.978   4.079  -1.470  1.00  0.00     0.010 A 
ATOM     47  C   UNL     1      -3.366   4.254  -0.139  1.00  0.00    -0.014 A 
BRANCH  47  48
ATOM     48  C   UNL     1      -2.294   4.720   0.791  1.00  0.00     0.031 A 
ATOM     49  C   UNL     1      -0.979   3.966   0.899  1.00  0.00     0.074 A 
ATOM     50  C   UNL     1      -2.378   6.008   1.229  1.00  0.00     0.049 A 
ATOM     51  N   UNL     1       0.145   4.473   1.278  1.00  0.00    -0.248 NA
ATOM     52  C   UNL     1      -0.798   2.556   0.587  1.00  0.00     0.031 C 
ATOM     53  C   UNL     1      -1.309   6.878   1.741  1.00  0.00     0.029 A 
ATOM     54  N   UNL     1      -3.457   6.875   1.244  1.00  0.00    -0.354 N 
ATOM     55  C   UNL     1       1.220   3.607   1.089  1.00  0.00     0.074 A 
ATOM     56  C   UNL     1       0.537   2.389   0.739  1.00  0.00     0.031 C 
ATOM     57  C   UNL     1      -1.774   8.095   2.068  1.00  0.00     0.029 A 
ATOM     58  C   UNL     1      -3.206   7.959   2.100  1.00  0.00     0.049 A 
ATOM     59  H   UNL     1      -4.285   6.749   0.728  1.00  0.00     0.167 HD
ATOM     60  C   UNL     1       2.505   4.092   1.313  1.00  0.00     0.037 A 
ATOM     61  C   UNL     1      -3.854   7.971   3.307  1.00  0.00     0.037 A 
ATOM     62  C   UNL     1       2.361   5.184   2.318  1.00  0.00     0.049 A 
ATOM     63  C   UNL     1      -2.907   7.437   4.407  1.00  0.00     0.074 A 
ATOM     64  C   UNL     1       2.881   6.444   2.518  1.00  0.00     0.029 A 
ATOM     65  N   UNL     1       1.433   5.011   3.362  1.00  0.00    -0.354 N 
ATOM     66  N   UNL     1      -1.944   6.556   4.207  1.00  0.00    -0.248 NA
ATOM     67  C   UNL     1      -2.773   8.083   5.712  1.00  0.00     0.031 C 
ATOM     68  C   UNL     1       2.047   7.108   3.482  1.00  0.00     0.029 A 
ATOM     69  C   UNL     1       1.134   6.195   4.003  1.00  0.00     0.049 A 
ATOM     70  H   UNL     1       1.042   4.142   3.607  1.00  0.00     0.167 HD
ATOM     71  C   UNL     1      -0.999   6.662   5.198  1.00  0.00     0.074 A 
ATOM     72  C   UNL     1      -1.607   7.576   6.156  1.00  0.00     0.031 C 
ATOM     73  C   UNL     1       0.289   6.182   5.198  1.00  0.00     0.037 A 
BRANCH  60  74
ATOM     74  C   UNL     1       3.985   3.683   0.847  1.00  0.00     0.057 A 
ATOM     75  C   UNL     1       5.038   3.767   1.775  1.00  0.00     0.134 A 
ATOM     76  C   UNL     1       4.543   3.452  -0.448  1.00  0.00     0.134 A 
ATOM     77  F   UNL     1       4.790   4.094   3.049  1.00  0.00    -0.206 F 
ATOM     78  C   UNL     1       6.417   3.562   1.460  1.00  0.00     0.040 A 
ATOM     79  C   UNL     1       5.881   3.120  -0.766  1.00  0.00     0.040 A 
ATOM     80  F   UNL     1       3.908   3.627  -1.593  1.00  0.00    -0.206 F 
ATOM     81  C   UNL     1       6.843   3.188   0.196  1.00  0.00     0.006 A 
ENDBRANCH  60  74
BRANCH  61  82
ATOM     82  C   UNL     1      -5.326   7.843   3.035  1.00  0.00     0.057 A 
ATOM     83  C   UNL     1      -5.876   8.923   2.297  1.00  0.00     0.134 A 
ATOM     84  C   UNL     1      -5.940   6.599   2.844  1.00  0.00     0.134 A 
ATOM     85  F   UNL     1      -5.361  10.156   2.437  1.00  0.00    -0.206 F 
ATOM     86  C   UNL     1      -6.794   8.732   1.255  1.00  0.00     0.040 A 
ATOM     87  C   UNL     1      -6.894   6.408   1.823  1.00  0.00     0.040 A 
ATOM     88  F   UNL     1      -5.490   5.511   3.485  1.00  0.00    -0.206 F 
ATOM     89  C   UNL     1      -7.266   7.456   0.980  1.00  0.00     0.006 A 
ENDBRANCH  61  82
BRANCH  73  90
ATOM     90  C   UNL     1       0.873   5.532   6.440  1.00  0.00     0.057 A 
ATOM     91  C   UNL     1       0.087   5.136   7.532  1.00  0.00     0.134 A 
ATOM     92  C   UNL     1       2.211   5.065   6.469  1.00  0.00     0.134 A 
ATOM     93  F   UNL     1      -1.222   5.414   7.601  1.00  0.00    -0.206 F 
ATOM     94  C   UNL     1       0.599   4.376   8.587  1.00  0.00     0.040 A 
ATOM     95  C   UNL     1       2.711   4.252   7.485  1.00  0.00     0.040 A 
ATOM     96  F   UNL     1       3.090   5.332   5.493  1.00  0.00    -0.206 F 
ATOM     97  C   UNL     1       1.908   3.917   8.559  1.00  0.00     0.006 A 
ENDBRANCH  73  90
ENDBRANCH  47  48
ENDBRANCH  40  42
ENDBRANCH  39  40
ENDBRANCH  38  39
ENDBRANCH  37  38
ENDBRANCH  36  37
ENDBRANCH  35  36
ENDBRANCH  34  35
ENDBRANCH   1  34
TORSDOF 23
