REMARK SMILES CCc1cccc(C)c1Nc1ccccc1CC(=O)OCCOCCOCCOCCOC(=O)c1ccc(-c2c3nc(c(-c4c(F)cccc4F)c4ccc([nH]4)c(-c4c(F)cccc4F)c4nc(c(-c5c(F)cccc5F)c5ccc2[nH]5)C=C4)C=C3)cc1
REMARK SMILES IDX 25 1 24 2 23 3 22 4 21 5 20 6 18 7 19 8 17 9 16 10 11 11
REMARK SMILES IDX 12 12 13 13 15 14 14 15 10 16 9 18 3 19 4 20 5 21 7 22 6 23
REMARK SMILES IDX 8 24 2 25 1 26 26 27 27 28 28 29 29 30 30 31 31 32 32 33
REMARK SMILES IDX 33 34 34 35 35 36 36 37 88 38 37 39 87 40 38 41 39 42 40 43
REMARK SMILES IDX 81 44 41 45 86 46 80 47 82 48 42 49 85 50 79 51 78 52 43 54
REMARK SMILES IDX 69 55 52 56 68 57 53 58 56 59 67 60 83 61 54 62 55 63 66 65
REMARK SMILES IDX 84 66 57 67 44 68 45 69 50 70 46 71 47 72 49 73 51 74 48 75
REMARK SMILES IDX 70 76 71 77 76 78 72 79 73 80 75 81 77 82 74 83 58 84 59 85
REMARK SMILES IDX 64 86 60 87 61 88 63 89 65 90 62 91
REMARK H PARENT 10 17 82 53 56 64
REMARK Flexibility Score: inf
ROOT
ATOM      1  C   UNL     1       3.155  -0.573  -2.894  1.00  0.00     0.188 C 
ENDROOT
BRANCH   1   2
ATOM      2  C   UNL     1       2.915   0.732  -1.262  1.00  0.00     0.188 C 
BRANCH   2   3
ATOM      3  O   UNL     1       2.320   2.636  -1.849  1.00  0.00    -0.376 OA
BRANCH   3   4
ATOM      4  C   UNL     1       3.367   4.058  -2.658  1.00  0.00     0.202 C 
BRANCH   4   5
ATOM      5  C   UNL     1       4.522   5.565  -1.721  1.00  0.00     0.261 C 
BRANCH   5   6
ATOM      6  O   UNL     1       5.320   4.944   0.004  1.00  0.00    -0.463 OA
BRANCH   6   7
ATOM      7  C   UNL     1       5.174   3.366   0.908  1.00  0.00     0.310 C 
ATOM      8  O   UNL     1       4.719   3.420   2.066  1.00  0.00    -0.252 OA
BRANCH   7   9
ATOM      9  C   UNL     1       5.494   1.439   0.603  1.00  0.00     0.160 C 
BRANCH   9  10
ATOM     10  C   UNL     1       5.132  -0.196  -0.349  1.00  0.00    -0.013 A 
ATOM     11  C   UNL     1       3.773  -1.299  -0.529  1.00  0.00     0.042 A 
ATOM     12  C   UNL     1       4.072  -2.533  -1.187  1.00  0.00     0.026 A 
ATOM     13  C   UNL     1       5.263  -2.605  -1.964  1.00  0.00     0.002 A 
ATOM     14  C   UNL     1       6.288  -0.498  -1.108  1.00  0.00     0.006 A 
ATOM     15  C   UNL     1       6.292  -1.620  -1.958  1.00  0.00     0.000 A 
BRANCH  11  16
ATOM     16  N   UNL     1       2.079  -0.963  -1.228  1.00  0.00    -0.355 N 
ATOM     17  H   UNL     1       1.394  -1.642  -1.032  1.00  0.00     0.167 HD
BRANCH  16  18
ATOM     18  C   UNL     1       1.481   0.562  -2.301  1.00  0.00     0.045 A 
ATOM     19  C   UNL     1       0.664   1.191  -0.855  1.00  0.00    -0.024 A 
ATOM     20  C   UNL     1       1.498   2.060   0.207  1.00  0.00     0.006 A 
ATOM     21  C   UNL     1       3.083   2.340  -0.016  1.00  0.00     0.001 A 
ATOM     22  C   UNL     1       3.138   1.397  -2.964  1.00  0.00    -0.027 A 
ATOM     23  C   UNL     1       4.078   2.043  -1.595  1.00  0.00     0.005 A 
ATOM     24  C   UNL     1       4.378   1.159  -3.988  1.00  0.00     0.046 C 
BRANCH  19  25
ATOM     25  C   UNL     1      -0.520   0.584  -0.092  1.00  0.00     0.034 C 
ATOM     26  C   UNL     1      -0.230  -0.715   0.658  1.00  0.00     0.009 C 
ENDBRANCH  19  25
ENDBRANCH  16  18
ENDBRANCH  11  16
ENDBRANCH   9  10
ENDBRANCH   7   9
ENDBRANCH   6   7
ENDBRANCH   5   6
ENDBRANCH   4   5
ENDBRANCH   3   4
ENDBRANCH   2   3
ENDBRANCH   1   2
BRANCH   1  27
ATOM     27  O   UNL     1       2.238  -0.379  -4.317  1.00  0.00    -0.377 OA
BRANCH  27  28
ATOM     28  C   UNL     1       1.996   0.817  -5.172  1.00  0.00     0.188 C 
BRANCH  28  29
ATOM     29  C   UNL     1       1.213   2.090  -4.739  1.00  0.00     0.188 C 
BRANCH  29  30
ATOM     30  O   UNL     1       0.252   1.946  -3.724  1.00  0.00    -0.376 OA
BRANCH  30  31
ATOM     31  C   UNL     1      -0.810   1.046  -3.934  1.00  0.00     0.202 C 
BRANCH  31  32
ATOM     32  C   UNL     1      -1.700   1.769  -4.905  1.00  0.00     0.261 C 
BRANCH  32  33
ATOM     33  O   UNL     1      -1.986   3.070  -4.250  1.00  0.00    -0.460 OA
BRANCH  33  34
ATOM     34  C   UNL     1      -1.159   4.140  -4.534  1.00  0.00     0.338 C 
ATOM     35  O   UNL     1      -0.928   4.494  -5.686  1.00  0.00    -0.246 OA
BRANCH  34  36
ATOM     36  C   UNL     1      -0.405   4.761  -3.326  1.00  0.00     0.060 A 
ATOM     37  C   UNL     1       0.583   5.754  -3.476  1.00  0.00     0.016 A 
ATOM     38  C   UNL     1      -0.480   4.256  -2.042  1.00  0.00     0.016 A 
ATOM     39  C   UNL     1       1.627   5.997  -2.462  1.00  0.00     0.010 A 
ATOM     40  C   UNL     1       0.586   4.458  -1.089  1.00  0.00     0.010 A 
ATOM     41  C   UNL     1       1.834   5.091  -1.351  1.00  0.00    -0.014 A 
BRANCH  41  42
ATOM     42  C   UNL     1       3.458   4.416  -0.617  1.00  0.00     0.031 A 
ATOM     43  C   UNL     1       3.163   5.243   0.880  1.00  0.00     0.074 A 
ATOM     44  C   UNL     1       5.018   3.758  -1.330  1.00  0.00     0.049 A 
ATOM     45  N   UNL     1       4.022   5.837   1.660  1.00  0.00    -0.248 NA
ATOM     46  C   UNL     1       1.821   5.621   1.387  1.00  0.00     0.031 C 
ATOM     47  C   UNL     1       6.610   3.243  -0.838  1.00  0.00     0.029 A 
ATOM     48  N   UNL     1       5.651   3.807  -2.792  1.00  0.00    -0.354 N 
ATOM     49  C   UNL     1       3.470   5.792   2.919  1.00  0.00     0.074 A 
ATOM     50  C   UNL     1       2.085   5.998   2.642  1.00  0.00     0.031 C 
ATOM     51  C   UNL     1       7.531   3.077  -1.785  1.00  0.00     0.029 A 
ATOM     52  C   UNL     1       7.049   3.767  -2.904  1.00  0.00     0.049 A 
ATOM     53  H   UNL     1       5.079   3.865  -3.591  1.00  0.00     0.167 HD
ATOM     54  C   UNL     1       4.202   5.284   3.965  1.00  0.00     0.037 A 
ATOM     55  C   UNL     1       7.751   4.755  -3.510  1.00  0.00     0.037 A 
ATOM     56  C   UNL     1       5.672   5.078   3.597  1.00  0.00     0.049 A 
ATOM     57  C   UNL     1       8.283   5.584  -2.308  1.00  0.00     0.074 A 
ATOM     58  C   UNL     1       6.586   4.028   3.742  1.00  0.00     0.029 A 
ATOM     59  N   UNL     1       6.257   5.878   2.587  1.00  0.00    -0.354 N 
ATOM     60  N   UNL     1       7.626   5.810  -1.177  1.00  0.00    -0.248 NA
ATOM     61  C   UNL     1       9.727   5.781  -2.137  1.00  0.00     0.031 C 
ATOM     62  C   UNL     1       7.620   4.158   2.739  1.00  0.00     0.029 A 
ATOM     63  C   UNL     1       7.415   5.338   2.028  1.00  0.00     0.049 A 
ATOM     64  H   UNL     1       5.879   6.741   2.302  1.00  0.00     0.167 HD
ATOM     65  C   UNL     1       8.519   6.058  -0.143  1.00  0.00     0.074 A 
ATOM     66  C   UNL     1       9.818   6.022  -0.818  1.00  0.00     0.031 C 
ATOM     67  C   UNL     1       8.305   6.189   1.219  1.00  0.00     0.037 A 
BRANCH  54  68
ATOM     68  C   UNL     1       3.510   4.696   5.226  1.00  0.00     0.057 A 
ATOM     69  C   UNL     1       4.273   4.167   6.285  1.00  0.00     0.134 A 
ATOM     70  C   UNL     1       2.112   4.580   5.463  1.00  0.00     0.134 A 
ATOM     71  F   UNL     1       5.610   4.147   6.247  1.00  0.00    -0.206 F 
ATOM     72  C   UNL     1       3.714   3.630   7.465  1.00  0.00     0.040 A 
ATOM     73  C   UNL     1       1.543   4.105   6.662  1.00  0.00     0.040 A 
ATOM     74  F   UNL     1       1.181   4.866   4.549  1.00  0.00    -0.206 F 
ATOM     75  C   UNL     1       2.346   3.630   7.676  1.00  0.00     0.006 A 
ENDBRANCH  54  68
BRANCH  55  76
ATOM     76  C   UNL     1       7.059   4.953  -4.835  1.00  0.00     0.057 A 
ATOM     77  C   UNL     1       6.993   3.770  -5.647  1.00  0.00     0.134 A 
ATOM     78  C   UNL     1       6.050   5.887  -5.058  1.00  0.00     0.134 A 
ATOM     79  F   UNL     1       7.900   2.790  -5.476  1.00  0.00    -0.206 F 
ATOM     80  C   UNL     1       5.875   3.442  -6.426  1.00  0.00     0.040 A 
ATOM     81  C   UNL     1       4.924   5.565  -5.848  1.00  0.00     0.040 A 
ATOM     82  F   UNL     1       6.039   7.046  -4.391  1.00  0.00    -0.206 F 
ATOM     83  C   UNL     1       4.807   4.324  -6.482  1.00  0.00     0.006 A 
ENDBRANCH  55  76
BRANCH  67  84
ATOM     84  C   UNL     1       9.036   7.263   2.023  1.00  0.00     0.057 A 
ATOM     85  C   UNL     1       9.826   8.260   1.444  1.00  0.00     0.134 A 
ATOM     86  C   UNL     1       8.808   7.439   3.417  1.00  0.00     0.134 A 
ATOM     87  F   UNL     1      10.022   8.343   0.122  1.00  0.00    -0.206 F 
ATOM     88  C   UNL     1      10.427   9.272   2.197  1.00  0.00     0.040 A 
ATOM     89  C   UNL     1       9.320   8.499   4.155  1.00  0.00     0.040 A 
ATOM     90  F   UNL     1       8.058   6.615   4.158  1.00  0.00    -0.206 F 
ATOM     91  C   UNL     1      10.168   9.402   3.553  1.00  0.00     0.006 A 
ENDBRANCH  67  84
ENDBRANCH  41  42
ENDBRANCH  34  36
ENDBRANCH  33  34
ENDBRANCH  32  33
ENDBRANCH  31  32
ENDBRANCH  30  31
ENDBRANCH  29  30
ENDBRANCH  28  29
ENDBRANCH  27  28
ENDBRANCH   1  27
TORSDOF 24
