REMARK SMILES Cc1ccccc1/C=C1\SC(=O)N(CC(=O)Nc2ccccc2C(=O)OCCOCCOCCOCCOC(=O)c2ccc(-c3c4nc(c(-c5c(F)cccc5F)c5ccc([nH]5)c(-c5c(F)cccc5F)c5nc(c(-c6c(F)cccc6F)c6ccc3[nH]6)C=C5)C=C4)cc2)C1=O
REMARK SMILES IDX 31 1 30 2 29 3 28 4 27 5 26 6 24 7 25 8 23 9 18 10 19 11
REMARK SMILES IDX 20 12 22 13 21 14 17 15 15 16 16 17 14 19 13 20 8 21 9 22
REMARK SMILES IDX 10 23 95 24 11 25 96 26 12 27 7 28 1 29 2 30 3 31 4 32 6 33
REMARK SMILES IDX 5 34 32 35 33 36 34 37 35 38 36 39 37 40 38 41 39 42 40 43
REMARK SMILES IDX 41 44 42 45 94 46 43 47 93 48 44 49 45 50 46 51 87 52 47 53
REMARK SMILES IDX 92 54 86 55 88 56 48 57 91 58 85 59 84 60 49 62 75 63 58 64
REMARK SMILES IDX 74 65 59 66 62 67 73 68 89 69 60 70 61 71 72 73 90 74 63 75
REMARK SMILES IDX 50 76 51 77 56 78 52 79 53 80 55 81 57 82 54 83 76 84 77 85
REMARK SMILES IDX 82 86 78 87 79 88 81 89 83 90 80 91 64 92 65 93 70 94 66 95
REMARK SMILES IDX 67 96 69 97 71 98 68 99
REMARK H PARENT 17 18 88 61 62 72
REMARK Flexibility Score: inf
ROOT
ATOM      1  C   UNL     1       6.097   4.226  -2.163  1.00  0.00     0.188 C 
ENDROOT
BRANCH   1   2
ATOM      2  C   UNL     1       5.961   4.239  -0.480  1.00  0.00     0.188 C 
BRANCH   2   3
ATOM      3  O   UNL     1       4.848   3.666   0.808  1.00  0.00    -0.376 OA
BRANCH   3   4
ATOM      4  C   UNL     1       3.442   2.513   0.824  1.00  0.00     0.202 C 
BRANCH   4   5
ATOM      5  C   UNL     1       2.166   2.054  -0.590  1.00  0.00     0.261 C 
BRANCH   5   6
ATOM      6  O   UNL     1       1.000   2.479  -1.998  1.00  0.00    -0.460 OA
BRANCH   6   7
ATOM      7  C   UNL     1       0.269   3.135  -3.352  1.00  0.00     0.340 C 
ATOM      8  O   UNL     1      -0.904   2.857  -3.665  1.00  0.00    -0.246 OA
BRANCH   7   9
ATOM      9  C   UNL     1       0.727   4.119  -4.663  1.00  0.00     0.083 A 
ATOM     10  C   UNL     1       0.969   5.554  -4.919  1.00  0.00     0.055 A 
ATOM     11  C   UNL     1       1.532   5.966  -6.158  1.00  0.00     0.027 A 
ATOM     12  C   UNL     1       1.744   5.079  -7.199  1.00  0.00     0.002 A 
ATOM     13  C   UNL     1       0.791   3.327  -5.832  1.00  0.00     0.018 A 
ATOM     14  C   UNL     1       1.317   3.774  -7.054  1.00  0.00     0.001 A 
BRANCH  10  15
ATOM     15  N   UNL     1       0.612   6.714  -4.102  1.00  0.00    -0.324 N 
ATOM     16  C   UNL     1       1.412   7.899  -4.005  1.00  0.00     0.244 C 
ATOM     17  O   UNL     1       1.160   8.907  -4.667  1.00  0.00    -0.273 OA
ATOM     18  H   UNL     1      -0.228   6.679  -3.589  1.00  0.00     0.170 HD
BRANCH  16  19
ATOM     19  C   UNL     1       2.582   7.914  -2.987  1.00  0.00     0.230 C 
BRANCH  19  20
ATOM     20  N   UNL     1       2.446   6.665  -2.330  1.00  0.00    -0.259 N 
ATOM     21  C   UNL     1       0.161   3.660  -0.238  1.00  0.00     0.029 C 
ATOM     22  C   UNL     1       0.873   4.697  -1.295  1.00  0.00     0.083 C 
ATOM     23  S   UNL     1       2.295   4.342  -2.482  1.00  0.00    -0.022 SA
ATOM     24  C   UNL     1       1.315   6.402  -1.524  1.00  0.00     0.268 C 
ATOM     25  C   UNL     1       3.067   5.698  -2.985  1.00  0.00     0.294 C 
ATOM     26  O   UNL     1       0.775   7.438  -1.143  1.00  0.00    -0.268 OA
ATOM     27  O   UNL     1       3.860   5.744  -3.903  1.00  0.00    -0.261 OA
BRANCH  21  28
ATOM     28  C   UNL     1      -0.379   2.079   0.626  1.00  0.00    -0.021 A 
ATOM     29  C   UNL     1       1.485   0.457   1.715  1.00  0.00     0.045 C 
ATOM     30  C   UNL     1       0.223   0.750   0.879  1.00  0.00    -0.044 A 
ATOM     31  C   UNL     1      -0.508  -0.490   0.893  1.00  0.00     0.004 A 
ATOM     32  C   UNL     1      -1.851  -0.495   1.094  1.00  0.00     0.000 A 
ATOM     33  C   UNL     1      -1.655   1.965   1.217  1.00  0.00     0.008 A 
ATOM     34  C   UNL     1      -2.375   0.730   1.419  1.00  0.00     0.001 A 
ENDBRANCH  21  28
ENDBRANCH  19  20
ENDBRANCH  16  19
ENDBRANCH  10  15
ENDBRANCH   7   9
ENDBRANCH   6   7
ENDBRANCH   5   6
ENDBRANCH   4   5
ENDBRANCH   3   4
ENDBRANCH   2   3
ENDBRANCH   1   2
BRANCH   1  35
ATOM     35  O   UNL     1       5.900   3.265  -3.209  1.00  0.00    -0.377 OA
BRANCH  35  36
ATOM     36  C   UNL     1       6.522   1.996  -3.387  1.00  0.00     0.188 C 
BRANCH  36  37
ATOM     37  C   UNL     1       7.973   1.893  -3.051  1.00  0.00     0.188 C 
BRANCH  37  38
ATOM     38  O   UNL     1       8.148   2.668  -1.885  1.00  0.00    -0.376 OA
BRANCH  38  39
ATOM     39  C   UNL     1       9.329   3.436  -1.876  1.00  0.00     0.202 C 
BRANCH  39  40
ATOM     40  C   UNL     1      10.480   2.503  -1.539  1.00  0.00     0.261 C 
BRANCH  40  41
ATOM     41  O   UNL     1      10.169   1.819  -0.293  1.00  0.00    -0.460 OA
BRANCH  41  42
ATOM     42  C   UNL     1       9.572   0.586  -0.416  1.00  0.00     0.338 C 
ATOM     43  O   UNL     1       9.964  -0.309  -1.147  1.00  0.00    -0.246 OA
BRANCH  42  44
ATOM     44  C   UNL     1       8.199   0.603   0.185  1.00  0.00     0.060 A 
ATOM     45  C   UNL     1       7.153  -0.163  -0.347  1.00  0.00     0.016 A 
ATOM     46  C   UNL     1       7.834   1.654   0.961  1.00  0.00     0.016 A 
ATOM     47  C   UNL     1       5.849   0.399  -0.560  1.00  0.00     0.010 A 
ATOM     48  C   UNL     1       6.535   2.127   0.780  1.00  0.00     0.010 A 
ATOM     49  C   UNL     1       5.566   1.739  -0.275  1.00  0.00    -0.014 A 
BRANCH  49  50
ATOM     50  C   UNL     1       4.254   2.782  -1.140  1.00  0.00     0.031 A 
ATOM     51  C   UNL     1       3.390   4.421  -0.266  1.00  0.00     0.074 A 
ATOM     52  C   UNL     1       3.853   1.889  -2.262  1.00  0.00     0.049 A 
ATOM     53  N   UNL     1       2.179   4.507   0.469  1.00  0.00    -0.248 NA
ATOM     54  C   UNL     1       3.896   5.815   0.385  1.00  0.00     0.031 C 
ATOM     55  C   UNL     1       3.367   2.115  -3.667  1.00  0.00     0.029 A 
ATOM     56  N   UNL     1       3.298   0.511  -2.149  1.00  0.00    -0.354 N 
ATOM     57  C   UNL     1       1.646   5.793   1.013  1.00  0.00     0.074 A 
ATOM     58  C   UNL     1       2.931   6.428   1.120  1.00  0.00     0.031 C 
ATOM     59  C   UNL     1       2.357   1.279  -4.003  1.00  0.00     0.029 A 
ATOM     60  C   UNL     1       2.033   0.442  -2.879  1.00  0.00     0.049 A 
ATOM     61  H   UNL     1       3.717  -0.234  -1.660  1.00  0.00     0.167 HD
ATOM     62  C   UNL     1       0.266   6.402   1.100  1.00  0.00     0.037 A 
ATOM     63  C   UNL     1       0.864  -0.284  -2.670  1.00  0.00     0.037 A 
ATOM     64  C   UNL     1      -1.030   5.929   0.144  1.00  0.00     0.049 A 
ATOM     65  C   UNL     1      -0.710   0.318  -2.378  1.00  0.00     0.074 A 
ATOM     66  C   UNL     1      -1.564   6.383  -1.091  1.00  0.00     0.029 A 
ATOM     67  N   UNL     1      -1.970   4.882   0.355  1.00  0.00    -0.354 N 
ATOM     68  N   UNL     1      -1.061   1.471  -1.815  1.00  0.00    -0.248 NA
ATOM     69  C   UNL     1      -1.966  -0.402  -2.651  1.00  0.00     0.031 C 
ATOM     70  C   UNL     1      -2.240   5.315  -1.775  1.00  0.00     0.029 A 
ATOM     71  C   UNL     1      -2.359   4.237  -0.910  1.00  0.00     0.049 A 
ATOM     72  H   UNL     1      -2.319   4.622   1.238  1.00  0.00     0.167 HD
ATOM     73  C   UNL     1      -2.446   1.730  -1.697  1.00  0.00     0.074 A 
ATOM     74  C   UNL     1      -2.942   0.459  -2.246  1.00  0.00     0.031 C 
ATOM     75  C   UNL     1      -3.071   2.870  -1.084  1.00  0.00     0.037 A 
BRANCH  62  76
ATOM     76  C   UNL     1       0.077   7.910   1.567  1.00  0.00     0.057 A 
ATOM     77  C   UNL     1      -1.032   8.686   1.129  1.00  0.00     0.134 A 
ATOM     78  C   UNL     1       0.964   8.649   2.359  1.00  0.00     0.134 A 
ATOM     79  F   UNL     1      -2.153   8.131   0.651  1.00  0.00    -0.206 F 
ATOM     80  C   UNL     1      -1.104  10.083   1.221  1.00  0.00     0.040 A 
ATOM     81  C   UNL     1       0.902  10.057   2.477  1.00  0.00     0.040 A 
ATOM     82  F   UNL     1       1.881   8.044   3.124  1.00  0.00    -0.206 F 
ATOM     83  C   UNL     1      -0.106  10.786   1.861  1.00  0.00     0.006 A 
ENDBRANCH  62  76
BRANCH  63  84
ATOM     84  C   UNL     1       1.324  -1.738  -2.735  1.00  0.00     0.057 A 
ATOM     85  C   UNL     1       1.936  -2.079  -3.970  1.00  0.00     0.134 A 
ATOM     86  C   UNL     1       1.968  -2.255  -1.601  1.00  0.00     0.134 A 
ATOM     87  F   UNL     1       1.383  -1.672  -5.124  1.00  0.00    -0.206 F 
ATOM     88  C   UNL     1       3.262  -2.550  -4.032  1.00  0.00     0.040 A 
ATOM     89  C   UNL     1       3.284  -2.745  -1.649  1.00  0.00     0.040 A 
ATOM     90  F   UNL     1       1.422  -2.128  -0.392  1.00  0.00    -0.206 F 
ATOM     91  C   UNL     1       3.962  -2.820  -2.861  1.00  0.00     0.006 A 
ENDBRANCH  63  84
BRANCH  75  92
ATOM     92  C   UNL     1      -4.453   2.836  -0.320  1.00  0.00     0.057 A 
ATOM     93  C   UNL     1      -5.153   1.676   0.039  1.00  0.00     0.134 A 
ATOM     94  C   UNL     1      -4.881   3.985   0.411  1.00  0.00     0.134 A 
ATOM     95  F   UNL     1      -4.952   0.501  -0.560  1.00  0.00    -0.206 F 
ATOM     96  C   UNL     1      -6.037   1.625   1.139  1.00  0.00     0.040 A 
ATOM     97  C   UNL     1      -5.694   3.931   1.553  1.00  0.00     0.040 A 
ATOM     98  F   UNL     1      -4.488   5.227   0.094  1.00  0.00    -0.206 F 
ATOM     99  C   UNL     1      -6.255   2.734   1.942  1.00  0.00     0.006 A 
ENDBRANCH  75  92
ENDBRANCH  49  50
ENDBRANCH  42  44
ENDBRANCH  41  42
ENDBRANCH  40  41
ENDBRANCH  39  40
ENDBRANCH  38  39
ENDBRANCH  37  38
ENDBRANCH  36  37
ENDBRANCH  35  36
ENDBRANCH   1  35
TORSDOF 24
