REMARK SMILES O=C(OCCOCCOCCOCCOC(=O)c1cc([C@@H]2C=NN=C2c2ccc(F)cc2)c2c(ccc3ccccc32)n1)c1ccc(-c2c3nc(c(-c4c(F)cccc4F)c4ccc([nH]4)c(-c4c(F)cccc4F)c4nc(c(-c5c(F)cccc5F)c5ccc2[nH]5)C=C4)C=C3)cc1
REMARK SMILES IDX 9 1 8 2 7 3 6 4 5 5 4 6 3 7 2 8 1 9 44 10 45 11 97 12 46 13
REMARK SMILES IDX 96 14 47 15 48 16 49 17 90 18 50 19 95 20 89 21 91 22 51 23
REMARK SMILES IDX 94 24 88 25 87 26 52 28 78 29 61 30 77 31 62 32 65 33 76 34
REMARK SMILES IDX 92 35 63 36 64 37 75 39 93 40 66 41 53 42 54 43 59 44 55 45
REMARK SMILES IDX 56 46 58 47 60 48 57 49 79 50 80 51 85 52 81 53 82 54 84 55
REMARK SMILES IDX 86 56 83 57 67 58 68 59 73 60 69 61 70 62 72 63 74 64 71 65
REMARK SMILES IDX 10 66 11 67 12 68 13 69 14 70 15 71 16 72 17 73 18 74 19 75
REMARK SMILES IDX 43 76 20 77 34 78 33 79 35 80 42 81 36 82 37 83 41 84 38 85
REMARK SMILES IDX 40 86 39 87 21 88 22 89 25 90 23 91 24 92 26 93 27 94 32 95
REMARK SMILES IDX 28 96 31 97 29 98 30 99
REMARK H PARENT 91 27 65 38
REMARK Flexibility Score: inf
ROOT
ATOM      1  O   UNL     1       2.830  -1.654   2.835  1.00  0.00    -0.377 OA
ENDROOT
BRANCH   1   2
ATOM      2  C   UNL     1       2.274  -1.190   1.620  1.00  0.00     0.188 C 
BRANCH   2   3
ATOM      3  C   UNL     1       2.995  -1.590   0.319  1.00  0.00     0.188 C 
BRANCH   3   4
ATOM      4  O   UNL     1       4.332  -1.273  -0.044  1.00  0.00    -0.376 OA
BRANCH   4   5
ATOM      5  C   UNL     1       5.109  -0.115   0.181  1.00  0.00     0.202 C 
BRANCH   5   6
ATOM      6  C   UNL     1       4.585   1.319   0.131  1.00  0.00     0.261 C 
BRANCH   6   7
ATOM      7  O   UNL     1       3.205   1.473   0.414  1.00  0.00    -0.460 OA
BRANCH   7   8
ATOM      8  C   UNL     1       2.172   1.361  -0.442  1.00  0.00     0.338 C 
ATOM      9  O   UNL     1       1.047   1.625  -0.020  1.00  0.00    -0.246 OA
BRANCH   8  10
ATOM     10  C   UNL     1       2.290   0.859  -1.842  1.00  0.00     0.060 A 
ATOM     11  C   UNL     1       3.464   0.675  -2.578  1.00  0.00     0.016 A 
ATOM     12  C   UNL     1       1.060   0.556  -2.456  1.00  0.00     0.016 A 
ATOM     13  C   UNL     1       3.409   0.413  -3.930  1.00  0.00     0.010 A 
ATOM     14  C   UNL     1       0.995   0.257  -3.802  1.00  0.00     0.010 A 
ATOM     15  C   UNL     1       2.167   0.291  -4.541  1.00  0.00    -0.014 A 
BRANCH  15  16
ATOM     16  C   UNL     1       2.155   0.236  -5.986  1.00  0.00     0.031 A 
ATOM     17  C   UNL     1       2.795  -0.968  -6.573  1.00  0.00     0.074 A 
ATOM     18  C   UNL     1       1.577   1.226  -6.691  1.00  0.00     0.049 A 
ATOM     19  N   UNL     1       3.815  -1.026  -7.365  1.00  0.00    -0.248 NA
ATOM     20  C   UNL     1       2.312  -2.281  -6.113  1.00  0.00     0.031 C 
ATOM     21  C   UNL     1       0.739   2.326  -6.201  1.00  0.00     0.029 A 
ATOM     22  N   UNL     1       1.552   1.404  -8.034  1.00  0.00    -0.354 N 
ATOM     23  C   UNL     1       3.989  -2.376  -7.655  1.00  0.00     0.074 A 
ATOM     24  C   UNL     1       3.132  -3.109  -6.759  1.00  0.00     0.031 C 
ATOM     25  C   UNL     1       0.099   2.898  -7.245  1.00  0.00     0.029 A 
ATOM     26  C   UNL     1       0.593   2.305  -8.473  1.00  0.00     0.049 A 
ATOM     27  H   UNL     1       2.163   0.934  -8.647  1.00  0.00     0.167 HD
ATOM     28  C   UNL     1       4.669  -2.792  -8.757  1.00  0.00     0.037 A 
ATOM     29  C   UNL     1       0.191   2.464  -9.757  1.00  0.00     0.037 A 
ATOM     30  C   UNL     1       5.559  -1.779  -9.252  1.00  0.00     0.049 A 
ATOM     31  C   UNL     1       1.258   1.899 -10.623  1.00  0.00     0.074 A 
ATOM     32  C   UNL     1       6.669  -1.143  -8.733  1.00  0.00     0.029 A 
ATOM     33  N   UNL     1       5.142  -1.003 -10.304  1.00  0.00    -0.354 N 
ATOM     34  N   UNL     1       2.449   2.419 -10.739  1.00  0.00    -0.248 NA
ATOM     35  C   UNL     1       1.150   0.494 -10.990  1.00  0.00     0.031 C 
ATOM     36  C   UNL     1       6.556   0.208  -9.169  1.00  0.00     0.029 A 
ATOM     37  C   UNL     1       5.425   0.301  -9.981  1.00  0.00     0.049 A 
ATOM     38  H   UNL     1       4.719  -1.321 -11.135  1.00  0.00     0.167 HD
ATOM     39  C   UNL     1       3.309   1.331 -10.790  1.00  0.00     0.074 A 
ATOM     40  C   UNL     1       2.446   0.172 -11.010  1.00  0.00     0.031 C 
ATOM     41  C   UNL     1       4.603   1.427 -10.365  1.00  0.00     0.037 A 
BRANCH  28  42
ATOM     42  C   UNL     1       4.275  -4.007  -9.548  1.00  0.00     0.057 A 
ATOM     43  C   UNL     1       2.958  -4.512  -9.578  1.00  0.00     0.134 A 
ATOM     44  C   UNL     1       5.146  -4.544 -10.508  1.00  0.00     0.134 A 
ATOM     45  F   UNL     1       1.984  -4.004  -8.812  1.00  0.00    -0.206 F 
ATOM     46  C   UNL     1       2.544  -5.502 -10.471  1.00  0.00     0.040 A 
ATOM     47  C   UNL     1       4.728  -5.501 -11.443  1.00  0.00     0.040 A 
ATOM     48  F   UNL     1       6.411  -4.108 -10.610  1.00  0.00    -0.206 F 
ATOM     49  C   UNL     1       3.424  -5.985 -11.424  1.00  0.00     0.006 A 
ENDBRANCH  28  42
BRANCH  29  50
ATOM     50  C   UNL     1      -1.194   2.675 -10.241  1.00  0.00     0.057 A 
ATOM     51  C   UNL     1      -2.313   2.240  -9.506  1.00  0.00     0.134 A 
ATOM     52  C   UNL     1      -1.438   3.046 -11.570  1.00  0.00     0.134 A 
ATOM     53  F   UNL     1      -2.191   1.794  -8.248  1.00  0.00    -0.206 F 
ATOM     54  C   UNL     1      -3.591   2.155 -10.067  1.00  0.00     0.040 A 
ATOM     55  C   UNL     1      -2.713   2.958 -12.146  1.00  0.00     0.040 A 
ATOM     56  F   UNL     1      -0.429   3.439 -12.361  1.00  0.00    -0.206 F 
ATOM     57  C   UNL     1      -3.792   2.498 -11.397  1.00  0.00     0.006 A 
ENDBRANCH  29  50
BRANCH  41  58
ATOM     58  C   UNL     1       5.139   2.795 -10.030  1.00  0.00     0.057 A 
ATOM     59  C   UNL     1       6.294   3.244 -10.678  1.00  0.00     0.134 A 
ATOM     60  C   UNL     1       4.661   3.586  -8.973  1.00  0.00     0.134 A 
ATOM     61  F   UNL     1       6.845   2.513 -11.660  1.00  0.00    -0.206 F 
ATOM     62  C   UNL     1       6.948   4.418 -10.294  1.00  0.00     0.040 A 
ATOM     63  C   UNL     1       5.286   4.781  -8.601  1.00  0.00     0.040 A 
ATOM     64  F   UNL     1       3.621   3.193  -8.228  1.00  0.00    -0.206 F 
ATOM     65  C   UNL     1       6.441   5.195  -9.256  1.00  0.00     0.006 A 
ENDBRANCH  41  58
ENDBRANCH  15  16
ENDBRANCH   8  10
ENDBRANCH   7   8
ENDBRANCH   6   7
ENDBRANCH   5   6
ENDBRANCH   4   5
ENDBRANCH   3   4
ENDBRANCH   2   3
ENDBRANCH   1   2
BRANCH   1  66
ATOM     66  C   UNL     1       4.153  -1.218   3.044  1.00  0.00     0.188 C 
BRANCH  66  67
ATOM     67  C   UNL     1       5.220  -2.307   2.786  1.00  0.00     0.188 C 
BRANCH  67  68
ATOM     68  O   UNL     1       4.859  -3.584   2.279  1.00  0.00    -0.376 OA
BRANCH  68  69
ATOM     69  C   UNL     1       3.688  -4.252   2.721  1.00  0.00     0.202 C 
BRANCH  69  70
ATOM     70  C   UNL     1       3.363  -4.405   4.216  1.00  0.00     0.261 C 
BRANCH  70  71
ATOM     71  O   UNL     1       3.629  -3.263   5.033  1.00  0.00    -0.459 OA
BRANCH  71  72
ATOM     72  C   UNL     1       4.826  -3.263   5.673  1.00  0.00     0.357 C 
ATOM     73  O   UNL     1       5.637  -4.162   5.734  1.00  0.00    -0.244 OA
BRANCH  72  74
ATOM     74  C   UNL     1       5.016  -1.905   6.242  1.00  0.00     0.149 A 
ATOM     75  C   UNL     1       4.253  -1.532   7.306  1.00  0.00     0.041 A 
ATOM     76  N   UNL     1       5.963  -1.110   5.708  1.00  0.00    -0.241 NA
ATOM     77  C   UNL     1       4.590  -0.348   8.000  1.00  0.00    -0.021 A 
ATOM     78  C   UNL     1       6.181   0.095   6.248  1.00  0.00     0.072 A 
ATOM     79  C   UNL     1       5.604   0.560   7.464  1.00  0.00     0.012 A 
ATOM     80  C   UNL     1       7.090   0.857   5.541  1.00  0.00     0.029 A 
ATOM     81  C   UNL     1       6.184   1.812   8.003  1.00  0.00    -0.009 A 
ATOM     82  C   UNL     1       7.548   2.078   6.005  1.00  0.00     0.011 A 
ATOM     83  C   UNL     1       7.144   2.544   7.245  1.00  0.00    -0.018 A 
ATOM     84  C   UNL     1       5.917   2.379   9.269  1.00  0.00     0.009 A 
ATOM     85  C   UNL     1       7.741   3.725   7.727  1.00  0.00     0.009 A 
ATOM     86  C   UNL     1       6.528   3.538   9.764  1.00  0.00     0.001 A 
ATOM     87  C   UNL     1       7.443   4.217   8.989  1.00  0.00     0.001 A 
BRANCH  77  88
ATOM     88  C   UNL     1       3.962  -0.371   9.369  1.00  0.00     0.115 C 
ATOM     89  C   UNL     1       3.153   0.765   9.853  1.00  0.00     0.123 C 
ATOM     90  C   UNL     1       4.848  -0.568  10.561  1.00  0.00     0.083 C 
ATOM     91  N   UNL     1       3.373   1.021  11.104  1.00  0.00    -0.162 NA
ATOM     92  N   UNL     1       4.450   0.170  11.559  1.00  0.00    -0.154 NA
BRANCH  90  93
ATOM     93  C   UNL     1       5.937  -1.579  10.648  1.00  0.00    -0.001 A 
ATOM     94  C   UNL     1       6.109  -2.254  11.860  1.00  0.00     0.013 A 
ATOM     95  C   UNL     1       6.795  -1.892   9.582  1.00  0.00     0.013 A 
ATOM     96  C   UNL     1       7.087  -3.248  11.981  1.00  0.00     0.040 A 
ATOM     97  C   UNL     1       7.761  -2.894   9.695  1.00  0.00     0.040 A 
ATOM     98  C   UNL     1       7.896  -3.567  10.896  1.00  0.00     0.123 A 
ATOM     99  F   UNL     1       8.823  -4.525  11.013  1.00  0.00    -0.207 F 
ENDBRANCH  90  93
ENDBRANCH  77  88
ENDBRANCH  72  74
ENDBRANCH  71  72
ENDBRANCH  70  71
ENDBRANCH  69  70
ENDBRANCH  68  69
ENDBRANCH  67  68
ENDBRANCH  66  67
ENDBRANCH   1  66
TORSDOF 22
