REMARK SMILES Cc1ccc2c(c1C)O[C@@H](C(=O)OCCOCCOCCOCCOC(=O)c1ccc(-c3c4nc(c(-c5c(F)cccc5F)c5ccc([nH]5)c(-c5c(F)cccc5F)c5nc(c(-c6c(F)cccc6F)c6ccc3[nH]6)C=C5)C=C4)cc1)CC2=O
REMARK SMILES IDX 20 1 19 2 18 3 17 4 16 5 15 6 14 7 13 8 11 9 12 10 10 11
REMARK SMILES IDX 1 12 2 13 3 14 7 15 4 16 6 17 8 18 5 19 9 20 83 21 82 22
REMARK SMILES IDX 84 23 21 24 22 25 23 26 24 27 25 28 26 29 27 30 28 31 29 32
REMARK SMILES IDX 81 33 30 34 80 35 31 36 32 37 33 38 74 39 34 40 79 41 73 42
REMARK SMILES IDX 75 43 35 44 78 45 72 46 71 47 36 49 62 50 45 51 61 52 46 53
REMARK SMILES IDX 49 54 60 55 76 56 47 57 48 58 59 60 77 61 50 62 37 63 38 64
REMARK SMILES IDX 43 65 39 66 40 67 42 68 44 69 41 70 63 71 64 72 69 73 65 74
REMARK SMILES IDX 66 75 68 76 70 77 67 78 51 79 52 80 57 81 53 82 54 83 56 84
REMARK SMILES IDX 58 85 55 86
REMARK H PARENT 75 48 49 59
REMARK Flexibility Score: inf
ROOT
ATOM      1  C   UNL     1      -4.404   1.354   6.485  1.00  0.00     0.188 C 
ENDROOT
BRANCH   1   2
ATOM      2  O   UNL     1      -3.373   2.094   5.850  1.00  0.00    -0.377 OA
BRANCH   2   3
ATOM      3  C   UNL     1      -3.010   3.325   6.435  1.00  0.00     0.188 C 
BRANCH   3   4
ATOM      4  C   UNL     1      -3.651   4.565   5.802  1.00  0.00     0.188 C 
BRANCH   4   5
ATOM      5  O   UNL     1      -4.706   4.438   4.863  1.00  0.00    -0.376 OA
BRANCH   5   6
ATOM      6  C   UNL     1      -4.685   3.429   3.864  1.00  0.00     0.202 C 
BRANCH   6   7
ATOM      7  C   UNL     1      -3.434   3.143   3.009  1.00  0.00     0.261 C 
BRANCH   7   8
ATOM      8  O   UNL     1      -2.191   2.887   3.698  1.00  0.00    -0.460 OA
BRANCH   8   9
ATOM      9  C   UNL     1      -1.271   3.884   3.683  1.00  0.00     0.347 C 
ATOM     10  O   UNL     1      -1.470   4.982   3.169  1.00  0.00    -0.248 OA
BRANCH   9  11
ATOM     11  C   UNL     1       0.107   3.501   4.267  1.00  0.00     0.290 C 
ATOM     12  C   UNL     1       0.952  -0.350  -0.323  1.00  0.00     0.045 C 
ATOM     13  C   UNL     1       0.656   0.087   1.083  1.00  0.00    -0.044 A 
ATOM     14  C   UNL     1       0.166  -0.861   2.003  1.00  0.00     0.005 A 
ATOM     15  C   UNL     1       0.895   1.410   1.503  1.00  0.00    -0.005 A 
ATOM     16  C   UNL     1      -0.086  -0.514   3.329  1.00  0.00     0.016 A 
ATOM     17  C   UNL     1       0.649   1.743   2.840  1.00  0.00     0.134 A 
ATOM     18  C   UNL     1       1.343   2.508   0.574  1.00  0.00     0.049 C 
ATOM     19  C   UNL     1       0.167   0.789   3.743  1.00  0.00     0.060 A 
ATOM     20  O   UNL     1       0.933   3.038   3.200  1.00  0.00    -0.477 OA
ATOM     21  C   UNL     1      -0.035   1.184   5.148  1.00  0.00     0.170 C 
ATOM     22  C   UNL     1       0.319   2.602   5.476  1.00  0.00     0.138 C 
ATOM     23  O   UNL     1      -0.363   0.370   6.005  1.00  0.00    -0.294 OA
ENDBRANCH   9  11
ENDBRANCH   8   9
ENDBRANCH   7   8
ENDBRANCH   6   7
ENDBRANCH   5   6
ENDBRANCH   4   5
ENDBRANCH   3   4
ENDBRANCH   2   3
ENDBRANCH   1   2
BRANCH   1  24
ATOM     24  C   UNL     1      -5.525   2.146   7.183  1.00  0.00     0.188 C 
BRANCH  24  25
ATOM     25  O   UNL     1      -5.050   3.103   8.120  1.00  0.00    -0.376 OA
BRANCH  25  26
ATOM     26  C   UNL     1      -4.966   2.729   9.488  1.00  0.00     0.202 C 
BRANCH  26  27
ATOM     27  C   UNL     1      -3.999   1.600   9.884  1.00  0.00     0.261 C 
BRANCH  27  28
ATOM     28  O   UNL     1      -4.197   0.316   9.268  1.00  0.00    -0.460 OA
BRANCH  28  29
ATOM     29  C   UNL     1      -5.393  -0.290   9.383  1.00  0.00     0.338 C 
ATOM     30  O   UNL     1      -6.355   0.087  10.033  1.00  0.00    -0.246 OA
BRANCH  29  31
ATOM     31  C   UNL     1      -5.416  -1.409   8.416  1.00  0.00     0.060 A 
ATOM     32  C   UNL     1      -6.298  -1.355   7.327  1.00  0.00     0.016 A 
ATOM     33  C   UNL     1      -4.579  -2.512   8.590  1.00  0.00     0.016 A 
ATOM     34  C   UNL     1      -6.368  -2.416   6.424  1.00  0.00     0.010 A 
ATOM     35  C   UNL     1      -4.685  -3.598   7.715  1.00  0.00     0.010 A 
ATOM     36  C   UNL     1      -5.610  -3.570   6.655  1.00  0.00    -0.014 A 
BRANCH  36  37
ATOM     37  C   UNL     1      -6.015  -4.839   6.006  1.00  0.00     0.031 A 
ATOM     38  C   UNL     1      -7.052  -5.671   6.714  1.00  0.00     0.074 A 
ATOM     39  C   UNL     1      -5.508  -5.245   4.830  1.00  0.00     0.049 A 
ATOM     40  N   UNL     1      -7.521  -6.854   6.417  1.00  0.00    -0.248 NA
ATOM     41  C   UNL     1      -7.641  -5.077   7.927  1.00  0.00     0.031 C 
ATOM     42  C   UNL     1      -4.561  -4.498   4.008  1.00  0.00     0.029 A 
ATOM     43  N   UNL     1      -5.721  -6.408   4.133  1.00  0.00    -0.354 N 
ATOM     44  C   UNL     1      -8.456  -7.144   7.403  1.00  0.00     0.074 A 
ATOM     45  C   UNL     1      -8.470  -6.028   8.322  1.00  0.00     0.031 C 
ATOM     46  C   UNL     1      -4.255  -5.234   2.923  1.00  0.00     0.029 A 
ATOM     47  C   UNL     1      -4.953  -6.518   2.999  1.00  0.00     0.049 A 
ATOM     48  H   UNL     1      -6.363  -7.098   4.418  1.00  0.00     0.167 HD
ATOM     49  C   UNL     1      -9.237  -8.241   7.536  1.00  0.00     0.037 A 
ATOM     50  C   UNL     1      -4.812  -7.553   2.148  1.00  0.00     0.037 A 
ATOM     51  C   UNL     1      -9.192  -9.369   6.647  1.00  0.00     0.049 A 
ATOM     52  C   UNL     1      -5.589  -8.825   2.394  1.00  0.00     0.074 A 
ATOM     53  C   UNL     1      -9.919 -10.544   6.706  1.00  0.00     0.029 A 
ATOM     54  N   UNL     1      -8.357  -9.467   5.545  1.00  0.00    -0.354 N 
ATOM     55  N   UNL     1      -6.471  -9.094   3.327  1.00  0.00    -0.248 NA
ATOM     56  C   UNL     1      -5.343  -9.940   1.467  1.00  0.00     0.031 C 
ATOM     57  C   UNL     1      -9.479 -11.378   5.673  1.00  0.00     0.029 A 
ATOM     58  C   UNL     1      -8.530 -10.694   4.930  1.00  0.00     0.049 A 
ATOM     59  H   UNL     1      -7.732  -8.767   5.245  1.00  0.00     0.167 HD
ATOM     60  C   UNL     1      -6.916 -10.388   3.073  1.00  0.00     0.074 A 
ATOM     61  C   UNL     1      -6.210 -10.847   1.896  1.00  0.00     0.031 C 
ATOM     62  C   UNL     1      -7.830 -11.129   3.747  1.00  0.00     0.037 A 
BRANCH  49  63
ATOM     63  C   UNL     1     -10.158  -8.283   8.720  1.00  0.00     0.057 A 
ATOM     64  C   UNL     1      -9.918  -9.169   9.777  1.00  0.00     0.134 A 
ATOM     65  C   UNL     1     -11.272  -7.438   8.824  1.00  0.00     0.134 A 
ATOM     66  F   UNL     1      -8.869 -10.004   9.743  1.00  0.00    -0.206 F 
ATOM     67  C   UNL     1     -10.751  -9.212  10.896  1.00  0.00     0.040 A 
ATOM     68  C   UNL     1     -12.094  -7.450   9.953  1.00  0.00     0.040 A 
ATOM     69  F   UNL     1     -11.545  -6.550   7.856  1.00  0.00    -0.206 F 
ATOM     70  C   UNL     1     -11.836  -8.343  10.991  1.00  0.00     0.006 A 
ENDBRANCH  49  63
BRANCH  50  71
ATOM     71  C   UNL     1      -3.876  -7.465   0.996  1.00  0.00     0.057 A 
ATOM     72  C   UNL     1      -2.489  -7.412   1.183  1.00  0.00     0.134 A 
ATOM     73  C   UNL     1      -4.345  -7.502  -0.323  1.00  0.00     0.134 A 
ATOM     74  F   UNL     1      -1.972  -7.378   2.420  1.00  0.00    -0.206 F 
ATOM     75  C   UNL     1      -1.604  -7.400   0.103  1.00  0.00     0.040 A 
ATOM     76  C   UNL     1      -3.470  -7.520  -1.412  1.00  0.00     0.040 A 
ATOM     77  F   UNL     1      -5.661  -7.581  -0.569  1.00  0.00    -0.206 F 
ATOM     78  C   UNL     1      -2.095  -7.467  -1.199  1.00  0.00     0.006 A 
ENDBRANCH  50  71
BRANCH  62  79
ATOM     79  C   UNL     1      -8.172 -12.484   3.194  1.00  0.00     0.057 A 
ATOM     80  C   UNL     1      -9.439 -12.722   2.644  1.00  0.00     0.134 A 
ATOM     81  C   UNL     1      -7.277 -13.560   3.240  1.00  0.00     0.134 A 
ATOM     82  F   UNL     1     -10.351 -11.739   2.579  1.00  0.00    -0.206 F 
ATOM     83  C   UNL     1      -9.805 -13.981   2.165  1.00  0.00     0.040 A 
ATOM     84  C   UNL     1      -7.620 -14.816   2.734  1.00  0.00     0.040 A 
ATOM     85  F   UNL     1      -6.045 -13.399   3.745  1.00  0.00    -0.206 F 
ATOM     86  C   UNL     1      -8.890 -15.030   2.201  1.00  0.00     0.006 A 
ENDBRANCH  62  79
ENDBRANCH  36  37
ENDBRANCH  29  31
ENDBRANCH  28  29
ENDBRANCH  27  28
ENDBRANCH  26  27
ENDBRANCH  25  26
ENDBRANCH  24  25
ENDBRANCH   1  24
TORSDOF 20
