REMARK SMILES O=C1C[C@@H](C(=O)OCCOCCOCCOCCOC(=O)c2ccc(-c3c4nc(c(-c5c(F)cccc5F)c5ccc([nH]5)c(-c5c(F)cccc5F)c5nc(c(-c6c(F)cccc6F)c6ccc3[nH]6)C=C5)C=C4)cc2)C2(CC[NH+](Cc3c[nH]nc3-c3ccc(Cl)cc3)CC2)N1
REMARK SMILES IDX 12 1 11 2 10 3 9 4 8 5 7 6 5 7 6 8 4 9 1 10 2 11 3 12 95 13
REMARK SMILES IDX 76 14 77 16 94 17 78 18 93 19 79 20 80 22 81 23 82 24 85 25
REMARK SMILES IDX 83 26 84 27 86 29 87 30 92 31 88 32 91 33 89 34 90 35 13 36
REMARK SMILES IDX 14 37 15 38 16 39 17 40 18 41 19 42 20 43 21 44 22 45 23 46
REMARK SMILES IDX 75 47 24 48 74 49 25 50 26 51 27 52 68 53 28 54 73 55 67 56
REMARK SMILES IDX 69 57 29 58 72 59 66 60 65 61 30 63 56 64 39 65 55 66 40 67
REMARK SMILES IDX 43 68 54 69 70 70 41 71 42 72 53 74 71 75 44 76 31 77 32 78
REMARK SMILES IDX 37 79 33 80 34 81 36 82 38 83 35 84 57 85 58 86 63 87 59 88
REMARK SMILES IDX 60 89 62 90 64 91 61 92 45 93 46 94 51 95 47 96 48 97 50 98
REMARK SMILES IDX 52 99 49 100
REMARK H PARENT 95 15 79 21 83 28 69 62 43 73
REMARK Flexibility Score: inf
ROOT
ATOM      1  C   UNL     1       5.812   2.836  -3.336  1.00  0.00     0.188 C 
ENDROOT
BRANCH   1   2
ATOM      2  C   UNL     1       5.408   2.310  -4.710  1.00  0.00     0.188 C 
BRANCH   2   3
ATOM      3  O   UNL     1       4.361   2.962  -5.398  1.00  0.00    -0.376 OA
BRANCH   3   4
ATOM      4  C   UNL     1       3.081   3.074  -4.781  1.00  0.00     0.202 C 
BRANCH   4   5
ATOM      5  C   UNL     1       2.448   1.909  -3.988  1.00  0.00     0.261 C 
BRANCH   5   6
ATOM      6  O   UNL     1       3.037   1.565  -2.700  1.00  0.00    -0.463 OA
BRANCH   6   7
ATOM      7  C   UNL     1       3.652   0.366  -2.646  1.00  0.00     0.311 C 
ATOM      8  O   UNL     1       3.796  -0.359  -3.633  1.00  0.00    -0.252 OA
BRANCH   7   9
ATOM      9  C   UNL     1       4.100  -0.166  -1.291  1.00  0.00     0.134 C 
ATOM     10  O   UNL     1       1.117  -0.988   0.484  1.00  0.00    -0.275 OA
ATOM     11  C   UNL     1       2.208  -0.628   0.104  1.00  0.00     0.221 C 
ATOM     12  C   UNL     1       3.049  -1.265  -0.968  1.00  0.00     0.117 C 
ATOM     13  N   UNL     1       2.925   0.415   0.630  1.00  0.00    -0.349 N 
ATOM     14  C   UNL     1       4.263   0.562   0.072  1.00  0.00     0.064 C 
ATOM     15  H   UNL     1       2.567   1.014   1.325  1.00  0.00     0.164 HD
ATOM     16  C   UNL     1       4.631   2.043   0.157  1.00  0.00     0.091 C 
ATOM     17  C   UNL     1       5.245  -0.278   0.960  1.00  0.00     0.091 C 
ATOM     18  C   UNL     1       6.121   2.364   0.148  1.00  0.00     0.264 C 
ATOM     19  C   UNL     1       6.710   0.175   0.965  1.00  0.00     0.264 C 
ATOM     20  N   UNL     1       6.925   1.605   1.084  1.00  0.00    -0.331 N 
ATOM     21  H   UNL     1       7.887   1.730   0.769  1.00  0.00     0.348 HD
BRANCH  20  22
ATOM     22  C   UNL     1       7.174   2.183   2.411  1.00  0.00     0.303 C 
BRANCH  22  23
ATOM     23  C   UNL     1       5.955   2.300   3.264  1.00  0.00     0.052 A 
ATOM     24  C   UNL     1       5.329   1.243   3.900  1.00  0.00     0.115 A 
ATOM     25  C   UNL     1       5.240   3.455   3.748  1.00  0.00     0.101 A 
ATOM     26  N   UNL     1       4.205   1.739   4.469  1.00  0.00    -0.285 N 
ATOM     27  N   UNL     1       4.131   3.067   4.407  1.00  0.00    -0.175 NA
ATOM     28  H   UNL     1       3.514   1.176   4.886  1.00  0.00     0.189 HD
BRANCH  25  29
ATOM     29  C   UNL     1       5.541   4.895   3.697  1.00  0.00     0.003 A 
ATOM     30  C   UNL     1       5.162   5.697   4.794  1.00  0.00     0.012 A 
ATOM     31  C   UNL     1       6.182   5.521   2.627  1.00  0.00     0.012 A 
ATOM     32  C   UNL     1       5.403   7.074   4.820  1.00  0.00     0.021 A 
ATOM     33  C   UNL     1       6.449   6.898   2.664  1.00  0.00     0.021 A 
ATOM     34  C   UNL     1       6.045   7.671   3.748  1.00  0.00     0.041 A 
ATOM     35  Cl  UNL     1       6.307   9.369   3.730  1.00  0.00    -0.084 Cl
ENDBRANCH  25  29
ENDBRANCH  22  23
ENDBRANCH  20  22
ENDBRANCH   7   9
ENDBRANCH   6   7
ENDBRANCH   5   6
ENDBRANCH   4   5
ENDBRANCH   3   4
ENDBRANCH   2   3
ENDBRANCH   1   2
BRANCH   1  36
ATOM     36  O   UNL     1       4.798   3.506  -2.616  1.00  0.00    -0.377 OA
BRANCH  36  37
ATOM     37  C   UNL     1       4.781   4.923  -2.506  1.00  0.00     0.188 C 
BRANCH  37  38
ATOM     38  C   UNL     1       5.732   5.746  -3.377  1.00  0.00     0.188 C 
BRANCH  38  39
ATOM     39  O   UNL     1       7.130   5.604  -3.121  1.00  0.00    -0.376 OA
BRANCH  39  40
ATOM     40  C   UNL     1       7.546   5.430  -1.770  1.00  0.00     0.202 C 
BRANCH  40  41
ATOM     41  C   UNL     1       7.462   6.682  -0.905  1.00  0.00     0.261 C 
BRANCH  41  42
ATOM     42  O   UNL     1       6.096   6.970  -0.542  1.00  0.00    -0.460 OA
BRANCH  42  43
ATOM     43  C   UNL     1       5.609   8.145  -1.000  1.00  0.00     0.338 C 
ATOM     44  O   UNL     1       6.215   8.988  -1.640  1.00  0.00    -0.246 OA
BRANCH  43  45
ATOM     45  C   UNL     1       4.159   8.245  -0.751  1.00  0.00     0.060 A 
ATOM     46  C   UNL     1       3.350   8.611  -1.833  1.00  0.00     0.016 A 
ATOM     47  C   UNL     1       3.616   8.135   0.531  1.00  0.00     0.016 A 
ATOM     48  C   UNL     1       2.022   8.965  -1.618  1.00  0.00     0.010 A 
ATOM     49  C   UNL     1       2.281   8.489   0.748  1.00  0.00     0.010 A 
ATOM     50  C   UNL     1       1.501   8.965  -0.317  1.00  0.00    -0.014 A 
BRANCH  50  51
ATOM     51  C   UNL     1       0.198   9.621  -0.066  1.00  0.00     0.031 A 
ATOM     52  C   UNL     1       0.178  11.026   0.472  1.00  0.00     0.074 A 
ATOM     53  C   UNL     1      -0.946   8.981  -0.355  1.00  0.00     0.049 A 
ATOM     54  N   UNL     1      -0.842  11.812   0.705  1.00  0.00    -0.248 NA
ATOM     55  C   UNL     1       1.484  11.626   0.797  1.00  0.00     0.031 C 
ATOM     56  C   UNL     1      -1.037   7.619  -0.875  1.00  0.00     0.029 A 
ATOM     57  N   UNL     1      -2.248   9.393  -0.247  1.00  0.00    -0.354 N 
ATOM     58  C   UNL     1      -0.303  12.994   1.200  1.00  0.00     0.074 A 
ATOM     59  C   UNL     1       1.129  12.810   1.274  1.00  0.00     0.031 C 
ATOM     60  C   UNL     1      -2.333   7.301  -1.034  1.00  0.00     0.029 A 
ATOM     61  C   UNL     1      -3.157   8.431  -0.610  1.00  0.00     0.049 A 
ATOM     62  H   UNL     1      -2.507  10.291   0.061  1.00  0.00     0.167 HD
ATOM     63  C   UNL     1      -0.948  14.133   1.552  1.00  0.00     0.037 A 
ATOM     64  C   UNL     1      -4.503   8.459  -0.590  1.00  0.00     0.037 A 
ATOM     65  C   UNL     1      -2.377  14.297   1.482  1.00  0.00     0.049 A 
ATOM     66  C   UNL     1      -5.199   9.723  -0.167  1.00  0.00     0.074 A 
ATOM     67  C   UNL     1      -3.133  15.420   1.766  1.00  0.00     0.029 A 
ATOM     68  N   UNL     1      -3.268  13.296   1.118  1.00  0.00    -0.354 N 
ATOM     69  N   UNL     1      -4.680  10.862   0.226  1.00  0.00    -0.248 NA
ATOM     70  C   UNL     1      -6.668   9.713  -0.200  1.00  0.00     0.031 C 
ATOM     71  C   UNL     1      -4.484  15.081   1.636  1.00  0.00     0.029 A 
ATOM     72  C   UNL     1      -4.568  13.765   1.206  1.00  0.00     0.049 A 
ATOM     73  H   UNL     1      -3.013  12.388   0.838  1.00  0.00     0.167 HD
ATOM     74  C   UNL     1      -5.753  11.711   0.465  1.00  0.00     0.074 A 
ATOM     75  C   UNL     1      -6.952  10.959   0.155  1.00  0.00     0.031 C 
ATOM     76  C   UNL     1      -5.749  12.996   0.899  1.00  0.00     0.037 A 
BRANCH  63  77
ATOM     77  C   UNL     1      -0.117  15.275   2.067  1.00  0.00     0.057 A 
ATOM     78  C   UNL     1       0.757  15.995   1.241  1.00  0.00     0.134 A 
ATOM     79  C   UNL     1      -0.214  15.679   3.405  1.00  0.00     0.134 A 
ATOM     80  F   UNL     1       0.907  15.656  -0.049  1.00  0.00    -0.206 F 
ATOM     81  C   UNL     1       1.524  17.054   1.732  1.00  0.00     0.040 A 
ATOM     82  C   UNL     1       0.525  16.755   3.901  1.00  0.00     0.040 A 
ATOM     83  F   UNL     1      -1.036  15.041   4.253  1.00  0.00    -0.206 F 
ATOM     84  C   UNL     1       1.404  17.441   3.066  1.00  0.00     0.006 A 
ENDBRANCH  63  77
BRANCH  64  85
ATOM     85  C   UNL     1      -5.267   7.251  -0.989  1.00  0.00     0.057 A 
ATOM     86  C   UNL     1      -6.010   7.213  -2.174  1.00  0.00     0.134 A 
ATOM     87  C   UNL     1      -5.254   6.093  -0.200  1.00  0.00     0.134 A 
ATOM     88  F   UNL     1      -6.075   8.295  -2.964  1.00  0.00    -0.206 F 
ATOM     89  C   UNL     1      -6.721   6.074  -2.555  1.00  0.00     0.040 A 
ATOM     90  C   UNL     1      -5.937   4.938  -0.582  1.00  0.00     0.040 A 
ATOM     91  F   UNL     1      -4.555   6.062   0.945  1.00  0.00    -0.206 F 
ATOM     92  C   UNL     1      -6.678   4.929  -1.761  1.00  0.00     0.006 A 
ENDBRANCH  64  85
BRANCH  76  93
ATOM     93  C   UNL     1      -7.081  13.675   1.041  1.00  0.00     0.057 A 
ATOM     94  C   UNL     1      -7.983  13.333   2.056  1.00  0.00     0.134 A 
ATOM     95  C   UNL     1      -7.447  14.712   0.172  1.00  0.00     0.134 A 
ATOM     96  F   UNL     1      -7.698  12.342   2.914  1.00  0.00    -0.206 F 
ATOM     97  C   UNL     1      -9.214  13.979   2.185  1.00  0.00     0.040 A 
ATOM     98  C   UNL     1      -8.661  15.386   0.311  1.00  0.00     0.040 A 
ATOM     99  F   UNL     1      -6.624  15.098  -0.815  1.00  0.00    -0.206 F 
ATOM    100  C   UNL     1      -9.552  15.014   1.315  1.00  0.00     0.006 A 
ENDBRANCH  76  93
ENDBRANCH  50  51
ENDBRANCH  43  45
ENDBRANCH  42  43
ENDBRANCH  41  42
ENDBRANCH  40  41
ENDBRANCH  39  40
ENDBRANCH  38  39
ENDBRANCH  37  38
ENDBRANCH  36  37
ENDBRANCH   1  36
TORSDOF 23
