REMARK SMILES CC(C)OCCS(=O)(=O)N1CCC[C@H](C(=O)OCCOCCOCCOCCOC(=O)c2ccc(-c3c4nc(c(-c5c(F)cccc5F)c5ccc([nH]5)c(-c5c(F)cccc5F)c5nc(c(-c6c(F)cccc6F)c6ccc3[nH]6)C=C5)C=C4)cc2)C1
REMARK SMILES IDX 21 1 20 2 19 3 18 4 17 5 15 6 16 7 14 8 10 9 11 10 86 11
REMARK SMILES IDX 12 12 13 13 7 14 8 15 9 16 6 17 5 18 4 19 2 20 1 21 3 22
REMARK SMILES IDX 22 23 23 24 24 25 25 26 26 27 27 28 28 29 29 30 30 31 31 32
REMARK SMILES IDX 32 33 33 34 85 35 34 36 84 37 35 38 36 39 37 40 78 41 38 42
REMARK SMILES IDX 83 43 77 44 79 45 39 46 82 47 76 48 75 49 40 51 66 52 49 53
REMARK SMILES IDX 65 54 50 55 53 56 64 57 80 58 51 59 52 60 63 62 81 63 54 64
REMARK SMILES IDX 41 65 42 66 47 67 43 68 44 69 46 70 48 71 45 72 67 73 68 74
REMARK SMILES IDX 73 75 69 76 70 77 72 78 74 79 71 80 55 81 56 82 61 83 57 84
REMARK SMILES IDX 58 85 60 86 62 87 59 88
REMARK H PARENT 79 50 53 61
REMARK Flexibility Score: inf
ROOT
ATOM      1  C   UNL     1       4.471   2.628  -3.759  1.00  0.00     0.188 C 
ENDROOT
BRANCH   1   2
ATOM      2  O   UNL     1       5.770   2.155  -4.016  1.00  0.00    -0.376 OA
BRANCH   2   3
ATOM      3  C   UNL     1       6.339   1.075  -3.300  1.00  0.00     0.202 C 
BRANCH   3   4
ATOM      4  C   UNL     1       5.556   0.032  -2.491  1.00  0.00     0.261 C 
BRANCH   4   5
ATOM      5  O   UNL     1       4.205  -0.245  -2.868  1.00  0.00    -0.463 OA
BRANCH   5   6
ATOM      6  C   UNL     1       3.277   0.258  -2.017  1.00  0.00     0.310 C 
ATOM      7  O   UNL     1       3.521   1.042  -1.102  1.00  0.00    -0.252 OA
BRANCH   6   8
ATOM      8  C   UNL     1       1.923  -0.387  -2.136  1.00  0.00     0.114 C 
ATOM      9  N   UNL     1       1.036  -2.636  -1.552  1.00  0.00    -0.201 NA
ATOM     10  C   UNL     1       0.885  -3.067  -2.961  1.00  0.00     0.102 C 
ATOM     11  C   UNL     1       2.050  -1.619  -1.244  1.00  0.00     0.117 C 
ATOM     12  C   UNL     1       1.526  -2.096  -3.950  1.00  0.00     0.018 C 
ATOM     13  C   UNL     1       1.324  -0.660  -3.514  1.00  0.00     0.018 C 
BRANCH   9  14
ATOM     14  S   UNL     1       0.608  -3.718  -0.328  1.00  0.00     0.216 S 
ATOM     15  O   UNL     1       1.287  -3.329   0.889  1.00  0.00    -0.212 OA
ATOM     16  O   UNL     1       0.769  -5.055  -0.860  1.00  0.00    -0.212 OA
BRANCH  14  17
ATOM     17  C   UNL     1      -1.149  -3.401  -0.149  1.00  0.00     0.182 C 
BRANCH  17  18
ATOM     18  C   UNL     1      -1.485  -2.440   0.983  1.00  0.00     0.178 C 
BRANCH  18  19
ATOM     19  O   UNL     1      -2.371  -1.379   0.616  1.00  0.00    -0.378 OA
BRANCH  19  20
ATOM     20  C   UNL     1      -1.828  -0.144   0.140  1.00  0.00     0.112 C 
ATOM     21  C   UNL     1      -0.711   0.454   1.000  1.00  0.00     0.038 C 
ATOM     22  C   UNL     1      -1.443  -0.268  -1.319  1.00  0.00     0.038 C 
ENDBRANCH  19  20
ENDBRANCH  18  19
ENDBRANCH  17  18
ENDBRANCH  14  17
ENDBRANCH   9  14
ENDBRANCH   6   8
ENDBRANCH   5   6
ENDBRANCH   4   5
ENDBRANCH   3   4
ENDBRANCH   2   3
ENDBRANCH   1   2
BRANCH   1  23
ATOM     23  C   UNL     1       3.374   2.107  -4.702  1.00  0.00     0.188 C 
BRANCH  23  24
ATOM     24  O   UNL     1       3.505   0.819  -5.282  1.00  0.00    -0.377 OA
BRANCH  24  25
ATOM     25  C   UNL     1       4.643   0.467  -6.058  1.00  0.00     0.188 C 
BRANCH  25  26
ATOM     26  C   UNL     1       5.479   1.557  -6.752  1.00  0.00     0.188 C 
BRANCH  26  27
ATOM     27  O   UNL     1       4.818   2.799  -6.889  1.00  0.00    -0.376 OA
BRANCH  27  28
ATOM     28  C   UNL     1       4.195   3.073  -8.134  1.00  0.00     0.202 C 
BRANCH  28  29
ATOM     29  C   UNL     1       3.119   2.091  -8.623  1.00  0.00     0.261 C 
BRANCH  29  30
ATOM     30  O   UNL     1       3.536   0.729  -8.836  1.00  0.00    -0.460 OA
BRANCH  30  31
ATOM     31  C   UNL     1       4.550   0.499  -9.702  1.00  0.00     0.338 C 
ATOM     32  O   UNL     1       5.141   1.309 -10.380  1.00  0.00    -0.246 OA
BRANCH  31  33
ATOM     33  C   UNL     1       4.954  -0.916  -9.543  1.00  0.00     0.060 A 
ATOM     34  C   UNL     1       6.219  -1.214  -9.018  1.00  0.00     0.016 A 
ATOM     35  C   UNL     1       4.089  -1.940  -9.927  1.00  0.00     0.016 A 
ATOM     36  C   UNL     1       6.631  -2.541  -8.896  1.00  0.00     0.010 A 
ATOM     37  C   UNL     1       4.514  -3.268  -9.832  1.00  0.00     0.010 A 
ATOM     38  C   UNL     1       5.798  -3.573  -9.344  1.00  0.00    -0.014 A 
BRANCH  38  39
ATOM     39  C   UNL     1       6.336  -4.949  -9.476  1.00  0.00     0.031 A 
ATOM     40  C   UNL     1       6.816  -5.402 -10.828  1.00  0.00     0.074 A 
ATOM     41  C   UNL     1       6.418  -5.772  -8.416  1.00  0.00     0.049 A 
ATOM     42  N   UNL     1       7.254  -6.575 -11.204  1.00  0.00    -0.248 NA
ATOM     43  C   UNL     1       6.796  -4.394 -11.900  1.00  0.00     0.031 C 
ATOM     44  C   UNL     1       6.038  -5.431  -7.047  1.00  0.00     0.029 A 
ATOM     45  N   UNL     1       6.838  -7.077  -8.335  1.00  0.00    -0.354 N 
ATOM     46  C   UNL     1       7.552  -6.450 -12.555  1.00  0.00     0.074 A 
ATOM     47  C   UNL     1       7.223  -5.095 -12.940  1.00  0.00     0.031 C 
ATOM     48  C   UNL     1       6.224  -6.508  -6.263  1.00  0.00     0.029 A 
ATOM     49  C   UNL     1       6.699  -7.623  -7.082  1.00  0.00     0.049 A 
ATOM     50  H   UNL     1       7.205  -7.574  -9.101  1.00  0.00     0.167 HD
ATOM     51  C   UNL     1       8.058  -7.381 -13.398  1.00  0.00     0.037 A 
ATOM     52  C   UNL     1       6.899  -8.886  -6.657  1.00  0.00     0.037 A 
ATOM     53  C   UNL     1       8.384  -8.728 -13.011  1.00  0.00     0.049 A 
ATOM     54  C   UNL     1       7.379  -9.927  -7.638  1.00  0.00     0.074 A 
ATOM     55  C   UNL     1       8.919  -9.741 -13.787  1.00  0.00     0.029 A 
ATOM     56  N   UNL     1       8.196  -9.253 -11.742  1.00  0.00    -0.354 N 
ATOM     57  N   UNL     1       7.681  -9.794  -8.908  1.00  0.00    -0.248 NA
ATOM     58  C   UNL     1       7.545 -11.295  -7.125  1.00  0.00     0.031 C 
ATOM     59  C   UNL     1       8.995 -10.896 -13.005  1.00  0.00     0.029 A 
ATOM     60  C   UNL     1       8.572 -10.586 -11.723  1.00  0.00     0.049 A 
ATOM     61  H   UNL     1       7.846  -8.753 -10.969  1.00  0.00     0.167 HD
ATOM     62  C   UNL     1       8.103 -11.049  -9.334  1.00  0.00     0.074 A 
ATOM     63  C   UNL     1       8.035 -11.925  -8.184  1.00  0.00     0.031 C 
ATOM     64  C   UNL     1       8.510 -11.443 -10.566  1.00  0.00     0.037 A 
BRANCH  51  65
ATOM     65  C   UNL     1       8.262  -6.988 -14.832  1.00  0.00     0.057 A 
ATOM     66  C   UNL     1       9.276  -6.106 -15.225  1.00  0.00     0.134 A 
ATOM     67  C   UNL     1       7.465  -7.546 -15.840  1.00  0.00     0.134 A 
ATOM     68  F   UNL     1      10.065  -5.524 -14.309  1.00  0.00    -0.206 F 
ATOM     69  C   UNL     1       9.481  -5.783 -16.568  1.00  0.00     0.040 A 
ATOM     70  C   UNL     1       7.678  -7.253 -17.187  1.00  0.00     0.040 A 
ATOM     71  F   UNL     1       6.476  -8.400 -15.532  1.00  0.00    -0.206 F 
ATOM     72  C   UNL     1       8.687  -6.366 -17.554  1.00  0.00     0.006 A 
ENDBRANCH  51  65
BRANCH  52  73
ATOM     73  C   UNL     1       6.617  -9.260  -5.246  1.00  0.00     0.057 A 
ATOM     74  C   UNL     1       7.638  -9.678  -4.384  1.00  0.00     0.134 A 
ATOM     75  C   UNL     1       5.310  -9.260  -4.740  1.00  0.00     0.134 A 
ATOM     76  F   UNL     1       8.907  -9.726  -4.814  1.00  0.00    -0.206 F 
ATOM     77  C   UNL     1       7.368 -10.110  -3.083  1.00  0.00     0.040 A 
ATOM     78  C   UNL     1       5.030  -9.657  -3.431  1.00  0.00     0.040 A 
ATOM     79  F   UNL     1       4.285  -8.873  -5.513  1.00  0.00    -0.206 F 
ATOM     80  C   UNL     1       6.061 -10.095  -2.603  1.00  0.00     0.006 A 
ENDBRANCH  52  73
BRANCH  64  81
ATOM     81  C   UNL     1       8.957 -12.869 -10.726  1.00  0.00     0.057 A 
ATOM     82  C   UNL     1       8.057 -13.941 -10.675  1.00  0.00     0.134 A 
ATOM     83  C   UNL     1      10.303 -13.168 -10.976  1.00  0.00     0.134 A 
ATOM     84  F   UNL     1       6.755 -13.726 -10.430  1.00  0.00    -0.206 F 
ATOM     85  C   UNL     1       8.484 -15.260 -10.837  1.00  0.00     0.040 A 
ATOM     86  C   UNL     1      10.736 -14.480 -11.172  1.00  0.00     0.040 A 
ATOM     87  F   UNL     1      11.217 -12.189 -11.051  1.00  0.00    -0.206 F 
ATOM     88  C   UNL     1       9.826 -15.532 -11.094  1.00  0.00     0.006 A 
ENDBRANCH  64  81
ENDBRANCH  38  39
ENDBRANCH  31  33
ENDBRANCH  30  31
ENDBRANCH  29  30
ENDBRANCH  28  29
ENDBRANCH  27  28
ENDBRANCH  26  27
ENDBRANCH  25  26
ENDBRANCH  24  25
ENDBRANCH  23  24
ENDBRANCH   1  23
TORSDOF 25
