REMARK SMILES O=C(OCCOCCOCCOCCOC(=O)c1ccc(-c2c3nc(c(-c4c(F)cccc4F)c4ccc([nH]4)c(-c4c(F)cccc4F)c4nc(c(-c5c(F)cccc5F)c5ccc2[nH]5)C=C4)C=C3)cc1)C1=N[C@@H]2NC=NN2[C@@H]([C@H]2C=NN=C2c2ccc(F)cc2)C1
REMARK SMILES IDX 9 1 8 2 7 3 6 4 5 5 4 6 3 7 2 8 1 9 72 10 73 11 92 12 74 13
REMARK SMILES IDX 79 14 75 15 78 16 76 17 77 19 80 20 81 21 84 22 82 23 83 24
REMARK SMILES IDX 85 25 86 26 91 27 87 28 90 29 88 30 89 31 10 32 11 33 12 34
REMARK SMILES IDX 13 35 14 36 15 37 16 38 17 39 18 40 19 41 71 42 20 43 70 44
REMARK SMILES IDX 21 45 22 46 23 47 64 48 24 49 69 50 63 51 65 52 25 53 68 54
REMARK SMILES IDX 62 55 61 56 26 58 52 59 35 60 51 61 36 62 39 63 50 64 66 65
REMARK SMILES IDX 37 66 38 67 49 69 67 70 40 71 27 72 28 73 33 74 29 75 30 76
REMARK SMILES IDX 32 77 34 78 31 79 53 80 54 81 59 82 55 83 56 84 58 85 60 86
REMARK SMILES IDX 57 87 41 88 42 89 47 90 43 91 44 92 46 93 48 94 45 95
REMARK H PARENT 75 18 65 57 39 68
REMARK Flexibility Score: inf
ROOT
ATOM      1  O   UNL     1       8.637   3.330   6.723  1.00  0.00    -0.377 OA
ENDROOT
BRANCH   1   2
ATOM      2  C   UNL     1       9.443   3.296   5.566  1.00  0.00     0.188 C 
BRANCH   2   3
ATOM      3  C   UNL     1       9.242   2.162   4.549  1.00  0.00     0.188 C 
BRANCH   3   4
ATOM      4  O   UNL     1       8.759   0.888   4.949  1.00  0.00    -0.376 OA
BRANCH   4   5
ATOM      5  C   UNL     1       9.616  -0.128   5.432  1.00  0.00     0.202 C 
BRANCH   5   6
ATOM      6  C   UNL     1      10.810  -0.567   4.602  1.00  0.00     0.261 C 
BRANCH   6   7
ATOM      7  O   UNL     1      10.986  -0.035   3.285  1.00  0.00    -0.459 OA
BRANCH   7   8
ATOM      8  C   UNL     1      10.160   0.145   2.264  1.00  0.00     0.352 C 
ATOM      9  O   UNL     1      10.566   0.712   1.253  1.00  0.00    -0.245 OA
BRANCH   8  10
ATOM     10  C   UNL     1       8.689  -0.295   2.255  1.00  0.00     0.126 C 
ATOM     11  N   UNL     1       7.858   0.502   1.663  1.00  0.00    -0.236 NA
ATOM     12  C   UNL     1       8.328  -1.681   2.702  1.00  0.00     0.092 C 
ATOM     13  C   UNL     1       6.645  -0.091   1.135  1.00  0.00     0.319 C 
ATOM     14  C   UNL     1       6.808  -1.698   2.920  1.00  0.00     0.127 C 
ATOM     15  N   UNL     1       5.457   0.701   1.244  1.00  0.00    -0.335 N 
ATOM     16  N   UNL     1       6.224  -1.448   1.586  1.00  0.00    -0.249 NA
ATOM     17  C   UNL     1       4.461  -0.210   1.398  1.00  0.00     0.217 C 
ATOM     18  H   UNL     1       5.380   1.682   1.213  1.00  0.00     0.165 HD
ATOM     19  N   UNL     1       4.819  -1.455   1.571  1.00  0.00    -0.164 NA
BRANCH  14  20
ATOM     20  C   UNL     1       6.224  -2.976   3.559  1.00  0.00     0.109 C 
ATOM     21  C   UNL     1       7.196  -4.101   3.576  1.00  0.00     0.120 C 
ATOM     22  C   UNL     1       6.100  -2.818   5.054  1.00  0.00     0.081 C 
ATOM     23  N   UNL     1       7.660  -4.363   4.753  1.00  0.00    -0.162 NA
ATOM     24  N   UNL     1       6.970  -3.543   5.696  1.00  0.00    -0.155 NA
BRANCH  22  25
ATOM     25  C   UNL     1       5.105  -1.935   5.713  1.00  0.00    -0.001 A 
ATOM     26  C   UNL     1       3.970  -1.468   5.035  1.00  0.00     0.013 A 
ATOM     27  C   UNL     1       5.293  -1.589   7.059  1.00  0.00     0.013 A 
ATOM     28  C   UNL     1       3.047  -0.649   5.694  1.00  0.00     0.040 A 
ATOM     29  C   UNL     1       4.370  -0.765   7.712  1.00  0.00     0.040 A 
ATOM     30  C   UNL     1       3.258  -0.300   7.022  1.00  0.00     0.123 A 
ATOM     31  F   UNL     1       2.373   0.490   7.645  1.00  0.00    -0.207 F 
ENDBRANCH  22  25
ENDBRANCH  14  20
ENDBRANCH   8  10
ENDBRANCH   7   8
ENDBRANCH   6   7
ENDBRANCH   5   6
ENDBRANCH   4   5
ENDBRANCH   3   4
ENDBRANCH   2   3
ENDBRANCH   1   2
BRANCH   1  32
ATOM     32  C   UNL     1       8.794   2.231   7.593  1.00  0.00     0.188 C 
BRANCH  32  33
ATOM     33  C   UNL     1       7.561   1.306   7.656  1.00  0.00     0.188 C 
BRANCH  33  34
ATOM     34  O   UNL     1       6.401   1.572   6.881  1.00  0.00    -0.376 OA
BRANCH  34  35
ATOM     35  C   UNL     1       5.949   2.904   6.693  1.00  0.00     0.202 C 
BRANCH  35  36
ATOM     36  C   UNL     1       5.686   3.815   7.907  1.00  0.00     0.261 C 
BRANCH  36  37
ATOM     37  O   UNL     1       6.694   3.799   8.928  1.00  0.00    -0.460 OA
BRANCH  37  38
ATOM     38  C   UNL     1       6.405   3.082  10.041  1.00  0.00     0.338 C 
ATOM     39  O   UNL     1       5.365   2.501  10.302  1.00  0.00    -0.246 OA
BRANCH  38  40
ATOM     40  C   UNL     1       7.656   2.893  10.810  1.00  0.00     0.060 A 
ATOM     41  C   UNL     1       8.023   1.585  11.167  1.00  0.00     0.016 A 
ATOM     42  C   UNL     1       8.498   3.968  11.103  1.00  0.00     0.016 A 
ATOM     43  C   UNL     1       9.227   1.346  11.827  1.00  0.00     0.010 A 
ATOM     44  C   UNL     1       9.683   3.735  11.801  1.00  0.00     0.010 A 
ATOM     45  C   UNL     1      10.034   2.428  12.191  1.00  0.00    -0.014 A 
BRANCH  45  46
ATOM     46  C   UNL     1      11.073   2.256  13.230  1.00  0.00     0.031 A 
ATOM     47  C   UNL     1      10.656   2.495  14.652  1.00  0.00     0.074 A 
ATOM     48  C   UNL     1      12.346   1.956  12.929  1.00  0.00     0.049 A 
ATOM     49  N   UNL     1      11.385   2.592  15.731  1.00  0.00    -0.248 NA
ATOM     50  C   UNL     1       9.211   2.671  14.878  1.00  0.00     0.031 C 
ATOM     51  C   UNL     1      12.856   1.655  11.595  1.00  0.00     0.029 A 
ATOM     52  N   UNL     1      13.451   1.891  13.740  1.00  0.00    -0.354 N 
ATOM     53  C   UNL     1      10.491   2.867  16.757  1.00  0.00     0.074 A 
ATOM     54  C   UNL     1       9.172   2.938  16.172  1.00  0.00     0.031 C 
ATOM     55  C   UNL     1      14.187   1.478  11.671  1.00  0.00     0.029 A 
ATOM     56  C   UNL     1      14.622   1.695  13.051  1.00  0.00     0.049 A 
ATOM     57  H   UNL     1      13.409   1.977  14.720  1.00  0.00     0.167 HD
ATOM     58  C   UNL     1      10.748   3.053  18.072  1.00  0.00     0.037 A 
ATOM     59  C   UNL     1      15.898   1.734  13.484  1.00  0.00     0.037 A 
ATOM     60  C   UNL     1      12.066   3.000  18.641  1.00  0.00     0.049 A 
ATOM     61  C   UNL     1      16.177   2.008  14.940  1.00  0.00     0.074 A 
ATOM     62  C   UNL     1      12.442   3.155  19.962  1.00  0.00     0.029 A 
ATOM     63  N   UNL     1      13.227   2.791  17.911  1.00  0.00    -0.354 N 
ATOM     64  N   UNL     1      15.329   2.247  15.913  1.00  0.00    -0.248 NA
ATOM     65  C   UNL     1      17.586   2.019  15.358  1.00  0.00     0.031 C 
ATOM     66  C   UNL     1      13.838   3.098  20.022  1.00  0.00     0.029 A 
ATOM     67  C   UNL     1      14.326   2.842  18.749  1.00  0.00     0.049 A 
ATOM     68  H   UNL     1      13.264   2.631  16.940  1.00  0.00     0.167 HD
ATOM     69  C   UNL     1      16.097   2.406  17.062  1.00  0.00     0.074 A 
ATOM     70  C   UNL     1      17.480   2.237  16.663  1.00  0.00     0.031 C 
ATOM     71  C   UNL     1      15.695   2.659  18.332  1.00  0.00     0.037 A 
BRANCH  58  72
ATOM     72  C   UNL     1       9.580   3.391  18.951  1.00  0.00     0.057 A 
ATOM     73  C   UNL     1       8.566   2.466  19.235  1.00  0.00     0.134 A 
ATOM     74  C   UNL     1       9.450   4.677  19.489  1.00  0.00     0.134 A 
ATOM     75  F   UNL     1       8.617   1.224  18.729  1.00  0.00    -0.206 F 
ATOM     76  C   UNL     1       7.444   2.820  19.986  1.00  0.00     0.040 A 
ATOM     77  C   UNL     1       8.349   5.034  20.269  1.00  0.00     0.040 A 
ATOM     78  F   UNL     1      10.382   5.613  19.255  1.00  0.00    -0.206 F 
ATOM     79  C   UNL     1       7.336   4.107  20.509  1.00  0.00     0.006 A 
ENDBRANCH  58  72
BRANCH  59  80
ATOM     80  C   UNL     1      17.007   1.538  12.516  1.00  0.00     0.057 A 
ATOM     81  C   UNL     1      17.783   0.374  12.527  1.00  0.00     0.134 A 
ATOM     82  C   UNL     1      17.303   2.501  11.544  1.00  0.00     0.134 A 
ATOM     83  F   UNL     1      17.563  -0.575  13.449  1.00  0.00    -0.206 F 
ATOM     84  C   UNL     1      18.815   0.175  11.608  1.00  0.00     0.040 A 
ATOM     85  C   UNL     1      18.317   2.306  10.604  1.00  0.00     0.040 A 
ATOM     86  F   UNL     1      16.596   3.639  11.480  1.00  0.00    -0.206 F 
ATOM     87  C   UNL     1      19.079   1.139  10.637  1.00  0.00     0.006 A 
ENDBRANCH  59  80
BRANCH  71  88
ATOM     88  C   UNL     1      16.748   2.721  19.400  1.00  0.00     0.057 A 
ATOM     89  C   UNL     1      17.619   3.809  19.526  1.00  0.00     0.134 A 
ATOM     90  C   UNL     1      16.830   1.711  20.368  1.00  0.00     0.134 A 
ATOM     91  F   UNL     1      17.598   4.805  18.627  1.00  0.00    -0.206 F 
ATOM     92  C   UNL     1      18.541   3.886  20.572  1.00  0.00     0.040 A 
ATOM     93  C   UNL     1      17.728   1.789  21.433  1.00  0.00     0.040 A 
ATOM     94  F   UNL     1      16.015   0.646  20.312  1.00  0.00    -0.206 F 
ATOM     95  C   UNL     1      18.589   2.879  21.535  1.00  0.00     0.006 A 
ENDBRANCH  71  88
ENDBRANCH  45  46
ENDBRANCH  38  40
ENDBRANCH  37  38
ENDBRANCH  36  37
ENDBRANCH  35  36
ENDBRANCH  34  35
ENDBRANCH  33  34
ENDBRANCH  32  33
ENDBRANCH   1  32
TORSDOF 22
