REMARK SMILES COc1cc2c(CC(=O)OCCOCCOCCOCCOC(=O)c3ccc(-c4c5nc(c(-c6c(F)cccc6F)c6ccc([nH]6)c(-c6c(F)cccc6F)c6nc(c(-c7c(F)cccc7F)c7ccc4[nH]7)C=C6)C=C5)cc3)c(C)n(C(=O)c3ccc(Cl)cc3)c2cc1Cl
REMARK SMILES IDX 15 1 14 2 13 3 12 4 11 5 10 6 8 7 9 8 7 9 6 10 3 11 4 12
REMARK SMILES IDX 93 13 5 14 92 15 94 16 91 17 79 18 81 19 80 20 2 21 1 22
REMARK SMILES IDX 82 23 83 24 84 25 85 26 90 27 86 28 89 29 87 30 88 31 16 32
REMARK SMILES IDX 17 33 18 34 19 35 20 36 21 37 22 38 23 39 24 40 25 41 26 42
REMARK SMILES IDX 78 43 27 44 77 45 28 46 29 47 30 48 71 49 31 50 76 51 70 52
REMARK SMILES IDX 72 53 32 54 75 55 69 56 68 57 33 59 59 60 42 61 58 62 43 63
REMARK SMILES IDX 46 64 57 65 73 66 44 67 45 68 56 70 74 71 47 72 34 73 35 74
REMARK SMILES IDX 40 75 36 76 37 77 39 78 41 79 38 80 60 81 61 82 66 83 62 84
REMARK SMILES IDX 63 85 65 86 67 87 64 88 48 89 49 90 54 91 50 92 51 93 53 94
REMARK SMILES IDX 55 95 52 96
REMARK H PARENT 72 58 46 69
REMARK Flexibility Score: inf
ROOT
ATOM      1  C   UNL     1      -1.260  -3.084  -2.638  1.00  0.00     0.188 C 
ENDROOT
BRANCH   1   2
ATOM      2  C   UNL     1      -2.658  -3.640  -2.369  1.00  0.00     0.188 C 
BRANCH   2   3
ATOM      3  O   UNL     1      -2.773  -5.046  -2.497  1.00  0.00    -0.376 OA
BRANCH   3   4
ATOM      4  C   UNL     1      -3.322  -5.522  -3.718  1.00  0.00     0.202 C 
BRANCH   4   5
ATOM      5  C   UNL     1      -2.486  -5.352  -5.001  1.00  0.00     0.261 C 
BRANCH   5   6
ATOM      6  O   UNL     1      -1.938  -4.038  -5.244  1.00  0.00    -0.463 OA
BRANCH   6   7
ATOM      7  C   UNL     1      -2.685  -3.153  -5.941  1.00  0.00     0.310 C 
ATOM      8  O   UNL     1      -3.832  -3.391  -6.314  1.00  0.00    -0.252 OA
BRANCH   7   9
ATOM      9  C   UNL     1      -2.046  -1.780  -6.139  1.00  0.00     0.160 C 
BRANCH   9  10
ATOM     10  C   UNL     1      -0.542  -1.614  -5.992  1.00  0.00    -0.008 A 
ATOM     11  C   UNL     1       0.598   0.209  -2.778  1.00  0.00     0.138 A 
ATOM     12  C   UNL     1      -0.296  -0.237  -3.769  1.00  0.00     0.058 A 
ATOM     13  C   UNL     1       1.959   0.109  -3.029  1.00  0.00     0.085 A 
ATOM     14  C   UNL     1       0.140  -0.921  -4.937  1.00  0.00     0.008 A 
ATOM     15  C   UNL     1       2.413  -0.481  -4.219  1.00  0.00     0.051 A 
ATOM     16  Cl  UNL     1       3.205   0.726  -1.998  1.00  0.00    -0.080 Cl
ATOM     17  C   UNL     1       1.513  -1.026  -5.163  1.00  0.00     0.058 A 
ATOM     18  C   UNL     1       0.436  -2.009  -6.901  1.00  0.00     0.028 A 
ATOM     19  N   UNL     1       1.708  -1.690  -6.389  1.00  0.00    -0.280 N 
ATOM     20  C   UNL     1       0.199  -2.686  -8.216  1.00  0.00     0.065 C 
BRANCH  11  21
ATOM     21  O   UNL     1      -0.040   0.719  -1.679  1.00  0.00    -0.495 OA
ATOM     22  C   UNL     1       0.617   0.665  -0.418  1.00  0.00     0.278 C 
ENDBRANCH  11  21
BRANCH  19  23
ATOM     23  C   UNL     1       2.974  -1.969  -6.996  1.00  0.00     0.262 C 
ATOM     24  O   UNL     1       3.013  -2.517  -8.095  1.00  0.00    -0.268 OA
BRANCH  23  25
ATOM     25  C   UNL     1       4.284  -1.642  -6.405  1.00  0.00     0.040 A 
ATOM     26  C   UNL     1       4.834  -2.488  -5.435  1.00  0.00     0.015 A 
ATOM     27  C   UNL     1       4.932  -0.458  -6.777  1.00  0.00     0.015 A 
ATOM     28  C   UNL     1       6.010  -2.109  -4.783  1.00  0.00     0.021 A 
ATOM     29  C   UNL     1       6.111  -0.088  -6.123  1.00  0.00     0.021 A 
ATOM     30  C   UNL     1       6.636  -0.907  -5.121  1.00  0.00     0.041 A 
ATOM     31  Cl  UNL     1       8.054  -0.418  -4.277  1.00  0.00    -0.084 Cl
ENDBRANCH  23  25
ENDBRANCH  19  23
ENDBRANCH   9  10
ENDBRANCH   7   9
ENDBRANCH   6   7
ENDBRANCH   5   6
ENDBRANCH   4   5
ENDBRANCH   3   4
ENDBRANCH   2   3
ENDBRANCH   1   2
BRANCH   1  32
ATOM     32  O   UNL     1      -0.160  -3.934  -2.894  1.00  0.00    -0.377 OA
BRANCH  32  33
ATOM     33  C   UNL     1      -0.087  -5.161  -2.194  1.00  0.00     0.188 C 
BRANCH  33  34
ATOM     34  C   UNL     1      -0.350  -5.131  -0.684  1.00  0.00     0.188 C 
BRANCH  34  35
ATOM     35  O   UNL     1      -0.312  -3.838  -0.120  1.00  0.00    -0.376 OA
BRANCH  35  36
ATOM     36  C   UNL     1       0.925  -3.242   0.234  1.00  0.00     0.202 C 
BRANCH  36  37
ATOM     37  C   UNL     1       2.282  -3.514  -0.450  1.00  0.00     0.261 C 
BRANCH  37  38
ATOM     38  O   UNL     1       2.486  -4.845  -0.917  1.00  0.00    -0.460 OA
BRANCH  38  39
ATOM     39  C   UNL     1       3.140  -5.766  -0.161  1.00  0.00     0.338 C 
ATOM     40  O   UNL     1       3.748  -5.599   0.854  1.00  0.00    -0.246 OA
BRANCH  39  41
ATOM     41  C   UNL     1       2.624  -7.057  -0.701  1.00  0.00     0.060 A 
ATOM     42  C   UNL     1       2.591  -7.277  -2.081  1.00  0.00     0.016 A 
ATOM     43  C   UNL     1       1.810  -7.801   0.165  1.00  0.00     0.016 A 
ATOM     44  C   UNL     1       1.601  -8.105  -2.600  1.00  0.00     0.010 A 
ATOM     45  C   UNL     1       0.821  -8.633  -0.362  1.00  0.00     0.010 A 
ATOM     46  C   UNL     1       0.671  -8.736  -1.746  1.00  0.00    -0.014 A 
BRANCH  46  47
ATOM     47  C   UNL     1      -0.275  -9.672  -2.371  1.00  0.00     0.031 A 
ATOM     48  C   UNL     1       0.436 -10.744  -3.114  1.00  0.00     0.074 A 
ATOM     49  C   UNL     1      -1.617  -9.747  -2.233  1.00  0.00     0.049 A 
ATOM     50  N   UNL     1       0.383 -11.019  -4.375  1.00  0.00    -0.248 NA
ATOM     51  C   UNL     1       1.448 -11.505  -2.360  1.00  0.00     0.031 C 
ATOM     52  C   UNL     1      -2.465  -8.986  -1.316  1.00  0.00     0.029 A 
ATOM     53  N   UNL     1      -2.504 -10.610  -2.837  1.00  0.00    -0.354 N 
ATOM     54  C   UNL     1       1.232 -12.106  -4.542  1.00  0.00     0.074 A 
ATOM     55  C   UNL     1       1.976 -12.260  -3.319  1.00  0.00     0.031 C 
ATOM     56  C   UNL     1      -3.694  -9.553  -1.274  1.00  0.00     0.029 A 
ATOM     57  C   UNL     1      -3.760 -10.638  -2.244  1.00  0.00     0.049 A 
ATOM     58  H   UNL     1      -2.269 -11.159  -3.619  1.00  0.00     0.167 HD
ATOM     59  C   UNL     1       1.080 -12.979  -5.568  1.00  0.00     0.037 A 
ATOM     60  C   UNL     1      -4.783 -11.497  -2.489  1.00  0.00     0.037 A 
ATOM     61  C   UNL     1       0.245 -12.466  -6.615  1.00  0.00     0.049 A 
ATOM     62  C   UNL     1      -4.587 -12.134  -3.810  1.00  0.00     0.074 A 
ATOM     63  C   UNL     1       0.378 -11.614  -7.686  1.00  0.00     0.029 A 
ATOM     64  N   UNL     1      -1.091 -12.671  -6.418  1.00  0.00    -0.354 N 
ATOM     65  N   UNL     1      -4.737 -11.517  -4.946  1.00  0.00    -0.248 NA
ATOM     66  C   UNL     1      -3.978 -13.458  -3.896  1.00  0.00     0.031 C 
ATOM     67  C   UNL     1      -0.941 -11.191  -8.030  1.00  0.00     0.029 A 
ATOM     68  C   UNL     1      -1.839 -11.789  -7.151  1.00  0.00     0.049 A 
ATOM     69  H   UNL     1      -1.466 -13.363  -5.827  1.00  0.00     0.167 HD
ATOM     70  C   UNL     1      -3.872 -12.166  -5.802  1.00  0.00     0.074 A 
ATOM     71  C   UNL     1      -3.591 -13.447  -5.174  1.00  0.00     0.031 C 
ATOM     72  C   UNL     1      -3.193 -11.474  -6.759  1.00  0.00     0.037 A 
BRANCH  59  73
ATOM     73  C   UNL     1       1.289 -14.459  -5.399  1.00  0.00     0.057 A 
ATOM     74  C   UNL     1       1.068 -15.134  -4.179  1.00  0.00     0.134 A 
ATOM     75  C   UNL     1       1.407 -15.278  -6.532  1.00  0.00     0.134 A 
ATOM     76  F   UNL     1       0.800 -14.477  -3.042  1.00  0.00    -0.206 F 
ATOM     77  C   UNL     1       1.001 -16.524  -4.085  1.00  0.00     0.040 A 
ATOM     78  C   UNL     1       1.284 -16.670  -6.457  1.00  0.00     0.040 A 
ATOM     79  F   UNL     1       1.571 -14.742  -7.750  1.00  0.00    -0.206 F 
ATOM     80  C   UNL     1       1.083 -17.297  -5.231  1.00  0.00     0.006 A 
ENDBRANCH  59  73
BRANCH  60  81
ATOM     81  C   UNL     1      -5.908 -11.901  -1.613  1.00  0.00     0.057 A 
ATOM     82  C   UNL     1      -5.740 -12.022  -0.224  1.00  0.00     0.134 A 
ATOM     83  C   UNL     1      -7.108 -12.412  -2.133  1.00  0.00     0.134 A 
ATOM     84  F   UNL     1      -4.596 -11.645   0.366  1.00  0.00    -0.206 F 
ATOM     85  C   UNL     1      -6.704 -12.611   0.600  1.00  0.00     0.040 A 
ATOM     86  C   UNL     1      -8.078 -13.014  -1.321  1.00  0.00     0.040 A 
ATOM     87  F   UNL     1      -7.347 -12.389  -3.452  1.00  0.00    -0.206 F 
ATOM     88  C   UNL     1      -7.875 -13.119   0.051  1.00  0.00     0.006 A 
ENDBRANCH  60  81
BRANCH  72  89
ATOM     89  C   UNL     1      -3.818 -10.209  -7.253  1.00  0.00     0.057 A 
ATOM     90  C   UNL     1      -4.194 -10.134  -8.600  1.00  0.00     0.134 A 
ATOM     91  C   UNL     1      -4.039  -9.074  -6.462  1.00  0.00     0.134 A 
ATOM     92  F   UNL     1      -3.980 -11.173  -9.422  1.00  0.00    -0.206 F 
ATOM     93  C   UNL     1      -4.779  -8.987  -9.137  1.00  0.00     0.040 A 
ATOM     94  C   UNL     1      -4.673  -7.941  -6.978  1.00  0.00     0.040 A 
ATOM     95  F   UNL     1      -3.626  -9.022  -5.187  1.00  0.00    -0.206 F 
ATOM     96  C   UNL     1      -5.036  -7.891  -8.320  1.00  0.00     0.006 A 
ENDBRANCH  72  89
ENDBRANCH  46  47
ENDBRANCH  39  41
ENDBRANCH  38  39
ENDBRANCH  37  38
ENDBRANCH  36  37
ENDBRANCH  35  36
ENDBRANCH  34  35
ENDBRANCH  33  34
ENDBRANCH  32  33
ENDBRANCH   1  32
TORSDOF 24
