REMARK SMILES O=C(Cn1ccc(C(=O)NCCC[NH+]2CCOCC2)n1)OCCOCCOCCOCCOC(=O)c1ccc(-c2c3nc(c(-c4c(F)cccc4F)c4ccc([nH]4)c(-c4c(F)cccc4F)c4nc(c(-c5c(F)cccc5F)c5ccc2[nH]5)C=C4)C=C3)cc1
REMARK SMILES IDX 25 1 24 2 23 3 22 4 21 5 2 6 1 7 3 8 4 9 5 10 20 11 6 12
REMARK SMILES IDX 7 13 8 14 9 15 10 16 11 18 12 19 13 20 14 21 15 22 19 23
REMARK SMILES IDX 16 25 18 26 17 27 26 28 27 29 28 30 29 31 30 32 31 33 32 34
REMARK SMILES IDX 33 35 34 36 35 37 36 38 37 39 89 40 38 41 88 42 39 43 40 44
REMARK SMILES IDX 41 45 82 46 42 47 87 48 81 49 83 50 43 51 86 52 80 53 79 54
REMARK SMILES IDX 44 56 70 57 53 58 69 59 54 60 57 61 68 62 84 63 55 64 56 65
REMARK SMILES IDX 67 67 85 68 58 69 45 70 46 71 51 72 47 73 48 74 50 75 52 76
REMARK SMILES IDX 49 77 71 78 72 79 77 80 73 81 74 82 76 83 78 84 75 85 59 86
REMARK SMILES IDX 60 87 65 88 61 89 62 90 64 91 66 92 63 93
REMARK H PARENT 10 17 14 24 83 55 57 66
REMARK Flexibility Score: inf
ROOT
ATOM      1  C   UNL     1       2.296  -1.396  -0.639  1.00  0.00     0.188 C 
ENDROOT
BRANCH   1   2
ATOM      2  O   UNL     1       3.655  -1.193  -0.957  1.00  0.00    -0.376 OA
BRANCH   2   3
ATOM      3  C   UNL     1       4.490  -0.319  -0.206  1.00  0.00     0.202 C 
BRANCH   3   4
ATOM      4  C   UNL     1       4.005   0.299   1.111  1.00  0.00     0.261 C 
BRANCH   4   5
ATOM      5  O   UNL     1       2.737   0.994   1.166  1.00  0.00    -0.462 OA
BRANCH   5   6
ATOM      6  C   UNL     1       2.079   1.686   0.216  1.00  0.00     0.327 C 
ATOM      7  O   UNL     1       0.894   1.968   0.402  1.00  0.00    -0.250 OA
BRANCH   6   8
ATOM      8  C   UNL     1       2.757   2.079  -1.055  1.00  0.00     0.266 C 
BRANCH   8   9
ATOM      9  N   UNL     1       3.767   3.080  -0.815  1.00  0.00    -0.261 N 
ATOM     10  C   UNL     1       3.567   4.423  -0.834  1.00  0.00     0.110 A 
ATOM     11  N   UNL     1       5.026   2.728  -0.492  1.00  0.00    -0.167 NA
ATOM     12  C   UNL     1       4.752   4.973  -0.416  1.00  0.00     0.056 A 
ATOM     13  C   UNL     1       5.645   3.882  -0.183  1.00  0.00     0.150 A 
BRANCH  13  14
ATOM     14  C   UNL     1       7.032   4.022   0.316  1.00  0.00     0.271 C 
ATOM     15  O   UNL     1       7.521   5.144   0.480  1.00  0.00    -0.267 OA
ATOM     16  N   UNL     1       7.840   2.952   0.645  1.00  0.00    -0.350 N 
ATOM     17  H   UNL     1       8.764   3.204   0.876  1.00  0.00     0.163 HD
BRANCH  16  18
ATOM     18  C   UNL     1       7.583   1.529   0.714  1.00  0.00     0.122 C 
BRANCH  18  19
ATOM     19  C   UNL     1       8.453   0.702  -0.228  1.00  0.00     0.083 C 
BRANCH  19  20
ATOM     20  C   UNL     1       9.801   0.243   0.348  1.00  0.00     0.264 C 
BRANCH  20  21
ATOM     21  N   UNL     1       9.802  -0.581   1.571  1.00  0.00    -0.331 N 
ATOM     22  C   UNL     1      11.091  -1.315   1.701  1.00  0.00     0.291 C 
ATOM     23  C   UNL     1       8.717  -1.573   1.705  1.00  0.00     0.291 C 
ATOM     24  H   UNL     1       9.654   0.107   2.309  1.00  0.00     0.348 HD
ATOM     25  C   UNL     1      11.196  -2.558   0.789  1.00  0.00     0.221 C 
ATOM     26  C   UNL     1       8.852  -2.787   0.777  1.00  0.00     0.221 C 
ATOM     27  O   UNL     1      10.098  -3.456   0.993  1.00  0.00    -0.370 OA
ENDBRANCH  20  21
ENDBRANCH  19  20
ENDBRANCH  18  19
ENDBRANCH  16  18
ENDBRANCH  13  14
ENDBRANCH   8   9
ENDBRANCH   6   8
ENDBRANCH   5   6
ENDBRANCH   4   5
ENDBRANCH   3   4
ENDBRANCH   2   3
ENDBRANCH   1   2
BRANCH   1  28
ATOM     28  C   UNL     1       1.902  -2.844  -0.340  1.00  0.00     0.188 C 
BRANCH  28  29
ATOM     29  O   UNL     1       2.767  -3.693   0.387  1.00  0.00    -0.377 OA
BRANCH  29  30
ATOM     30  C   UNL     1       4.158  -3.462   0.405  1.00  0.00     0.188 C 
BRANCH  30  31
ATOM     31  C   UNL     1       5.081  -3.677  -0.829  1.00  0.00     0.188 C 
BRANCH  31  32
ATOM     32  O   UNL     1       4.824  -3.407  -2.198  1.00  0.00    -0.376 OA
BRANCH  32  33
ATOM     33  C   UNL     1       3.647  -3.685  -2.938  1.00  0.00     0.202 C 
BRANCH  33  34
ATOM     34  C   UNL     1       2.965  -5.053  -2.954  1.00  0.00     0.261 C 
BRANCH  34  35
ATOM     35  O   UNL     1       2.983  -5.656  -1.686  1.00  0.00    -0.460 OA
BRANCH  35  36
ATOM     36  C   UNL     1       4.120  -6.330  -1.460  1.00  0.00     0.338 C 
ATOM     37  O   UNL     1       5.011  -6.585  -2.268  1.00  0.00    -0.246 OA
BRANCH  36  38
ATOM     38  C   UNL     1       4.146  -6.742  -0.057  1.00  0.00     0.060 A 
ATOM     39  C   UNL     1       5.236  -7.540   0.282  1.00  0.00     0.016 A 
ATOM     40  C   UNL     1       2.933  -6.754   0.643  1.00  0.00     0.016 A 
ATOM     41  C   UNL     1       4.942  -8.684   0.958  1.00  0.00     0.010 A 
ATOM     42  C   UNL     1       2.638  -7.890   1.322  1.00  0.00     0.010 A 
ATOM     43  C   UNL     1       3.606  -8.886   1.306  1.00  0.00    -0.014 A 
BRANCH  43  44
ATOM     44  C   UNL     1       3.193 -10.224   1.610  1.00  0.00     0.031 A 
ATOM     45  C   UNL     1       3.576 -10.592   2.978  1.00  0.00     0.074 A 
ATOM     46  C   UNL     1       2.472 -10.918   0.711  1.00  0.00     0.049 A 
ATOM     47  N   UNL     1       4.435 -11.479   3.345  1.00  0.00    -0.248 NA
ATOM     48  C   UNL     1       3.128  -9.692   4.057  1.00  0.00     0.031 C 
ATOM     49  C   UNL     1       1.887 -10.457  -0.557  1.00  0.00     0.029 A 
ATOM     50  N   UNL     1       2.003 -12.185   0.819  1.00  0.00    -0.354 N 
ATOM     51  C   UNL     1       4.441 -11.405   4.731  1.00  0.00     0.074 A 
ATOM     52  C   UNL     1       3.833 -10.154   5.087  1.00  0.00     0.031 C 
ATOM     53  C   UNL     1       0.953 -11.346  -0.966  1.00  0.00     0.029 A 
ATOM     54  C   UNL     1       0.970 -12.481  -0.065  1.00  0.00     0.049 A 
ATOM     55  H   UNL     1       2.361 -12.836   1.464  1.00  0.00     0.167 HD
ATOM     56  C   UNL     1       4.625 -12.524   5.474  1.00  0.00     0.037 A 
ATOM     57  C   UNL     1       0.133 -13.538   0.080  1.00  0.00     0.037 A 
ATOM     58  C   UNL     1       5.294 -13.551   4.717  1.00  0.00     0.049 A 
ATOM     59  C   UNL     1       0.808 -14.495   1.006  1.00  0.00     0.074 A 
ATOM     60  C   UNL     1       6.519 -13.632   4.082  1.00  0.00     0.029 A 
ATOM     61  N   UNL     1       4.525 -14.555   4.178  1.00  0.00    -0.354 N 
ATOM     62  N   UNL     1       1.908 -15.133   0.703  1.00  0.00    -0.248 NA
ATOM     63  C   UNL     1       0.556 -14.334   2.433  1.00  0.00     0.031 C 
ATOM     64  C   UNL     1       6.270 -14.362   2.883  1.00  0.00     0.029 A 
ATOM     65  C   UNL     1       4.926 -14.738   2.878  1.00  0.00     0.049 A 
ATOM     66  H   UNL     1       3.814 -15.054   4.642  1.00  0.00     0.167 HD
ATOM     67  C   UNL     1       2.678 -15.096   1.860  1.00  0.00     0.074 A 
ATOM     68  C   UNL     1       1.768 -14.634   2.908  1.00  0.00     0.031 C 
ATOM     69  C   UNL     1       4.042 -15.152   1.812  1.00  0.00     0.037 A 
BRANCH  56  70
ATOM     70  C   UNL     1       3.818 -12.800   6.713  1.00  0.00     0.057 A 
ATOM     71  C   UNL     1       4.183 -13.880   7.527  1.00  0.00     0.134 A 
ATOM     72  C   UNL     1       2.552 -12.235   6.991  1.00  0.00     0.134 A 
ATOM     73  F   UNL     1       5.353 -14.510   7.347  1.00  0.00    -0.206 F 
ATOM     74  C   UNL     1       3.323 -14.402   8.499  1.00  0.00     0.040 A 
ATOM     75  C   UNL     1       1.712 -12.711   7.996  1.00  0.00     0.040 A 
ATOM     76  F   UNL     1       2.008 -11.263   6.249  1.00  0.00    -0.206 F 
ATOM     77  C   UNL     1       2.081 -13.822   8.732  1.00  0.00     0.006 A 
ENDBRANCH  56  70
BRANCH  57  78
ATOM     78  C   UNL     1      -1.327 -13.556  -0.173  1.00  0.00     0.057 A 
ATOM     79  C   UNL     1      -2.031 -14.761  -0.281  1.00  0.00     0.134 A 
ATOM     80  C   UNL     1      -2.111 -12.392  -0.061  1.00  0.00     0.134 A 
ATOM     81  F   UNL     1      -1.373 -15.928  -0.342  1.00  0.00    -0.206 F 
ATOM     82  C   UNL     1      -3.433 -14.809  -0.272  1.00  0.00     0.040 A 
ATOM     83  C   UNL     1      -3.509 -12.424  -0.057  1.00  0.00     0.040 A 
ATOM     84  F   UNL     1      -1.550 -11.191   0.136  1.00  0.00    -0.206 F 
ATOM     85  C   UNL     1      -4.176 -13.638  -0.152  1.00  0.00     0.006 A 
ENDBRANCH  57  78
BRANCH  69  86
ATOM     86  C   UNL     1       4.683 -15.434   0.478  1.00  0.00     0.057 A 
ATOM     87  C   UNL     1       4.636 -14.549  -0.612  1.00  0.00     0.134 A 
ATOM     88  C   UNL     1       5.519 -16.546   0.348  1.00  0.00     0.134 A 
ATOM     89  F   UNL     1       3.944 -13.406  -0.541  1.00  0.00    -0.206 F 
ATOM     90  C   UNL     1       5.357 -14.780  -1.788  1.00  0.00     0.040 A 
ATOM     91  C   UNL     1       6.269 -16.773  -0.809  1.00  0.00     0.040 A 
ATOM     92  F   UNL     1       5.665 -17.403   1.370  1.00  0.00    -0.206 F 
ATOM     93  C   UNL     1       6.184 -15.894  -1.886  1.00  0.00     0.006 A 
ENDBRANCH  69  86
ENDBRANCH  43  44
ENDBRANCH  36  38
ENDBRANCH  35  36
ENDBRANCH  34  35
ENDBRANCH  33  34
ENDBRANCH  32  33
ENDBRANCH  31  32
ENDBRANCH  30  31
ENDBRANCH  29  30
ENDBRANCH  28  29
ENDBRANCH   1  28
TORSDOF 26
