REMARK SMILES CS(=O)(=O)c1ccc(C(=O)N[C@@H](CC(=O)OCCOCCOCCOCCOC(=O)c2ccc(-c3c4nc(c(-c5c(F)cccc5F)c5ccc([nH]5)c(-c5c(F)cccc5F)c5nc(c(-c6c(F)cccc6F)c6ccc3[nH]6)C=C5)C=C4)cc2)c2ccccc2)cc1
REMARK SMILES IDX 21 1 20 2 19 3 18 4 17 5 16 6 14 7 15 8 13 9 12 10 11 11
REMARK SMILES IDX 9 12 10 13 8 15 5 16 6 17 92 18 7 19 91 20 2 21 1 22 3 23
REMARK SMILES IDX 4 24 85 25 86 26 90 27 87 28 89 29 88 30 22 31 23 32 24 33
REMARK SMILES IDX 25 34 26 35 27 36 28 37 29 38 30 39 31 40 32 41 84 42 33 43
REMARK SMILES IDX 83 44 34 45 35 46 36 47 77 48 37 49 82 50 76 51 78 52 38 53
REMARK SMILES IDX 81 54 75 55 74 56 39 58 65 59 48 60 64 61 49 62 52 63 63 64
REMARK SMILES IDX 79 65 50 66 51 67 62 69 80 70 53 71 40 72 41 73 46 74 42 75
REMARK SMILES IDX 43 76 45 77 47 78 44 79 66 80 67 81 72 82 68 83 69 84 71 85
REMARK SMILES IDX 73 86 70 87 54 88 55 89 60 90 56 91 57 92 59 93 61 94 58 95
REMARK H PARENT 11 14 78 57 52 68
REMARK Flexibility Score: inf
ROOT
ATOM      1  C   UNL     1      -1.617  11.037  -3.005  1.00  0.00     0.188 C 
ENDROOT
BRANCH   1   2
ATOM      2  C   UNL     1      -1.372  11.534  -1.577  1.00  0.00     0.188 C 
BRANCH   2   3
ATOM      3  O   UNL     1      -0.381  12.546  -1.447  1.00  0.00    -0.376 OA
BRANCH   3   4
ATOM      4  C   UNL     1       0.942  12.224  -1.881  1.00  0.00     0.202 C 
BRANCH   4   5
ATOM      5  C   UNL     1       1.625  10.984  -1.258  1.00  0.00     0.261 C 
BRANCH   5   6
ATOM      6  O   UNL     1       1.065   9.686  -1.635  1.00  0.00    -0.463 OA
BRANCH   6   7
ATOM      7  C   UNL     1       0.674   8.897  -0.610  1.00  0.00     0.308 C 
ATOM      8  O   UNL     1       0.804   9.224   0.572  1.00  0.00    -0.252 OA
BRANCH   7   9
ATOM      9  C   UNL     1      -0.094   7.623  -0.924  1.00  0.00     0.152 C 
BRANCH   9  10
ATOM     10  C   UNL     1       0.017   6.659  -2.129  1.00  0.00     0.123 C 
BRANCH  10  11
ATOM     11  N   UNL     1       1.325   6.566  -2.738  1.00  0.00    -0.345 N 
ATOM     12  C   UNL     1       2.225   5.523  -2.836  1.00  0.00     0.251 C 
ATOM     13  O   UNL     1       3.320   5.763  -3.347  1.00  0.00    -0.269 OA
ATOM     14  H   UNL     1       1.631   7.400  -3.162  1.00  0.00     0.164 HD
BRANCH  12  15
ATOM     15  C   UNL     1       1.919   4.107  -2.441  1.00  0.00     0.039 A 
ATOM     16  C   UNL     1       1.236   1.411  -2.050  1.00  0.00     0.067 A 
ATOM     17  C   UNL     1       2.252   1.735  -2.945  1.00  0.00     0.021 A 
ATOM     18  C   UNL     1       0.612   2.402  -1.301  1.00  0.00     0.021 A 
ATOM     19  C   UNL     1       2.573   3.084  -3.153  1.00  0.00     0.015 A 
ATOM     20  C   UNL     1       1.030   3.723  -1.432  1.00  0.00     0.015 A 
BRANCH  16  21
ATOM     21  S   UNL     1       0.746  -0.269  -1.764  1.00  0.00     0.175 S 
ATOM     22  C   UNL     1       1.175  -0.508  -0.056  1.00  0.00     0.163 C 
ATOM     23  O   UNL     1       1.594  -1.126  -2.567  1.00  0.00    -0.224 OA
ATOM     24  O   UNL     1      -0.699  -0.306  -1.886  1.00  0.00    -0.224 OA
ENDBRANCH  16  21
ENDBRANCH  12  15
ENDBRANCH  10  11
BRANCH  10  25
ATOM     25  C   UNL     1      -1.185   6.488  -3.053  1.00  0.00    -0.025 A 
ATOM     26  C   UNL     1      -1.870   7.592  -3.515  1.00  0.00     0.006 A 
ATOM     27  C   UNL     1      -1.764   5.232  -3.321  1.00  0.00     0.006 A 
ATOM     28  C   UNL     1      -3.151   7.499  -4.067  1.00  0.00     0.000 A 
ATOM     29  C   UNL     1      -3.021   5.122  -3.936  1.00  0.00     0.000 A 
ATOM     30  C   UNL     1      -3.732   6.262  -4.282  1.00  0.00     0.000 A 
ENDBRANCH  10  25
ENDBRANCH   9  10
ENDBRANCH   7   9
ENDBRANCH   6   7
ENDBRANCH   5   6
ENDBRANCH   4   5
ENDBRANCH   3   4
ENDBRANCH   2   3
ENDBRANCH   1   2
BRANCH   1  31
ATOM     31  O   UNL     1      -0.432  10.471  -3.551  1.00  0.00    -0.377 OA
BRANCH  31  32
ATOM     32  C   UNL     1      -0.033  10.705  -4.897  1.00  0.00     0.188 C 
BRANCH  32  33
ATOM     33  C   UNL     1      -0.842  11.701  -5.725  1.00  0.00     0.188 C 
BRANCH  33  34
ATOM     34  O   UNL     1      -2.153  11.335  -6.162  1.00  0.00    -0.376 OA
BRANCH  34  35
ATOM     35  C   UNL     1      -2.498   9.957  -6.204  1.00  0.00     0.202 C 
BRANCH  35  36
ATOM     36  C   UNL     1      -2.218   9.188  -7.493  1.00  0.00     0.261 C 
BRANCH  36  37
ATOM     37  O   UNL     1      -0.831   9.215  -7.829  1.00  0.00    -0.460 OA
BRANCH  37  38
ATOM     38  C   UNL     1      -0.501  10.219  -8.674  1.00  0.00     0.338 C 
ATOM     39  O   UNL     1      -1.233  11.023  -9.208  1.00  0.00    -0.246 OA
BRANCH  38  40
ATOM     40  C   UNL     1       0.964  10.300  -8.721  1.00  0.00     0.060 A 
ATOM     41  C   UNL     1       1.544  11.554  -8.504  1.00  0.00     0.016 A 
ATOM     42  C   UNL     1       1.740   9.180  -9.026  1.00  0.00     0.016 A 
ATOM     43  C   UNL     1       2.913  11.705  -8.616  1.00  0.00     0.010 A 
ATOM     44  C   UNL     1       3.112   9.338  -9.180  1.00  0.00     0.010 A 
ATOM     45  C   UNL     1       3.685  10.610  -9.017  1.00  0.00    -0.014 A 
BRANCH  45  46
ATOM     46  C   UNL     1       5.040  10.876  -9.520  1.00  0.00     0.031 A 
ATOM     47  C   UNL     1       5.202  11.088 -10.996  1.00  0.00     0.074 A 
ATOM     48  C   UNL     1       6.067  10.985  -8.666  1.00  0.00     0.049 A 
ATOM     49  N   UNL     1       6.286  11.309 -11.687  1.00  0.00    -0.248 NA
ATOM     50  C   UNL     1       3.969  11.045 -11.803  1.00  0.00     0.031 C 
ATOM     51  C   UNL     1       5.973  10.855  -7.212  1.00  0.00     0.029 A 
ATOM     52  N   UNL     1       7.391  11.226  -8.904  1.00  0.00    -0.354 N 
ATOM     53  C   UNL     1       5.868  11.422 -13.007  1.00  0.00     0.074 A 
ATOM     54  C   UNL     1       4.438  11.218 -13.028  1.00  0.00     0.031 C 
ATOM     55  C   UNL     1       7.201  11.002  -6.686  1.00  0.00     0.029 A 
ATOM     56  C   UNL     1       8.160  11.198  -7.769  1.00  0.00     0.049 A 
ATOM     57  H   UNL     1       7.756  11.403  -9.801  1.00  0.00     0.167 HD
ATOM     58  C   UNL     1       6.620  11.680 -14.100  1.00  0.00     0.037 A 
ATOM     59  C   UNL     1       9.496  11.291  -7.641  1.00  0.00     0.037 A 
ATOM     60  C   UNL     1       8.044  11.867 -14.048  1.00  0.00     0.049 A 
ATOM     61  C   UNL     1      10.320  11.492  -8.885  1.00  0.00     0.074 A 
ATOM     62  C   UNL     1       8.919  12.133 -15.084  1.00  0.00     0.029 A 
ATOM     63  N   UNL     1       8.801  11.796 -12.886  1.00  0.00    -0.354 N 
ATOM     64  N   UNL     1       9.925  11.611 -10.131  1.00  0.00    -0.248 NA
ATOM     65  C   UNL     1      11.774  11.575  -8.706  1.00  0.00     0.031 C 
ATOM     66  C   UNL     1      10.214  12.162 -14.557  1.00  0.00     0.029 A 
ATOM     67  C   UNL     1      10.139  11.984 -13.183  1.00  0.00     0.049 A 
ATOM     68  H   UNL     1       8.440  11.635 -11.985  1.00  0.00     0.167 HD
ATOM     69  C   UNL     1      11.076  11.814 -10.881  1.00  0.00     0.074 A 
ATOM     70  C   UNL     1      12.182  11.816  -9.944  1.00  0.00     0.031 C 
ATOM     71  C   UNL     1      11.212  11.986 -12.220  1.00  0.00     0.037 A 
BRANCH  58  72
ATOM     72  C   UNL     1       5.922  11.725 -15.428  1.00  0.00     0.057 A 
ATOM     73  C   UNL     1       5.032  12.753 -15.770  1.00  0.00     0.134 A 
ATOM     74  C   UNL     1       6.148  10.726 -16.383  1.00  0.00     0.134 A 
ATOM     75  F   UNL     1       4.750  13.729 -14.893  1.00  0.00    -0.206 F 
ATOM     76  C   UNL     1       4.377  12.773 -17.003  1.00  0.00     0.040 A 
ATOM     77  C   UNL     1       5.523  10.751 -17.631  1.00  0.00     0.040 A 
ATOM     78  F   UNL     1       6.983   9.710 -16.121  1.00  0.00    -0.206 F 
ATOM     79  C   UNL     1       4.629  11.773 -17.941  1.00  0.00     0.006 A 
ENDBRANCH  58  72
BRANCH  59  80
ATOM     80  C   UNL     1      10.126  11.176  -6.303  1.00  0.00     0.057 A 
ATOM     81  C   UNL     1      10.776  12.263  -5.709  1.00  0.00     0.134 A 
ATOM     82  C   UNL     1      10.097   9.973  -5.585  1.00  0.00     0.134 A 
ATOM     83  F   UNL     1      10.851  13.438  -6.351  1.00  0.00    -0.206 F 
ATOM     84  C   UNL     1      11.393  12.153  -4.461  1.00  0.00     0.040 A 
ATOM     85  C   UNL     1      10.683   9.857  -4.325  1.00  0.00     0.040 A 
ATOM     86  F   UNL     1       9.483   8.895  -6.095  1.00  0.00    -0.206 F 
ATOM     87  C   UNL     1      11.342  10.948  -3.763  1.00  0.00     0.006 A 
ENDBRANCH  59  80
BRANCH  71  88
ATOM     88  C   UNL     1      12.599  12.235 -12.737  1.00  0.00     0.057 A 
ATOM     89  C   UNL     1      13.572  11.229 -12.767  1.00  0.00     0.134 A 
ATOM     90  C   UNL     1      12.945  13.489 -13.256  1.00  0.00     0.134 A 
ATOM     91  F   UNL     1      13.306  10.009 -12.276  1.00  0.00    -0.206 F 
ATOM     92  C   UNL     1      14.852  11.471 -13.269  1.00  0.00     0.040 A 
ATOM     93  C   UNL     1      14.210  13.733 -13.791  1.00  0.00     0.040 A 
ATOM     94  F   UNL     1      12.054  14.492 -13.270  1.00  0.00    -0.206 F 
ATOM     95  C   UNL     1      15.170  12.724 -13.790  1.00  0.00     0.006 A 
ENDBRANCH  71  88
ENDBRANCH  45  46
ENDBRANCH  38  40
ENDBRANCH  37  38
ENDBRANCH  36  37
ENDBRANCH  35  36
ENDBRANCH  34  35
ENDBRANCH  33  34
ENDBRANCH  32  33
ENDBRANCH  31  32
ENDBRANCH   1  31
TORSDOF 25
