REMARK SMILES CCc1ccc(-c2cc(Cl)cc3c2O[C@@H](C(F)(F)F)C(C(=O)OCCOCCOCCOCCOC(=O)c2ccc(-c4c5nc(c(-c6c(F)cccc6F)c6ccc([nH]6)c(-c6c(F)cccc6F)c6nc(c(-c7c(F)cccc7F)c7ccc4[nH]7)C=C6)C=C5)cc2)=C3)cc1
REMARK SMILES IDX 29 1 28 2 27 3 26 4 25 5 24 6 23 7 21 8 22 9 20 10 7 11 8 12
REMARK SMILES IDX 13 13 9 14 12 15 14 16 10 17 11 18 92 19 15 20 6 21 3 22
REMARK SMILES IDX 4 23 94 24 5 25 93 26 2 27 1 28 16 29 17 30 18 31 19 32
REMARK SMILES IDX 30 33 31 34 32 35 33 36 34 37 35 38 36 39 37 40 38 41 39 42
REMARK SMILES IDX 91 43 40 44 90 45 41 46 42 47 43 48 84 49 44 50 89 51 83 52
REMARK SMILES IDX 85 53 45 54 88 55 82 56 81 57 46 59 72 60 55 61 71 62 56 63
REMARK SMILES IDX 59 64 70 65 86 66 57 67 58 68 69 70 87 71 60 72 47 73 48 74
REMARK SMILES IDX 53 75 49 76 50 77 52 78 54 79 51 80 73 81 74 82 79 83 75 84
REMARK SMILES IDX 76 85 78 86 80 87 77 88 61 89 62 90 67 91 63 92 64 93 66 94
REMARK SMILES IDX 68 95 65 96
REMARK H PARENT 85 58 59 69
REMARK Flexibility Score: inf
ROOT
ATOM      1  O   UNL     1       5.912  10.212  -6.725  1.00  0.00    -0.377 OA
ENDROOT
BRANCH   1   2
ATOM      2  C   UNL     1       5.605   9.148  -5.845  1.00  0.00     0.188 C 
BRANCH   2   3
ATOM      3  C   UNL     1       4.302   8.430  -6.221  1.00  0.00     0.188 C 
BRANCH   3   4
ATOM      4  O   UNL     1       3.804   8.768  -7.512  1.00  0.00    -0.376 OA
BRANCH   4   5
ATOM      5  C   UNL     1       2.816   9.793  -7.601  1.00  0.00     0.202 C 
BRANCH   5   6
ATOM      6  C   UNL     1       3.082  11.108  -6.857  1.00  0.00     0.261 C 
BRANCH   6   7
ATOM      7  O   UNL     1       3.064  10.894  -5.428  1.00  0.00    -0.460 OA
BRANCH   7   8
ATOM      8  C   UNL     1       1.863  10.987  -4.837  1.00  0.00     0.338 C 
ATOM      9  O   UNL     1       0.847  11.399  -5.382  1.00  0.00    -0.246 OA
BRANCH   8  10
ATOM     10  C   UNL     1       1.842  10.364  -3.491  1.00  0.00     0.087 C 
ATOM     11  C   UNL     1       2.708   6.304  -3.274  1.00  0.00     0.026 A 
ATOM     12  C   UNL     1       2.393   5.758  -4.539  1.00  0.00     0.033 A 
ATOM     13  C   UNL     1       2.396   7.670  -3.114  1.00  0.00     0.135 A 
ATOM     14  C   UNL     1       1.484   6.397  -5.383  1.00  0.00     0.042 A 
ATOM     15  C   UNL     1       1.313   8.202  -3.827  1.00  0.00     0.019 A 
ATOM     16  O   UNL     1       3.314   8.541  -2.530  1.00  0.00    -0.475 OA
ATOM     17  Cl  UNL     1       1.074   5.682  -6.890  1.00  0.00    -0.084 Cl
ATOM     18  C   UNL     1       0.856   7.566  -4.976  1.00  0.00     0.032 A 
ATOM     19  C   UNL     1       0.793   9.524  -3.420  1.00  0.00     0.027 C 
ATOM     20  C   UNL     1       3.010  10.002  -2.588  1.00  0.00     0.316 C 
BRANCH  11  21
ATOM     21  C   UNL     1       2.586   5.304  -2.149  1.00  0.00    -0.015 A 
ATOM     22  C   UNL     1       1.591   3.113  -0.572  1.00  0.00    -0.048 A 
ATOM     23  C   UNL     1       2.649   2.934  -1.466  1.00  0.00     0.004 A 
ATOM     24  C   UNL     1       1.112   4.417  -0.393  1.00  0.00     0.004 A 
ATOM     25  C   UNL     1       3.144   4.012  -2.232  1.00  0.00     0.009 A 
ATOM     26  C   UNL     1       1.601   5.489  -1.159  1.00  0.00     0.009 A 
BRANCH  22  27
ATOM     27  C   UNL     1       0.919   1.993   0.198  1.00  0.00     0.032 C 
ATOM     28  C   UNL     1       1.273   0.558  -0.179  1.00  0.00     0.009 C 
ENDBRANCH  22  27
ENDBRANCH  11  21
BRANCH  20  29
ATOM     29  C   UNL     1       4.246  10.938  -2.587  1.00  0.00     0.430 C 
ATOM     30  F   UNL     1       3.919  12.117  -1.992  1.00  0.00    -0.167 F 
ATOM     31  F   UNL     1       5.262  10.412  -1.859  1.00  0.00    -0.167 F 
ATOM     32  F   UNL     1       4.750  11.254  -3.788  1.00  0.00    -0.167 F 
ENDBRANCH  20  29
ENDBRANCH   8  10
ENDBRANCH   7   8
ENDBRANCH   6   7
ENDBRANCH   5   6
ENDBRANCH   4   5
ENDBRANCH   3   4
ENDBRANCH   2   3
ENDBRANCH   1   2
BRANCH   1  33
ATOM     33  C   UNL     1       6.587   9.882  -7.935  1.00  0.00     0.188 C 
BRANCH  33  34
ATOM     34  C   UNL     1       6.473   8.478  -8.573  1.00  0.00     0.188 C 
BRANCH  34  35
ATOM     35  O   UNL     1       6.608   7.399  -7.652  1.00  0.00    -0.376 OA
BRANCH  35  36
ATOM     36  C   UNL     1       7.801   6.632  -7.717  1.00  0.00     0.202 C 
BRANCH  36  37
ATOM     37  C   UNL     1       8.993   7.279  -7.003  1.00  0.00     0.261 C 
BRANCH  37  38
ATOM     38  O   UNL     1       9.393   8.553  -7.527  1.00  0.00    -0.460 OA
BRANCH  38  39
ATOM     39  C   UNL     1       9.780   8.597  -8.820  1.00  0.00     0.338 C 
ATOM     40  O   UNL     1       9.886   7.663  -9.596  1.00  0.00    -0.246 OA
BRANCH  39  41
ATOM     41  C   UNL     1       9.886  10.018  -9.202  1.00  0.00     0.060 A 
ATOM     42  C   UNL     1       9.172  10.480 -10.317  1.00  0.00     0.016 A 
ATOM     43  C   UNL     1      10.667  10.891  -8.443  1.00  0.00     0.016 A 
ATOM     44  C   UNL     1       9.276  11.817 -10.702  1.00  0.00     0.010 A 
ATOM     45  C   UNL     1      10.788  12.220  -8.841  1.00  0.00     0.010 A 
ATOM     46  C   UNL     1      10.126  12.677  -9.994  1.00  0.00    -0.014 A 
BRANCH  46  47
ATOM     47  C   UNL     1      10.549  13.966 -10.584  1.00  0.00     0.031 A 
ATOM     48  C   UNL     1      11.819  13.972 -11.389  1.00  0.00     0.074 A 
ATOM     49  C   UNL     1       9.861  15.102 -10.383  1.00  0.00     0.049 A 
ATOM     50  N   UNL     1      12.489  14.979 -11.883  1.00  0.00    -0.248 NA
ATOM     51  C   UNL     1      12.421  12.654 -11.661  1.00  0.00     0.031 C 
ATOM     52  C   UNL     1       8.596  15.214  -9.663  1.00  0.00     0.029 A 
ATOM     53  N   UNL     1      10.155  16.389 -10.757  1.00  0.00    -0.354 N 
ATOM     54  C   UNL     1      13.592  14.419 -12.514  1.00  0.00     0.074 A 
ATOM     55  C   UNL     1      13.519  12.988 -12.320  1.00  0.00     0.031 C 
ATOM     56  C   UNL     1       8.231  16.509  -9.627  1.00  0.00     0.029 A 
ATOM     57  C   UNL     1       9.257  17.316 -10.287  1.00  0.00     0.049 A 
ATOM     58  H   UNL     1      10.935  16.626 -11.309  1.00  0.00     0.167 HD
ATOM     59  C   UNL     1      14.580  15.041 -13.197  1.00  0.00     0.037 A 
ATOM     60  C   UNL     1       9.286  18.661 -10.359  1.00  0.00     0.037 A 
ATOM     61  C   UNL     1      14.659  16.464 -13.374  1.00  0.00     0.049 A 
ATOM     62  C   UNL     1      10.442  19.339 -11.051  1.00  0.00     0.074 A 
ATOM     63  C   UNL     1      15.625  17.199 -14.037  1.00  0.00     0.029 A 
ATOM     64  N   UNL     1      13.734  17.369 -12.876  1.00  0.00    -0.354 N 
ATOM     65  N   UNL     1      11.479  18.805 -11.651  1.00  0.00    -0.248 NA
ATOM     66  C   UNL     1      10.433  20.810 -11.073  1.00  0.00     0.031 C 
ATOM     67  C   UNL     1      15.305  18.554 -13.906  1.00  0.00     0.029 A 
ATOM     68  C   UNL     1      14.113  18.658 -13.207  1.00  0.00     0.049 A 
ATOM     69  H   UNL     1      12.928  17.130 -12.363  1.00  0.00     0.167 HD
ATOM     70  C   UNL     1      12.219  19.869 -12.156  1.00  0.00     0.074 A 
ATOM     71  C   UNL     1      11.514  21.079 -11.791  1.00  0.00     0.031 C 
ATOM     72  C   UNL     1      13.376  19.846 -12.862  1.00  0.00     0.037 A 
BRANCH  59  73
ATOM     73  C   UNL     1      15.662  14.181 -13.775  1.00  0.00     0.057 A 
ATOM     74  C   UNL     1      15.432  13.348 -14.878  1.00  0.00     0.134 A 
ATOM     75  C   UNL     1      16.951  14.192 -13.229  1.00  0.00     0.134 A 
ATOM     76  F   UNL     1      14.212  13.275 -15.432  1.00  0.00    -0.206 F 
ATOM     77  C   UNL     1      16.441  12.541 -15.405  1.00  0.00     0.040 A 
ATOM     78  C   UNL     1      17.975  13.409 -13.764  1.00  0.00     0.040 A 
ATOM     79  F   UNL     1      17.237  14.965 -12.171  1.00  0.00    -0.206 F 
ATOM     80  C   UNL     1      17.720  12.576 -14.851  1.00  0.00     0.006 A 
ENDBRANCH  59  73
BRANCH  60  81
ATOM     81  C   UNL     1       8.201  19.471  -9.748  1.00  0.00     0.057 A 
ATOM     82  C   UNL     1       7.317  20.213 -10.541  1.00  0.00     0.134 A 
ATOM     83  C   UNL     1       8.048  19.561  -8.359  1.00  0.00     0.134 A 
ATOM     84  F   UNL     1       7.430  20.190 -11.878  1.00  0.00    -0.206 F 
ATOM     85  C   UNL     1       6.337  21.031  -9.978  1.00  0.00     0.040 A 
ATOM     86  C   UNL     1       7.055  20.355  -7.782  1.00  0.00     0.040 A 
ATOM     87  F   UNL     1       8.864  18.879  -7.542  1.00  0.00    -0.206 F 
ATOM     88  C   UNL     1       6.202  21.101  -8.593  1.00  0.00     0.006 A 
ENDBRANCH  60  81
BRANCH  72  89
ATOM     89  C   UNL     1      13.918  21.157 -13.353  1.00  0.00     0.057 A 
ATOM     90  C   UNL     1      14.535  22.076 -12.496  1.00  0.00     0.134 A 
ATOM     91  C   UNL     1      13.883  21.466 -14.719  1.00  0.00     0.134 A 
ATOM     92  F   UNL     1      14.593  21.842 -11.176  1.00  0.00    -0.206 F 
ATOM     93  C   UNL     1      15.085  23.264 -12.979  1.00  0.00     0.040 A 
ATOM     94  C   UNL     1      14.452  22.638 -15.217  1.00  0.00     0.040 A 
ATOM     95  F   UNL     1      13.317  20.622 -15.595  1.00  0.00    -0.206 F 
ATOM     96  C   UNL     1      15.052  23.544 -14.345  1.00  0.00     0.006 A 
ENDBRANCH  72  89
ENDBRANCH  46  47
ENDBRANCH  39  41
ENDBRANCH  38  39
ENDBRANCH  37  38
ENDBRANCH  36  37
ENDBRANCH  35  36
ENDBRANCH  34  35
ENDBRANCH  33  34
ENDBRANCH   1  33
TORSDOF 23
