REMARK SMILES CCOc1cc(NC(=O)c2c(C(=O)OCCOCCOCCOCCOC(=O)c3ccc(-c4c5nc(c(-c6c(F)cccc6F)c6ccc([nH]6)c(-c6c(F)cccc6F)c6nc(c(-c7c(F)cccc7F)c7ccc4[nH]7)C=C6)C=C5)cc3)cnn2C)ccc1OC(F)F
REMARK SMILES IDX 19 1 18 2 17 3 16 4 15 5 14 6 12 7 13 8 11 9 10 10 85 11
REMARK SMILES IDX 83 12 84 13 86 14 8 15 7 16 9 18 6 19 4 20 5 21 89 22 88 23
REMARK SMILES IDX 87 24 3 25 2 26 1 27 90 28 91 29 92 30 93 31 20 32 21 33
REMARK SMILES IDX 22 34 23 35 24 36 25 37 26 38 27 39 28 40 29 41 30 42 82 43
REMARK SMILES IDX 31 44 81 45 32 46 33 47 34 48 75 49 35 50 80 51 74 52 76 53
REMARK SMILES IDX 36 54 79 55 73 56 72 57 37 59 63 60 46 61 62 62 47 63 50 64
REMARK SMILES IDX 61 65 77 66 48 67 49 68 60 70 78 71 51 72 38 73 39 74 44 75
REMARK SMILES IDX 40 76 41 77 43 78 45 79 42 80 64 81 65 82 70 83 66 84 67 85
REMARK SMILES IDX 69 86 71 87 68 88 52 89 53 90 58 91 54 92 55 93 57 94 59 95
REMARK SMILES IDX 56 96
REMARK H PARENT 7 17 76 58 50 69
REMARK Flexibility Score: inf
ROOT
ATOM      1  C   UNL     1       0.725  -7.155   0.544  1.00  0.00     0.188 C 
ENDROOT
BRANCH   1   2
ATOM      2  C   UNL     1      -0.189  -8.310   0.102  1.00  0.00     0.188 C 
BRANCH   2   3
ATOM      3  O   UNL     1       0.319  -9.608   0.405  1.00  0.00    -0.376 OA
BRANCH   3   4
ATOM      4  C   UNL     1       0.797 -10.360  -0.704  1.00  0.00     0.202 C 
BRANCH   4   5
ATOM      5  C   UNL     1       2.187  -9.931  -1.188  1.00  0.00     0.261 C 
BRANCH   5   6
ATOM      6  O   UNL     1       2.245  -8.582  -1.676  1.00  0.00    -0.460 OA
BRANCH   6   7
ATOM      7  C   UNL     1       1.539  -8.308  -2.805  1.00  0.00     0.342 C 
ATOM      8  O   UNL     1       0.894  -9.129  -3.430  1.00  0.00    -0.246 OA
BRANCH   7   9
ATOM      9  C   UNL     1       1.515  -6.889  -3.118  1.00  0.00     0.111 A 
ATOM     10  C   UNL     1       2.473  -5.906  -2.867  1.00  0.00     0.140 A 
ATOM     11  N   UNL     1       2.013  -4.805  -3.546  1.00  0.00    -0.262 N 
ATOM     12  C   UNL     1       0.460  -6.209  -3.758  1.00  0.00     0.151 A 
ATOM     13  N   UNL     1       0.733  -4.920  -3.957  1.00  0.00    -0.180 NA
ATOM     14  C   UNL     1       2.757  -3.646  -3.982  1.00  0.00     0.174 C 
BRANCH  10  15
ATOM     15  C   UNL     1       3.774  -6.078  -2.282  1.00  0.00     0.274 C 
ATOM     16  N   UNL     1       4.354  -5.166  -1.435  1.00  0.00    -0.321 N 
ATOM     17  H   UNL     1       5.297  -5.391  -1.264  1.00  0.00     0.170 HD
ATOM     18  O   UNL     1       4.474  -7.051  -2.576  1.00  0.00    -0.267 OA
BRANCH  16  19
ATOM     19  C   UNL     1       3.976  -4.000  -0.745  1.00  0.00     0.045 A 
ATOM     20  C   UNL     1       2.467  -2.274   0.096  1.00  0.00     0.163 A 
ATOM     21  C   UNL     1       2.690  -3.472  -0.624  1.00  0.00     0.076 A 
ATOM     22  C   UNL     1       3.518  -1.647   0.775  1.00  0.00     0.168 A 
ATOM     23  C   UNL     1       4.797  -2.192   0.671  1.00  0.00     0.053 A 
ATOM     24  C   UNL     1       5.024  -3.340  -0.088  1.00  0.00     0.030 A 
BRANCH  20  25
ATOM     25  O   UNL     1       1.196  -1.778   0.228  1.00  0.00    -0.490 OA
BRANCH  25  26
ATOM     26  C   UNL     1       0.563  -1.490  -1.026  1.00  0.00     0.226 C 
ATOM     27  C   UNL     1      -0.371  -0.304  -0.839  1.00  0.00     0.049 C 
ENDBRANCH  25  26
ENDBRANCH  20  25
BRANCH  22  28
ATOM     28  O   UNL     1       3.464  -0.577   1.622  1.00  0.00    -0.431 OA
BRANCH  28  29
ATOM     29  C   UNL     1       2.539   0.469   1.365  1.00  0.00     0.542 C 
ATOM     30  F   UNL     1       2.457   0.725   0.038  1.00  0.00    -0.167 F 
ATOM     31  F   UNL     1       1.317   0.149   1.845  1.00  0.00    -0.167 F 
ENDBRANCH  28  29
ENDBRANCH  22  28
ENDBRANCH  16  19
ENDBRANCH  10  15
ENDBRANCH   7   9
ENDBRANCH   6   7
ENDBRANCH   5   6
ENDBRANCH   4   5
ENDBRANCH   3   4
ENDBRANCH   2   3
ENDBRANCH   1   2
BRANCH   1  32
ATOM     32  O   UNL     1       1.952  -7.504   1.158  1.00  0.00    -0.377 OA
BRANCH  32  33
ATOM     33  C   UNL     1       1.946  -8.280   2.352  1.00  0.00     0.188 C 
BRANCH  33  34
ATOM     34  C   UNL     1       0.654  -8.562   3.146  1.00  0.00     0.188 C 
BRANCH  34  35
ATOM     35  O   UNL     1      -0.336  -7.543   3.059  1.00  0.00    -0.376 OA
BRANCH  35  36
ATOM     36  C   UNL     1      -0.544  -6.768   4.232  1.00  0.00     0.202 C 
BRANCH  36  37
ATOM     37  C   UNL     1       0.507  -5.668   4.413  1.00  0.00     0.261 C 
BRANCH  37  38
ATOM     38  O   UNL     1       1.832  -6.157   4.672  1.00  0.00    -0.460 OA
BRANCH  38  39
ATOM     39  C   UNL     1       2.002  -6.886   5.796  1.00  0.00     0.338 C 
ATOM     40  O   UNL     1       1.173  -7.146   6.649  1.00  0.00    -0.246 OA
BRANCH  39  41
ATOM     41  C   UNL     1       3.353  -7.469   5.750  1.00  0.00     0.060 A 
ATOM     42  C   UNL     1       3.495  -8.856   5.876  1.00  0.00     0.016 A 
ATOM     43  C   UNL     1       4.471  -6.645   5.595  1.00  0.00     0.016 A 
ATOM     44  C   UNL     1       4.769  -9.421   5.888  1.00  0.00     0.010 A 
ATOM     45  C   UNL     1       5.745  -7.210   5.622  1.00  0.00     0.010 A 
ATOM     46  C   UNL     1       5.898  -8.595   5.803  1.00  0.00    -0.014 A 
BRANCH  46  47
ATOM     47  C   UNL     1       7.239  -9.144   6.101  1.00  0.00     0.031 A 
ATOM     48  C   UNL     1       7.750  -9.049   7.510  1.00  0.00     0.074 A 
ATOM     49  C   UNL     1       7.992  -9.703   5.140  1.00  0.00     0.049 A 
ATOM     50  N   UNL     1       8.900  -9.427   8.005  1.00  0.00    -0.248 NA
ATOM     51  C   UNL     1       6.839  -8.441   8.494  1.00  0.00     0.031 C 
ATOM     52  C   UNL     1       7.598  -9.870   3.743  1.00  0.00     0.029 A 
ATOM     53  N   UNL     1       9.259 -10.226   5.201  1.00  0.00    -0.354 N 
ATOM     54  C   UNL     1       8.850  -9.106   9.354  1.00  0.00     0.074 A 
ATOM     55  C   UNL     1       7.572  -8.473   9.596  1.00  0.00     0.031 C 
ATOM     56  C   UNL     1       8.610 -10.451   3.074  1.00  0.00     0.029 A 
ATOM     57  C   UNL     1       9.727 -10.673   3.992  1.00  0.00     0.049 A 
ATOM     58  H   UNL     1       9.782 -10.275   6.034  1.00  0.00     0.167 HD
ATOM     59  C   UNL     1       9.782  -9.325  10.310  1.00  0.00     0.037 A 
ATOM     60  C   UNL     1      10.927 -11.190   3.666  1.00  0.00     0.037 A 
ATOM     61  C   UNL     1      11.059  -9.939  10.069  1.00  0.00     0.049 A 
ATOM     62  C   UNL     1      11.977 -11.357   4.732  1.00  0.00     0.074 A 
ATOM     63  C   UNL     1      12.064 -10.226  10.975  1.00  0.00     0.029 A 
ATOM     64  N   UNL     1      11.511 -10.349   8.824  1.00  0.00    -0.354 N 
ATOM     65  N   UNL     1      11.908 -11.088   6.013  1.00  0.00    -0.248 NA
ATOM     66  C   UNL     1      13.275 -11.899   4.303  1.00  0.00     0.031 C 
ATOM     67  C   UNL     1      13.143 -10.772  10.270  1.00  0.00     0.029 A 
ATOM     68  C   UNL     1      12.792 -10.862   8.932  1.00  0.00     0.049 A 
ATOM     69  H   UNL     1      10.996 -10.285   7.987  1.00  0.00     0.167 HD
ATOM     70  C   UNL     1      13.137 -11.452   6.548  1.00  0.00     0.074 A 
ATOM     71  C   UNL     1      13.933 -11.966   5.452  1.00  0.00     0.031 C 
ATOM     72  C   UNL     1      13.568 -11.371   7.831  1.00  0.00     0.037 A 
BRANCH  59  73
ATOM     73  C   UNL     1       9.451  -8.869  11.699  1.00  0.00     0.057 A 
ATOM     74  C   UNL     1       8.511  -9.541  12.490  1.00  0.00     0.134 A 
ATOM     75  C   UNL     1      10.074  -7.742  12.247  1.00  0.00     0.134 A 
ATOM     76  F   UNL     1       7.865 -10.616  12.013  1.00  0.00    -0.206 F 
ATOM     77  C   UNL     1       8.183  -9.093  13.771  1.00  0.00     0.040 A 
ATOM     78  C   UNL     1       9.771  -7.297  13.535  1.00  0.00     0.040 A 
ATOM     79  F   UNL     1      10.982  -7.053  11.539  1.00  0.00    -0.206 F 
ATOM     80  C   UNL     1       8.818  -7.969  14.297  1.00  0.00     0.006 A 
ENDBRANCH  59  73
BRANCH  60  81
ATOM     81  C   UNL     1      11.204 -11.592   2.266  1.00  0.00     0.057 A 
ATOM     82  C   UNL     1      11.303 -12.941   1.909  1.00  0.00     0.134 A 
ATOM     83  C   UNL     1      11.389 -10.640   1.256  1.00  0.00     0.134 A 
ATOM     84  F   UNL     1      11.160 -13.897   2.839  1.00  0.00    -0.206 F 
ATOM     85  C   UNL     1      11.586 -13.331   0.599  1.00  0.00     0.040 A 
ATOM     86  C   UNL     1      11.653 -11.016  -0.062  1.00  0.00     0.040 A 
ATOM     87  F   UNL     1      11.310  -9.331   1.537  1.00  0.00    -0.206 F 
ATOM     88  C   UNL     1      11.757 -12.366  -0.392  1.00  0.00     0.006 A 
ENDBRANCH  60  81
BRANCH  72  89
ATOM     89  C   UNL     1      14.950 -11.874   8.125  1.00  0.00     0.057 A 
ATOM     90  C   UNL     1      16.092 -11.149   7.762  1.00  0.00     0.134 A 
ATOM     91  C   UNL     1      15.138 -13.074   8.823  1.00  0.00     0.134 A 
ATOM     92  F   UNL     1      15.979  -9.999   7.082  1.00  0.00    -0.206 F 
ATOM     93  C   UNL     1      17.374 -11.610   8.068  1.00  0.00     0.040 A 
ATOM     94  C   UNL     1      16.414 -13.533   9.154  1.00  0.00     0.040 A 
ATOM     95  F   UNL     1      14.085 -13.811   9.207  1.00  0.00    -0.206 F 
ATOM     96  C   UNL     1      17.537 -12.802   8.772  1.00  0.00     0.006 A 
ENDBRANCH  72  89
ENDBRANCH  46  47
ENDBRANCH  39  41
ENDBRANCH  38  39
ENDBRANCH  37  38
ENDBRANCH  36  37
ENDBRANCH  35  36
ENDBRANCH  34  35
ENDBRANCH  33  34
ENDBRANCH  32  33
ENDBRANCH   1  32
TORSDOF 26
