REMARK SMILES COc1ccc([C@H]2[C@H](C(=O)OCCOCCOCCOCCOC(=O)c3ccc(-c4c5nc(c(-c6c(F)cccc6F)c6ccc([nH]6)c(-c6c(F)cccc6F)c6nc(c(-c7c(F)cccc7F)c7ccc4[nH]7)C=C6)C=C5)cc3)CCN2c2ccc(F)cc2)cc1
REMARK SMILES IDX 17 1 16 2 15 3 14 4 13 5 12 6 11 7 9 8 10 9 8 10 7 11 82 12
REMARK SMILES IDX 80 13 81 14 6 15 3 16 4 17 91 18 5 19 90 20 2 21 1 22 83 23
REMARK SMILES IDX 84 24 89 25 85 26 88 27 86 28 87 29 18 30 19 31 20 32 21 33
REMARK SMILES IDX 22 34 23 35 24 36 25 37 26 38 27 39 79 40 28 41 78 42 29 43
REMARK SMILES IDX 30 44 31 45 72 46 32 47 77 48 71 49 73 50 33 51 76 52 70 53
REMARK SMILES IDX 69 54 34 56 60 57 43 58 59 59 44 60 47 61 58 62 74 63 45 64
REMARK SMILES IDX 46 65 57 67 75 68 48 69 35 70 36 71 41 72 37 73 38 74 40 75
REMARK SMILES IDX 42 76 39 77 61 78 62 79 67 80 63 81 64 82 66 83 68 84 65 85
REMARK SMILES IDX 49 86 50 87 55 88 51 89 52 90 54 91 56 92 53 93
REMARK H PARENT 73 55 47 66
REMARK Flexibility Score: inf
ROOT
ATOM      1  O   UNL     1       2.326  -0.616   3.017  1.00  0.00    -0.377 OA
ENDROOT
BRANCH   1   2
ATOM      2  C   UNL     1       2.893  -0.556   4.305  1.00  0.00     0.188 C 
BRANCH   2   3
ATOM      3  C   UNL     1       3.885   0.541   4.664  1.00  0.00     0.188 C 
BRANCH   3   4
ATOM      4  O   UNL     1       4.998   0.598   3.803  1.00  0.00    -0.376 OA
BRANCH   4   5
ATOM      5  C   UNL     1       6.120  -0.258   3.869  1.00  0.00     0.202 C 
BRANCH   5   6
ATOM      6  C   UNL     1       6.261  -1.632   4.569  1.00  0.00     0.261 C 
BRANCH   6   7
ATOM      7  O   UNL     1       5.111  -2.354   5.034  1.00  0.00    -0.463 OA
BRANCH   7   8
ATOM      8  C   UNL     1       4.836  -2.240   6.357  1.00  0.00     0.311 C 
ATOM      9  O   UNL     1       5.483  -1.520   7.113  1.00  0.00    -0.252 OA
BRANCH   8  10
ATOM     10  C   UNL     1       3.697  -3.103   6.883  1.00  0.00     0.128 C 
ATOM     11  C   UNL     1       2.526  -3.525   5.971  1.00  0.00     0.127 C 
ATOM     12  N   UNL     1       2.942  -4.829   5.441  1.00  0.00    -0.364 N 
ATOM     13  C   UNL     1       4.247  -4.443   7.367  1.00  0.00     0.039 C 
ATOM     14  C   UNL     1       4.091  -5.367   6.158  1.00  0.00     0.118 C 
BRANCH  11  15
ATOM     15  C   UNL     1       1.221  -3.625   6.779  1.00  0.00    -0.024 A 
ATOM     16  C   UNL     1      -1.117  -3.748   8.371  1.00  0.00     0.118 A 
ATOM     17  C   UNL     1      -0.527  -2.520   8.077  1.00  0.00     0.047 A 
ATOM     18  C   UNL     1      -0.573  -4.909   7.829  1.00  0.00     0.047 A 
ATOM     19  C   UNL     1       0.629  -2.456   7.290  1.00  0.00     0.010 A 
ATOM     20  C   UNL     1       0.583  -4.845   7.043  1.00  0.00     0.010 A 
BRANCH  16  21
ATOM     21  O   UNL     1      -2.230  -3.693   9.164  1.00  0.00    -0.497 OA
ATOM     22  C   UNL     1      -2.516  -4.878   9.902  1.00  0.00     0.278 C 
ENDBRANCH  16  21
ENDBRANCH  11  15
BRANCH  12  23
ATOM     23  C   UNL     1       2.693  -5.223   4.143  1.00  0.00     0.037 A 
ATOM     24  C   UNL     1       2.124  -6.479   3.888  1.00  0.00     0.029 A 
ATOM     25  C   UNL     1       2.979  -4.405   3.040  1.00  0.00     0.029 A 
ATOM     26  C   UNL     1       1.805  -6.883   2.587  1.00  0.00     0.041 A 
ATOM     27  C   UNL     1       2.679  -4.808   1.735  1.00  0.00     0.041 A 
ATOM     28  C   UNL     1       2.084  -6.041   1.521  1.00  0.00     0.123 A 
ATOM     29  F   UNL     1       1.771  -6.418   0.275  1.00  0.00    -0.207 F 
ENDBRANCH  12  23
ENDBRANCH   8  10
ENDBRANCH   7   8
ENDBRANCH   6   7
ENDBRANCH   5   6
ENDBRANCH   4   5
ENDBRANCH   3   4
ENDBRANCH   2   3
ENDBRANCH   1   2
BRANCH   1  30
ATOM     30  C   UNL     1       3.233  -0.589   1.934  1.00  0.00     0.188 C 
BRANCH  30  31
ATOM     31  C   UNL     1       3.313   0.797   1.282  1.00  0.00     0.188 C 
BRANCH  31  32
ATOM     32  O   UNL     1       2.263   1.750   1.420  1.00  0.00    -0.376 OA
BRANCH  32  33
ATOM     33  C   UNL     1       0.987   1.380   1.913  1.00  0.00     0.202 C 
BRANCH  33  34
ATOM     34  C   UNL     1       0.136   0.352   1.141  1.00  0.00     0.261 C 
BRANCH  34  35
ATOM     35  O   UNL     1       0.828  -0.649   0.383  1.00  0.00    -0.460 OA
BRANCH  35  36
ATOM     36  C   UNL     1       1.157  -0.329  -0.889  1.00  0.00     0.338 C 
ATOM     37  O   UNL     1       0.938   0.717  -1.474  1.00  0.00    -0.246 OA
BRANCH  36  38
ATOM     38  C   UNL     1       1.961  -1.438  -1.450  1.00  0.00     0.060 A 
ATOM     39  C   UNL     1       3.292  -1.201  -1.817  1.00  0.00     0.016 A 
ATOM     40  C   UNL     1       1.404  -2.708  -1.615  1.00  0.00     0.016 A 
ATOM     41  C   UNL     1       4.075  -2.234  -2.335  1.00  0.00     0.010 A 
ATOM     42  C   UNL     1       2.178  -3.734  -2.170  1.00  0.00     0.010 A 
ATOM     43  C   UNL     1       3.514  -3.500  -2.542  1.00  0.00    -0.014 A 
BRANCH  43  44
ATOM     44  C   UNL     1       4.274  -4.541  -3.275  1.00  0.00     0.031 A 
ATOM     45  C   UNL     1       4.041  -4.705  -4.750  1.00  0.00     0.074 A 
ATOM     46  C   UNL     1       5.160  -5.331  -2.640  1.00  0.00     0.049 A 
ATOM     47  N   UNL     1       4.511  -5.609  -5.570  1.00  0.00    -0.248 NA
ATOM     48  C   UNL     1       3.162  -3.711  -5.387  1.00  0.00     0.031 C 
ATOM     49  C   UNL     1       5.521  -5.234  -1.228  1.00  0.00     0.029 A 
ATOM     50  N   UNL     1       5.905  -6.386  -3.107  1.00  0.00    -0.354 N 
ATOM     51  C   UNL     1       3.983  -5.298  -6.816  1.00  0.00     0.074 A 
ATOM     52  C   UNL     1       3.141  -4.134  -6.642  1.00  0.00     0.031 C 
ATOM     53  C   UNL     1       6.396  -6.212  -0.934  1.00  0.00     0.029 A 
ATOM     54  C   UNL     1       6.626  -7.025  -2.128  1.00  0.00     0.049 A 
ATOM     55  H   UNL     1       5.920  -6.659  -4.053  1.00  0.00     0.167 HD
ATOM     56  C   UNL     1       4.186  -5.924  -8.000  1.00  0.00     0.037 A 
ATOM     57  C   UNL     1       7.354  -8.158  -2.182  1.00  0.00     0.037 A 
ATOM     58  C   UNL     1       5.013  -7.089  -8.169  1.00  0.00     0.049 A 
ATOM     59  C   UNL     1       7.465  -8.905  -3.488  1.00  0.00     0.074 A 
ATOM     60  C   UNL     1       5.288  -7.788  -9.332  1.00  0.00     0.029 A 
ATOM     61  N   UNL     1       5.687  -7.734  -7.144  1.00  0.00    -0.354 N 
ATOM     62  N   UNL     1       6.985  -8.591  -4.667  1.00  0.00    -0.248 NA
ATOM     63  C   UNL     1       8.213 -10.172  -3.467  1.00  0.00     0.031 C 
ATOM     64  C   UNL     1       6.083  -8.889  -9.001  1.00  0.00     0.029 A 
ATOM     65  C   UNL     1       6.348  -8.846  -7.642  1.00  0.00     0.049 A 
ATOM     66  H   UNL     1       5.695  -7.446  -6.203  1.00  0.00     0.167 HD
ATOM     67  C   UNL     1       7.390  -9.605  -5.528  1.00  0.00     0.074 A 
ATOM     68  C   UNL     1       8.174 -10.533  -4.742  1.00  0.00     0.031 C 
ATOM     69  C   UNL     1       7.130  -9.758  -6.849  1.00  0.00     0.037 A 
BRANCH  56  70
ATOM     70  C   UNL     1       3.480  -5.378  -9.205  1.00  0.00     0.057 A 
ATOM     71  C   UNL     1       3.873  -4.177  -9.810  1.00  0.00     0.134 A 
ATOM     72  C   UNL     1       2.432  -6.091  -9.801  1.00  0.00     0.134 A 
ATOM     73  F   UNL     1       4.862  -3.441  -9.280  1.00  0.00    -0.206 F 
ATOM     74  C   UNL     1       3.239  -3.698 -10.958  1.00  0.00     0.040 A 
ATOM     75  C   UNL     1       1.808  -5.635 -10.963  1.00  0.00     0.040 A 
ATOM     76  F   UNL     1       2.011  -7.250  -9.275  1.00  0.00    -0.206 F 
ATOM     77  C   UNL     1       2.209  -4.433 -11.542  1.00  0.00     0.006 A 
ENDBRANCH  56  70
BRANCH  57  78
ATOM     78  C   UNL     1       8.002  -8.698  -0.958  1.00  0.00     0.057 A 
ATOM     79  C   UNL     1       9.396  -8.772  -0.846  1.00  0.00     0.134 A 
ATOM     80  C   UNL     1       7.245  -9.208   0.104  1.00  0.00     0.134 A 
ATOM     81  F   UNL     1      10.177  -8.327  -1.841  1.00  0.00    -0.206 F 
ATOM     82  C   UNL     1      10.012  -9.355   0.263  1.00  0.00     0.040 A 
ATOM     83  C   UNL     1       7.847  -9.766   1.232  1.00  0.00     0.040 A 
ATOM     84  F   UNL     1       5.905  -9.174   0.060  1.00  0.00    -0.206 F 
ATOM     85  C   UNL     1       9.236  -9.851   1.309  1.00  0.00     0.006 A 
ENDBRANCH  57  78
BRANCH  69  86
ATOM     86  C   UNL     1       7.715 -10.959  -7.537  1.00  0.00     0.057 A 
ATOM     87  C   UNL     1       7.221 -12.250  -7.313  1.00  0.00     0.134 A 
ATOM     88  C   UNL     1       8.746 -10.816  -8.475  1.00  0.00     0.134 A 
ATOM     89  F   UNL     1       6.243 -12.458  -6.418  1.00  0.00    -0.206 F 
ATOM     90  C   UNL     1       7.743 -13.358  -7.984  1.00  0.00     0.040 A 
ATOM     91  C   UNL     1       9.257 -11.912  -9.172  1.00  0.00     0.040 A 
ATOM     92  F   UNL     1       9.259  -9.606  -8.745  1.00  0.00    -0.206 F 
ATOM     93  C   UNL     1       8.758 -13.188  -8.923  1.00  0.00     0.006 A 
ENDBRANCH  69  86
ENDBRANCH  43  44
ENDBRANCH  36  38
ENDBRANCH  35  36
ENDBRANCH  34  35
ENDBRANCH  33  34
ENDBRANCH  32  33
ENDBRANCH  31  32
ENDBRANCH  30  31
ENDBRANCH   1  30
TORSDOF 23
