REMARK SMILES O=C(OCCOCCOCCOCCOC(=O)c1sccc1[S@](=O)[O-])c1ccc(-c2c3nc(c(-c4c(F)cccc4F)c4ccc([nH]4)c(-c4c(F)cccc4F)c4nc(c(-c5c(F)cccc5F)c5ccc2[nH]5)C=C4)C=C3)cc1
REMARK SMILES IDX 8 1 7 2 6 3 5 4 4 5 3 6 2 7 1 8 26 9 27 10 79 11 28 12 78 13
REMARK SMILES IDX 29 14 30 15 31 16 72 17 32 18 77 19 71 20 73 21 33 22 76 23
REMARK SMILES IDX 70 24 69 25 34 27 60 28 43 29 59 30 44 31 47 32 58 33 74 34
REMARK SMILES IDX 45 35 46 36 57 38 75 39 48 40 35 41 36 42 41 43 37 44 38 45
REMARK SMILES IDX 40 46 42 47 39 48 61 49 62 50 67 51 63 52 64 53 66 54 68 55
REMARK SMILES IDX 65 56 49 57 50 58 55 59 51 60 52 61 54 62 56 63 53 64 9 65
REMARK SMILES IDX 10 66 11 67 12 68 13 69 14 70 15 71 16 72 17 73 18 74 19 75
REMARK SMILES IDX 22 76 20 77 21 78 23 79 25 80 24 81
REMARK H PARENT 73 26 47 37
REMARK Flexibility Score: inf
ROOT
ATOM      1  C   UNL     1       2.594  12.578   1.185  1.00  0.00     0.188 C 
ENDROOT
BRANCH   1   2
ATOM      2  C   UNL     1       1.688  13.546   0.419  1.00  0.00     0.188 C 
BRANCH   2   3
ATOM      3  O   UNL     1       0.406  13.602   1.034  1.00  0.00    -0.376 OA
BRANCH   3   4
ATOM      4  C   UNL     1      -0.721  13.899   0.221  1.00  0.00     0.202 C 
BRANCH   4   5
ATOM      5  C   UNL     1      -0.748  15.280  -0.441  1.00  0.00     0.261 C 
BRANCH   5   6
ATOM      6  O   UNL     1       0.516  15.970  -0.445  1.00  0.00    -0.460 OA
BRANCH   6   7
ATOM      7  C   UNL     1       0.979  16.873   0.458  1.00  0.00     0.338 C 
ATOM      8  O   UNL     1       1.989  17.523   0.209  1.00  0.00    -0.246 OA
BRANCH   7   9
ATOM      9  C   UNL     1       0.278  17.124   1.743  1.00  0.00     0.060 A 
ATOM     10  C   UNL     1      -0.318  16.114   2.485  1.00  0.00     0.016 A 
ATOM     11  C   UNL     1       0.287  18.414   2.283  1.00  0.00     0.016 A 
ATOM     12  C   UNL     1      -1.087  16.383   3.595  1.00  0.00     0.010 A 
ATOM     13  C   UNL     1      -0.370  18.678   3.492  1.00  0.00     0.010 A 
ATOM     14  C   UNL     1      -1.112  17.667   4.121  1.00  0.00    -0.014 A 
BRANCH  14  15
ATOM     15  C   UNL     1      -2.031  17.911   5.249  1.00  0.00     0.031 A 
ATOM     16  C   UNL     1      -3.210  18.807   5.018  1.00  0.00     0.074 A 
ATOM     17  C   UNL     1      -1.906  17.189   6.381  1.00  0.00     0.049 A 
ATOM     18  N   UNL     1      -4.123  19.205   5.861  1.00  0.00    -0.248 NA
ATOM     19  C   UNL     1      -3.392  19.319   3.648  1.00  0.00     0.031 C 
ATOM     20  C   UNL     1      -0.863  16.186   6.637  1.00  0.00     0.029 A 
ATOM     21  N   UNL     1      -2.686  17.141   7.504  1.00  0.00    -0.354 N 
ATOM     22  C   UNL     1      -4.960  20.042   5.134  1.00  0.00     0.074 A 
ATOM     23  C   UNL     1      -4.442  20.111   3.788  1.00  0.00     0.031 C 
ATOM     24  C   UNL     1      -1.103  15.589   7.813  1.00  0.00     0.029 A 
ATOM     25  C   UNL     1      -2.244  16.237   8.441  1.00  0.00     0.049 A 
ATOM     26  H   UNL     1      -3.487  17.699   7.629  1.00  0.00     0.167 HD
ATOM     27  C   UNL     1      -6.065  20.692   5.563  1.00  0.00     0.037 A 
ATOM     28  C   UNL     1      -2.688  16.002   9.690  1.00  0.00     0.037 A 
ATOM     29  C   UNL     1      -6.561  20.587   6.907  1.00  0.00     0.049 A 
ATOM     30  C   UNL     1      -3.857  16.814  10.173  1.00  0.00     0.074 A 
ATOM     31  C   UNL     1      -7.610  21.261   7.501  1.00  0.00     0.029 A 
ATOM     32  N   UNL     1      -6.036  19.727   7.865  1.00  0.00    -0.354 N 
ATOM     33  N   UNL     1      -4.578  17.695   9.518  1.00  0.00    -0.248 NA
ATOM     34  C   UNL     1      -4.262  16.621  11.569  1.00  0.00     0.031 C 
ATOM     35  C   UNL     1      -7.696  20.835   8.832  1.00  0.00     0.029 A 
ATOM     36  C   UNL     1      -6.734  19.858   9.050  1.00  0.00     0.049 A 
ATOM     37  H   UNL     1      -5.279  19.116   7.720  1.00  0.00     0.167 HD
ATOM     38  C   UNL     1      -5.526  18.156  10.418  1.00  0.00     0.074 A 
ATOM     39  C   UNL     1      -5.309  17.428  11.654  1.00  0.00     0.031 C 
ATOM     40  C   UNL     1      -6.482  19.104  10.253  1.00  0.00     0.037 A 
BRANCH  27  41
ATOM     41  C   UNL     1      -6.741  21.605   4.585  1.00  0.00     0.057 A 
ATOM     42  C   UNL     1      -7.470  21.120   3.490  1.00  0.00     0.134 A 
ATOM     43  C   UNL     1      -6.621  22.994   4.715  1.00  0.00     0.134 A 
ATOM     44  F   UNL     1      -7.591  19.800   3.285  1.00  0.00    -0.206 F 
ATOM     45  C   UNL     1      -8.033  21.984   2.548  1.00  0.00     0.040 A 
ATOM     46  C   UNL     1      -7.200  23.868   3.794  1.00  0.00     0.040 A 
ATOM     47  F   UNL     1      -5.925  23.525   5.732  1.00  0.00    -0.206 F 
ATOM     48  C   UNL     1      -7.903  23.363   2.702  1.00  0.00     0.006 A 
ENDBRANCH  27  41
BRANCH  28  49
ATOM     49  C   UNL     1      -1.983  15.042  10.582  1.00  0.00     0.057 A 
ATOM     50  C   UNL     1      -2.618  13.904  11.093  1.00  0.00     0.134 A 
ATOM     51  C   UNL     1      -0.656  15.263  10.980  1.00  0.00     0.134 A 
ATOM     52  F   UNL     1      -3.892  13.639  10.770  1.00  0.00    -0.206 F 
ATOM     53  C   UNL     1      -1.973  13.041  11.983  1.00  0.00     0.040 A 
ATOM     54  C   UNL     1       0.012  14.390  11.840  1.00  0.00     0.040 A 
ATOM     55  F   UNL     1       0.019  16.331  10.529  1.00  0.00    -0.206 F 
ATOM     56  C   UNL     1      -0.652  13.281  12.356  1.00  0.00     0.006 A 
ENDBRANCH  28  49
BRANCH  40  57
ATOM     57  C   UNL     1      -7.368  19.369  11.431  1.00  0.00     0.057 A 
ATOM     58  C   UNL     1      -6.902  20.038  12.569  1.00  0.00     0.134 A 
ATOM     59  C   UNL     1      -8.709  18.966  11.412  1.00  0.00     0.134 A 
ATOM     60  F   UNL     1      -5.622  20.433  12.649  1.00  0.00    -0.206 F 
ATOM     61  C   UNL     1      -7.733  20.271  13.663  1.00  0.00     0.040 A 
ATOM     62  C   UNL     1      -9.557  19.221  12.488  1.00  0.00     0.040 A 
ATOM     63  F   UNL     1      -9.215  18.329  10.346  1.00  0.00    -0.206 F 
ATOM     64  C   UNL     1      -9.066  19.867  13.621  1.00  0.00     0.006 A 
ENDBRANCH  40  57
ENDBRANCH  14  15
ENDBRANCH   7   9
ENDBRANCH   6   7
ENDBRANCH   5   6
ENDBRANCH   4   5
ENDBRANCH   3   4
ENDBRANCH   2   3
ENDBRANCH   1   2
BRANCH   1  65
ATOM     65  O   UNL     1       2.205  11.202   1.144  1.00  0.00    -0.377 OA
BRANCH  65  66
ATOM     66  C   UNL     1       0.819  10.934   1.338  1.00  0.00     0.188 C 
BRANCH  66  67
ATOM     67  C   UNL     1       0.194  11.278   2.710  1.00  0.00     0.188 C 
BRANCH  67  68
ATOM     68  O   UNL     1       0.977  12.159   3.504  1.00  0.00    -0.376 OA
BRANCH  68  69
ATOM     69  C   UNL     1       1.564  11.594   4.671  1.00  0.00     0.202 C 
BRANCH  69  70
ATOM     70  C   UNL     1       2.676  10.554   4.457  1.00  0.00     0.261 C 
BRANCH  70  71
ATOM     71  O   UNL     1       2.388   9.495   3.530  1.00  0.00    -0.459 OA
BRANCH  71  72
ATOM     72  C   UNL     1       1.499   8.518   3.871  1.00  0.00     0.349 C 
ATOM     73  O   UNL     1       0.987   8.400   4.958  1.00  0.00    -0.245 OA
BRANCH  72  74
ATOM     74  C   UNL     1       1.240   7.736   2.674  1.00  0.00     0.127 A 
ATOM     75  S   UNL     1      -0.382   7.431   2.192  1.00  0.00    -0.136 S 
ATOM     76  C   UNL     1       2.125   7.236   1.741  1.00  0.00     0.050 A 
ATOM     77  C   UNL     1       0.117   6.946   0.623  1.00  0.00     0.067 A 
ATOM     78  C   UNL     1       1.488   6.834   0.533  1.00  0.00     0.029 A 
BRANCH  76  79
ATOM     79  S   UNL     1       3.849   7.162   1.983  1.00  0.00    -0.020 S 
ATOM     80  O   UNL     1       3.726   6.040   3.128  1.00  0.00    -0.768 OA
ATOM     81  O   UNL     1       4.423   6.489   0.776  1.00  0.00    -0.269 OA
ENDBRANCH  76  79
ENDBRANCH  72  74
ENDBRANCH  71  72
ENDBRANCH  70  71
ENDBRANCH  69  70
ENDBRANCH  68  69
ENDBRANCH  67  68
ENDBRANCH  66  67
ENDBRANCH  65  66
ENDBRANCH   1  65
TORSDOF 21
