REMARK SMILES CCCCCCCCNC(=O)Oc1cccc(-c2ccc([C@@H](C)C(=O)OCCOCCOCCOCCOC(=O)c3ccc(-c4c5nc(c(-c6c(F)cccc6F)c6ccc([nH]6)c(-c6c(F)cccc6F)c6nc(c(-c7c(F)cccc7F)c7ccc4[nH]7)C=C6)C=C5)cc3)cc2F)c1
REMARK SMILES IDX 27 1 26 2 24 3 25 4 22 5 23 6 21 7 18 8 19 9 96 10 20 11
REMARK SMILES IDX 95 12 97 13 17 14 13 15 14 16 98 17 15 18 16 19 12 20 10 21
REMARK SMILES IDX 9 22 11 24 8 25 7 26 6 27 5 28 4 29 3 30 2 31 1 32 28 33
REMARK SMILES IDX 29 34 30 35 31 36 32 37 33 38 34 39 35 40 36 41 37 42 38 43
REMARK SMILES IDX 39 44 40 45 41 46 42 47 94 48 43 49 93 50 44 51 45 52 46 53
REMARK SMILES IDX 87 54 47 55 92 56 86 57 88 58 48 59 91 60 85 61 84 62 49 64
REMARK SMILES IDX 75 65 58 66 74 67 59 68 62 69 73 70 89 71 60 72 61 73 72 75
REMARK SMILES IDX 90 76 63 77 50 78 51 79 56 80 52 81 53 82 55 83 57 84 54 85
REMARK SMILES IDX 76 86 77 87 82 88 78 89 79 90 81 91 83 92 80 93 64 94 65 95
REMARK SMILES IDX 70 96 66 97 67 98 69 99 71 100 68 101
REMARK H PARENT 9 23 88 63 62 74
REMARK Flexibility Score: inf
ROOT
ATOM      1  C   UNL     1     -12.888  -3.353  -9.958  1.00  0.00     0.261 C 
ENDROOT
BRANCH   1   2
ATOM      2  O   UNL     1     -11.676  -3.897 -10.525  1.00  0.00    -0.463 OA
BRANCH   2   3
ATOM      3  C   UNL     1     -11.355  -3.473 -11.770  1.00  0.00     0.313 C 
ATOM      4  O   UNL     1     -12.050  -2.689 -12.416  1.00  0.00    -0.252 OA
BRANCH   3   5
ATOM      5  C   UNL     1     -10.072  -4.051 -12.367  1.00  0.00     0.126 C 
ATOM      6  C   UNL     1     -10.454  -5.006 -13.492  1.00  0.00     0.025 C 
BRANCH   5   7
ATOM      7  C   UNL     1      -8.979  -4.652 -11.483  1.00  0.00    -0.031 A 
ATOM      8  C   UNL     1      -6.847  -5.668  -9.842  1.00  0.00     0.018 A 
ATOM      9  C   UNL     1      -8.136  -6.231  -9.814  1.00  0.00     0.012 A 
ATOM     10  C   UNL     1      -6.652  -4.589 -10.710  1.00  0.00     0.131 A 
ATOM     11  C   UNL     1      -9.184  -5.736 -10.619  1.00  0.00     0.005 A 
ATOM     12  C   UNL     1      -7.682  -4.099 -11.523  1.00  0.00     0.044 A 
ATOM     13  F   UNL     1      -5.450  -3.995 -10.791  1.00  0.00    -0.206 F 
BRANCH   8  14
ATOM     14  C   UNL     1      -5.748  -6.219  -9.022  1.00  0.00    -0.012 A 
ATOM     15  C   UNL     1      -4.003  -5.989  -7.338  1.00  0.00     0.133 A 
ATOM     16  C   UNL     1      -3.623  -7.318  -7.503  1.00  0.00     0.047 A 
ATOM     17  C   UNL     1      -5.040  -5.431  -8.095  1.00  0.00     0.056 A 
ATOM     18  C   UNL     1      -4.307  -8.108  -8.421  1.00  0.00     0.004 A 
ATOM     19  C   UNL     1      -5.358  -7.564  -9.169  1.00  0.00     0.009 A 
BRANCH  15  20
ATOM     20  O   UNL     1      -3.228  -5.205  -6.468  1.00  0.00    -0.410 OA
BRANCH  20  21
ATOM     21  C   UNL     1      -3.881  -4.707  -5.353  1.00  0.00     0.412 C 
ATOM     22  N   UNL     1      -3.077  -3.981  -4.520  1.00  0.00    -0.321 N 
ATOM     23  H   UNL     1      -3.518  -3.552  -3.751  1.00  0.00     0.167 HD
ATOM     24  O   UNL     1      -5.064  -4.876  -5.076  1.00  0.00    -0.224 OA
BRANCH  22  25
ATOM     25  C   UNL     1      -1.649  -3.771  -4.643  1.00  0.00     0.119 C 
BRANCH  25  26
ATOM     26  C   UNL     1      -1.294  -2.290  -4.777  1.00  0.00     0.021 C 
BRANCH  26  27
ATOM     27  C   UNL     1      -1.701  -1.416  -3.582  1.00  0.00     0.002 C 
BRANCH  27  28
ATOM     28  C   UNL     1      -1.113  -1.836  -2.230  1.00  0.00     0.000 C 
BRANCH  28  29
ATOM     29  C   UNL     1       0.417  -1.804  -2.151  1.00  0.00    -0.000 C 
BRANCH  29  30
ATOM     30  C   UNL     1       1.047  -0.417  -2.321  1.00  0.00    -0.000 C 
BRANCH  30  31
ATOM     31  C   UNL     1       0.607   0.632  -1.294  1.00  0.00    -0.003 C 
ATOM     32  C   UNL     1       0.960   0.259   0.138  1.00  0.00     0.004 C 
ENDBRANCH  30  31
ENDBRANCH  29  30
ENDBRANCH  28  29
ENDBRANCH  27  28
ENDBRANCH  26  27
ENDBRANCH  25  26
ENDBRANCH  22  25
ENDBRANCH  20  21
ENDBRANCH  15  20
ENDBRANCH   8  14
ENDBRANCH   5   7
ENDBRANCH   3   5
ENDBRANCH   2   3
ENDBRANCH   1   2
BRANCH   1  33
ATOM     33  C   UNL     1     -12.730  -2.284  -8.861  1.00  0.00     0.202 C 
BRANCH  33  34
ATOM     34  O   UNL     1     -11.878  -1.165  -9.053  1.00  0.00    -0.376 OA
BRANCH  34  35
ATOM     35  C   UNL     1     -10.518  -1.342  -9.427  1.00  0.00     0.188 C 
BRANCH  35  36
ATOM     36  C   UNL     1      -9.701  -2.537  -8.915  1.00  0.00     0.188 C 
BRANCH  36  37
ATOM     37  O   UNL     1     -10.430  -3.495  -8.176  1.00  0.00    -0.377 OA
BRANCH  37  38
ATOM     38  C   UNL     1     -10.274  -3.457  -6.768  1.00  0.00     0.188 C 
BRANCH  38  39
ATOM     39  C   UNL     1     -10.228  -2.068  -6.103  1.00  0.00     0.188 C 
BRANCH  39  40
ATOM     40  O   UNL     1      -9.271  -1.179  -6.670  1.00  0.00    -0.376 OA
BRANCH  40  41
ATOM     41  C   UNL     1      -7.994  -1.071  -6.054  1.00  0.00     0.202 C 
BRANCH  41  42
ATOM     42  C   UNL     1      -7.068  -2.298  -6.099  1.00  0.00     0.261 C 
BRANCH  42  43
ATOM     43  O   UNL     1      -7.601  -3.503  -5.539  1.00  0.00    -0.460 OA
BRANCH  43  44
ATOM     44  C   UNL     1      -7.907  -3.501  -4.224  1.00  0.00     0.338 C 
ATOM     45  O   UNL     1      -7.756  -2.589  -3.439  1.00  0.00    -0.246 OA
BRANCH  44  46
ATOM     46  C   UNL     1      -8.681  -4.731  -3.933  1.00  0.00     0.060 A 
ATOM     47  C   UNL     1      -9.974  -4.592  -3.412  1.00  0.00     0.016 A 
ATOM     48  C   UNL     1      -8.133  -6.000  -4.128  1.00  0.00     0.016 A 
ATOM     49  C   UNL     1     -10.687  -5.717  -3.003  1.00  0.00     0.010 A 
ATOM     50  C   UNL     1      -8.838  -7.129  -3.697  1.00  0.00     0.010 A 
ATOM     51  C   UNL     1     -10.091  -6.983  -3.075  1.00  0.00    -0.014 A 
BRANCH  51  52
ATOM     52  C   UNL     1     -10.658  -8.079  -2.252  1.00  0.00     0.031 A 
ATOM     53  C   UNL     1     -10.050  -8.329  -0.895  1.00  0.00     0.074 A 
ATOM     54  C   UNL     1     -11.732  -8.782  -2.649  1.00  0.00     0.049 A 
ATOM     55  N   UNL     1     -10.387  -9.196   0.025  1.00  0.00    -0.248 NA
ATOM     56  C   UNL     1      -8.903  -7.481  -0.529  1.00  0.00     0.031 C 
ATOM     57  C   UNL     1     -12.439  -8.605  -3.915  1.00  0.00     0.029 A 
ATOM     58  N   UNL     1     -12.418  -9.787  -2.014  1.00  0.00    -0.354 N 
ATOM     59  C   UNL     1      -9.495  -8.998   1.073  1.00  0.00     0.074 A 
ATOM     60  C   UNL     1      -8.576  -7.962   0.659  1.00  0.00     0.031 C 
ATOM     61  C   UNL     1     -13.461  -9.479  -3.966  1.00  0.00     0.029 A 
ATOM     62  C   UNL     1     -13.463 -10.289  -2.749  1.00  0.00     0.049 A 
ATOM     63  H   UNL     1     -12.182 -10.117  -1.117  1.00  0.00     0.167 HD
ATOM     64  C   UNL     1      -9.450  -9.614   2.278  1.00  0.00     0.037 A 
ATOM     65  C   UNL     1     -14.315 -11.294  -2.470  1.00  0.00     0.037 A 
ATOM     66  C   UNL     1     -10.361 -10.650   2.687  1.00  0.00     0.049 A 
ATOM     67  C   UNL     1     -14.206 -12.011  -1.149  1.00  0.00     0.074 A 
ATOM     68  C   UNL     1     -10.404 -11.337   3.887  1.00  0.00     0.029 A 
ATOM     69  N   UNL     1     -11.385 -11.156   1.899  1.00  0.00    -0.354 N 
ATOM     70  N   UNL     1     -13.373 -11.805  -0.156  1.00  0.00    -0.248 NA
ATOM     71  C   UNL     1     -15.170 -13.094  -0.904  1.00  0.00     0.031 C 
ATOM     72  C   UNL     1     -11.418 -12.297   3.804  1.00  0.00     0.029 A 
ATOM     73  C   UNL     1     -12.053 -12.161   2.580  1.00  0.00     0.049 A 
ATOM     74  H   UNL     1     -11.604 -10.846   0.991  1.00  0.00     0.167 HD
ATOM     75  C   UNL     1     -13.739 -12.700   0.844  1.00  0.00     0.074 A 
ATOM     76  C   UNL     1     -14.875 -13.443   0.340  1.00  0.00     0.031 C 
ATOM     77  C   UNL     1     -13.189 -12.887   2.070  1.00  0.00     0.037 A 
BRANCH  64  78
ATOM     78  C   UNL     1      -8.354  -9.204   3.219  1.00  0.00     0.057 A 
ATOM     79  C   UNL     1      -8.327  -7.941   3.829  1.00  0.00     0.134 A 
ATOM     80  C   UNL     1      -7.310 -10.087   3.524  1.00  0.00     0.134 A 
ATOM     81  F   UNL     1      -9.285  -7.039   3.567  1.00  0.00    -0.206 F 
ATOM     82  C   UNL     1      -7.287  -7.562   4.680  1.00  0.00     0.040 A 
ATOM     83  C   UNL     1      -6.282  -9.732   4.399  1.00  0.00     0.040 A 
ATOM     84  F   UNL     1      -7.273 -11.312   2.979  1.00  0.00    -0.206 F 
ATOM     85  C   UNL     1      -6.264  -8.462   4.972  1.00  0.00     0.006 A 
ENDBRANCH  64  78
BRANCH  65  86
ATOM     86  C   UNL     1     -15.352 -11.688  -3.459  1.00  0.00     0.057 A 
ATOM     87  C   UNL     1     -16.715 -11.491  -3.206  1.00  0.00     0.134 A 
ATOM     88  C   UNL     1     -15.005 -12.300  -4.670  1.00  0.00     0.134 A 
ATOM     89  F   UNL     1     -17.114 -10.933  -2.053  1.00  0.00    -0.206 F 
ATOM     90  C   UNL     1     -17.695 -11.908  -4.109  1.00  0.00     0.040 A 
ATOM     91  C   UNL     1     -15.973 -12.695  -5.595  1.00  0.00     0.040 A 
ATOM     92  F   UNL     1     -13.717 -12.517  -4.974  1.00  0.00    -0.206 F 
ATOM     93  C   UNL     1     -17.324 -12.508  -5.311  1.00  0.00     0.006 A 
ENDBRANCH  65  86
BRANCH  77  94
ATOM     94  C   UNL     1     -13.849 -13.889   2.977  1.00  0.00     0.057 A 
ATOM     95  C   UNL     1     -13.820 -15.266   2.721  1.00  0.00     0.134 A 
ATOM     96  C   UNL     1     -14.515 -13.464   4.135  1.00  0.00     0.134 A 
ATOM     97  F   UNL     1     -13.206 -15.743   1.627  1.00  0.00    -0.206 F 
ATOM     98  C   UNL     1     -14.466 -16.178   3.559  1.00  0.00     0.040 A 
ATOM     99  C   UNL     1     -15.134 -14.369   4.998  1.00  0.00     0.040 A 
ATOM    100  F   UNL     1     -14.569 -12.161   4.451  1.00  0.00    -0.206 F 
ATOM    101  C   UNL     1     -15.121 -15.730   4.704  1.00  0.00     0.006 A 
ENDBRANCH  77  94
ENDBRANCH  51  52
ENDBRANCH  44  46
ENDBRANCH  43  44
ENDBRANCH  42  43
ENDBRANCH  41  42
ENDBRANCH  40  41
ENDBRANCH  39  40
ENDBRANCH  38  39
ENDBRANCH  37  38
ENDBRANCH  36  37
ENDBRANCH  35  36
ENDBRANCH  34  35
ENDBRANCH  33  34
ENDBRANCH   1  33
TORSDOF 31
