REMARK SMILES CC(C)CCc1cc2c(cc1Cl)C=C(C(=O)OCCOCCOCCOCCOC(=O)c1ccc(-c3c4nc(c(-c5c(F)cccc5F)c5ccc([nH]5)c(-c5c(F)cccc5F)c5nc(c(-c6c(F)cccc6F)c6ccc3[nH]6)C=C5)C=C4)cc1)[C@H](C(F)(F)F)O2
REMARK SMILES IDX 22 1 21 2 20 3 19 4 18 5 17 6 15 7 16 8 14 9 6 10 7 11 11 12
REMARK SMILES IDX 8 13 10 14 12 15 9 16 91 17 13 18 86 19 5 20 4 21 2 22 1 23
REMARK SMILES IDX 3 24 87 25 88 26 89 27 90 28 23 29 24 30 25 31 26 32 27 33
REMARK SMILES IDX 28 34 29 35 30 36 31 37 32 38 33 39 85 40 34 41 84 42 35 43
REMARK SMILES IDX 36 44 37 45 78 46 38 47 83 48 77 49 79 50 39 51 82 52 76 53
REMARK SMILES IDX 75 54 40 56 66 57 49 58 65 59 50 60 53 61 64 62 80 63 51 64
REMARK SMILES IDX 52 65 63 67 81 68 54 69 41 70 42 71 47 72 43 73 44 74 46 75
REMARK SMILES IDX 48 76 45 77 67 78 68 79 73 80 69 81 70 82 72 83 74 84 71 85
REMARK SMILES IDX 55 86 56 87 61 88 57 89 58 90 60 91 62 92 59 93
REMARK H PARENT 79 55 53 66
REMARK Flexibility Score: inf
ROOT
ATOM      1  C   UNL     1      -1.390   4.488   8.864  1.00  0.00     0.188 C 
ENDROOT
BRANCH   1   2
ATOM      2  C   UNL     1      -0.026   4.689   9.533  1.00  0.00     0.188 C 
BRANCH   2   3
ATOM      3  O   UNL     1       0.001   5.826  10.363  1.00  0.00    -0.376 OA
BRANCH   3   4
ATOM      4  C   UNL     1       0.726   6.982   9.986  1.00  0.00     0.202 C 
BRANCH   4   5
ATOM      5  C   UNL     1       1.044   7.388   8.533  1.00  0.00     0.261 C 
BRANCH   5   6
ATOM      6  O   UNL     1       0.348   6.696   7.492  1.00  0.00    -0.460 OA
BRANCH   6   7
ATOM      7  C   UNL     1       1.112   5.921   6.693  1.00  0.00     0.338 C 
ATOM      8  O   UNL     1       2.320   5.763   6.776  1.00  0.00    -0.246 OA
BRANCH   7   9
ATOM      9  C   UNL     1       0.274   5.152   5.761  1.00  0.00     0.087 C 
ATOM     10  C   UNL     1      -1.225   1.549   2.593  1.00  0.00    -0.026 A 
ATOM     11  C   UNL     1      -1.314   2.955   2.618  1.00  0.00     0.052 A 
ATOM     12  C   UNL     1      -0.688   0.901   3.718  1.00  0.00     0.045 A 
ATOM     13  C   UNL     1      -0.793   3.693   3.679  1.00  0.00     0.128 A 
ATOM     14  C   UNL     1      -0.185   1.642   4.793  1.00  0.00     0.032 A 
ATOM     15  Cl  UNL     1      -0.577  -0.820   3.834  1.00  0.00    -0.084 Cl
ATOM     16  C   UNL     1      -0.211   3.038   4.761  1.00  0.00     0.019 A 
ATOM     17  O   UNL     1      -0.802   5.053   3.536  1.00  0.00    -0.475 OA
ATOM     18  C   UNL     1       0.451   3.823   5.788  1.00  0.00     0.027 C 
ATOM     19  C   UNL     1      -0.551   5.861   4.725  1.00  0.00     0.316 C 
BRANCH  10  20
ATOM     20  C   UNL     1      -1.671   0.813   1.346  1.00  0.00     0.037 C 
BRANCH  20  21
ATOM     21  C   UNL     1      -1.056   1.360   0.042  1.00  0.00     0.008 C 
BRANCH  21  22
ATOM     22  C   UNL     1       0.488   1.383   0.004  1.00  0.00    -0.017 C 
ATOM     23  C   UNL     1       1.085  -0.024   0.001  1.00  0.00     0.007 C 
ATOM     24  C   UNL     1       0.967   2.156  -1.227  1.00  0.00     0.007 C 
ENDBRANCH  21  22
ENDBRANCH  20  21
ENDBRANCH  10  20
BRANCH  19  25
ATOM     25  C   UNL     1      -1.891   6.449   5.199  1.00  0.00     0.430 C 
ATOM     26  F   UNL     1      -2.744   5.503   5.647  1.00  0.00    -0.167 F 
ATOM     27  F   UNL     1      -1.741   7.387   6.159  1.00  0.00    -0.167 F 
ATOM     28  F   UNL     1      -2.511   7.081   4.164  1.00  0.00    -0.167 F 
ENDBRANCH  19  25
ENDBRANCH   7   9
ENDBRANCH   6   7
ENDBRANCH   5   6
ENDBRANCH   4   5
ENDBRANCH   3   4
ENDBRANCH   2   3
ENDBRANCH   1   2
BRANCH   1  29
ATOM     29  O   UNL     1      -2.089   5.649   8.445  1.00  0.00    -0.377 OA
BRANCH  29  30
ATOM     30  C   UNL     1      -2.655   6.524   9.421  1.00  0.00     0.188 C 
BRANCH  30  31
ATOM     31  C   UNL     1      -2.913   6.053  10.866  1.00  0.00     0.188 C 
BRANCH  31  32
ATOM     32  O   UNL     1      -3.481   4.768  11.093  1.00  0.00    -0.376 OA
BRANCH  32  33
ATOM     33  C   UNL     1      -4.484   4.294  10.203  1.00  0.00     0.202 C 
BRANCH  33  34
ATOM     34  C   UNL     1      -5.880   4.853  10.439  1.00  0.00     0.261 C 
BRANCH  34  35
ATOM     35  O   UNL     1      -5.953   6.224  10.026  1.00  0.00    -0.460 OA
BRANCH  35  36
ATOM     36  C   UNL     1      -6.001   7.133  11.027  1.00  0.00     0.338 C 
ATOM     37  O   UNL     1      -6.048   6.924  12.222  1.00  0.00    -0.246 OA
BRANCH  36  38
ATOM     38  C   UNL     1      -5.824   8.475  10.441  1.00  0.00     0.060 A 
ATOM     39  C   UNL     1      -6.531   8.857   9.299  1.00  0.00     0.016 A 
ATOM     40  C   UNL     1      -4.962   9.373  11.083  1.00  0.00     0.016 A 
ATOM     41  C   UNL     1      -6.421  10.165   8.834  1.00  0.00     0.010 A 
ATOM     42  C   UNL     1      -4.853  10.681  10.618  1.00  0.00     0.010 A 
ATOM     43  C   UNL     1      -5.615  11.093   9.517  1.00  0.00    -0.014 A 
BRANCH  43  44
ATOM     44  C   UNL     1      -5.737  12.534   9.203  1.00  0.00     0.031 A 
ATOM     45  C   UNL     1      -4.678  13.271   8.449  1.00  0.00     0.074 A 
ATOM     46  C   UNL     1      -6.837  13.173   9.644  1.00  0.00     0.049 A 
ATOM     47  N   UNL     1      -4.670  14.521   8.060  1.00  0.00    -0.248 NA
ATOM     48  C   UNL     1      -3.470  12.515   8.092  1.00  0.00     0.031 C 
ATOM     49  C   UNL     1      -7.913  12.551  10.421  1.00  0.00     0.029 A 
ATOM     50  N   UNL     1      -7.237  14.474   9.502  1.00  0.00    -0.354 N 
ATOM     51  C   UNL     1      -3.468  14.700   7.390  1.00  0.00     0.074 A 
ATOM     52  C   UNL     1      -2.751  13.443   7.473  1.00  0.00     0.031 C 
ATOM     53  C   UNL     1      -8.865  13.465  10.661  1.00  0.00     0.029 A 
ATOM     54  C   UNL     1      -8.449  14.740  10.090  1.00  0.00     0.049 A 
ATOM     55  H   UNL     1      -6.707  15.153   9.025  1.00  0.00     0.167 HD
ATOM     56  C   UNL     1      -3.018  15.810   6.754  1.00  0.00     0.037 A 
ATOM     57  C   UNL     1      -9.144  15.889  10.166  1.00  0.00     0.037 A 
ATOM     58  C   UNL     1      -3.729  17.066   6.713  1.00  0.00     0.049 A 
ATOM     59  C   UNL     1      -8.583  17.119   9.514  1.00  0.00     0.074 A 
ATOM     60  C   UNL     1      -3.372  18.240   6.073  1.00  0.00     0.029 A 
ATOM     61  N   UNL     1      -4.932  17.317   7.359  1.00  0.00    -0.354 N 
ATOM     62  N   UNL     1      -7.483  17.258   8.813  1.00  0.00    -0.248 NA
ATOM     63  C   UNL     1      -9.363  18.354   9.662  1.00  0.00     0.031 C 
ATOM     64  C   UNL     1      -4.324  19.218   6.384  1.00  0.00     0.029 A 
ATOM     65  C   UNL     1      -5.310  18.638   7.165  1.00  0.00     0.049 A 
ATOM     66  H   UNL     1      -5.442  16.655   7.880  1.00  0.00     0.167 HD
ATOM     67  C   UNL     1      -7.451  18.588   8.418  1.00  0.00     0.074 A 
ATOM     68  C   UNL     1      -8.657  19.204   8.933  1.00  0.00     0.031 C 
ATOM     69  C   UNL     1      -6.507  19.242   7.696  1.00  0.00     0.037 A 
BRANCH  56  70
ATOM     70  C   UNL     1      -1.688  15.716   6.063  1.00  0.00     0.057 A 
ATOM     71  C   UNL     1      -0.583  16.440   6.528  1.00  0.00     0.134 A 
ATOM     72  C   UNL     1      -1.505  14.932   4.916  1.00  0.00     0.134 A 
ATOM     73  F   UNL     1      -0.686  17.220   7.615  1.00  0.00    -0.206 F 
ATOM     74  C   UNL     1       0.654  16.384   5.881  1.00  0.00     0.040 A 
ATOM     75  C   UNL     1      -0.267  14.845   4.277  1.00  0.00     0.040 A 
ATOM     76  F   UNL     1      -2.520  14.208   4.418  1.00  0.00    -0.206 F 
ATOM     77  C   UNL     1       0.817  15.578   4.757  1.00  0.00     0.006 A 
ENDBRANCH  56  70
BRANCH  57  78
ATOM     78  C   UNL     1     -10.444  15.931  10.881  1.00  0.00     0.057 A 
ATOM     79  C   UNL     1     -10.519  15.771  12.270  1.00  0.00     0.134 A 
ATOM     80  C   UNL     1     -11.639  16.165  10.193  1.00  0.00     0.134 A 
ATOM     81  F   UNL     1      -9.410  15.533  12.986  1.00  0.00    -0.206 F 
ATOM     82  C   UNL     1     -11.736  15.842  12.949  1.00  0.00     0.040 A 
ATOM     83  C   UNL     1     -12.859  16.271  10.862  1.00  0.00     0.040 A 
ATOM     84  F   UNL     1     -11.630  16.342   8.863  1.00  0.00    -0.206 F 
ATOM     85  C   UNL     1     -12.909  16.106  12.245  1.00  0.00     0.006 A 
ENDBRANCH  57  78
BRANCH  69  86
ATOM     86  C   UNL     1      -6.763  20.696   7.412  1.00  0.00     0.057 A 
ATOM     87  C   UNL     1      -7.054  21.130   6.112  1.00  0.00     0.134 A 
ATOM     88  C   UNL     1      -6.729  21.667   8.423  1.00  0.00     0.134 A 
ATOM     89  F   UNL     1      -7.096  20.257   5.095  1.00  0.00    -0.206 F 
ATOM     90  C   UNL     1      -7.308  22.473   5.830  1.00  0.00     0.040 A 
ATOM     91  C   UNL     1      -7.015  23.007   8.159  1.00  0.00     0.040 A 
ATOM     92  F   UNL     1      -6.474  21.317   9.693  1.00  0.00    -0.206 F 
ATOM     93  C   UNL     1      -7.300  23.414   6.857  1.00  0.00     0.006 A 
ENDBRANCH  69  86
ENDBRANCH  43  44
ENDBRANCH  36  38
ENDBRANCH  35  36
ENDBRANCH  34  35
ENDBRANCH  33  34
ENDBRANCH  32  33
ENDBRANCH  31  32
ENDBRANCH  30  31
ENDBRANCH  29  30
ENDBRANCH   1  29
TORSDOF 24
