REMARK SMILES Cc1c[nH]c(C[N@@H+](C)[C@@H](C(=O)OCCOCCOCCOCCOC(=O)c2ccc(-c3c4nc(c(-c5c(F)cccc5F)c5ccc([nH]5)c(-c5c(F)cccc5F)c5nc(c(-c6c(F)cccc6F)c6ccc3[nH]6)C=C5)C=C4)cc2)c2ccc(NC(=O)N3CCCC3)cc2)n1
REMARK SMILES IDX 17 1 16 2 15 3 14 4 13 5 12 6 10 7 11 8 9 9 7 10 8 11 6 13
REMARK SMILES IDX 5 14 1 15 2 16 3 17 95 18 4 19 81 21 82 22 94 23 83 24 93 25
REMARK SMILES IDX 84 26 85 27 86 28 87 30 88 31 89 32 92 33 90 34 91 35 18 36
REMARK SMILES IDX 19 37 20 38 21 39 22 40 23 41 24 42 25 43 26 44 27 45 28 46
REMARK SMILES IDX 80 47 29 48 79 49 30 50 31 51 32 52 73 53 33 54 78 55 72 56
REMARK SMILES IDX 74 57 34 58 77 59 71 60 70 61 35 63 61 64 44 65 60 66 45 67
REMARK SMILES IDX 48 68 59 69 75 70 46 71 47 72 58 74 76 75 49 76 36 77 37 78
REMARK SMILES IDX 42 79 38 80 39 81 41 82 43 83 40 84 62 85 63 86 68 87 64 88
REMARK SMILES IDX 65 89 67 90 69 91 66 92 50 93 51 94 56 95 52 96 53 97 55 98
REMARK SMILES IDX 57 99 54 100
REMARK H PARENT 7 12 4 20 85 29 74 62 48 73
REMARK Flexibility Score: inf
ROOT
ATOM      1  C   UNL     1      -4.217  -0.714   0.681  1.00  0.00     0.188 C 
ENDROOT
BRANCH   1   2
ATOM      2  C   UNL     1      -4.743  -1.410   1.931  1.00  0.00     0.188 C 
BRANCH   2   3
ATOM      3  O   UNL     1      -6.139  -1.389   2.122  1.00  0.00    -0.376 OA
BRANCH   3   4
ATOM      4  C   UNL     1      -6.715  -0.155   2.551  1.00  0.00     0.202 C 
BRANCH   4   5
ATOM      5  C   UNL     1      -5.888   0.848   3.386  1.00  0.00     0.261 C 
BRANCH   5   6
ATOM      6  O   UNL     1      -4.697   1.364   2.726  1.00  0.00    -0.459 OA
BRANCH   6   7
ATOM      7  C   UNL     1      -3.662   1.687   3.549  1.00  0.00     0.369 C 
ATOM      8  O   UNL     1      -3.772   1.612   4.775  1.00  0.00    -0.245 OA
BRANCH   7   9
ATOM      9  C   UNL     1      -2.291   2.055   2.888  1.00  0.00     0.326 C 
BRANCH   9  10
ATOM     10  N   UNL     1      -2.241   2.782   1.580  1.00  0.00    -0.316 N 
ATOM     11  C   UNL     1      -3.295   3.793   1.471  1.00  0.00     0.334 C 
ATOM     12  H   UNL     1      -1.289   3.114   1.739  1.00  0.00     0.349 HD
BRANCH  10  13
ATOM     13  C   UNL     1      -2.004   2.176   0.255  1.00  0.00     0.339 C 
BRANCH  13  14
ATOM     14  C   UNL     1      -0.844   1.248  -0.025  1.00  0.00     0.161 A 
ATOM     15  C   UNL     1       2.564   0.224  -0.444  1.00  0.00     0.068 C 
ATOM     16  C   UNL     1       1.089   0.346  -0.426  1.00  0.00     0.056 A 
ATOM     17  C   UNL     1       0.160  -0.625  -0.711  1.00  0.00     0.107 A 
ATOM     18  N   UNL     1       0.452   1.521  -0.068  1.00  0.00    -0.233 NA
ATOM     19  N   UNL     1      -1.047  -0.032  -0.493  1.00  0.00    -0.344 N 
ATOM     20  H   UNL     1      -1.924  -0.451  -0.646  1.00  0.00     0.167 HD
ENDBRANCH  13  14
ENDBRANCH  10  13
ENDBRANCH   9  10
BRANCH   9  21
ATOM     21  C   UNL     1      -1.203   1.010   3.129  1.00  0.00     0.021 A 
ATOM     22  C   UNL     1      -1.472  -0.270   3.621  1.00  0.00     0.012 A 
ATOM     23  C   UNL     1       0.143   1.336   2.906  1.00  0.00     0.012 A 
ATOM     24  C   UNL     1      -0.471  -1.238   3.675  1.00  0.00     0.027 A 
ATOM     25  C   UNL     1       1.135   0.348   2.914  1.00  0.00     0.027 A 
ATOM     26  C   UNL     1       0.795  -0.976   3.170  1.00  0.00     0.042 A 
BRANCH  26  27
ATOM     27  N   UNL     1       1.741  -1.982   2.900  1.00  0.00    -0.308 N 
ATOM     28  C   UNL     1       1.615  -3.340   2.876  1.00  0.00     0.321 C 
ATOM     29  H   UNL     1       2.645  -1.650   2.693  1.00  0.00     0.171 HD
ATOM     30  O   UNL     1       2.620  -4.029   3.059  1.00  0.00    -0.248 OA
ATOM     31  N   UNL     1       0.390  -3.907   2.670  1.00  0.00    -0.325 N 
ATOM     32  C   UNL     1      -0.575  -3.566   1.642  1.00  0.00     0.121 C 
ATOM     33  C   UNL     1       0.048  -5.181   3.259  1.00  0.00     0.121 C 
ATOM     34  C   UNL     1      -1.876  -4.111   2.206  1.00  0.00     0.023 C 
ATOM     35  C   UNL     1      -1.448  -5.351   2.993  1.00  0.00     0.023 C 
ENDBRANCH  26  27
ENDBRANCH   9  21
ENDBRANCH   7   9
ENDBRANCH   6   7
ENDBRANCH   5   6
ENDBRANCH   4   5
ENDBRANCH   3   4
ENDBRANCH   2   3
ENDBRANCH   1   2
BRANCH   1  36
ATOM     36  O   UNL     1      -4.795   0.529   0.324  1.00  0.00    -0.377 OA
BRANCH  36  37
ATOM     37  C   UNL     1      -5.842   0.596  -0.636  1.00  0.00     0.188 C 
BRANCH  37  38
ATOM     38  C   UNL     1      -6.102  -0.643  -1.489  1.00  0.00     0.188 C 
BRANCH  38  39
ATOM     39  O   UNL     1      -5.038  -1.109  -2.323  1.00  0.00    -0.376 OA
BRANCH  39  40
ATOM     40  C   UNL     1      -4.040  -0.193  -2.758  1.00  0.00     0.202 C 
BRANCH  40  41
ATOM     41  C   UNL     1      -4.381   0.643  -3.990  1.00  0.00     0.261 C 
BRANCH  41  42
ATOM     42  O   UNL     1      -5.416   1.598  -3.719  1.00  0.00    -0.460 OA
BRANCH  42  43
ATOM     43  C   UNL     1      -6.656   1.217  -4.093  1.00  0.00     0.338 C 
ATOM     44  O   UNL     1      -6.980   0.177  -4.650  1.00  0.00    -0.246 OA
BRANCH  43  45
ATOM     45  C   UNL     1      -7.633   2.192  -3.587  1.00  0.00     0.060 A 
ATOM     46  C   UNL     1      -8.754   1.711  -2.899  1.00  0.00     0.016 A 
ATOM     47  C   UNL     1      -7.486   3.554  -3.857  1.00  0.00     0.016 A 
ATOM     48  C   UNL     1      -9.765   2.589  -2.524  1.00  0.00     0.010 A 
ATOM     49  C   UNL     1      -8.506   4.431  -3.493  1.00  0.00     0.010 A 
ATOM     50  C   UNL     1      -9.665   3.942  -2.866  1.00  0.00    -0.014 A 
BRANCH  50  51
ATOM     51  C   UNL     1     -10.857   4.809  -2.755  1.00  0.00     0.031 A 
ATOM     52  C   UNL     1     -11.667   5.067  -3.994  1.00  0.00     0.074 A 
ATOM     53  C   UNL     1     -11.210   5.340  -1.573  1.00  0.00     0.049 A 
ATOM     54  N   UNL     1     -12.695   5.856  -4.164  1.00  0.00    -0.248 NA
ATOM     55  C   UNL     1     -11.257   4.339  -5.208  1.00  0.00     0.031 C 
ATOM     56  C   UNL     1     -10.521   5.112  -0.304  1.00  0.00     0.029 A 
ATOM     57  N   UNL     1     -12.232   6.195  -1.256  1.00  0.00    -0.354 N 
ATOM     58  C   UNL     1     -13.045   5.730  -5.503  1.00  0.00     0.074 A 
ATOM     59  C   UNL     1     -12.106   4.813  -6.107  1.00  0.00     0.031 C 
ATOM     60  C   UNL     1     -11.131   5.829   0.656  1.00  0.00     0.029 A 
ATOM     61  C   UNL     1     -12.225   6.592   0.058  1.00  0.00     0.049 A 
ATOM     62  H   UNL     1     -12.907   6.495  -1.907  1.00  0.00     0.167 HD
ATOM     63  C   UNL     1     -14.064   6.326  -6.163  1.00  0.00     0.037 A 
ATOM     64  C   UNL     1     -12.996   7.496   0.691  1.00  0.00     0.037 A 
ATOM     65  C   UNL     1     -14.992   7.237  -5.547  1.00  0.00     0.049 A 
ATOM     66  C   UNL     1     -14.076   8.203  -0.087  1.00  0.00     0.074 A 
ATOM     67  C   UNL     1     -16.071   7.885  -6.118  1.00  0.00     0.029 A 
ATOM     68  N   UNL     1     -14.941   7.632  -4.218  1.00  0.00    -0.354 N 
ATOM     69  N   UNL     1     -14.416   8.066  -1.347  1.00  0.00    -0.248 NA
ATOM     70  C   UNL     1     -14.881   9.190   0.645  1.00  0.00     0.031 C 
ATOM     71  C   UNL     1     -16.638   8.720  -5.150  1.00  0.00     0.029 A 
ATOM     72  C   UNL     1     -15.954   8.539  -3.958  1.00  0.00     0.049 A 
ATOM     73  H   UNL     1     -14.282   7.316  -3.559  1.00  0.00     0.167 HD
ATOM     74  C   UNL     1     -15.495   8.918  -1.547  1.00  0.00     0.074 A 
ATOM     75  C   UNL     1     -15.759   9.559  -0.276  1.00  0.00     0.031 C 
ATOM     76  C   UNL     1     -16.206   9.152  -2.678  1.00  0.00     0.037 A 
BRANCH  63  77
ATOM     77  C   UNL     1     -14.211   6.038  -7.629  1.00  0.00     0.057 A 
ATOM     78  C   UNL     1     -14.634   4.790  -8.104  1.00  0.00     0.134 A 
ATOM     79  C   UNL     1     -13.964   7.039  -8.578  1.00  0.00     0.134 A 
ATOM     80  F   UNL     1     -14.870   3.782  -7.252  1.00  0.00    -0.206 F 
ATOM     81  C   UNL     1     -14.790   4.543  -9.470  1.00  0.00     0.040 A 
ATOM     82  C   UNL     1     -14.144   6.814  -9.943  1.00  0.00     0.040 A 
ATOM     83  F   UNL     1     -13.555   8.257  -8.191  1.00  0.00    -0.206 F 
ATOM     84  C   UNL     1     -14.554   5.561 -10.393  1.00  0.00     0.006 A 
ENDBRANCH  63  77
BRANCH  64  85
ATOM     85  C   UNL     1     -12.768   7.804   2.126  1.00  0.00     0.057 A 
ATOM     86  C   UNL     1     -13.725   7.490   3.098  1.00  0.00     0.134 A 
ATOM     87  C   UNL     1     -11.604   8.454   2.556  1.00  0.00     0.134 A 
ATOM     88  F   UNL     1     -14.869   6.885   2.747  1.00  0.00    -0.206 F 
ATOM     89  C   UNL     1     -13.546   7.834   4.439  1.00  0.00     0.040 A 
ATOM     90  C   UNL     1     -11.399   8.777   3.898  1.00  0.00     0.040 A 
ATOM     91  F   UNL     1     -10.644   8.778   1.677  1.00  0.00    -0.206 F 
ATOM     92  C   UNL     1     -12.378   8.477   4.843  1.00  0.00     0.006 A 
ENDBRANCH  64  85
BRANCH  76  93
ATOM     93  C   UNL     1     -17.370  10.096  -2.578  1.00  0.00     0.057 A 
ATOM     94  C   UNL     1     -17.198  11.475  -2.405  1.00  0.00     0.134 A 
ATOM     95  C   UNL     1     -18.682   9.619  -2.704  1.00  0.00     0.134 A 
ATOM     96  F   UNL     1     -15.969  11.995  -2.268  1.00  0.00    -0.206 F 
ATOM     97  C   UNL     1     -18.289  12.341  -2.332  1.00  0.00     0.040 A 
ATOM     98  C   UNL     1     -19.779  10.479  -2.665  1.00  0.00     0.040 A 
ATOM     99  F   UNL     1     -18.917   8.310  -2.885  1.00  0.00    -0.206 F 
ATOM    100  C   UNL     1     -19.584  11.844  -2.471  1.00  0.00     0.006 A 
ENDBRANCH  76  93
ENDBRANCH  50  51
ENDBRANCH  43  45
ENDBRANCH  42  43
ENDBRANCH  41  42
ENDBRANCH  40  41
ENDBRANCH  39  40
ENDBRANCH  38  39
ENDBRANCH  37  38
ENDBRANCH  36  37
ENDBRANCH   1  36
TORSDOF 25
