REMARK SMILES Cc1c(C(=O)OCCOCCOCCOCCOC(=O)c2ccc(-c3c4nc(c(-c5c(F)cccc5F)c5ccc([nH]5)c(-c5c(F)cccc5F)c5nc(c(-c6c(F)cccc6F)c6ccc3[nH]6)C=C5)C=C4)cc2)cccc1-n1c(C)cc(/C=C2/C(=O)NC(=S)N=C2O)c1C
REMARK SMILES IDX 11 1 10 2 9 3 8 4 7 5 6 6 4 7 5 8 3 9 1 10 2 11 78 12 75 13
REMARK SMILES IDX 77 14 76 15 79 16 80 17 94 18 81 19 82 20 83 21 95 22 84 23
REMARK SMILES IDX 85 24 86 25 92 26 87 27 88 28 91 29 89 30 90 32 93 33 12 35
REMARK SMILES IDX 13 36 14 37 15 38 16 39 17 40 18 41 19 42 20 43 21 44 22 45
REMARK SMILES IDX 74 46 23 47 73 48 24 49 25 50 26 51 67 52 27 53 72 54 66 55
REMARK SMILES IDX 68 56 28 57 71 58 65 59 64 60 29 62 55 63 38 64 54 65 39 66
REMARK SMILES IDX 42 67 53 68 69 69 40 70 41 71 52 73 70 74 43 75 30 76 31 77
REMARK SMILES IDX 36 78 32 79 33 80 35 81 37 82 34 83 56 84 57 85 62 86 58 87
REMARK SMILES IDX 59 88 61 89 63 90 60 91 44 92 45 93 50 94 46 95 47 96 49 97
REMARK SMILES IDX 51 98 48 99
REMARK H PARENT 88 31 93 34 68 61 42 72
REMARK Flexibility Score: inf
ROOT
ATOM      1  C   UNL     1      -0.335  -1.417   2.996  1.00  0.00     0.188 C 
ENDROOT
BRANCH   1   2
ATOM      2  C   UNL     1      -1.256  -2.278   2.128  1.00  0.00     0.188 C 
BRANCH   2   3
ATOM      3  O   UNL     1      -0.957  -3.662   2.006  1.00  0.00    -0.376 OA
BRANCH   3   4
ATOM      4  C   UNL     1      -0.002  -3.989   0.998  1.00  0.00     0.202 C 
BRANCH   4   5
ATOM      5  C   UNL     1      -0.524  -3.874  -0.425  1.00  0.00     0.261 C 
BRANCH   5   6
ATOM      6  O   UNL     1      -0.373  -2.512  -0.836  1.00  0.00    -0.460 OA
BRANCH   6   7
ATOM      7  C   UNL     1      -1.482  -1.925  -1.304  1.00  0.00     0.338 C 
ATOM      8  O   UNL     1      -2.445  -2.505  -1.765  1.00  0.00    -0.246 OA
BRANCH   7   9
ATOM      9  C   UNL     1      -1.498  -0.471  -0.941  1.00  0.00     0.065 A 
ATOM     10  C   UNL     1       0.955  -0.065  -0.192  1.00  0.00     0.047 C 
ATOM     11  C   UNL     1      -0.419   0.381  -0.609  1.00  0.00    -0.012 A 
ATOM     12  C   UNL     1      -0.707   1.746  -0.428  1.00  0.00     0.049 A 
ATOM     13  C   UNL     1      -2.816   0.007  -0.788  1.00  0.00     0.016 A 
ATOM     14  C   UNL     1      -2.023   2.209  -0.302  1.00  0.00     0.027 A 
ATOM     15  C   UNL     1      -3.078   1.321  -0.427  1.00  0.00     0.003 A 
BRANCH  12  16
ATOM     16  N   UNL     1       0.329   2.683  -0.194  1.00  0.00    -0.318 N 
ATOM     17  C   UNL     1       1.252   3.158  -1.111  1.00  0.00     0.020 A 
ATOM     18  C   UNL     1       0.551   3.303   1.029  1.00  0.00     0.027 A 
ATOM     19  C   UNL     1       1.480   2.600  -2.475  1.00  0.00     0.065 C 
ATOM     20  C   UNL     1       1.810   4.289  -0.543  1.00  0.00     0.031 A 
ATOM     21  C   UNL     1       1.278   4.449   0.766  1.00  0.00    -0.003 A 
ATOM     22  C   UNL     1       0.058   2.680   2.293  1.00  0.00     0.065 C 
BRANCH  21  23
ATOM     23  C   UNL     1       1.611   5.541   1.623  1.00  0.00     0.029 C 
ATOM     24  C   UNL     1       0.959   6.106   2.658  1.00  0.00     0.102 C 
ATOM     25  C   UNL     1       1.677   7.205   3.353  1.00  0.00     0.262 C 
ATOM     26  C   UNL     1      -0.327   5.782   3.277  1.00  0.00     0.226 C 
ATOM     27  O   UNL     1       2.621   7.826   2.879  1.00  0.00    -0.269 OA
ATOM     28  N   UNL     1       1.210   7.459   4.616  1.00  0.00    -0.297 N 
ATOM     29  N   UNL     1      -0.713   6.100   4.459  1.00  0.00    -0.184 NA
ATOM     30  C   UNL     1       0.121   6.878   5.216  1.00  0.00     0.203 C 
ATOM     31  H   UNL     1       1.705   8.125   5.145  1.00  0.00     0.172 HD
ATOM     32  S   UNL     1      -0.160   7.227   6.830  1.00  0.00    -0.038 S 
BRANCH  26  33
ATOM     33  O   UNL     1      -1.228   5.162   2.515  1.00  0.00    -0.493 OA
ATOM     34  H   UNL     1      -1.005   4.905   1.642  1.00  0.00     0.295 HD
ENDBRANCH  26  33
ENDBRANCH  21  23
ENDBRANCH  12  16
ENDBRANCH   7   9
ENDBRANCH   6   7
ENDBRANCH   5   6
ENDBRANCH   4   5
ENDBRANCH   3   4
ENDBRANCH   2   3
ENDBRANCH   1   2
BRANCH   1  35
ATOM     35  O   UNL     1       1.033  -1.420   2.601  1.00  0.00    -0.377 OA
BRANCH  35  36
ATOM     36  C   UNL     1       1.901  -1.844   3.644  1.00  0.00     0.188 C 
BRANCH  36  37
ATOM     37  C   UNL     1       1.840  -3.345   3.823  1.00  0.00     0.188 C 
BRANCH  37  38
ATOM     38  O   UNL     1       0.650  -3.907   4.353  1.00  0.00    -0.376 OA
BRANCH  38  39
ATOM     39  C   UNL     1       0.384  -3.782   5.745  1.00  0.00     0.202 C 
BRANCH  39  40
ATOM     40  C   UNL     1       1.586  -4.022   6.667  1.00  0.00     0.261 C 
BRANCH  40  41
ATOM     41  O   UNL     1       2.158  -5.313   6.366  1.00  0.00    -0.460 OA
BRANCH  41  42
ATOM     42  C   UNL     1       3.483  -5.319   6.043  1.00  0.00     0.338 C 
ATOM     43  O   UNL     1       4.338  -4.632   6.579  1.00  0.00    -0.246 OA
BRANCH  42  44
ATOM     44  C   UNL     1       3.664  -5.960   4.695  1.00  0.00     0.060 A 
ATOM     45  C   UNL     1       4.804  -5.624   3.942  1.00  0.00     0.016 A 
ATOM     46  C   UNL     1       2.551  -6.480   4.039  1.00  0.00     0.016 A 
ATOM     47  C   UNL     1       4.747  -5.597   2.536  1.00  0.00     0.010 A 
ATOM     48  C   UNL     1       2.481  -6.373   2.655  1.00  0.00     0.010 A 
ATOM     49  C   UNL     1       3.542  -5.858   1.885  1.00  0.00    -0.014 A 
BRANCH  49  50
ATOM     50  C   UNL     1       3.229  -5.426   0.494  1.00  0.00     0.031 A 
ATOM     51  C   UNL     1       2.458  -6.336  -0.424  1.00  0.00     0.074 A 
ATOM     52  C   UNL     1       3.308  -4.107   0.161  1.00  0.00     0.049 A 
ATOM     53  N   UNL     1       2.038  -6.037  -1.608  1.00  0.00    -0.248 NA
ATOM     54  C   UNL     1       2.021  -7.667  -0.037  1.00  0.00     0.031 C 
ATOM     55  C   UNL     1       2.596  -3.450  -0.928  1.00  0.00     0.029 A 
ATOM     56  N   UNL     1       4.007  -3.032   0.739  1.00  0.00    -0.354 N 
ATOM     57  C   UNL     1       0.991  -6.875  -1.948  1.00  0.00     0.074 A 
ATOM     58  C   UNL     1       1.091  -7.925  -0.963  1.00  0.00     0.031 C 
ATOM     59  C   UNL     1       2.968  -2.177  -1.066  1.00  0.00     0.029 A 
ATOM     60  C   UNL     1       4.147  -2.043  -0.275  1.00  0.00     0.049 A 
ATOM     61  H   UNL     1       4.336  -2.975   1.666  1.00  0.00     0.167 HD
ATOM     62  C   UNL     1       0.105  -6.483  -2.929  1.00  0.00     0.037 A 
ATOM     63  C   UNL     1       5.348  -1.752  -0.854  1.00  0.00     0.037 A 
ATOM     64  C   UNL     1       0.530  -5.200  -3.574  1.00  0.00     0.049 A 
ATOM     65  C   UNL     1       5.353  -2.133  -2.341  1.00  0.00     0.074 A 
ATOM     66  C   UNL     1      -0.057  -3.967  -3.831  1.00  0.00     0.029 A 
ATOM     67  N   UNL     1       1.877  -5.013  -3.905  1.00  0.00    -0.354 N 
ATOM     68  N   UNL     1       4.475  -2.968  -2.858  1.00  0.00    -0.248 NA
ATOM     69  C   UNL     1       6.188  -1.563  -3.390  1.00  0.00     0.031 C 
ATOM     70  C   UNL     1       0.944  -3.061  -4.302  1.00  0.00     0.029 A 
ATOM     71  C   UNL     1       2.149  -3.740  -4.366  1.00  0.00     0.049 A 
ATOM     72  H   UNL     1       2.561  -5.716  -3.819  1.00  0.00     0.167 HD
ATOM     73  C   UNL     1       4.458  -2.900  -4.221  1.00  0.00     0.074 A 
ATOM     74  C   UNL     1       5.654  -2.116  -4.503  1.00  0.00     0.031 C 
ATOM     75  C   UNL     1       3.444  -3.435  -4.984  1.00  0.00     0.037 A 
BRANCH  62  76
ATOM     76  C   UNL     1      -1.273  -7.140  -3.214  1.00  0.00     0.057 A 
ATOM     77  C   UNL     1      -2.218  -6.554  -4.091  1.00  0.00     0.134 A 
ATOM     78  C   UNL     1      -1.755  -8.343  -2.653  1.00  0.00     0.134 A 
ATOM     79  F   UNL     1      -1.933  -5.472  -4.823  1.00  0.00    -0.206 F 
ATOM     80  C   UNL     1      -3.515  -7.066  -4.315  1.00  0.00     0.040 A 
ATOM     81  C   UNL     1      -3.046  -8.867  -2.866  1.00  0.00     0.040 A 
ATOM     82  F   UNL     1      -1.001  -9.140  -1.902  1.00  0.00    -0.206 F 
ATOM     83  C   UNL     1      -3.941  -8.223  -3.692  1.00  0.00     0.006 A 
ENDBRANCH  62  76
BRANCH  63  84
ATOM     84  C   UNL     1       6.381  -1.604   0.215  1.00  0.00     0.057 A 
ATOM     85  C   UNL     1       6.132  -0.536   1.116  1.00  0.00     0.134 A 
ATOM     86  C   UNL     1       6.968  -2.748   0.770  1.00  0.00     0.134 A 
ATOM     87  F   UNL     1       5.603   0.611   0.660  1.00  0.00    -0.206 F 
ATOM     88  C   UNL     1       6.189  -0.706   2.507  1.00  0.00     0.040 A 
ATOM     89  C   UNL     1       7.070  -2.908   2.164  1.00  0.00     0.040 A 
ATOM     90  F   UNL     1       7.242  -3.809  -0.003  1.00  0.00    -0.206 F 
ATOM     91  C   UNL     1       6.603  -1.922   3.034  1.00  0.00     0.006 A 
ENDBRANCH  63  84
BRANCH  75  92
ATOM     92  C   UNL     1       3.554  -3.789  -6.448  1.00  0.00     0.057 A 
ATOM     93  C   UNL     1       4.280  -3.075  -7.395  1.00  0.00     0.134 A 
ATOM     94  C   UNL     1       2.915  -4.958  -6.944  1.00  0.00     0.134 A 
ATOM     95  F   UNL     1       4.732  -1.841  -7.141  1.00  0.00    -0.206 F 
ATOM     96  C   UNL     1       4.531  -3.590  -8.674  1.00  0.00     0.040 A 
ATOM     97  C   UNL     1       3.110  -5.452  -8.229  1.00  0.00     0.040 A 
ATOM     98  F   UNL     1       2.084  -5.704  -6.206  1.00  0.00    -0.206 F 
ATOM     99  C   UNL     1       3.971  -4.796  -9.083  1.00  0.00     0.006 A 
ENDBRANCH  75  92
ENDBRANCH  49  50
ENDBRANCH  42  44
ENDBRANCH  41  42
ENDBRANCH  40  41
ENDBRANCH  39  40
ENDBRANCH  38  39
ENDBRANCH  37  38
ENDBRANCH  36  37
ENDBRANCH  35  36
ENDBRANCH   1  35
TORSDOF 23
