REMARK SMILES Cc1ccccc1-c1c(Cl)ccc2c1C=C(C(=O)OCCOCCOCCOCCOC(=O)c1ccc(-c3c4nc(c(-c5c(F)cccc5F)c5ccc([nH]5)c(-c5c(F)cccc5F)c5nc(c(-c6c(F)cccc6F)c6ccc3[nH]6)C=C5)C=C4)cc1)[C@@H](C(F)(F)F)O2
REMARK SMILES IDX 26 1 25 2 24 3 23 4 22 5 21 6 20 7 19 8 17 9 18 10 16 11
REMARK SMILES IDX 8 12 9 13 14 14 10 15 11 16 13 17 15 18 12 19 93 20 88 21
REMARK SMILES IDX 7 22 1 23 2 24 3 25 4 26 6 27 5 28 89 29 90 30 91 31 92 32
REMARK SMILES IDX 27 33 28 34 29 35 30 36 31 37 32 38 33 39 34 40 35 41 87 42
REMARK SMILES IDX 36 43 86 44 37 45 38 46 39 47 80 48 40 49 85 50 79 51 81 52
REMARK SMILES IDX 41 53 84 54 78 55 77 56 42 58 68 59 51 60 67 61 52 62 55 63
REMARK SMILES IDX 66 64 82 65 53 66 54 67 65 69 83 70 56 71 43 72 44 73 49 74
REMARK SMILES IDX 45 75 46 76 48 77 50 78 47 79 69 80 70 81 75 82 71 83 72 84
REMARK SMILES IDX 74 85 76 86 73 87 57 88 58 89 63 90 59 91 60 92 62 93 64 94
REMARK SMILES IDX 61 95
REMARK H PARENT 81 57 55 68
REMARK Flexibility Score: inf
ROOT
ATOM      1  C   UNL     1       6.784   0.271  -4.947  1.00  0.00     0.188 C 
ENDROOT
BRANCH   1   2
ATOM      2  O   UNL     1       5.865   1.185  -4.344  1.00  0.00    -0.377 OA
BRANCH   2   3
ATOM      3  C   UNL     1       5.477   2.215  -5.243  1.00  0.00     0.188 C 
BRANCH   3   4
ATOM      4  C   UNL     1       5.493   3.634  -4.671  1.00  0.00     0.188 C 
BRANCH   4   5
ATOM      5  O   UNL     1       6.686   4.126  -4.074  1.00  0.00    -0.376 OA
BRANCH   5   6
ATOM      6  C   UNL     1       6.977   3.660  -2.754  1.00  0.00     0.202 C 
BRANCH   6   7
ATOM      7  C   UNL     1       5.982   4.087  -1.683  1.00  0.00     0.261 C 
BRANCH   7   8
ATOM      8  O   UNL     1       4.778   3.316  -1.805  1.00  0.00    -0.460 OA
BRANCH   8   9
ATOM      9  C   UNL     1       3.671   4.077  -1.807  1.00  0.00     0.338 C 
ATOM     10  O   UNL     1       3.623   5.261  -1.508  1.00  0.00    -0.246 OA
BRANCH   9  11
ATOM     11  C   UNL     1       2.597   3.351  -2.582  1.00  0.00     0.087 C 
ATOM     12  C   UNL     1       0.462   2.701   0.213  1.00  0.00     0.012 A 
ATOM     13  C   UNL     1       0.279   3.598   1.284  1.00  0.00     0.049 A 
ATOM     14  C   UNL     1       0.930   3.265  -0.984  1.00  0.00     0.027 A 
ATOM     15  Cl  UNL     1      -0.158   3.040   2.862  1.00  0.00    -0.084 Cl
ATOM     16  C   UNL     1       0.444   4.982   1.110  1.00  0.00     0.025 A 
ATOM     17  C   UNL     1       0.808   4.650  -1.231  1.00  0.00     0.128 A 
ATOM     18  C   UNL     1       1.767   2.501  -1.939  1.00  0.00     0.028 C 
ATOM     19  C   UNL     1       0.623   5.515  -0.167  1.00  0.00     0.049 A 
ATOM     20  O   UNL     1       0.991   5.193  -2.493  1.00  0.00    -0.475 OA
ATOM     21  C   UNL     1       1.876   4.430  -3.373  1.00  0.00     0.316 C 
BRANCH  12  22
ATOM     22  C   UNL     1      -0.108   1.329   0.217  1.00  0.00    -0.013 A 
ATOM     23  C   UNL     1       2.094   0.062   0.522  1.00  0.00     0.045 C 
ATOM     24  C   UNL     1       0.607   0.123   0.358  1.00  0.00    -0.043 A 
ATOM     25  C   UNL     1      -0.076  -1.108   0.276  1.00  0.00     0.004 A 
ATOM     26  C   UNL     1      -1.453  -1.161   0.073  1.00  0.00     0.000 A 
ATOM     27  C   UNL     1      -1.505   1.240   0.007  1.00  0.00     0.009 A 
ATOM     28  C   UNL     1      -2.170   0.017  -0.062  1.00  0.00     0.001 A 
ENDBRANCH  12  22
BRANCH  21  29
ATOM     29  C   UNL     1       1.194   3.885  -4.631  1.00  0.00     0.430 C 
ATOM     30  F   UNL     1       0.875   4.881  -5.491  1.00  0.00    -0.167 F 
ATOM     31  F   UNL     1       2.030   3.052  -5.307  1.00  0.00    -0.167 F 
ATOM     32  F   UNL     1       0.067   3.191  -4.367  1.00  0.00    -0.167 F 
ENDBRANCH  21  29
ENDBRANCH   9  11
ENDBRANCH   8   9
ENDBRANCH   7   8
ENDBRANCH   6   7
ENDBRANCH   5   6
ENDBRANCH   4   5
ENDBRANCH   3   4
ENDBRANCH   2   3
ENDBRANCH   1   2
BRANCH   1  33
ATOM     33  C   UNL     1       8.217   0.739  -4.744  1.00  0.00     0.188 C 
BRANCH  33  34
ATOM     34  O   UNL     1       8.540   2.017  -5.277  1.00  0.00    -0.376 OA
BRANCH  34  35
ATOM     35  C   UNL     1       8.862   2.120  -6.658  1.00  0.00     0.202 C 
BRANCH  35  36
ATOM     36  C   UNL     1      10.033   1.241  -7.121  1.00  0.00     0.261 C 
BRANCH  36  37
ATOM     37  O   UNL     1      11.174   1.474  -6.275  1.00  0.00    -0.460 OA
BRANCH  37  38
ATOM     38  C   UNL     1      11.587   0.403  -5.545  1.00  0.00     0.338 C 
ATOM     39  O   UNL     1      11.691  -0.742  -5.964  1.00  0.00    -0.246 OA
BRANCH  38  40
ATOM     40  C   UNL     1      11.540   0.748  -4.093  1.00  0.00     0.060 A 
ATOM     41  C   UNL     1      11.454  -0.295  -3.153  1.00  0.00     0.016 A 
ATOM     42  C   UNL     1      11.189   2.041  -3.719  1.00  0.00     0.016 A 
ATOM     43  C   UNL     1      10.822  -0.082  -1.919  1.00  0.00     0.010 A 
ATOM     44  C   UNL     1      10.489   2.222  -2.538  1.00  0.00     0.010 A 
ATOM     45  C   UNL     1      10.230   1.156  -1.656  1.00  0.00    -0.014 A 
BRANCH  45  46
ATOM     46  C   UNL     1       9.111   1.365  -0.702  1.00  0.00     0.031 A 
ATOM     47  C   UNL     1       9.036   2.621   0.126  1.00  0.00     0.074 A 
ATOM     48  C   UNL     1       7.994   0.608  -0.875  1.00  0.00     0.049 A 
ATOM     49  N   UNL     1       8.062   2.946   0.912  1.00  0.00    -0.248 NA
ATOM     50  C   UNL     1      10.098   3.629   0.154  1.00  0.00     0.031 C 
ATOM     51  C   UNL     1       6.617   1.044  -0.650  1.00  0.00     0.029 A 
ATOM     52  N   UNL     1       7.816  -0.673  -1.396  1.00  0.00    -0.354 N 
ATOM     53  C   UNL     1       8.198   4.281   1.262  1.00  0.00     0.074 A 
ATOM     54  C   UNL     1       9.536   4.617   0.860  1.00  0.00     0.031 C 
ATOM     55  C   UNL     1       5.753   0.096  -1.032  1.00  0.00     0.029 A 
ATOM     56  C   UNL     1       6.509  -1.119  -1.121  1.00  0.00     0.049 A 
ATOM     57  H   UNL     1       8.500  -1.188  -1.882  1.00  0.00     0.167 HD
ATOM     58  C   UNL     1       7.114   4.977   1.726  1.00  0.00     0.037 A 
ATOM     59  C   UNL     1       6.294  -2.131  -0.224  1.00  0.00     0.037 A 
ATOM     60  C   UNL     1       5.980   4.082   2.007  1.00  0.00     0.049 A 
ATOM     61  C   UNL     1       5.721  -1.679   1.120  1.00  0.00     0.074 A 
ATOM     62  C   UNL     1       4.649   4.079   1.638  1.00  0.00     0.029 A 
ATOM     63  N   UNL     1       6.189   2.887   2.700  1.00  0.00    -0.354 N 
ATOM     64  N   UNL     1       5.667  -0.425   1.507  1.00  0.00    -0.248 NA
ATOM     65  C   UNL     1       5.127  -2.568   2.115  1.00  0.00     0.031 C 
ATOM     66  C   UNL     1       4.086   2.850   2.057  1.00  0.00     0.029 A 
ATOM     67  C   UNL     1       5.063   2.093   2.682  1.00  0.00     0.049 A 
ATOM     68  H   UNL     1       7.032   2.643   3.145  1.00  0.00     0.167 HD
ATOM     69  C   UNL     1       5.122  -0.328   2.757  1.00  0.00     0.074 A 
ATOM     70  C   UNL     1       4.775  -1.700   3.083  1.00  0.00     0.031 C 
ATOM     71  C   UNL     1       5.013   0.851   3.445  1.00  0.00     0.037 A 
BRANCH  58  72
ATOM     72  C   UNL     1       6.949   6.508   1.752  1.00  0.00     0.057 A 
ATOM     73  C   UNL     1       5.799   7.103   2.327  1.00  0.00     0.134 A 
ATOM     74  C   UNL     1       7.795   7.444   1.120  1.00  0.00     0.134 A 
ATOM     75  F   UNL     1       4.911   6.381   3.025  1.00  0.00    -0.206 F 
ATOM     76  C   UNL     1       5.489   8.472   2.221  1.00  0.00     0.040 A 
ATOM     77  C   UNL     1       7.528   8.826   1.065  1.00  0.00     0.040 A 
ATOM     78  F   UNL     1       8.906   7.082   0.473  1.00  0.00    -0.206 F 
ATOM     79  C   UNL     1       6.358   9.344   1.591  1.00  0.00     0.006 A 
ENDBRANCH  58  72
BRANCH  59  80
ATOM     80  C   UNL     1       7.099  -3.335  -0.595  1.00  0.00     0.057 A 
ATOM     81  C   UNL     1       6.699  -3.916  -1.817  1.00  0.00     0.134 A 
ATOM     82  C   UNL     1       8.470  -3.358  -0.308  1.00  0.00     0.134 A 
ATOM     83  F   UNL     1       5.394  -3.986  -2.126  1.00  0.00    -0.206 F 
ATOM     84  C   UNL     1       7.622  -4.195  -2.828  1.00  0.00     0.040 A 
ATOM     85  C   UNL     1       9.406  -3.663  -1.309  1.00  0.00     0.040 A 
ATOM     86  F   UNL     1       8.929  -2.880   0.858  1.00  0.00    -0.206 F 
ATOM     87  C   UNL     1       8.979  -4.005  -2.594  1.00  0.00     0.006 A 
ENDBRANCH  59  80
BRANCH  71  88
ATOM     88  C   UNL     1       4.815   0.962   4.942  1.00  0.00     0.057 A 
ATOM     89  C   UNL     1       5.265  -0.005   5.853  1.00  0.00     0.134 A 
ATOM     90  C   UNL     1       4.355   2.165   5.530  1.00  0.00     0.134 A 
ATOM     91  F   UNL     1       5.835  -1.146   5.442  1.00  0.00    -0.206 F 
ATOM     92  C   UNL     1       5.213   0.185   7.240  1.00  0.00     0.040 A 
ATOM     93  C   UNL     1       4.350   2.385   6.910  1.00  0.00     0.040 A 
ATOM     94  F   UNL     1       3.924   3.199   4.794  1.00  0.00    -0.206 F 
ATOM     95  C   UNL     1       4.769   1.387   7.773  1.00  0.00     0.006 A 
ENDBRANCH  71  88
ENDBRANCH  45  46
ENDBRANCH  38  40
ENDBRANCH  37  38
ENDBRANCH  36  37
ENDBRANCH  35  36
ENDBRANCH  34  35
ENDBRANCH  33  34
ENDBRANCH   1  33
TORSDOF 22
