REMARK SMILES CC[NH2+][C@H](CC[N@H+]1C[C@@H]2CCCC[N@H+]2C[C@@H]1C)C(=O)OCCOCCOCCOCCOC(=O)c1ccc(-c2c3nc(c(-c4c(F)cccc4F)c4ccc([nH]4)c(-c4c(F)cccc4F)c4nc(c(-c5c(F)cccc5F)c5ccc2[nH]5)C=C4)C=C3)cc1
REMARK SMILES IDX 25 1 24 2 23 3 22 4 21 5 20 6 18 7 19 8 4 9 3 10 2 13 1 14
REMARK SMILES IDX 5 15 6 16 7 17 8 18 16 19 9 21 15 22 17 23 10 24 14 25 11 26
REMARK SMILES IDX 13 27 12 29 26 30 27 31 28 32 29 33 30 34 31 35 32 36 33 37
REMARK SMILES IDX 34 38 35 39 36 40 88 41 37 42 87 43 38 44 39 45 40 46 81 47
REMARK SMILES IDX 41 48 86 49 80 50 82 51 42 52 85 53 79 54 78 55 43 57 69 58
REMARK SMILES IDX 52 59 68 60 53 61 56 62 67 63 83 64 54 65 55 66 66 68 84 69
REMARK SMILES IDX 57 70 44 71 45 72 50 73 46 74 47 75 49 76 51 77 48 78 70 79
REMARK SMILES IDX 71 80 76 81 72 82 73 83 75 84 77 85 74 86 58 87 59 88 64 89
REMARK SMILES IDX 60 90 61 91 63 92 65 93 62 94
REMARK H PARENT 3 11 3 12 7 20 14 28 82 56 56 67
REMARK Flexibility Score: inf
ROOT
ATOM      1  C   UNL     1       0.902  -5.907  -1.140  1.00  0.00     0.188 C 
ENDROOT
BRANCH   1   2
ATOM      2  C   UNL     1       0.530  -6.446  -2.501  1.00  0.00     0.188 C 
BRANCH   2   3
ATOM      3  O   UNL     1       1.402  -7.439  -3.007  1.00  0.00    -0.376 OA
BRANCH   3   4
ATOM      4  C   UNL     1       2.777  -7.057  -3.110  1.00  0.00     0.202 C 
BRANCH   4   5
ATOM      5  C   UNL     1       3.080  -5.678  -3.759  1.00  0.00     0.261 C 
BRANCH   5   6
ATOM      6  O   UNL     1       2.518  -4.501  -3.087  1.00  0.00    -0.459 OA
BRANCH   6   7
ATOM      7  C   UNL     1       1.724  -3.682  -3.831  1.00  0.00     0.365 C 
ATOM      8  O   UNL     1       1.567  -3.828  -5.045  1.00  0.00    -0.245 OA
BRANCH   7   9
ATOM      9  C   UNL     1       0.819  -2.663  -3.036  1.00  0.00     0.299 C 
BRANCH   9  10
ATOM     10  N   UNL     1       0.476  -1.521  -3.937  1.00  0.00    -0.335 N 
ATOM     11  H   UNL     1       0.621  -1.841  -4.895  1.00  0.00     0.347 HD
ATOM     12  H   UNL     1      -0.481  -1.282  -3.678  1.00  0.00     0.347 HD
BRANCH  10  13
ATOM     13  C   UNL     1       1.203  -0.266  -3.791  1.00  0.00     0.257 C 
ATOM     14  C   UNL     1       1.593   0.343  -5.139  1.00  0.00     0.071 C 
ENDBRANCH  10  13
ENDBRANCH   9  10
BRANCH   9  15
ATOM     15  C   UNL     1       1.042  -2.335  -1.528  1.00  0.00     0.139 C 
BRANCH  15  16
ATOM     16  C   UNL     1      -0.310  -2.100  -0.764  1.00  0.00     0.269 C 
BRANCH  16  17
ATOM     17  N   UNL     1      -0.480  -2.658   0.578  1.00  0.00    -0.323 N 
ATOM     18  C   UNL     1      -1.255  -3.871   0.827  1.00  0.00     0.328 C 
ATOM     19  C   UNL     1       0.287  -2.168   1.716  1.00  0.00     0.236 C 
ATOM     20  H   UNL     1      -1.183  -1.953   0.357  1.00  0.00     0.348 HD
ATOM     21  C   UNL     1      -0.441  -4.934   1.633  1.00  0.00     0.239 C 
ATOM     22  C   UNL     1       1.498  -3.113   2.111  1.00  0.00     0.328 C 
ATOM     23  C   UNL     1      -0.706  -1.910   2.880  1.00  0.00     0.081 C 
ATOM     24  C   UNL     1      -1.403  -6.468   2.215  1.00  0.00     0.071 C 
ATOM     25  N   UNL     1       1.138  -4.498   2.392  1.00  0.00    -0.323 N 
ATOM     26  C   UNL     1      -0.484  -7.860   3.133  1.00  0.00     0.012 C 
ATOM     27  C   UNL     1       2.147  -5.840   3.248  1.00  0.00     0.262 C 
ATOM     28  H   UNL     1       1.648  -4.476   3.275  1.00  0.00     0.348 HD
ATOM     29  C   UNL     1       1.282  -7.526   3.809  1.00  0.00     0.062 C 
ENDBRANCH  16  17
ENDBRANCH  15  16
ENDBRANCH   9  15
ENDBRANCH   7   9
ENDBRANCH   6   7
ENDBRANCH   5   6
ENDBRANCH   4   5
ENDBRANCH   3   4
ENDBRANCH   2   3
ENDBRANCH   1   2
BRANCH   1  30
ATOM     30  O   UNL     1       2.276  -5.872  -0.845  1.00  0.00    -0.377 OA
BRANCH  30  31
ATOM     31  C   UNL     1       2.641  -6.072   0.503  1.00  0.00     0.188 C 
BRANCH  31  32
ATOM     32  C   UNL     1       1.740  -7.037   1.359  1.00  0.00     0.188 C 
BRANCH  32  33
ATOM     33  O   UNL     1       0.597  -6.456   2.309  1.00  0.00    -0.376 OA
BRANCH  33  34
ATOM     34  C   UNL     1       0.157  -5.574   3.954  1.00  0.00     0.202 C 
BRANCH  34  35
ATOM     35  C   UNL     1       1.071  -4.410   5.012  1.00  0.00     0.261 C 
BRANCH  35  36
ATOM     36  O   UNL     1       2.473  -3.844   4.734  1.00  0.00    -0.460 OA
BRANCH  36  37
ATOM     37  C   UNL     1       3.597  -4.335   5.378  1.00  0.00     0.338 C 
ATOM     38  O   UNL     1       3.560  -4.943   6.434  1.00  0.00    -0.246 OA
BRANCH  37  39
ATOM     39  C   UNL     1       4.856  -4.418   4.502  1.00  0.00     0.060 A 
ATOM     40  C   UNL     1       5.262  -5.672   3.979  1.00  0.00     0.016 A 
ATOM     41  C   UNL     1       5.772  -3.372   4.389  1.00  0.00     0.016 A 
ATOM     42  C   UNL     1       6.510  -5.879   3.345  1.00  0.00     0.010 A 
ATOM     43  C   UNL     1       7.061  -3.595   3.823  1.00  0.00     0.010 A 
ATOM     44  C   UNL     1       7.460  -4.857   3.327  1.00  0.00    -0.014 A 
BRANCH  44  45
ATOM     45  C   UNL     1       8.918  -5.172   3.112  1.00  0.00     0.031 A 
ATOM     46  C   UNL     1       9.752  -5.498   4.335  1.00  0.00     0.074 A 
ATOM     47  C   UNL     1       9.526  -5.198   1.908  1.00  0.00     0.049 A 
ATOM     48  N   UNL     1      11.052  -5.599   4.471  1.00  0.00    -0.248 NA
ATOM     49  C   UNL     1       9.002  -5.744   5.576  1.00  0.00     0.031 C 
ATOM     50  C   UNL     1       8.867  -5.044   0.615  1.00  0.00     0.029 A 
ATOM     51  N   UNL     1      10.862  -5.347   1.582  1.00  0.00    -0.354 N 
ATOM     52  C   UNL     1      11.273  -5.876   5.817  1.00  0.00     0.074 A 
ATOM     53  C   UNL     1       9.975  -5.938   6.452  1.00  0.00     0.031 C 
ATOM     54  C   UNL     1       9.799  -5.060  -0.358  1.00  0.00     0.029 A 
ATOM     55  C   UNL     1      11.130  -5.174   0.242  1.00  0.00     0.049 A 
ATOM     56  H   UNL     1      11.557  -5.556   2.247  1.00  0.00     0.167 HD
ATOM     57  C   UNL     1      12.446  -6.047   6.476  1.00  0.00     0.037 A 
ATOM     58  C   UNL     1      12.305  -5.068  -0.418  1.00  0.00     0.037 A 
ATOM     59  C   UNL     1      13.744  -5.991   5.854  1.00  0.00     0.049 A 
ATOM     60  C   UNL     1      13.609  -5.149   0.344  1.00  0.00     0.074 A 
ATOM     61  C   UNL     1      14.989  -6.141   6.440  1.00  0.00     0.029 A 
ATOM     62  N   UNL     1      13.962  -5.765   4.505  1.00  0.00    -0.354 N 
ATOM     63  N   UNL     1      13.810  -5.358   1.623  1.00  0.00    -0.248 NA
ATOM     64  C   UNL     1      14.850  -4.965  -0.429  1.00  0.00     0.031 C 
ATOM     65  C   UNL     1      15.963  -5.949   5.454  1.00  0.00     0.029 A 
ATOM     66  C   UNL     1      15.322  -5.743   4.243  1.00  0.00     0.049 A 
ATOM     67  H   UNL     1      13.255  -5.638   3.832  1.00  0.00     0.167 HD
ATOM     68  C   UNL     1      15.191  -5.363   1.801  1.00  0.00     0.074 A 
ATOM     69  C   UNL     1      15.781  -5.144   0.498  1.00  0.00     0.031 C 
ATOM     70  C   UNL     1      15.904  -5.536   2.941  1.00  0.00     0.037 A 
BRANCH  57  71
ATOM     71  C   UNL     1      12.382  -6.244   7.966  1.00  0.00     0.057 A 
ATOM     72  C   UNL     1      11.902  -7.424   8.548  1.00  0.00     0.134 A 
ATOM     73  C   UNL     1      12.828  -5.235   8.832  1.00  0.00     0.134 A 
ATOM     74  F   UNL     1      11.446  -8.425   7.779  1.00  0.00    -0.206 F 
ATOM     75  C   UNL     1      11.839  -7.582   9.935  1.00  0.00     0.040 A 
ATOM     76  C   UNL     1      12.797  -5.393  10.219  1.00  0.00     0.040 A 
ATOM     77  F   UNL     1      13.307  -4.081   8.344  1.00  0.00    -0.206 F 
ATOM     78  C   UNL     1      12.293  -6.566  10.774  1.00  0.00     0.006 A 
ENDBRANCH  57  71
BRANCH  58  79
ATOM     79  C   UNL     1      12.324  -4.812  -1.888  1.00  0.00     0.057 A 
ATOM     80  C   UNL     1      12.822  -5.761  -2.791  1.00  0.00     0.134 A 
ATOM     81  C   UNL     1      11.882  -3.594  -2.422  1.00  0.00     0.134 A 
ATOM     82  F   UNL     1      13.303  -6.930  -2.344  1.00  0.00    -0.206 F 
ATOM     83  C   UNL     1      12.881  -5.509  -4.165  1.00  0.00     0.040 A 
ATOM     84  C   UNL     1      11.909  -3.340  -3.796  1.00  0.00     0.040 A 
ATOM     85  F   UNL     1      11.413  -2.631  -1.615  1.00  0.00    -0.206 F 
ATOM     86  C   UNL     1      12.414  -4.298  -4.672  1.00  0.00     0.006 A 
ENDBRANCH  58  79
BRANCH  70  87
ATOM     87  C   UNL     1      17.404  -5.550   2.833  1.00  0.00     0.057 A 
ATOM     88  C   UNL     1      18.144  -4.387   2.583  1.00  0.00     0.134 A 
ATOM     89  C   UNL     1      18.119  -6.739   3.029  1.00  0.00     0.134 A 
ATOM     90  F   UNL     1      17.523  -3.216   2.377  1.00  0.00    -0.206 F 
ATOM     91  C   UNL     1      19.539  -4.412   2.507  1.00  0.00     0.040 A 
ATOM     92  C   UNL     1      19.514  -6.771   2.984  1.00  0.00     0.040 A 
ATOM     93  F   UNL     1      17.474  -7.887   3.286  1.00  0.00    -0.206 F 
ATOM     94  C   UNL     1      20.228  -5.606   2.715  1.00  0.00     0.006 A 
ENDBRANCH  70  87
ENDBRANCH  44  45
ENDBRANCH  37  39
ENDBRANCH  36  37
ENDBRANCH  35  36
ENDBRANCH  34  35
ENDBRANCH  33  34
ENDBRANCH  32  33
ENDBRANCH  31  32
ENDBRANCH  30  31
ENDBRANCH   1  30
TORSDOF 25
