REMARK SMILES COc1cccc(C(=O)Nc2ccc(NC(=O)[C@@H]3[C@@H](C(=O)OCCOCCOCCOCCOC(=O)c4ccc(-c5c6nc(c(-c7c(F)cccc7F)c7ccc([nH]7)c(-c7c(F)cccc7F)c7nc(c(-c8c(F)cccc8F)c8ccc5[nH]8)C=C7)C=C6)cc4)[C@@H]4C=C[C@H]3C4)cc2)c1
REMARK SMILES IDX 26 1 25 2 24 3 23 4 22 5 20 6 21 7 19 8 18 9 94 10 91 11
REMARK SMILES IDX 93 12 95 13 92 14 16 15 15 16 17 18 14 19 11 20 12 21 97 22
REMARK SMILES IDX 13 23 96 24 10 25 8 26 9 27 7 29 3 30 4 31 98 32 5 33 6 34
REMARK SMILES IDX 2 35 1 36 27 37 28 38 29 39 30 40 31 41 32 42 33 43 34 44
REMARK SMILES IDX 35 45 36 46 37 47 38 48 90 49 39 50 89 51 40 52 41 53 42 54
REMARK SMILES IDX 83 55 43 56 88 57 82 58 84 59 44 60 87 61 81 62 80 63 45 65
REMARK SMILES IDX 71 66 54 67 70 68 55 69 58 70 69 71 85 72 56 73 57 74 68 76
REMARK SMILES IDX 86 77 59 78 46 79 47 80 52 81 48 82 49 83 51 84 53 85 50 86
REMARK SMILES IDX 72 87 73 88 78 89 74 90 75 91 77 92 79 93 76 94 60 95 61 96
REMARK SMILES IDX 66 97 62 98 63 99 65 100 67 101 64 102
REMARK H PARENT 15 17 10 28 84 64 58 75
REMARK Flexibility Score: inf
ROOT
ATOM      1  C   UNL     1       8.869  -3.296   1.981  1.00  0.00     0.188 C 
ENDROOT
BRANCH   1   2
ATOM      2  O   UNL     1       9.654  -2.131   1.867  1.00  0.00    -0.376 OA
BRANCH   2   3
ATOM      3  C   UNL     1       9.214  -1.053   1.067  1.00  0.00     0.202 C 
BRANCH   3   4
ATOM      4  C   UNL     1       7.743  -0.796   0.677  1.00  0.00     0.261 C 
BRANCH   4   5
ATOM      5  O   UNL     1       6.766  -1.844   0.875  1.00  0.00    -0.463 OA
BRANCH   5   6
ATOM      6  C   UNL     1       6.446  -2.643  -0.163  1.00  0.00     0.310 C 
ATOM      7  O   UNL     1       6.982  -2.550  -1.261  1.00  0.00    -0.252 OA
BRANCH   6   8
ATOM      8  C   UNL     1       5.399  -3.717   0.147  1.00  0.00     0.119 C 
ATOM      9  C   UNL     1       4.055  -3.350   0.832  1.00  0.00     0.100 C 
ATOM     10  C   UNL     1       3.698  -4.651   1.615  1.00  0.00     0.025 C 
ATOM     11  C   UNL     1       5.838  -4.941   1.002  1.00  0.00     0.027 C 
ATOM     12  C   UNL     1       3.772  -5.912   0.784  1.00  0.00    -0.027 C 
ATOM     13  C   UNL     1       5.039  -4.814   2.323  1.00  0.00     0.017 C 
ATOM     14  C   UNL     1       5.057  -6.110   0.450  1.00  0.00    -0.027 C 
BRANCH   9  15
ATOM     15  C   UNL     1       3.034  -2.906  -0.175  1.00  0.00     0.228 C 
ATOM     16  N   UNL     1       3.140  -1.680  -0.770  1.00  0.00    -0.326 N 
ATOM     17  H   UNL     1       2.658  -1.630  -1.627  1.00  0.00     0.169 HD
ATOM     18  O   UNL     1       2.123  -3.648  -0.546  1.00  0.00    -0.274 OA
BRANCH  16  19
ATOM     19  C   UNL     1       3.784  -0.472  -0.435  1.00  0.00     0.041 A 
ATOM     20  C   UNL     1       4.599   2.136   0.216  1.00  0.00     0.041 A 
ATOM     21  C   UNL     1       4.847   1.098   1.095  1.00  0.00     0.028 A 
ATOM     22  C   UNL     1       4.056   1.875  -1.039  1.00  0.00     0.028 A 
ATOM     23  C   UNL     1       4.379  -0.179   0.792  1.00  0.00     0.028 A 
ATOM     24  C   UNL     1       3.673   0.568  -1.369  1.00  0.00     0.028 A 
BRANCH  20  25
ATOM     25  N   UNL     1       4.743   3.420   0.733  1.00  0.00    -0.322 N 
ATOM     26  C   UNL     1       3.752   4.353   0.965  1.00  0.00     0.255 C 
ATOM     27  O   UNL     1       4.075   5.417   1.498  1.00  0.00    -0.269 OA
ATOM     28  H   UNL     1       5.661   3.696   0.960  1.00  0.00     0.170 HD
BRANCH  26  29
ATOM     29  C   UNL     1       2.307   4.113   0.649  1.00  0.00     0.043 A 
ATOM     30  C   UNL     1       0.353   2.706   0.270  1.00  0.00     0.119 A 
ATOM     31  C   UNL     1      -0.370   3.843  -0.092  1.00  0.00     0.046 A 
ATOM     32  C   UNL     1       1.670   2.858   0.706  1.00  0.00     0.060 A 
ATOM     33  C   UNL     1       0.209   5.109  -0.031  1.00  0.00     0.005 A 
ATOM     34  C   UNL     1       1.548   5.242   0.324  1.00  0.00     0.014 A 
BRANCH  30  35
ATOM     35  O   UNL     1      -0.348   1.543   0.131  1.00  0.00    -0.497 OA
ATOM     36  C   UNL     1       0.253   0.295   0.442  1.00  0.00     0.278 C 
ENDBRANCH  30  35
ENDBRANCH  26  29
ENDBRANCH  20  25
ENDBRANCH  16  19
ENDBRANCH   9  15
ENDBRANCH   6   8
ENDBRANCH   5   6
ENDBRANCH   4   5
ENDBRANCH   3   4
ENDBRANCH   2   3
ENDBRANCH   1   2
BRANCH   1  37
ATOM     37  C   UNL     1       7.764  -3.179   3.050  1.00  0.00     0.188 C 
BRANCH  37  38
ATOM     38  O   UNL     1       8.074  -2.942   4.406  1.00  0.00    -0.377 OA
BRANCH  38  39
ATOM     39  C   UNL     1       9.245  -2.211   4.639  1.00  0.00     0.188 C 
BRANCH  39  40
ATOM     40  C   UNL     1      10.493  -3.097   4.755  1.00  0.00     0.188 C 
BRANCH  40  41
ATOM     41  O   UNL     1      10.482  -4.499   4.510  1.00  0.00    -0.376 OA
BRANCH  41  42
ATOM     42  C   UNL     1       9.397  -5.364   4.798  1.00  0.00     0.202 C 
BRANCH  42  43
ATOM     43  C   UNL     1       8.653  -5.400   6.141  1.00  0.00     0.261 C 
BRANCH  43  44
ATOM     44  O   UNL     1       8.458  -4.156   6.807  1.00  0.00    -0.460 OA
BRANCH  44  45
ATOM     45  C   UNL     1       9.428  -3.821   7.680  1.00  0.00     0.338 C 
ATOM     46  O   UNL     1      10.433  -4.456   7.963  1.00  0.00    -0.246 OA
BRANCH  45  47
ATOM     47  C   UNL     1       9.172  -2.449   8.140  1.00  0.00     0.060 A 
ATOM     48  C   UNL     1      10.167  -1.484   7.931  1.00  0.00     0.016 A 
ATOM     49  C   UNL     1       7.966  -2.115   8.761  1.00  0.00     0.016 A 
ATOM     50  C   UNL     1       9.963  -0.175   8.341  1.00  0.00     0.010 A 
ATOM     51  C   UNL     1       7.786  -0.815   9.230  1.00  0.00     0.010 A 
ATOM     52  C   UNL     1       8.799   0.143   9.048  1.00  0.00    -0.014 A 
BRANCH  52  53
ATOM     53  C   UNL     1       8.789   1.384   9.843  1.00  0.00     0.031 A 
ATOM     54  C   UNL     1       9.262   1.291  11.265  1.00  0.00     0.074 A 
ATOM     55  C   UNL     1       8.422   2.557   9.303  1.00  0.00     0.049 A 
ATOM     56  N   UNL     1       9.301   2.211  12.190  1.00  0.00    -0.248 NA
ATOM     57  C   UNL     1       9.763  -0.026  11.700  1.00  0.00     0.031 C 
ATOM     58  C   UNL     1       8.021   2.763   7.913  1.00  0.00     0.029 A 
ATOM     59  N   UNL     1       8.325   3.798   9.874  1.00  0.00    -0.354 N 
ATOM     60  C   UNL     1       9.823   1.584  13.314  1.00  0.00     0.074 A 
ATOM     61  C   UNL     1      10.057   0.201  12.970  1.00  0.00     0.031 C 
ATOM     62  C   UNL     1       7.701   4.058   7.743  1.00  0.00     0.029 A 
ATOM     63  C   UNL     1       7.841   4.756   9.020  1.00  0.00     0.049 A 
ATOM     64  H   UNL     1       8.579   3.984  10.807  1.00  0.00     0.167 HD
ATOM     65  C   UNL     1      10.090   2.121  14.526  1.00  0.00     0.037 A 
ATOM     66  C   UNL     1       7.522   6.041   9.264  1.00  0.00     0.037 A 
ATOM     67  C   UNL     1       9.837   3.496  14.857  1.00  0.00     0.049 A 
ATOM     68  C   UNL     1       7.727   6.589  10.654  1.00  0.00     0.074 A 
ATOM     69  C   UNL     1      10.050   4.147  16.057  1.00  0.00     0.029 A 
ATOM     70  N   UNL     1       9.303   4.429  13.980  1.00  0.00    -0.354 N 
ATOM     71  N   UNL     1       8.220   5.996  11.716  1.00  0.00    -0.248 NA
ATOM     72  C   UNL     1       7.332   7.986  10.879  1.00  0.00     0.031 C 
ATOM     73  C   UNL     1       9.594   5.462  15.922  1.00  0.00     0.029 A 
ATOM     74  C   UNL     1       9.159   5.647  14.619  1.00  0.00     0.049 A 
ATOM     75  H   UNL     1       9.062   4.250  13.042  1.00  0.00     0.167 HD
ATOM     76  C   UNL     1       8.234   6.957  12.720  1.00  0.00     0.074 A 
ATOM     77  C   UNL     1       7.706   8.173  12.137  1.00  0.00     0.031 C 
ATOM     78  C   UNL     1       8.649   6.848  14.007  1.00  0.00     0.037 A 
BRANCH  65  79
ATOM     79  C   UNL     1      10.645   1.208  15.578  1.00  0.00     0.057 A 
ATOM     80  C   UNL     1      11.944   0.688  15.501  1.00  0.00     0.134 A 
ATOM     81  C   UNL     1       9.871   0.851  16.689  1.00  0.00     0.134 A 
ATOM     82  F   UNL     1      12.729   0.970  14.451  1.00  0.00    -0.206 F 
ATOM     83  C   UNL     1      12.444  -0.173  16.480  1.00  0.00     0.040 A 
ATOM     84  C   UNL     1      10.371   0.017  17.690  1.00  0.00     0.040 A 
ATOM     85  F   UNL     1       8.617   1.310  16.823  1.00  0.00    -0.206 F 
ATOM     86  C   UNL     1      11.659  -0.503  17.583  1.00  0.00     0.006 A 
ENDBRANCH  65  79
BRANCH  66  87
ATOM     87  C   UNL     1       6.960   6.894   8.185  1.00  0.00     0.057 A 
ATOM     88  C   UNL     1       7.664   7.999   7.692  1.00  0.00     0.134 A 
ATOM     89  C   UNL     1       5.691   6.647   7.645  1.00  0.00     0.134 A 
ATOM     90  F   UNL     1       8.876   8.300   8.182  1.00  0.00    -0.206 F 
ATOM     91  C   UNL     1       7.118   8.843   6.723  1.00  0.00     0.040 A 
ATOM     92  C   UNL     1       5.146   7.465   6.654  1.00  0.00     0.040 A 
ATOM     93  F   UNL     1       4.965   5.603   8.070  1.00  0.00    -0.206 F 
ATOM     94  C   UNL     1       5.856   8.573   6.198  1.00  0.00     0.006 A 
ENDBRANCH  66  87
BRANCH  78  95
ATOM     95  C   UNL     1       8.610   8.089  14.852  1.00  0.00     0.057 A 
ATOM     96  C   UNL     1       7.408   8.649  15.301  1.00  0.00     0.134 A 
ATOM     97  C   UNL     1       9.803   8.696  15.269  1.00  0.00     0.134 A 
ATOM     98  F   UNL     1       6.232   8.121  14.931  1.00  0.00    -0.206 F 
ATOM     99  C   UNL     1       7.393   9.784  16.113  1.00  0.00     0.040 A 
ATOM    100  C   UNL     1       9.801   9.811  16.107  1.00  0.00     0.040 A 
ATOM    101  F   UNL     1      10.990   8.202  14.886  1.00  0.00    -0.206 F 
ATOM    102  C   UNL     1       8.592  10.362  16.526  1.00  0.00     0.006 A 
ENDBRANCH  78  95
ENDBRANCH  52  53
ENDBRANCH  45  47
ENDBRANCH  44  45
ENDBRANCH  43  44
ENDBRANCH  42  43
ENDBRANCH  41  42
ENDBRANCH  40  41
ENDBRANCH  39  40
ENDBRANCH  38  39
ENDBRANCH  37  38
ENDBRANCH   1  37
TORSDOF 25
