REMARK SMILES Cc1ccc(NC(=O)[C@@H]2[C@@H](C(=O)OCCOCCOCCOCCOC(=O)c3ccc(-c4c5nc(c(-c6c(F)cccc6F)c6ccc([nH]6)c(-c6c(F)cccc6F)c6nc(c(-c7c(F)cccc7F)c7ccc4[nH]7)C=C6)C=C5)cc3)[C@@H]3C=C[C@H]2C3)cc1NC(=O)c1ccc(Cl)cc1
REMARK SMILES IDX 18 1 17 2 16 3 15 4 14 5 13 6 11 7 12 8 10 9 9 10 85 11
REMARK SMILES IDX 82 12 84 13 86 14 83 15 7 16 6 17 8 19 5 20 1 21 2 22 3 23
REMARK SMILES IDX 88 24 4 25 87 26 89 27 90 28 91 30 92 31 93 32 98 33 94 34
REMARK SMILES IDX 97 35 95 36 96 37 19 38 20 39 21 40 22 41 23 42 24 43 25 44
REMARK SMILES IDX 26 45 27 46 28 47 29 48 81 49 30 50 80 51 31 52 32 53 33 54
REMARK SMILES IDX 74 55 34 56 79 57 73 58 75 59 35 60 78 61 72 62 71 63 36 65
REMARK SMILES IDX 62 66 45 67 61 68 46 69 49 70 60 71 76 72 47 73 48 74 59 76
REMARK SMILES IDX 77 77 50 78 37 79 38 80 43 81 39 82 40 83 42 84 44 85 41 86
REMARK SMILES IDX 63 87 64 88 69 89 65 90 66 91 68 92 70 93 67 94 51 95 52 96
REMARK SMILES IDX 57 97 53 98 54 99 56 100 58 101 55 102
REMARK H PARENT 6 18 89 29 75 64 49 75
REMARK Flexibility Score: inf
ROOT
ATOM      1  C   UNL     1      -4.971  -6.815  -1.427  1.00  0.00     0.188 C 
ENDROOT
BRANCH   1   2
ATOM      2  C   UNL     1      -4.698  -5.432  -2.004  1.00  0.00     0.188 C 
BRANCH   2   3
ATOM      3  O   UNL     1      -4.572  -5.317  -3.417  1.00  0.00    -0.376 OA
BRANCH   3   4
ATOM      4  C   UNL     1      -3.438  -4.533  -3.815  1.00  0.00     0.202 C 
BRANCH   4   5
ATOM      5  C   UNL     1      -3.340  -3.095  -3.284  1.00  0.00     0.261 C 
BRANCH   5   6
ATOM      6  O   UNL     1      -3.236  -3.038  -1.847  1.00  0.00    -0.463 OA
BRANCH   6   7
ATOM      7  C   UNL     1      -4.369  -2.616  -1.242  1.00  0.00     0.310 C 
ATOM      8  O   UNL     1      -5.292  -2.073  -1.818  1.00  0.00    -0.252 OA
BRANCH   7   9
ATOM      9  C   UNL     1      -4.419  -2.916   0.239  1.00  0.00     0.119 C 
ATOM     10  C   UNL     1      -3.686  -1.827   1.003  1.00  0.00     0.100 C 
ATOM     11  C   UNL     1      -3.446  -2.500   2.377  1.00  0.00     0.025 C 
ATOM     12  C   UNL     1      -3.794  -4.181   0.947  1.00  0.00     0.027 C 
ATOM     13  C   UNL     1      -4.590  -3.350   2.915  1.00  0.00    -0.027 C 
ATOM     14  C   UNL     1      -2.622  -3.664   1.814  1.00  0.00     0.017 C 
ATOM     15  C   UNL     1      -4.728  -4.417   2.108  1.00  0.00    -0.027 C 
BRANCH  10  16
ATOM     16  C   UNL     1      -4.209  -0.424   0.941  1.00  0.00     0.228 C 
ATOM     17  N   UNL     1      -3.288   0.583   0.726  1.00  0.00    -0.326 N 
ATOM     18  H   UNL     1      -3.688   1.443   0.465  1.00  0.00     0.169 HD
ATOM     19  O   UNL     1      -5.411  -0.170   0.957  1.00  0.00    -0.274 OA
BRANCH  17  20
ATOM     20  C   UNL     1      -1.871   0.608   0.811  1.00  0.00     0.043 A 
ATOM     21  C   UNL     1       2.453   0.917   1.187  1.00  0.00     0.046 C 
ATOM     22  C   UNL     1       0.970   0.836   0.990  1.00  0.00    -0.027 A 
ATOM     23  C   UNL     1       0.308  -0.267   1.511  1.00  0.00     0.008 A 
ATOM     24  C   UNL     1       0.192   1.838   0.391  1.00  0.00     0.046 A 
ATOM     25  C   UNL     1      -1.086  -0.327   1.486  1.00  0.00     0.026 A 
ATOM     26  C   UNL     1      -1.203   1.680   0.231  1.00  0.00     0.052 A 
BRANCH  24  27
ATOM     27  N   UNL     1       0.793   3.069   0.091  1.00  0.00    -0.322 N 
ATOM     28  C   UNL     1       0.305   4.331   0.366  1.00  0.00     0.255 C 
ATOM     29  H   UNL     1       1.663   3.029  -0.369  1.00  0.00     0.170 HD
ATOM     30  O   UNL     1       0.856   5.324  -0.105  1.00  0.00    -0.269 OA
BRANCH  28  31
ATOM     31  C   UNL     1      -0.850   4.504   1.300  1.00  0.00     0.040 A 
ATOM     32  C   UNL     1      -1.795   5.490   1.009  1.00  0.00     0.015 A 
ATOM     33  C   UNL     1      -1.032   3.689   2.431  1.00  0.00     0.015 A 
ATOM     34  C   UNL     1      -2.955   5.593   1.783  1.00  0.00     0.021 A 
ATOM     35  C   UNL     1      -2.215   3.754   3.168  1.00  0.00     0.021 A 
ATOM     36  C   UNL     1      -3.175   4.704   2.837  1.00  0.00     0.041 A 
ATOM     37  Cl  UNL     1      -4.640   4.779   3.732  1.00  0.00    -0.084 Cl
ENDBRANCH  28  31
ENDBRANCH  24  27
ENDBRANCH  17  20
ENDBRANCH  10  16
ENDBRANCH   7   9
ENDBRANCH   6   7
ENDBRANCH   5   6
ENDBRANCH   4   5
ENDBRANCH   3   4
ENDBRANCH   2   3
ENDBRANCH   1   2
BRANCH   1  38
ATOM     38  O   UNL     1      -3.846  -7.498  -0.854  1.00  0.00    -0.377 OA
BRANCH  38  39
ATOM     39  C   UNL     1      -2.632  -7.470  -1.591  1.00  0.00     0.188 C 
BRANCH  39  40
ATOM     40  C   UNL     1      -2.625  -8.370  -2.812  1.00  0.00     0.188 C 
BRANCH  40  41
ATOM     41  O   UNL     1      -3.603  -8.047  -3.788  1.00  0.00    -0.376 OA
BRANCH  41  42
ATOM     42  C   UNL     1      -4.585  -9.047  -4.071  1.00  0.00     0.202 C 
BRANCH  42  43
ATOM     43  C   UNL     1      -4.041 -10.435  -4.446  1.00  0.00     0.261 C 
BRANCH  43  44
ATOM     44  O   UNL     1      -3.147 -10.322  -5.567  1.00  0.00    -0.460 OA
BRANCH  44  45
ATOM     45  C   UNL     1      -1.829 -10.480  -5.289  1.00  0.00     0.338 C 
ATOM     46  O   UNL     1      -1.351 -11.329  -4.536  1.00  0.00    -0.246 OA
BRANCH  45  47
ATOM     47  C   UNL     1      -1.071  -9.276  -5.736  1.00  0.00     0.060 A 
ATOM     48  C   UNL     1       0.246  -9.091  -5.276  1.00  0.00     0.016 A 
ATOM     49  C   UNL     1      -1.803  -8.184  -6.192  1.00  0.00     0.016 A 
ATOM     50  C   UNL     1       0.736  -7.796  -5.053  1.00  0.00     0.010 A 
ATOM     51  C   UNL     1      -1.362  -6.922  -5.856  1.00  0.00     0.010 A 
ATOM     52  C   UNL     1      -0.125  -6.713  -5.222  1.00  0.00    -0.014 A 
BRANCH  52  53
ATOM     53  C   UNL     1       0.027  -5.392  -4.580  1.00  0.00     0.031 A 
ATOM     54  C   UNL     1      -0.261  -4.159  -5.394  1.00  0.00     0.074 A 
ATOM     55  C   UNL     1       0.062  -5.347  -3.220  1.00  0.00     0.049 A 
ATOM     56  N   UNL     1      -0.314  -2.958  -4.938  1.00  0.00    -0.248 NA
ATOM     57  C   UNL     1      -0.554  -4.189  -6.828  1.00  0.00     0.031 C 
ATOM     58  C   UNL     1      -0.358  -4.244  -2.355  1.00  0.00     0.029 A 
ATOM     59  N   UNL     1       0.425  -6.295  -2.278  1.00  0.00    -0.354 N 
ATOM     60  C   UNL     1      -0.880  -2.121  -5.889  1.00  0.00     0.074 A 
ATOM     61  C   UNL     1      -0.984  -2.943  -7.062  1.00  0.00     0.031 C 
ATOM     62  C   UNL     1      -0.106  -4.515  -1.066  1.00  0.00     0.029 A 
ATOM     63  C   UNL     1       0.725  -5.687  -1.052  1.00  0.00     0.049 A 
ATOM     64  H   UNL     1       0.465  -7.264  -2.447  1.00  0.00     0.167 HD
ATOM     65  C   UNL     1      -1.266  -0.863  -5.507  1.00  0.00     0.037 A 
ATOM     66  C   UNL     1       2.010  -5.627  -0.580  1.00  0.00     0.037 A 
ATOM     67  C   UNL     1      -0.700  -0.577  -4.186  1.00  0.00     0.049 A 
ATOM     68  C   UNL     1       2.628  -4.242  -0.811  1.00  0.00     0.074 A 
ATOM     69  C   UNL     1      -1.257  -0.461  -2.927  1.00  0.00     0.029 A 
ATOM     70  N   UNL     1       0.678  -0.715  -3.996  1.00  0.00    -0.354 N 
ATOM     71  N   UNL     1       2.164  -3.383  -1.693  1.00  0.00    -0.248 NA
ATOM     72  C   UNL     1       3.689  -3.646  -0.001  1.00  0.00     0.031 C 
ATOM     73  C   UNL     1      -0.252  -0.861  -2.008  1.00  0.00     0.029 A 
ATOM     74  C   UNL     1       0.961  -0.964  -2.667  1.00  0.00     0.049 A 
ATOM     75  H   UNL     1       1.353  -0.644  -4.710  1.00  0.00     0.167 HD
ATOM     76  C   UNL     1       2.738  -2.152  -1.522  1.00  0.00     0.074 A 
ATOM     77  C   UNL     1       3.726  -2.385  -0.479  1.00  0.00     0.031 C 
ATOM     78  C   UNL     1       2.332  -1.015  -2.178  1.00  0.00     0.037 A 
BRANCH  65  79
ATOM     79  C   UNL     1      -2.291   0.054  -6.179  1.00  0.00     0.057 A 
ATOM     80  C   UNL     1      -2.700   1.259  -5.556  1.00  0.00     0.134 A 
ATOM     81  C   UNL     1      -2.998  -0.220  -7.367  1.00  0.00     0.134 A 
ATOM     82  F   UNL     1      -2.131   1.692  -4.422  1.00  0.00    -0.206 F 
ATOM     83  C   UNL     1      -3.726   2.087  -6.049  1.00  0.00     0.040 A 
ATOM     84  C   UNL     1      -4.007   0.614  -7.887  1.00  0.00     0.040 A 
ATOM     85  F   UNL     1      -2.781  -1.320  -8.090  1.00  0.00    -0.206 F 
ATOM     86  C   UNL     1      -4.385   1.768  -7.223  1.00  0.00     0.006 A 
ENDBRANCH  65  79
BRANCH  66  87
ATOM     87  C   UNL     1       2.596  -7.004  -0.536  1.00  0.00     0.057 A 
ATOM     88  C   UNL     1       1.895  -7.877   0.331  1.00  0.00     0.134 A 
ATOM     89  C   UNL     1       3.108  -7.571  -1.708  1.00  0.00     0.134 A 
ATOM     90  F   UNL     1       1.437  -7.420   1.508  1.00  0.00    -0.206 F 
ATOM     91  C   UNL     1       1.425  -9.119  -0.106  1.00  0.00     0.040 A 
ATOM     92  C   UNL     1       2.675  -8.838  -2.136  1.00  0.00     0.040 A 
ATOM     93  F   UNL     1       3.832  -6.832  -2.559  1.00  0.00    -0.206 F 
ATOM     94  C   UNL     1       1.763  -9.573  -1.376  1.00  0.00     0.006 A 
ENDBRANCH  66  87
BRANCH  78  95
ATOM     95  C   UNL     1       3.110   0.284  -2.253  1.00  0.00     0.057 A 
ATOM     96  C   UNL     1       4.501   0.356  -2.140  1.00  0.00     0.134 A 
ATOM     97  C   UNL     1       2.470   1.517  -2.542  1.00  0.00     0.134 A 
ATOM     98  F   UNL     1       5.247  -0.747  -1.989  1.00  0.00    -0.206 F 
ATOM     99  C   UNL     1       5.191   1.573  -2.195  1.00  0.00     0.040 A 
ATOM    100  C   UNL     1       3.154   2.726  -2.661  1.00  0.00     0.040 A 
ATOM    101  F   UNL     1       1.144   1.621  -2.707  1.00  0.00    -0.206 F 
ATOM    102  C   UNL     1       4.519   2.761  -2.456  1.00  0.00     0.006 A 
ENDBRANCH  78  95
ENDBRANCH  52  53
ENDBRANCH  45  47
ENDBRANCH  44  45
ENDBRANCH  43  44
ENDBRANCH  42  43
ENDBRANCH  41  42
ENDBRANCH  40  41
ENDBRANCH  39  40
ENDBRANCH  38  39
ENDBRANCH   1  38
TORSDOF 24
