REMARK SMILES CN(CCCC(=O)OCCOCCOCCOCCOC(=O)c1ccc(-c2c3nc(c(-c4c(F)cccc4F)c4ccc([nH]4)c(-c4c(F)cccc4F)c4nc(c(-c5c(F)cccc5F)c5ccc2[nH]5)C=C4)C=C3)cc1)C(=O)c1ccc(Br)o1
REMARK SMILES IDX 12 1 11 2 10 3 9 4 8 5 6 6 7 7 5 8 4 9 3 10 2 11 1 12 77 13
REMARK SMILES IDX 78 14 79 15 80 16 84 17 81 18 82 19 83 20 13 21 14 22 15 23
REMARK SMILES IDX 16 24 17 25 18 26 19 27 20 28 21 29 22 30 23 31 24 32 76 33
REMARK SMILES IDX 25 34 75 35 26 36 27 37 28 38 69 39 29 40 74 41 68 42 70 43
REMARK SMILES IDX 30 44 73 45 67 46 66 47 31 49 57 50 40 51 56 52 41 53 44 54
REMARK SMILES IDX 55 55 71 56 42 57 43 58 54 60 72 61 45 62 32 63 33 64 38 65
REMARK SMILES IDX 34 66 35 67 37 68 39 69 36 70 58 71 59 72 64 73 60 74 61 75
REMARK SMILES IDX 63 76 65 77 62 78 46 79 47 80 52 81 48 82 49 83 51 84 53 85
REMARK SMILES IDX 50 86
REMARK H PARENT 70 48 44 59
REMARK Flexibility Score: inf
ROOT
ATOM      1  C   UNL     1      -2.180   6.422  -1.704  1.00  0.00     0.188 C 
ENDROOT
BRANCH   1   2
ATOM      2  O   UNL     1      -0.970   7.051  -2.082  1.00  0.00    -0.376 OA
BRANCH   2   3
ATOM      3  C   UNL     1       0.070   7.141  -1.133  1.00  0.00     0.202 C 
BRANCH   3   4
ATOM      4  C   UNL     1       0.612   5.871  -0.480  1.00  0.00     0.261 C 
BRANCH   4   5
ATOM      5  O   UNL     1      -0.254   4.739  -0.393  1.00  0.00    -0.463 OA
BRANCH   5   6
ATOM      6  C   UNL     1      -1.124   4.627   0.631  1.00  0.00     0.305 C 
ATOM      7  O   UNL     1      -1.428   5.543   1.383  1.00  0.00    -0.252 OA
BRANCH   6   8
ATOM      8  C   UNL     1      -1.750   3.241   0.707  1.00  0.00     0.124 C 
BRANCH   8   9
ATOM      9  C   UNL     1      -1.170   2.139  -0.183  1.00  0.00     0.033 C 
BRANCH   9  10
ATOM     10  C   UNL     1       0.355   1.986  -0.234  1.00  0.00     0.120 C 
BRANCH  10  11
ATOM     11  N   UNL     1       0.961   1.290   0.899  1.00  0.00    -0.339 N 
ATOM     12  C   UNL     1       1.370  -0.085   0.652  1.00  0.00     0.147 C 
BRANCH  11  13
ATOM     13  C   UNL     1       1.493   1.871   2.068  1.00  0.00     0.289 C 
ATOM     14  O   UNL     1       2.266   1.219   2.773  1.00  0.00    -0.265 OA
BRANCH  13  15
ATOM     15  C   UNL     1       1.079   3.188   2.508  1.00  0.00     0.193 A 
ATOM     16  C   UNL     1       0.106   3.545   3.429  1.00  0.00     0.057 A 
ATOM     17  O   UNL     1       1.865   4.281   2.243  1.00  0.00    -0.444 OA
ATOM     18  C   UNL     1       0.274   4.922   3.704  1.00  0.00     0.059 A 
ATOM     19  C   UNL     1       1.383   5.316   2.994  1.00  0.00     0.170 A 
ATOM     20  Br  UNL     1       2.112   7.038   3.047  1.00  0.00    -0.008 Br
ENDBRANCH  13  15
ENDBRANCH  11  13
ENDBRANCH  10  11
ENDBRANCH   9  10
ENDBRANCH   8   9
ENDBRANCH   6   8
ENDBRANCH   5   6
ENDBRANCH   4   5
ENDBRANCH   3   4
ENDBRANCH   2   3
ENDBRANCH   1   2
BRANCH   1  21
ATOM     21  C   UNL     1      -2.364   5.008  -2.296  1.00  0.00     0.188 C 
BRANCH  21  22
ATOM     22  O   UNL     1      -1.268   4.359  -2.933  1.00  0.00    -0.377 OA
BRANCH  22  23
ATOM     23  C   UNL     1      -0.476   5.082  -3.874  1.00  0.00     0.188 C 
BRANCH  23  24
ATOM     24  C   UNL     1      -1.107   6.231  -4.696  1.00  0.00     0.188 C 
BRANCH  24  25
ATOM     25  O   UNL     1      -2.511   6.360  -4.569  1.00  0.00    -0.376 OA
BRANCH  25  26
ATOM     26  C   UNL     1      -3.334   5.728  -5.536  1.00  0.00     0.202 C 
BRANCH  26  27
ATOM     27  C   UNL     1      -3.153   4.221  -5.787  1.00  0.00     0.261 C 
BRANCH  27  28
ATOM     28  O   UNL     1      -1.839   3.788  -6.176  1.00  0.00    -0.460 OA
BRANCH  28  29
ATOM     29  C   UNL     1      -1.296   4.335  -7.281  1.00  0.00     0.338 C 
ATOM     30  O   UNL     1      -1.816   5.133  -8.048  1.00  0.00    -0.246 OA
BRANCH  29  31
ATOM     31  C   UNL     1       0.131   3.964  -7.305  1.00  0.00     0.060 A 
ATOM     32  C   UNL     1       1.104   4.971  -7.224  1.00  0.00     0.016 A 
ATOM     33  C   UNL     1       0.503   2.622  -7.402  1.00  0.00     0.016 A 
ATOM     34  C   UNL     1       2.456   4.641  -7.278  1.00  0.00     0.010 A 
ATOM     35  C   UNL     1       1.857   2.295  -7.493  1.00  0.00     0.010 A 
ATOM     36  C   UNL     1       2.833   3.308  -7.472  1.00  0.00    -0.014 A 
BRANCH  36  37
ATOM     37  C   UNL     1       4.216   3.004  -7.905  1.00  0.00     0.031 A 
ATOM     38  C   UNL     1       4.470   2.858  -9.380  1.00  0.00     0.074 A 
ATOM     39  C   UNL     1       5.223   2.890  -7.024  1.00  0.00     0.049 A 
ATOM     40  N   UNL     1       5.567   2.525 -10.008  1.00  0.00    -0.248 NA
ATOM     41  C   UNL     1       3.323   3.120 -10.268  1.00  0.00     0.031 C 
ATOM     42  C   UNL     1       5.110   3.073  -5.579  1.00  0.00     0.029 A 
ATOM     43  N   UNL     1       6.544   2.580  -7.226  1.00  0.00    -0.354 N 
ATOM     44  C   UNL     1       5.241   2.528 -11.358  1.00  0.00     0.074 A 
ATOM     45  C   UNL     1       3.839   2.865 -11.460  1.00  0.00     0.031 C 
ATOM     46  C   UNL     1       6.313   2.852  -5.020  1.00  0.00     0.029 A 
ATOM     47  C   UNL     1       7.266   2.477  -6.063  1.00  0.00     0.049 A 
ATOM     48  H   UNL     1       6.936   2.445  -8.119  1.00  0.00     0.167 HD
ATOM     49  C   UNL     1       6.042   2.277 -12.420  1.00  0.00     0.037 A 
ATOM     50  C   UNL     1       8.543   2.093  -5.869  1.00  0.00     0.037 A 
ATOM     51  C   UNL     1       7.435   1.937 -12.311  1.00  0.00     0.049 A 
ATOM     52  C   UNL     1       9.392   1.728  -7.061  1.00  0.00     0.074 A 
ATOM     53  C   UNL     1       8.339   1.673 -13.324  1.00  0.00     0.029 A 
ATOM     54  N   UNL     1       8.122   1.804 -11.114  1.00  0.00    -0.354 N 
ATOM     55  N   UNL     1       9.083   1.746  -8.336  1.00  0.00    -0.248 NA
ATOM     56  C   UNL     1      10.768   1.289  -6.786  1.00  0.00     0.031 C 
ATOM     57  C   UNL     1       9.557   1.319 -12.737  1.00  0.00     0.029 A 
ATOM     58  C   UNL     1       9.432   1.430 -11.361  1.00  0.00     0.049 A 
ATOM     59  H   UNL     1       7.736   1.954 -10.220  1.00  0.00     0.167 HD
ATOM     60  C   UNL     1      10.233   1.355  -9.014  1.00  0.00     0.074 A 
ATOM     61  C   UNL     1      11.248   1.119  -8.009  1.00  0.00     0.031 C 
ATOM     62  C   UNL     1      10.432   1.208 -10.348  1.00  0.00     0.037 A 
BRANCH  49  63
ATOM     63  C   UNL     1       5.417   2.323 -13.784  1.00  0.00     0.057 A 
ATOM     64  C   UNL     1       4.992   3.522 -14.370  1.00  0.00     0.134 A 
ATOM     65  C   UNL     1       5.258   1.149 -14.531  1.00  0.00     0.134 A 
ATOM     66  F   UNL     1       5.097   4.681 -13.701  1.00  0.00    -0.206 F 
ATOM     67  C   UNL     1       4.409   3.549 -15.638  1.00  0.00     0.040 A 
ATOM     68  C   UNL     1       4.705   1.166 -15.812  1.00  0.00     0.040 A 
ATOM     69  F   UNL     1       5.643  -0.035 -14.030  1.00  0.00    -0.206 F 
ATOM     70  C   UNL     1       4.272   2.369 -16.366  1.00  0.00     0.006 A 
ENDBRANCH  49  63
BRANCH  50  71
ATOM     71  C   UNL     1       9.096   2.007  -4.493  1.00  0.00     0.057 A 
ATOM     72  C   UNL     1      10.118   2.862  -4.065  1.00  0.00     0.134 A 
ATOM     73  C   UNL     1       8.638   1.047  -3.581  1.00  0.00     0.134 A 
ATOM     74  F   UNL     1      10.618   3.786  -4.898  1.00  0.00    -0.206 F 
ATOM     75  C   UNL     1      10.678   2.754  -2.790  1.00  0.00     0.040 A 
ATOM     76  C   UNL     1       9.168   0.947  -2.294  1.00  0.00     0.040 A 
ATOM     77  F   UNL     1       7.661   0.195  -3.928  1.00  0.00    -0.206 F 
ATOM     78  C   UNL     1      10.198   1.797  -1.899  1.00  0.00     0.006 A 
ENDBRANCH  50  71
BRANCH  62  79
ATOM     79  C   UNL     1      11.810   0.815 -10.803  1.00  0.00     0.057 A 
ATOM     80  C   UNL     1      12.329  -0.467 -10.586  1.00  0.00     0.134 A 
ATOM     81  C   UNL     1      12.607   1.722 -11.514  1.00  0.00     0.134 A 
ATOM     82  F   UNL     1      11.622  -1.381  -9.905  1.00  0.00    -0.206 F 
ATOM     83  C   UNL     1      13.602  -0.824 -11.036  1.00  0.00     0.040 A 
ATOM     84  C   UNL     1      13.867   1.367 -11.997  1.00  0.00     0.040 A 
ATOM     85  F   UNL     1      12.167   2.964 -11.770  1.00  0.00    -0.206 F 
ATOM     86  C   UNL     1      14.371   0.092 -11.751  1.00  0.00     0.006 A 
ENDBRANCH  62  79
ENDBRANCH  36  37
ENDBRANCH  29  31
ENDBRANCH  28  29
ENDBRANCH  27  28
ENDBRANCH  26  27
ENDBRANCH  25  26
ENDBRANCH  24  25
ENDBRANCH  23  24
ENDBRANCH  22  23
ENDBRANCH  21  22
ENDBRANCH   1  21
TORSDOF 25
