REMARK SMILES Cc1ccc(NC(=O)C[N@H+]2CCC[C@@H](C(=O)OCCOCCOCCOCCOC(=O)c3ccc(-c4c5nc(c(-c6c(F)cccc6F)c6ccc([nH]6)c(-c6c(F)cccc6F)c6nc(c(-c7c(F)cccc7F)c7ccc4[nH]7)C=C6)C=C5)cc3)C2)cc1F
REMARK SMILES IDX 22 1 21 2 20 3 19 4 18 5 17 6 15 7 16 8 14 9 10 10 11 11
REMARK SMILES IDX 86 12 12 14 13 15 9 16 7 17 6 18 8 20 5 21 1 22 2 23 3 24
REMARK SMILES IDX 88 25 4 26 87 27 89 28 23 29 24 30 25 31 26 32 27 33 28 34
REMARK SMILES IDX 29 35 30 36 31 37 32 38 33 39 85 40 34 41 84 42 35 43 36 44
REMARK SMILES IDX 37 45 78 46 38 47 83 48 77 49 79 50 39 51 82 52 76 53 75 54
REMARK SMILES IDX 40 56 66 57 49 58 65 59 50 60 53 61 64 62 80 63 51 64 52 65
REMARK SMILES IDX 63 67 81 68 54 69 41 70 42 71 47 72 43 73 44 74 46 75 48 76
REMARK SMILES IDX 45 77 67 78 68 79 73 80 69 81 70 82 72 83 74 84 71 85 55 86
REMARK SMILES IDX 56 87 61 88 57 89 58 90 60 91 62 92 59 93
REMARK H PARENT 10 13 6 19 79 55 53 66
REMARK Flexibility Score: inf
ROOT
ATOM      1  C   UNL     1       0.450   0.403  -4.486  1.00  0.00     0.188 C 
ENDROOT
BRANCH   1   2
ATOM      2  C   UNL     1      -0.869   0.433  -5.295  1.00  0.00     0.188 C 
BRANCH   2   3
ATOM      3  O   UNL     1      -1.588   1.652  -5.302  1.00  0.00    -0.376 OA
BRANCH   3   4
ATOM      4  C   UNL     1      -2.481   2.073  -4.290  1.00  0.00     0.202 C 
BRANCH   4   5
ATOM      5  C   UNL     1      -2.467   1.583  -2.839  1.00  0.00     0.261 C 
BRANCH   5   6
ATOM      6  O   UNL     1      -1.791   0.364  -2.591  1.00  0.00    -0.463 OA
BRANCH   6   7
ATOM      7  C   UNL     1      -2.369  -0.765  -3.066  1.00  0.00     0.314 C 
ATOM      8  O   UNL     1      -3.466  -0.835  -3.598  1.00  0.00    -0.252 OA
BRANCH   7   9
ATOM      9  C   UNL     1      -1.435  -1.919  -2.798  1.00  0.00     0.154 C 
ATOM     10  N   UNL     1      -1.197  -3.603  -1.079  1.00  0.00    -0.326 N 
ATOM     11  C   UNL     1      -1.088  -4.679  -2.085  1.00  0.00     0.262 C 
ATOM     12  C   UNL     1      -2.082  -2.582  -1.617  1.00  0.00     0.278 C 
ATOM     13  H   UNL     1      -0.274  -3.203  -0.909  1.00  0.00     0.348 HD
ATOM     14  C   UNL     1      -0.495  -4.154  -3.408  1.00  0.00     0.062 C 
ATOM     15  C   UNL     1      -1.215  -2.907  -3.934  1.00  0.00     0.027 C 
BRANCH  10  16
ATOM     16  C   UNL     1      -1.623  -4.092   0.257  1.00  0.00     0.363 C 
BRANCH  16  17
ATOM     17  C   UNL     1      -2.727  -3.269   0.959  1.00  0.00     0.279 C 
ATOM     18  N   UNL     1      -2.597  -1.962   1.361  1.00  0.00    -0.321 N 
ATOM     19  H   UNL     1      -3.391  -1.609   1.824  1.00  0.00     0.170 HD
ATOM     20  O   UNL     1      -3.852  -3.772   1.098  1.00  0.00    -0.268 OA
BRANCH  18  21
ATOM     21  C   UNL     1      -1.547  -1.027   1.240  1.00  0.00     0.044 A 
ATOM     22  C   UNL     1       1.439   1.921   0.206  1.00  0.00     0.047 C 
ATOM     23  C   UNL     1       0.392   0.934   0.625  1.00  0.00    -0.015 A 
ATOM     24  C   UNL     1      -0.955   1.287   0.718  1.00  0.00     0.008 A 
ATOM     25  C   UNL     1       0.751  -0.387   0.899  1.00  0.00     0.128 A 
ATOM     26  C   UNL     1      -1.914   0.317   1.042  1.00  0.00     0.026 A 
ATOM     27  C   UNL     1      -0.200  -1.361   1.203  1.00  0.00     0.065 A 
ATOM     28  F   UNL     1       2.042  -0.745   0.849  1.00  0.00    -0.207 F 
ENDBRANCH  18  21
ENDBRANCH  16  17
ENDBRANCH  10  16
ENDBRANCH   7   9
ENDBRANCH   6   7
ENDBRANCH   5   6
ENDBRANCH   4   5
ENDBRANCH   3   4
ENDBRANCH   2   3
ENDBRANCH   1   2
BRANCH   1  29
ATOM     29  O   UNL     1       0.598   1.388  -3.486  1.00  0.00    -0.377 OA
BRANCH  29  30
ATOM     30  C   UNL     1       0.744   2.745  -3.885  1.00  0.00     0.188 C 
BRANCH  30  31
ATOM     31  C   UNL     1       0.679   3.216  -5.372  1.00  0.00     0.188 C 
BRANCH  31  32
ATOM     32  O   UNL     1       0.714   2.212  -6.371  1.00  0.00    -0.376 OA
BRANCH  32  33
ATOM     33  C   UNL     1       1.777   1.851  -7.226  1.00  0.00     0.202 C 
BRANCH  33  34
ATOM     34  C   UNL     1       3.131   1.405  -6.660  1.00  0.00     0.261 C 
BRANCH  34  35
ATOM     35  O   UNL     1       3.419   1.961  -5.394  1.00  0.00    -0.460 OA
BRANCH  35  36
ATOM     36  C   UNL     1       3.540   3.291  -5.475  1.00  0.00     0.338 C 
ATOM     37  O   UNL     1       3.418   3.976  -6.489  1.00  0.00    -0.246 OA
BRANCH  36  38
ATOM     38  C   UNL     1       3.841   3.860  -4.163  1.00  0.00     0.060 A 
ATOM     39  C   UNL     1       3.764   5.260  -4.171  1.00  0.00     0.016 A 
ATOM     40  C   UNL     1       4.827   3.138  -3.497  1.00  0.00     0.016 A 
ATOM     41  C   UNL     1       4.943   5.928  -4.000  1.00  0.00     0.010 A 
ATOM     42  C   UNL     1       6.006   3.793  -3.352  1.00  0.00     0.010 A 
ATOM     43  C   UNL     1       6.056   5.144  -3.717  1.00  0.00    -0.014 A 
BRANCH  43  44
ATOM     44  C   UNL     1       7.372   5.692  -3.713  1.00  0.00     0.031 A 
ATOM     45  C   UNL     1       7.702   6.433  -2.506  1.00  0.00     0.074 A 
ATOM     46  C   UNL     1       8.172   5.441  -4.766  1.00  0.00     0.049 A 
ATOM     47  N   UNL     1       8.396   7.507  -2.501  1.00  0.00    -0.248 NA
ATOM     48  C   UNL     1       7.118   6.108  -1.201  1.00  0.00     0.031 C 
ATOM     49  C   UNL     1       9.610   5.600  -4.847  1.00  0.00     0.029 A 
ATOM     50  N   UNL     1       7.780   5.111  -6.066  1.00  0.00    -0.354 N 
ATOM     51  C   UNL     1       8.712   7.726  -1.183  1.00  0.00     0.074 A 
ATOM     52  C   UNL     1       7.731   7.000  -0.418  1.00  0.00     0.031 C 
ATOM     53  C   UNL     1       9.972   5.613  -6.141  1.00  0.00     0.029 A 
ATOM     54  C   UNL     1       8.758   5.606  -6.942  1.00  0.00     0.049 A 
ATOM     55  H   UNL     1       6.965   4.620  -6.321  1.00  0.00     0.167 HD
ATOM     56  C   UNL     1       9.931   8.258  -0.904  1.00  0.00     0.037 A 
ATOM     57  C   UNL     1       8.441   6.564  -7.860  1.00  0.00     0.037 A 
ATOM     58  C   UNL     1      10.679   8.439  -2.148  1.00  0.00     0.049 A 
ATOM     59  C   UNL     1       9.091   7.892  -7.576  1.00  0.00     0.074 A 
ATOM     60  C   UNL     1      11.616   7.643  -2.788  1.00  0.00     0.029 A 
ATOM     61  N   UNL     1      10.213   9.329  -3.103  1.00  0.00    -0.354 N 
ATOM     62  N   UNL     1       9.531   8.262  -6.405  1.00  0.00    -0.248 NA
ATOM     63  C   UNL     1       9.332   8.891  -8.605  1.00  0.00     0.031 C 
ATOM     64  C   UNL     1      11.762   8.114  -4.117  1.00  0.00     0.029 A 
ATOM     65  C   UNL     1      10.909   9.191  -4.286  1.00  0.00     0.049 A 
ATOM     66  H   UNL     1       9.484   9.974  -2.957  1.00  0.00     0.167 HD
ATOM     67  C   UNL     1      10.121   9.502  -6.497  1.00  0.00     0.074 A 
ATOM     68  C   UNL     1       9.977   9.837  -7.902  1.00  0.00     0.031 C 
ATOM     69  C   UNL     1      10.667  10.109  -5.394  1.00  0.00     0.037 A 
BRANCH  56  70
ATOM     70  C   UNL     1      10.571   8.273   0.456  1.00  0.00     0.057 A 
ATOM     71  C   UNL     1      11.974   8.277   0.580  1.00  0.00     0.134 A 
ATOM     72  C   UNL     1       9.877   8.299   1.678  1.00  0.00     0.134 A 
ATOM     73  F   UNL     1      12.781   8.325  -0.488  1.00  0.00    -0.206 F 
ATOM     74  C   UNL     1      12.633   8.239   1.812  1.00  0.00     0.040 A 
ATOM     75  C   UNL     1      10.523   8.224   2.921  1.00  0.00     0.040 A 
ATOM     76  F   UNL     1       8.548   8.454   1.732  1.00  0.00    -0.206 F 
ATOM     77  C   UNL     1      11.908   8.192   2.990  1.00  0.00     0.006 A 
ENDBRANCH  56  70
BRANCH  57  78
ATOM     78  C   UNL     1       7.108   6.366  -8.480  1.00  0.00     0.057 A 
ATOM     79  C   UNL     1       6.969   5.288  -9.373  1.00  0.00     0.134 A 
ATOM     80  C   UNL     1       5.946   6.870  -7.888  1.00  0.00     0.134 A 
ATOM     81  F   UNL     1       8.050   4.777  -9.984  1.00  0.00    -0.206 F 
ATOM     82  C   UNL     1       5.751   4.637  -9.555  1.00  0.00     0.040 A 
ATOM     83  C   UNL     1       4.719   6.228  -8.068  1.00  0.00     0.040 A 
ATOM     84  F   UNL     1       6.004   7.896  -7.027  1.00  0.00    -0.206 F 
ATOM     85  C   UNL     1       4.629   5.091  -8.874  1.00  0.00     0.006 A 
ENDBRANCH  57  78
BRANCH  69  86
ATOM     86  C   UNL     1      11.095  11.567  -5.201  1.00  0.00     0.057 A 
ATOM     87  C   UNL     1      11.040  12.576  -6.169  1.00  0.00     0.134 A 
ATOM     88  C   UNL     1      11.528  12.038  -3.928  1.00  0.00     0.134 A 
ATOM     89  F   UNL     1      10.636  12.353  -7.419  1.00  0.00    -0.206 F 
ATOM     90  C   UNL     1      11.382  13.913  -5.906  1.00  0.00     0.040 A 
ATOM     91  C   UNL     1      11.819  13.375  -3.641  1.00  0.00     0.040 A 
ATOM     92  F   UNL     1      11.688  11.236  -2.868  1.00  0.00    -0.206 F 
ATOM     93  C   UNL     1      11.754  14.323  -4.637  1.00  0.00     0.006 A 
ENDBRANCH  69  86
ENDBRANCH  43  44
ENDBRANCH  36  38
ENDBRANCH  35  36
ENDBRANCH  34  35
ENDBRANCH  33  34
ENDBRANCH  32  33
ENDBRANCH  31  32
ENDBRANCH  30  31
ENDBRANCH  29  30
ENDBRANCH   1  29
TORSDOF 23
