REMARK SMILES Cc1cccc2c1[C@H]1c3c(C)cccc3[C@H](CC(=O)OCCOCCOCCOCCOC(=O)c3ccc(-c4c5nc(c(-c6c(F)cccc6F)c6ccc([nH]6)c(-c6c(F)cccc6F)c6nc(c(-c7c(F)cccc7F)c7ccc4[nH]7)C=C6)C=C5)cc3)C[C@H]1CC2
REMARK SMILES IDX 27 1 26 2 25 3 24 4 23 5 22 6 21 7 20 8 18 9 19 10 17 11
REMARK SMILES IDX 16 12 1 13 2 14 3 15 7 16 4 17 6 18 8 19 5 20 92 21 9 22
REMARK SMILES IDX 90 23 91 24 10 25 15 26 89 27 12 28 11 29 14 30 13 31 28 32
REMARK SMILES IDX 29 33 30 34 31 35 32 36 33 37 34 38 35 39 36 40 88 41 37 42
REMARK SMILES IDX 87 43 38 44 39 45 40 46 81 47 41 48 86 49 80 50 82 51 42 52
REMARK SMILES IDX 85 53 79 54 78 55 43 57 69 58 52 59 68 60 53 61 56 62 67 63
REMARK SMILES IDX 83 64 54 65 55 66 66 68 84 69 57 70 44 71 45 72 50 73 46 74
REMARK SMILES IDX 47 75 49 76 51 77 48 78 70 79 71 80 76 81 72 82 73 83 75 84
REMARK SMILES IDX 77 85 74 86 58 87 59 88 64 89 60 90 61 91 63 92 65 93 62 94
REMARK H PARENT 82 56 56 67
REMARK Flexibility Score: inf
ROOT
ATOM      1  C   UNL     1       5.153  -8.302   1.175  1.00  0.00     0.188 C 
ENDROOT
BRANCH   1   2
ATOM      2  O   UNL     1       4.490  -7.115   0.777  1.00  0.00    -0.377 OA
BRANCH   2   3
ATOM      3  C   UNL     1       5.303  -6.096   0.232  1.00  0.00     0.188 C 
BRANCH   3   4
ATOM      4  C   UNL     1       6.578  -6.392  -0.575  1.00  0.00     0.188 C 
BRANCH   4   5
ATOM      5  O   UNL     1       7.419  -7.336   0.072  1.00  0.00    -0.376 OA
BRANCH   5   6
ATOM      6  C   UNL     1       8.600  -6.901   0.721  1.00  0.00     0.202 C 
BRANCH   6   7
ATOM      7  C   UNL     1       8.525  -5.913   1.905  1.00  0.00     0.261 C 
BRANCH   7   8
ATOM      8  O   UNL     1       7.400  -5.023   1.890  1.00  0.00    -0.463 OA
BRANCH   8   9
ATOM      9  C   UNL     1       7.583  -3.728   1.536  1.00  0.00     0.306 C 
ATOM     10  O   UNL     1       8.677  -3.212   1.355  1.00  0.00    -0.252 OA
BRANCH   9  11
ATOM     11  C   UNL     1       6.260  -3.041   1.207  1.00  0.00     0.131 C 
BRANCH  11  12
ATOM     12  C   UNL     1       5.179  -2.991   2.334  1.00  0.00     0.031 C 
ATOM     13  C   UNL     1       0.704  -0.137  -0.081  1.00  0.00     0.044 C 
ATOM     14  C   UNL     1       0.363  -0.288   1.380  1.00  0.00    -0.047 A 
ATOM     15  C   UNL     1      -0.818   0.329   1.831  1.00  0.00     0.004 A 
ATOM     16  C   UNL     1       1.128  -1.075   2.280  1.00  0.00    -0.034 A 
ATOM     17  C   UNL     1      -1.271   0.145   3.132  1.00  0.00     0.001 A 
ATOM     18  C   UNL     1       0.569  -1.385   3.543  1.00  0.00    -0.044 A 
ATOM     19  C   UNL     1       2.525  -1.599   1.932  1.00  0.00     0.053 C 
ATOM     20  C   UNL     1      -0.605  -0.741   3.969  1.00  0.00     0.004 A 
ATOM     21  C   UNL     1       1.081  -2.525   4.393  1.00  0.00     0.036 C 
ATOM     22  C   UNL     1       3.759  -0.806   2.448  1.00  0.00    -0.034 A 
ATOM     23  C   UNL     1       2.583  -3.063   2.422  1.00  0.00     0.002 C 
ATOM     24  C   UNL     1       2.398  -3.155   3.942  1.00  0.00     0.009 C 
ATOM     25  C   UNL     1       3.813   0.604   2.621  1.00  0.00    -0.047 A 
ATOM     26  C   UNL     1       4.966  -1.526   2.705  1.00  0.00    -0.040 A 
ATOM     27  C   UNL     1       3.874  -3.704   1.926  1.00  0.00     0.013 C 
ATOM     28  C   UNL     1       4.991   1.216   3.108  1.00  0.00     0.004 A 
ATOM     29  C   UNL     1       2.696   1.559   2.309  1.00  0.00     0.044 C 
ATOM     30  C   UNL     1       6.094  -0.885   3.261  1.00  0.00     0.004 A 
ATOM     31  C   UNL     1       6.112   0.481   3.449  1.00  0.00     0.001 A 
ENDBRANCH  11  12
ENDBRANCH   9  11
ENDBRANCH   8   9
ENDBRANCH   7   8
ENDBRANCH   6   7
ENDBRANCH   5   6
ENDBRANCH   4   5
ENDBRANCH   3   4
ENDBRANCH   2   3
ENDBRANCH   1   2
BRANCH   1  32
ATOM     32  C   UNL     1       5.180  -9.300   0.013  1.00  0.00     0.188 C 
BRANCH  32  33
ATOM     33  O   UNL     1       4.628  -8.796  -1.192  1.00  0.00    -0.376 OA
BRANCH  33  34
ATOM     34  C   UNL     1       3.229  -8.573  -1.326  1.00  0.00     0.202 C 
BRANCH  34  35
ATOM     35  C   UNL     1       2.177  -8.473  -0.192  1.00  0.00     0.261 C 
BRANCH  35  36
ATOM     36  O   UNL     1       2.434  -9.064   1.083  1.00  0.00    -0.460 OA
BRANCH  36  37
ATOM     37  C   UNL     1       2.372 -10.400   1.208  1.00  0.00     0.338 C 
ATOM     38  O   UNL     1       2.126 -11.221   0.344  1.00  0.00    -0.246 OA
BRANCH  37  39
ATOM     39  C   UNL     1       2.835 -10.704   2.581  1.00  0.00     0.060 A 
ATOM     40  C   UNL     1       4.067 -11.348   2.758  1.00  0.00     0.016 A 
ATOM     41  C   UNL     1       2.076 -10.309   3.687  1.00  0.00     0.016 A 
ATOM     42  C   UNL     1       4.537 -11.613   4.042  1.00  0.00     0.010 A 
ATOM     43  C   UNL     1       2.523 -10.621   4.974  1.00  0.00     0.010 A 
ATOM     44  C   UNL     1       3.739 -11.302   5.151  1.00  0.00    -0.014 A 
BRANCH  44  45
ATOM     45  C   UNL     1       4.046 -11.950   6.445  1.00  0.00     0.031 A 
ATOM     46  C   UNL     1       3.507 -13.336   6.667  1.00  0.00     0.074 A 
ATOM     47  C   UNL     1       4.794 -11.350   7.385  1.00  0.00     0.049 A 
ATOM     48  N   UNL     1       3.647 -14.131   7.695  1.00  0.00    -0.248 NA
ATOM     49  C   UNL     1       2.704 -13.901   5.569  1.00  0.00     0.031 C 
ATOM     50  C   UNL     1       5.399 -10.026   7.272  1.00  0.00     0.029 A 
ATOM     51  N   UNL     1       5.161 -11.788   8.632  1.00  0.00    -0.354 N 
ATOM     52  C   UNL     1       2.963 -15.293   7.361  1.00  0.00     0.074 A 
ATOM     53  C   UNL     1       2.381 -15.088   6.053  1.00  0.00     0.031 C 
ATOM     54  C   UNL     1       6.046  -9.748   8.418  1.00  0.00     0.029 A 
ATOM     55  C   UNL     1       5.882 -10.866   9.347  1.00  0.00     0.049 A 
ATOM     56  H   UNL     1       4.930 -12.680   8.980  1.00  0.00     0.167 HD
ATOM     57  C   UNL     1       2.832 -16.434   8.077  1.00  0.00     0.037 A 
ATOM     58  C   UNL     1       6.335 -10.918  10.614  1.00  0.00     0.037 A 
ATOM     59  C   UNL     1       3.365 -16.617   9.399  1.00  0.00     0.049 A 
ATOM     60  C   UNL     1       6.088 -12.157  11.437  1.00  0.00     0.074 A 
ATOM     61  C   UNL     1       3.294 -17.732  10.213  1.00  0.00     0.029 A 
ATOM     62  N   UNL     1       4.045 -15.640  10.111  1.00  0.00    -0.354 N 
ATOM     63  N   UNL     1       5.486 -13.272  11.097  1.00  0.00    -0.248 NA
ATOM     64  C   UNL     1       6.586 -12.143  12.819  1.00  0.00     0.031 C 
ATOM     65  C   UNL     1       3.880 -17.409  11.443  1.00  0.00     0.029 A 
ATOM     66  C   UNL     1       4.366 -16.112  11.373  1.00  0.00     0.049 A 
ATOM     67  H   UNL     1       4.267 -14.744   9.770  1.00  0.00     0.167 HD
ATOM     68  C   UNL     1       5.551 -14.098  12.213  1.00  0.00     0.074 A 
ATOM     69  C   UNL     1       6.266 -13.361  13.234  1.00  0.00     0.031 C 
ATOM     70  C   UNL     1       5.067 -15.355  12.380  1.00  0.00     0.037 A 
BRANCH  57  71
ATOM     71  C   UNL     1       2.032 -17.535   7.446  1.00  0.00     0.057 A 
ATOM     72  C   UNL     1       0.756 -17.852   7.926  1.00  0.00     0.134 A 
ATOM     73  C   UNL     1       2.502 -18.249   6.335  1.00  0.00     0.134 A 
ATOM     74  F   UNL     1       0.245 -17.203   8.982  1.00  0.00    -0.206 F 
ATOM     75  C   UNL     1      -0.029 -18.831   7.316  1.00  0.00     0.040 A 
ATOM     76  C   UNL     1       1.715 -19.211   5.700  1.00  0.00     0.040 A 
ATOM     77  F   UNL     1       3.707 -17.976   5.810  1.00  0.00    -0.206 F 
ATOM     78  C   UNL     1       0.445 -19.505   6.193  1.00  0.00     0.006 A 
ENDBRANCH  57  71
BRANCH  58  79
ATOM     79  C   UNL     1       7.050  -9.755  11.197  1.00  0.00     0.057 A 
ATOM     80  C   UNL     1       6.375  -8.564  11.494  1.00  0.00     0.134 A 
ATOM     81  C   UNL     1       8.416  -9.812  11.493  1.00  0.00     0.134 A 
ATOM     82  F   UNL     1       5.064  -8.447  11.238  1.00  0.00    -0.206 F 
ATOM     83  C   UNL     1       7.035  -7.470  12.056  1.00  0.00     0.040 A 
ATOM     84  C   UNL     1       9.084  -8.733  12.076  1.00  0.00     0.040 A 
ATOM     85  F   UNL     1       9.111 -10.934  11.256  1.00  0.00    -0.206 F 
ATOM     86  C   UNL     1       8.393  -7.555  12.354  1.00  0.00     0.006 A 
ENDBRANCH  58  79
BRANCH  70  87
ATOM     87  C   UNL     1       5.312 -16.013  13.708  1.00  0.00     0.057 A 
ATOM     88  C   UNL     1       6.207 -17.085  13.819  1.00  0.00     0.134 A 
ATOM     89  C   UNL     1       4.644 -15.606  14.870  1.00  0.00     0.134 A 
ATOM     90  F   UNL     1       6.872 -17.532  12.742  1.00  0.00    -0.206 F 
ATOM     91  C   UNL     1       6.429 -17.729  15.037  1.00  0.00     0.040 A 
ATOM     92  C   UNL     1       4.880 -16.224  16.100  1.00  0.00     0.040 A 
ATOM     93  F   UNL     1       3.783 -14.578  14.836  1.00  0.00    -0.206 F 
ATOM     94  C   UNL     1       5.770 -17.292  16.184  1.00  0.00     0.006 A 
ENDBRANCH  70  87
ENDBRANCH  44  45
ENDBRANCH  37  39
ENDBRANCH  36  37
ENDBRANCH  35  36
ENDBRANCH  34  35
ENDBRANCH  33  34
ENDBRANCH  32  33
ENDBRANCH   1  32
TORSDOF 21
