REMARK SMILES Cc1nc(-c2ccccc2)sc1C(=O)N[C@@H](CC1=c2ccccc2=NC1)C(=O)OCCOCCOCCOCCOC(=O)c1ccc(-c2c3nc(c(-c4c(F)cccc4F)c4ccc([nH]4)c(-c4c(F)cccc4F)c4nc(c(-c5c(F)cccc5F)c5ccc2[nH]5)C=C4)C=C3)cc1
REMARK SMILES IDX 34 1 33 2 32 3 31 4 30 5 29 6 27 7 28 8 16 9 15 10 13 11
REMARK SMILES IDX 14 12 12 14 1 15 2 16 3 17 4 18 11 19 5 20 6 21 10 22 7 23
REMARK SMILES IDX 9 24 8 25 17 26 18 27 19 28 26 29 20 30 24 31 25 32 21 33
REMARK SMILES IDX 23 34 22 35 35 36 36 37 37 38 38 39 39 40 40 41 41 42 42 43
REMARK SMILES IDX 43 44 44 45 45 46 97 47 46 48 96 49 47 50 48 51 49 52 90 53
REMARK SMILES IDX 50 54 95 55 89 56 91 57 51 58 94 59 88 60 87 61 52 63 78 64
REMARK SMILES IDX 61 65 77 66 62 67 65 68 76 69 92 70 63 71 64 72 75 74 93 75
REMARK SMILES IDX 66 76 53 77 54 78 59 79 55 80 56 81 58 82 60 83 57 84 79 85
REMARK SMILES IDX 80 86 85 87 81 88 82 89 84 90 86 91 83 92 67 93 68 94 73 95
REMARK SMILES IDX 69 96 70 97 72 98 74 99 71 100
REMARK H PARENT 15 13 91 62 65 73
REMARK Flexibility Score: inf
ROOT
ATOM      1  C   UNL     1      -2.125  -2.676   3.001  1.00  0.00     0.188 C 
ENDROOT
BRANCH   1   2
ATOM      2  C   UNL     1      -3.139  -1.572   3.326  1.00  0.00     0.188 C 
BRANCH   2   3
ATOM      3  O   UNL     1      -4.243  -1.832   4.179  1.00  0.00    -0.376 OA
BRANCH   3   4
ATOM      4  C   UNL     1      -5.154  -2.889   3.907  1.00  0.00     0.202 C 
BRANCH   4   5
ATOM      5  C   UNL     1      -5.606  -3.247   2.483  1.00  0.00     0.261 C 
BRANCH   5   6
ATOM      6  O   UNL     1      -4.565  -3.231   1.494  1.00  0.00    -0.462 OA
BRANCH   6   7
ATOM      7  C   UNL     1      -4.743  -2.372   0.470  1.00  0.00     0.329 C 
ATOM      8  O   UNL     1      -5.769  -1.726   0.275  1.00  0.00    -0.250 OA
BRANCH   7   9
ATOM      9  C   UNL     1      -3.555  -2.279  -0.500  1.00  0.00     0.196 C 
BRANCH   9  10
ATOM     10  N   UNL     1      -2.210  -2.748  -0.196  1.00  0.00    -0.338 N 
ATOM     11  C   UNL     1      -0.965  -2.156  -0.297  1.00  0.00     0.264 C 
ATOM     12  O   UNL     1      -0.041  -2.980  -0.287  1.00  0.00    -0.268 OA
ATOM     13  H   UNL     1      -2.182  -3.669   0.151  1.00  0.00     0.164 HD
BRANCH  11  14
ATOM     14  C   UNL     1      -0.708  -0.706  -0.307  1.00  0.00     0.115 A 
ATOM     15  C   UNL     1      -2.840   0.852  -0.623  1.00  0.00     0.068 C 
ATOM     16  C   UNL     1      -1.421   0.494  -0.379  1.00  0.00     0.062 A 
ATOM     17  N   UNL     1      -0.672   1.634  -0.176  1.00  0.00    -0.241 NA
ATOM     18  C   UNL     1       0.606   1.383  -0.103  1.00  0.00     0.124 A 
ATOM     19  S   UNL     1       1.007  -0.264  -0.164  1.00  0.00    -0.108 S 
BRANCH  18  20
ATOM     20  C   UNL     1       1.564   2.479  -0.006  1.00  0.00     0.010 A 
ATOM     21  C   UNL     1       1.367   3.445   0.996  1.00  0.00     0.011 A 
ATOM     22  C   UNL     1       2.490   2.732  -1.023  1.00  0.00     0.011 A 
ATOM     23  C   UNL     1       2.053   4.657   0.963  1.00  0.00     0.001 A 
ATOM     24  C   UNL     1       3.173   3.952  -1.059  1.00  0.00     0.001 A 
ATOM     25  C   UNL     1       2.944   4.916  -0.075  1.00  0.00     0.000 A 
ENDBRANCH  18  20
ENDBRANCH  11  14
ENDBRANCH   9  10
BRANCH   9  26
ATOM     26  C   UNL     1      -3.995  -2.783  -1.884  1.00  0.00     0.070 C 
BRANCH  26  27
ATOM     27  C   UNL     1      -4.178  -4.267  -1.882  1.00  0.00    -0.037 C 
ATOM     28  C   UNL     1      -3.234  -5.197  -2.004  1.00  0.00     0.001 A 
ATOM     29  C   UNL     1      -5.504  -4.892  -1.570  1.00  0.00     0.174 C 
ATOM     30  C   UNL     1      -1.826  -5.180  -2.236  1.00  0.00     0.010 A 
ATOM     31  C   UNL     1      -3.948  -6.423  -1.617  1.00  0.00     0.065 A 
ATOM     32  N   UNL     1      -5.223  -6.335  -1.391  1.00  0.00    -0.280 NA
ATOM     33  C   UNL     1      -1.131  -6.312  -2.048  1.00  0.00     0.001 A 
ATOM     34  C   UNL     1      -3.117  -7.635  -1.457  1.00  0.00     0.028 A 
ATOM     35  C   UNL     1      -1.789  -7.543  -1.645  1.00  0.00     0.002 A 
ENDBRANCH  26  27
ENDBRANCH   9  26
ENDBRANCH   7   9
ENDBRANCH   6   7
ENDBRANCH   5   6
ENDBRANCH   4   5
ENDBRANCH   3   4
ENDBRANCH   2   3
ENDBRANCH   1   2
BRANCH   1  36
ATOM     36  O   UNL     1      -2.639  -3.990   3.004  1.00  0.00    -0.377 OA
BRANCH  36  37
ATOM     37  C   UNL     1      -2.444  -4.767   4.177  1.00  0.00     0.188 C 
BRANCH  37  38
ATOM     38  C   UNL     1      -2.244  -4.054   5.533  1.00  0.00     0.188 C 
BRANCH  38  39
ATOM     39  O   UNL     1      -1.335  -2.965   5.517  1.00  0.00    -0.376 OA
BRANCH  39  40
ATOM     40  C   UNL     1       0.034  -3.192   5.817  1.00  0.00     0.202 C 
BRANCH  40  41
ATOM     41  C   UNL     1       0.837  -4.178   4.949  1.00  0.00     0.261 C 
BRANCH  41  42
ATOM     42  O   UNL     1       0.352  -5.529   4.880  1.00  0.00    -0.460 OA
BRANCH  42  43
ATOM     43  C   UNL     1       0.164  -6.206   6.029  1.00  0.00     0.338 C 
ATOM     44  O   UNL     1       0.439  -5.836   7.159  1.00  0.00    -0.246 OA
BRANCH  43  45
ATOM     45  C   UNL     1      -0.641  -7.406   5.714  1.00  0.00     0.060 A 
ATOM     46  C   UNL     1      -1.890  -7.566   6.329  1.00  0.00     0.016 A 
ATOM     47  C   UNL     1      -0.171  -8.364   4.812  1.00  0.00     0.016 A 
ATOM     48  C   UNL     1      -2.658  -8.701   6.073  1.00  0.00     0.010 A 
ATOM     49  C   UNL     1      -0.926  -9.517   4.581  1.00  0.00     0.010 A 
ATOM     50  C   UNL     1      -2.155  -9.707   5.239  1.00  0.00    -0.014 A 
BRANCH  50  51
ATOM     51  C   UNL     1      -2.801 -11.041   5.238  1.00  0.00     0.031 A 
ATOM     52  C   UNL     1      -2.222 -12.108   6.127  1.00  0.00     0.074 A 
ATOM     53  C   UNL     1      -3.892 -11.297   4.497  1.00  0.00     0.049 A 
ATOM     54  N   UNL     1      -2.575 -13.360   6.265  1.00  0.00    -0.248 NA
ATOM     55  C   UNL     1      -1.087 -11.704   6.973  1.00  0.00     0.031 C 
ATOM     56  C   UNL     1      -4.580 -10.334   3.640  1.00  0.00     0.029 A 
ATOM     57  N   UNL     1      -4.608 -12.458   4.346  1.00  0.00    -0.354 N 
ATOM     58  C   UNL     1      -1.702 -13.893   7.205  1.00  0.00     0.074 A 
ATOM     59  C   UNL     1      -0.782 -12.841   7.577  1.00  0.00     0.031 C 
ATOM     60  C   UNL     1      -5.615 -10.949   3.041  1.00  0.00     0.029 A 
ATOM     61  C   UNL     1      -5.639 -12.354   3.445  1.00  0.00     0.049 A 
ATOM     62  H   UNL     1      -4.402 -13.286   4.837  1.00  0.00     0.167 HD
ATOM     63  C   UNL     1      -1.673 -15.146   7.719  1.00  0.00     0.037 A 
ATOM     64  C   UNL     1      -6.486 -13.296   2.983  1.00  0.00     0.037 A 
ATOM     65  C   UNL     1      -2.584 -16.193   7.340  1.00  0.00     0.049 A 
ATOM     66  C   UNL     1      -6.375 -14.708   3.498  1.00  0.00     0.074 A 
ATOM     67  C   UNL     1      -2.645 -17.493   7.809  1.00  0.00     0.029 A 
ATOM     68  N   UNL     1      -3.586 -16.062   6.390  1.00  0.00    -0.354 N 
ATOM     69  N   UNL     1      -5.561 -15.202   4.400  1.00  0.00    -0.248 NA
ATOM     70  C   UNL     1      -7.304 -15.696   2.929  1.00  0.00     0.031 C 
ATOM     71  C   UNL     1      -3.643 -18.166   7.097  1.00  0.00     0.029 A 
ATOM     72  C   UNL     1      -4.249 -17.268   6.233  1.00  0.00     0.049 A 
ATOM     73  H   UNL     1      -3.795 -15.234   5.899  1.00  0.00     0.167 HD
ATOM     74  C   UNL     1      -5.899 -16.544   4.530  1.00  0.00     0.074 A 
ATOM     75  C   UNL     1      -7.002 -16.785   3.623  1.00  0.00     0.031 C 
ATOM     76  C   UNL     1      -5.349 -17.492   5.329  1.00  0.00     0.037 A 
BRANCH  63  77
ATOM     77  C   UNL     1      -0.594 -15.456   8.716  1.00  0.00     0.057 A 
ATOM     78  C   UNL     1      -0.586 -14.901  10.003  1.00  0.00     0.134 A 
ATOM     79  C   UNL     1       0.447 -16.334   8.387  1.00  0.00     0.134 A 
ATOM     80  F   UNL     1      -1.544 -14.039  10.378  1.00  0.00    -0.206 F 
ATOM     81  C   UNL     1       0.434 -15.182  10.914  1.00  0.00     0.040 A 
ATOM     82  C   UNL     1       1.455 -16.648   9.299  1.00  0.00     0.040 A 
ATOM     83  F   UNL     1       0.500 -16.903   7.173  1.00  0.00    -0.206 F 
ATOM     84  C   UNL     1       1.455 -16.064  10.564  1.00  0.00     0.006 A 
ENDBRANCH  63  77
BRANCH  64  85
ATOM     85  C   UNL     1      -7.506 -12.943   1.962  1.00  0.00     0.057 A 
ATOM     86  C   UNL     1      -8.873 -12.969   2.263  1.00  0.00     0.134 A 
ATOM     87  C   UNL     1      -7.142 -12.596   0.655  1.00  0.00     0.134 A 
ATOM     88  F   UNL     1      -9.288 -13.319   3.489  1.00  0.00    -0.206 F 
ATOM     89  C   UNL     1      -9.841 -12.679   1.298  1.00  0.00     0.040 A 
ATOM     90  C   UNL     1      -8.097 -12.276  -0.311  1.00  0.00     0.040 A 
ATOM     91  F   UNL     1      -5.849 -12.557   0.300  1.00  0.00    -0.206 F 
ATOM     92  C   UNL     1      -9.452 -12.325   0.008  1.00  0.00     0.006 A 
ENDBRANCH  64  85
BRANCH  76  93
ATOM     93  C   UNL     1      -5.955 -18.868   5.292  1.00  0.00     0.057 A 
ATOM     94  C   UNL     1      -5.810 -19.715   4.186  1.00  0.00     0.134 A 
ATOM     95  C   UNL     1      -6.654 -19.368   6.399  1.00  0.00     0.134 A 
ATOM     96  F   UNL     1      -5.161 -19.297   3.088  1.00  0.00    -0.206 F 
ATOM     97  C   UNL     1      -6.362 -20.998   4.172  1.00  0.00     0.040 A 
ATOM     98  C   UNL     1      -7.181 -20.660   6.409  1.00  0.00     0.040 A 
ATOM     99  F   UNL     1      -6.819 -18.616   7.497  1.00  0.00    -0.206 F 
ATOM    100  C   UNL     1      -7.043 -21.477   5.290  1.00  0.00     0.006 A 
ENDBRANCH  76  93
ENDBRANCH  50  51
ENDBRANCH  43  45
ENDBRANCH  42  43
ENDBRANCH  41  42
ENDBRANCH  40  41
ENDBRANCH  39  40
ENDBRANCH  38  39
ENDBRANCH  37  38
ENDBRANCH  36  37
ENDBRANCH   1  36
TORSDOF 25
