REMARK SMILES Cc1ccc(Nc2c(F)cccc2Cl)c(CC(=O)OCCOCCOCCOCCOC(=O)c2ccc(-c3c4nc(c(-c5c(F)cccc5F)c5ccc([nH]5)c(-c5c(F)cccc5F)c5nc(c(-c6c(F)cccc6F)c6ccc3[nH]6)C=C5)C=C4)cc2)c1
REMARK SMILES IDX 24 1 23 2 22 3 21 4 20 5 19 6 17 7 18 8 16 9 15 10 1 11 2 12
REMARK SMILES IDX 3 13 88 14 4 15 5 16 6 17 7 19 8 20 13 21 9 22 10 23 12 24
REMARK SMILES IDX 14 25 11 26 25 27 26 28 27 29 28 30 29 31 30 32 31 33 32 34
REMARK SMILES IDX 33 35 34 36 35 37 87 38 36 39 86 40 37 41 38 42 39 43 80 44
REMARK SMILES IDX 40 45 85 46 79 47 81 48 41 49 84 50 78 51 77 52 42 54 68 55
REMARK SMILES IDX 51 56 67 57 52 58 55 59 66 60 82 61 53 62 54 63 65 65 83 66
REMARK SMILES IDX 56 67 43 68 44 69 49 70 45 71 46 72 48 73 50 74 47 75 69 76
REMARK SMILES IDX 70 77 75 78 71 79 72 80 74 81 76 82 73 83 57 84 58 85 63 86
REMARK SMILES IDX 59 87 60 88 62 89 64 90 61 91
REMARK H PARENT 6 18 81 53 55 64
REMARK Flexibility Score: inf
ROOT
ATOM      1  C   UNL     1      -3.381  -0.332  -1.262  1.00  0.00     0.188 C 
ENDROOT
BRANCH   1   2
ATOM      2  C   UNL     1      -4.118   0.455  -0.210  1.00  0.00     0.188 C 
BRANCH   2   3
ATOM      3  O   UNL     1      -5.131   1.352  -0.614  1.00  0.00    -0.376 OA
BRANCH   3   4
ATOM      4  C   UNL     1      -4.593   2.519  -1.193  1.00  0.00     0.202 C 
BRANCH   4   5
ATOM      5  C   UNL     1      -3.926   3.503  -0.240  1.00  0.00     0.261 C 
BRANCH   5   6
ATOM      6  O   UNL     1      -2.751   2.949   0.369  1.00  0.00    -0.463 OA
BRANCH   6   7
ATOM      7  C   UNL     1      -2.695   3.089   1.712  1.00  0.00     0.310 C 
ATOM      8  O   UNL     1      -3.409   3.853   2.357  1.00  0.00    -0.252 OA
BRANCH   7   9
ATOM      9  C   UNL     1      -1.629   2.264   2.384  1.00  0.00     0.160 C 
BRANCH   9  10
ATOM     10  C   UNL     1      -1.129   0.967   1.763  1.00  0.00    -0.013 A 
ATOM     11  C   UNL     1       2.155   0.090  -0.063  1.00  0.00     0.044 C 
ATOM     12  C   UNL     1       0.796  -0.022   0.558  1.00  0.00    -0.051 A 
ATOM     13  C   UNL     1       0.202  -1.264   0.686  1.00  0.00     0.005 A 
ATOM     14  C   UNL     1       0.112   1.085   1.066  1.00  0.00     0.009 A 
ATOM     15  C   UNL     1      -1.048  -1.390   1.299  1.00  0.00     0.026 A 
ATOM     16  C   UNL     1      -1.748  -0.315   1.884  1.00  0.00     0.042 A 
BRANCH  16  17
ATOM     17  N   UNL     1      -3.027  -0.529   2.515  1.00  0.00    -0.352 N 
ATOM     18  H   UNL     1      -3.343   0.212   3.080  1.00  0.00     0.167 HD
BRANCH  17  19
ATOM     19  C   UNL     1      -3.915  -1.668   2.445  1.00  0.00     0.094 A 
ATOM     20  C   UNL     1      -3.460  -2.992   2.429  1.00  0.00     0.148 A 
ATOM     21  C   UNL     1      -5.285  -1.513   2.126  1.00  0.00     0.067 A 
ATOM     22  F   UNL     1      -2.282  -3.308   2.989  1.00  0.00    -0.205 F 
ATOM     23  C   UNL     1      -4.186  -4.034   1.839  1.00  0.00     0.041 A 
ATOM     24  C   UNL     1      -6.007  -2.534   1.473  1.00  0.00     0.023 A 
ATOM     25  Cl  UNL     1      -6.124  -0.028   2.454  1.00  0.00    -0.082 Cl
ATOM     26  C   UNL     1      -5.434  -3.787   1.284  1.00  0.00     0.005 A 
ENDBRANCH  17  19
ENDBRANCH  16  17
ENDBRANCH   9  10
ENDBRANCH   7   9
ENDBRANCH   6   7
ENDBRANCH   5   6
ENDBRANCH   4   5
ENDBRANCH   3   4
ENDBRANCH   2   3
ENDBRANCH   1   2
BRANCH   1  27
ATOM     27  O   UNL     1      -2.073   0.113  -1.575  1.00  0.00    -0.377 OA
BRANCH  27  28
ATOM     28  C   UNL     1      -1.654  -0.363  -2.858  1.00  0.00     0.188 C 
BRANCH  28  29
ATOM     29  C   UNL     1      -1.697  -1.876  -3.111  1.00  0.00     0.188 C 
BRANCH  29  30
ATOM     30  O   UNL     1      -3.044  -2.327  -3.154  1.00  0.00    -0.376 OA
BRANCH  30  31
ATOM     31  C   UNL     1      -3.424  -3.389  -2.286  1.00  0.00     0.202 C 
BRANCH  31  32
ATOM     32  C   UNL     1      -4.145  -4.441  -3.127  1.00  0.00     0.261 C 
BRANCH  32  33
ATOM     33  O   UNL     1      -5.212  -3.786  -3.850  1.00  0.00    -0.460 OA
BRANCH  33  34
ATOM     34  C   UNL     1      -4.844  -3.332  -5.086  1.00  0.00     0.338 C 
ATOM     35  O   UNL     1      -4.206  -3.967  -5.904  1.00  0.00    -0.246 OA
BRANCH  34  36
ATOM     36  C   UNL     1      -5.112  -1.862  -5.212  1.00  0.00     0.060 A 
ATOM     37  C   UNL     1      -4.520  -1.155  -6.272  1.00  0.00     0.016 A 
ATOM     38  C   UNL     1      -5.704  -1.151  -4.171  1.00  0.00     0.016 A 
ATOM     39  C   UNL     1      -4.389   0.243  -6.218  1.00  0.00     0.010 A 
ATOM     40  C   UNL     1      -5.535   0.231  -4.105  1.00  0.00     0.010 A 
ATOM     41  C   UNL     1      -4.818   0.939  -5.088  1.00  0.00    -0.014 A 
BRANCH  41  42
ATOM     42  C   UNL     1      -4.401   2.320  -4.734  1.00  0.00     0.031 A 
ATOM     43  C   UNL     1      -5.417   3.326  -4.274  1.00  0.00     0.074 A 
ATOM     44  C   UNL     1      -3.090   2.529  -4.430  1.00  0.00     0.049 A 
ATOM     45  N   UNL     1      -5.129   4.494  -3.796  1.00  0.00    -0.248 NA
ATOM     46  C   UNL     1      -6.863   3.096  -4.290  1.00  0.00     0.031 C 
ATOM     47  C   UNL     1      -2.545   3.468  -3.442  1.00  0.00     0.029 A 
ATOM     48  N   UNL     1      -1.932   1.915  -4.891  1.00  0.00    -0.354 N 
ATOM     49  C   UNL     1      -6.228   4.959  -3.100  1.00  0.00     0.074 A 
ATOM     50  C   UNL     1      -7.315   4.134  -3.570  1.00  0.00     0.031 C 
ATOM     51  C   UNL     1      -1.206   3.417  -3.425  1.00  0.00     0.029 A 
ATOM     52  C   UNL     1      -0.841   2.764  -4.651  1.00  0.00     0.049 A 
ATOM     53  H   UNL     1      -1.885   1.029  -5.317  1.00  0.00     0.167 HD
ATOM     54  C   UNL     1      -6.050   5.858  -2.079  1.00  0.00     0.037 A 
ATOM     55  C   UNL     1      -0.192   3.408  -5.671  1.00  0.00     0.037 A 
ATOM     56  C   UNL     1      -4.689   6.443  -2.052  1.00  0.00     0.049 A 
ATOM     57  C   UNL     1      -0.472   4.920  -5.680  1.00  0.00     0.074 A 
ATOM     58  C   UNL     1      -3.753   6.797  -1.091  1.00  0.00     0.029 A 
ATOM     59  N   UNL     1      -4.053   6.686  -3.262  1.00  0.00    -0.354 N 
ATOM     60  N   UNL     1      -1.172   5.538  -4.758  1.00  0.00    -0.248 NA
ATOM     61  C   UNL     1      -0.042   5.857  -6.715  1.00  0.00     0.031 C 
ATOM     62  C   UNL     1      -2.546   7.197  -1.753  1.00  0.00     0.029 A 
ATOM     63  C   UNL     1      -2.781   7.181  -3.114  1.00  0.00     0.049 A 
ATOM     64  H   UNL     1      -4.472   6.521  -4.138  1.00  0.00     0.167 HD
ATOM     65  C   UNL     1      -1.357   6.853  -5.066  1.00  0.00     0.074 A 
ATOM     66  C   UNL     1      -0.618   7.008  -6.308  1.00  0.00     0.031 C 
ATOM     67  C   UNL     1      -2.122   7.695  -4.305  1.00  0.00     0.037 A 
BRANCH  54  68
ATOM     68  C   UNL     1      -7.067   6.125  -0.969  1.00  0.00     0.057 A 
ATOM     69  C   UNL     1      -6.945   7.259  -0.136  1.00  0.00     0.134 A 
ATOM     70  C   UNL     1      -8.103   5.247  -0.584  1.00  0.00     0.134 A 
ATOM     71  F   UNL     1      -6.029   8.207  -0.380  1.00  0.00    -0.206 F 
ATOM     72  C   UNL     1      -7.752   7.480   0.994  1.00  0.00     0.040 A 
ATOM     73  C   UNL     1      -8.959   5.490   0.507  1.00  0.00     0.040 A 
ATOM     74  F   UNL     1      -8.312   4.081  -1.205  1.00  0.00    -0.206 F 
ATOM     75  C   UNL     1      -8.772   6.599   1.315  1.00  0.00     0.006 A 
ENDBRANCH  54  68
BRANCH  55  76
ATOM     76  C   UNL     1       0.056   2.453  -6.798  1.00  0.00     0.057 A 
ATOM     77  C   UNL     1       0.905   1.372  -6.467  1.00  0.00     0.134 A 
ATOM     78  C   UNL     1      -0.947   2.200  -7.743  1.00  0.00     0.134 A 
ATOM     79  F   UNL     1       1.912   1.553  -5.598  1.00  0.00    -0.206 F 
ATOM     80  C   UNL     1       0.594   0.057  -6.829  1.00  0.00     0.040 A 
ATOM     81  C   UNL     1      -1.242   0.884  -8.140  1.00  0.00     0.040 A 
ATOM     82  F   UNL     1      -1.800   3.168  -8.103  1.00  0.00    -0.206 F 
ATOM     83  C   UNL     1      -0.520  -0.194  -7.622  1.00  0.00     0.006 A 
ENDBRANCH  55  76
BRANCH  67  84
ATOM     84  C   UNL     1      -2.425   9.122  -4.670  1.00  0.00     0.057 A 
ATOM     85  C   UNL     1      -1.455  10.003  -5.146  1.00  0.00     0.134 A 
ATOM     86  C   UNL     1      -3.710   9.679  -4.463  1.00  0.00     0.134 A 
ATOM     87  F   UNL     1      -0.173   9.624  -5.256  1.00  0.00    -0.206 F 
ATOM     88  C   UNL     1      -1.766  11.319  -5.506  1.00  0.00     0.040 A 
ATOM     89  C   UNL     1      -4.019  11.003  -4.768  1.00  0.00     0.040 A 
ATOM     90  F   UNL     1      -4.733   8.964  -3.976  1.00  0.00    -0.206 F 
ATOM     91  C   UNL     1      -3.052  11.820  -5.324  1.00  0.00     0.006 A 
ENDBRANCH  67  84
ENDBRANCH  41  42
ENDBRANCH  34  36
ENDBRANCH  33  34
ENDBRANCH  32  33
ENDBRANCH  31  32
ENDBRANCH  30  31
ENDBRANCH  29  30
ENDBRANCH  28  29
ENDBRANCH  27  28
ENDBRANCH   1  27
TORSDOF 23
