REMARK SMILES Cc1nnc(SCC2=C(C(=O)OCCOCCOCCOCCOC(=O)c3ccc(-c4c5nc(c(-c6c(F)cccc6F)c6ccc([nH]6)c(-c6c(F)cccc6F)c6nc(c(-c7c(F)cccc7F)c7ccc4[nH]7)C=C6)C=C5)cc3)N3C(=O)[C@H](NC(=O)c4cn(C)nc4C)[C@@H]3SC2)s1
REMARK SMILES IDX 17 1 16 2 15 3 14 4 13 5 12 6 10 7 11 8 9 9 8 10 97 11 81 12
REMARK SMILES IDX 96 13 82 14 95 15 83 16 84 17 7 18 6 19 5 20 1 21 2 22 3 23
REMARK SMILES IDX 98 24 4 25 85 26 86 27 87 29 88 30 89 31 93 32 90 33 92 34
REMARK SMILES IDX 94 35 91 36 18 37 19 38 20 39 21 40 22 41 23 42 24 43 25 44
REMARK SMILES IDX 26 45 27 46 28 47 80 48 29 49 79 50 30 51 31 52 32 53 73 54
REMARK SMILES IDX 33 55 78 56 72 57 74 58 34 59 77 60 71 61 70 62 35 64 61 65
REMARK SMILES IDX 44 66 60 67 45 68 48 69 59 70 75 71 46 72 47 73 58 75 76 76
REMARK SMILES IDX 49 77 36 78 37 79 42 80 38 81 39 82 41 83 43 84 40 85 62 86
REMARK SMILES IDX 63 87 68 88 64 89 65 90 67 91 69 92 66 93 50 94 51 95 56 96
REMARK SMILES IDX 52 97 53 98 55 99 57 100 54 101
REMARK H PARENT 85 28 74 63 48 74
REMARK Flexibility Score: inf
ROOT
ATOM      1  C   UNL     1       7.336  -2.784   0.726  1.00  0.00     0.188 C 
ENDROOT
BRANCH   1   2
ATOM      2  C   UNL     1       7.155  -4.194   0.131  1.00  0.00     0.188 C 
BRANCH   2   3
ATOM      3  O   UNL     1       7.365  -4.271  -1.277  1.00  0.00    -0.376 OA
BRANCH   3   4
ATOM      4  C   UNL     1       6.226  -4.670  -2.033  1.00  0.00     0.202 C 
BRANCH   4   5
ATOM      5  C   UNL     1       5.232  -3.530  -2.261  1.00  0.00     0.261 C 
BRANCH   5   6
ATOM      6  O   UNL     1       4.871  -2.878  -1.036  1.00  0.00    -0.459 OA
BRANCH   6   7
ATOM      7  C   UNL     1       3.820  -3.378  -0.346  1.00  0.00     0.355 C 
ATOM      8  O   UNL     1       3.120  -4.315  -0.686  1.00  0.00    -0.244 OA
BRANCH   7   9
ATOM      9  C   UNL     1       3.752  -2.673   0.985  1.00  0.00     0.132 C 
ATOM     10  C   UNL     1       3.705  -1.317   1.109  1.00  0.00    -0.019 C 
ATOM     11  C   UNL     1       3.574  -0.615   2.457  1.00  0.00     0.106 C 
ATOM     12  N   UNL     1       3.798  -3.470   2.091  1.00  0.00    -0.289 N 
ATOM     13  S   UNL     1       2.931  -1.670   3.801  1.00  0.00    -0.129 SA
ATOM     14  C   UNL     1       3.924  -4.782   2.383  1.00  0.00     0.253 C 
ATOM     15  C   UNL     1       4.084  -2.992   3.427  1.00  0.00     0.181 C 
ATOM     16  O   UNL     1       4.099  -5.771   1.718  1.00  0.00    -0.272 OA
ATOM     17  C   UNL     1       3.780  -4.437   3.916  1.00  0.00     0.206 C 
BRANCH  10  18
ATOM     18  C   UNL     1       3.871  -0.394  -0.098  1.00  0.00     0.111 C 
BRANCH  18  19
ATOM     19  S   UNL     1       2.822   1.081  -0.139  1.00  0.00    -0.089 SA
BRANCH  19  20
ATOM     20  C   UNL     1       1.236   0.361  -0.223  1.00  0.00     0.174 A 
ATOM     21  C   UNL     1      -2.531  -0.256  -0.014  1.00  0.00     0.081 C 
ATOM     22  C   UNL     1      -1.056  -0.218  -0.143  1.00  0.00     0.115 A 
ATOM     23  N   UNL     1      -0.289  -1.265  -0.360  1.00  0.00    -0.143 NA
ATOM     24  S   UNL     1      -0.201   1.266  -0.010  1.00  0.00    -0.091 S 
ATOM     25  N   UNL     1       1.045  -0.925  -0.416  1.00  0.00    -0.132 NA
ENDBRANCH  19  20
ENDBRANCH  18  19
ENDBRANCH  10  18
BRANCH  17  26
ATOM     26  N   UNL     1       2.433  -4.719   4.470  1.00  0.00    -0.337 N 
ATOM     27  C   UNL     1       2.100  -5.379   5.626  1.00  0.00     0.255 C 
ATOM     28  H   UNL     1       1.675  -4.387   3.936  1.00  0.00     0.164 HD
ATOM     29  O   UNL     1       0.937  -5.735   5.797  1.00  0.00    -0.269 OA
BRANCH  27  30
ATOM     30  C   UNL     1       3.137  -5.648   6.602  1.00  0.00     0.080 A 
ATOM     31  C   UNL     1       4.080  -4.768   7.103  1.00  0.00     0.122 A 
ATOM     32  C   UNL     1       3.365  -6.851   7.327  1.00  0.00     0.072 A 
ATOM     33  N   UNL     1       4.803  -5.465   8.024  1.00  0.00    -0.275 N 
ATOM     34  N   UNL     1       4.403  -6.736   8.168  1.00  0.00    -0.178 NA
ATOM     35  C   UNL     1       2.638  -8.143   7.235  1.00  0.00     0.069 C 
ATOM     36  C   UNL     1       5.907  -4.979   8.816  1.00  0.00     0.173 C 
ENDBRANCH  27  30
ENDBRANCH  17  26
ENDBRANCH   7   9
ENDBRANCH   6   7
ENDBRANCH   5   6
ENDBRANCH   4   5
ENDBRANCH   3   4
ENDBRANCH   2   3
ENDBRANCH   1   2
BRANCH   1  37
ATOM     37  O   UNL     1       7.519  -1.688  -0.154  1.00  0.00    -0.377 OA
BRANCH  37  38
ATOM     38  C   UNL     1       8.549  -1.757  -1.139  1.00  0.00     0.188 C 
BRANCH  38  39
ATOM     39  C   UNL     1       9.764  -2.696  -0.967  1.00  0.00     0.188 C 
BRANCH  39  40
ATOM     40  O   UNL     1      10.000  -3.134   0.365  1.00  0.00    -0.376 OA
BRANCH  40  41
ATOM     41  C   UNL     1      11.124  -2.571   1.026  1.00  0.00     0.202 C 
BRANCH  41  42
ATOM     42  C   UNL     1      10.918  -1.117   1.465  1.00  0.00     0.261 C 
BRANCH  42  43
ATOM     43  O   UNL     1      10.764  -0.181   0.386  1.00  0.00    -0.460 OA
BRANCH  43  44
ATOM     44  C   UNL     1      11.799  -0.070  -0.476  1.00  0.00     0.338 C 
ATOM     45  O   UNL     1      12.874  -0.637  -0.425  1.00  0.00    -0.246 OA
BRANCH  44  46
ATOM     46  C   UNL     1      11.344   0.749  -1.612  1.00  0.00     0.060 A 
ATOM     47  C   UNL     1      11.380   0.204  -2.901  1.00  0.00     0.016 A 
ATOM     48  C   UNL     1      10.893   2.053  -1.397  1.00  0.00     0.016 A 
ATOM     49  C   UNL     1      10.994   0.982  -3.992  1.00  0.00     0.010 A 
ATOM     50  C   UNL     1      10.525   2.835  -2.490  1.00  0.00     0.010 A 
ATOM     51  C   UNL     1      10.605   2.313  -3.793  1.00  0.00    -0.014 A 
BRANCH  51  52
ATOM     52  C   UNL     1      10.472   3.228  -4.949  1.00  0.00     0.031 A 
ATOM     53  C   UNL     1      11.657   4.072  -5.326  1.00  0.00     0.074 A 
ATOM     54  C   UNL     1       9.324   3.319  -5.640  1.00  0.00     0.049 A 
ATOM     55  N   UNL     1      11.760   4.997  -6.244  1.00  0.00    -0.248 NA
ATOM     56  C   UNL     1      12.891   3.845  -4.556  1.00  0.00     0.031 C 
ATOM     57  C   UNL     1       8.120   2.530  -5.391  1.00  0.00     0.029 A 
ATOM     58  N   UNL     1       8.985   4.134  -6.690  1.00  0.00    -0.354 N 
ATOM     59  C   UNL     1      13.066   5.462  -6.162  1.00  0.00     0.074 A 
ATOM     60  C   UNL     1      13.710   4.740  -5.085  1.00  0.00     0.031 C 
ATOM     61  C   UNL     1       7.164   2.914  -6.256  1.00  0.00     0.029 A 
ATOM     62  C   UNL     1       7.681   3.993  -7.096  1.00  0.00     0.049 A 
ATOM     63  H   UNL     1       9.617   4.761  -7.112  1.00  0.00     0.167 HD
ATOM     64  C   UNL     1      13.677   6.402  -6.919  1.00  0.00     0.037 A 
ATOM     65  C   UNL     1       6.984   4.678  -8.023  1.00  0.00     0.037 A 
ATOM     66  C   UNL     1      13.035   7.125  -7.983  1.00  0.00     0.049 A 
ATOM     67  C   UNL     1       7.664   5.775  -8.800  1.00  0.00     0.074 A 
ATOM     68  C   UNL     1      13.574   8.084  -8.822  1.00  0.00     0.029 A 
ATOM     69  N   UNL     1      11.705   6.975  -8.345  1.00  0.00    -0.354 N 
ATOM     70  N   UNL     1       8.907   6.189  -8.737  1.00  0.00    -0.248 NA
ATOM     71  C   UNL     1       6.840   6.504  -9.777  1.00  0.00     0.031 C 
ATOM     72  C   UNL     1      12.556   8.549  -9.662  1.00  0.00     0.029 A 
ATOM     73  C   UNL     1      11.397   7.845  -9.377  1.00  0.00     0.049 A 
ATOM     74  H   UNL     1      11.074   6.344  -7.930  1.00  0.00     0.167 HD
ATOM     75  C   UNL     1       9.020   7.205  -9.679  1.00  0.00     0.074 A 
ATOM     76  C   UNL     1       7.724   7.337 -10.309  1.00  0.00     0.031 C 
ATOM     77  C   UNL     1      10.101   7.960  -9.995  1.00  0.00     0.037 A 
BRANCH  64  78
ATOM     78  C   UNL     1      15.108   6.715  -6.602  1.00  0.00     0.057 A 
ATOM     79  C   UNL     1      16.145   5.823  -6.907  1.00  0.00     0.134 A 
ATOM     80  C   UNL     1      15.455   7.929  -5.998  1.00  0.00     0.134 A 
ATOM     81  F   UNL     1      15.876   4.634  -7.468  1.00  0.00    -0.206 F 
ATOM     82  C   UNL     1      17.474   6.120  -6.604  1.00  0.00     0.040 A 
ATOM     83  C   UNL     1      16.783   8.248  -5.712  1.00  0.00     0.040 A 
ATOM     84  F   UNL     1      14.510   8.826  -5.679  1.00  0.00    -0.206 F 
ATOM     85  C   UNL     1      17.797   7.339  -6.010  1.00  0.00     0.006 A 
ENDBRANCH  64  78
BRANCH  65  86
ATOM     86  C   UNL     1       5.553   4.364  -8.261  1.00  0.00     0.057 A 
ATOM     87  C   UNL     1       5.129   3.774  -9.457  1.00  0.00     0.134 A 
ATOM     88  C   UNL     1       4.572   4.676  -7.312  1.00  0.00     0.134 A 
ATOM     89  F   UNL     1       6.019   3.477 -10.415  1.00  0.00    -0.206 F 
ATOM     90  C   UNL     1       3.779   3.520  -9.709  1.00  0.00     0.040 A 
ATOM     91  C   UNL     1       3.221   4.406  -7.540  1.00  0.00     0.040 A 
ATOM     92  F   UNL     1       4.913   5.245  -6.147  1.00  0.00    -0.206 F 
ATOM     93  C   UNL     1       2.822   3.832  -8.746  1.00  0.00     0.006 A 
ENDBRANCH  65  86
BRANCH  77  94
ATOM     94  C   UNL     1       9.936   8.977 -11.087  1.00  0.00     0.057 A 
ATOM     95  C   UNL     1       9.216  10.161 -10.890  1.00  0.00     0.134 A 
ATOM     96  C   UNL     1      10.547   8.789 -12.334  1.00  0.00     0.134 A 
ATOM     97  F   UNL     1       8.598  10.396  -9.723  1.00  0.00    -0.206 F 
ATOM     98  C   UNL     1       9.093  11.115 -11.902  1.00  0.00     0.040 A 
ATOM     99  C   UNL     1      10.452   9.747 -13.344  1.00  0.00     0.040 A 
ATOM    100  F   UNL     1      11.260   7.681 -12.583  1.00  0.00    -0.206 F 
ATOM    101  C   UNL     1       9.718  10.912 -13.131  1.00  0.00     0.006 A 
ENDBRANCH  77  94
ENDBRANCH  51  52
ENDBRANCH  44  46
ENDBRANCH  43  44
ENDBRANCH  42  43
ENDBRANCH  41  42
ENDBRANCH  40  41
ENDBRANCH  39  40
ENDBRANCH  38  39
ENDBRANCH  37  38
ENDBRANCH   1  37
TORSDOF 25
