REMARK SMILES COc1cccc(CSc2nc3ccccc3c(=O)n2CCC(=O)OCCOCCOCCOCCOC(=O)c2ccc(-c3c4nc(c(-c5c(F)cccc5F)c5ccc([nH]5)c(-c5c(F)cccc5F)c5nc(c(-c6c(F)cccc6F)c6ccc3[nH]6)C=C5)C=C4)cc2)c1
REMARK SMILES IDX 29 1 28 2 27 3 26 4 25 5 23 6 24 7 22 8 21 9 20 10 10 11
REMARK SMILES IDX 11 12 12 13 18 14 13 15 17 16 19 17 14 18 16 19 15 20 9 21
REMARK SMILES IDX 8 22 7 23 3 24 4 25 94 26 5 27 6 28 2 29 1 30 30 31 31 32
REMARK SMILES IDX 32 33 33 34 34 35 35 36 36 37 37 38 38 39 39 40 40 41 41 42
REMARK SMILES IDX 93 43 42 44 92 45 43 46 44 47 45 48 86 49 46 50 91 51 85 52
REMARK SMILES IDX 87 53 47 54 90 55 84 56 83 57 48 59 74 60 57 61 73 62 58 63
REMARK SMILES IDX 61 64 72 65 88 66 59 67 60 68 71 70 89 71 62 72 49 73 50 74
REMARK SMILES IDX 55 75 51 76 52 77 54 78 56 79 53 80 75 81 76 82 81 83 77 84
REMARK SMILES IDX 78 85 80 86 82 87 79 88 63 89 64 90 69 91 65 92 66 93 68 94
REMARK SMILES IDX 70 95 67 96
REMARK H PARENT 87 58 61 69
REMARK Flexibility Score: inf
ROOT
ATOM      1  C   UNL     1       4.539  -4.796   3.746  1.00  0.00     0.188 C 
ENDROOT
BRANCH   1   2
ATOM      2  O   UNL     1       5.819  -5.195   4.191  1.00  0.00    -0.376 OA
BRANCH   2   3
ATOM      3  C   UNL     1       6.740  -4.162   4.560  1.00  0.00     0.202 C 
BRANCH   3   4
ATOM      4  C   UNL     1       7.368  -3.255   3.458  1.00  0.00     0.261 C 
BRANCH   4   5
ATOM      5  O   UNL     1       6.791  -1.932   3.218  1.00  0.00    -0.463 OA
BRANCH   5   6
ATOM      6  C   UNL     1       6.471  -1.581   1.933  1.00  0.00     0.307 C 
ATOM      7  O   UNL     1       6.388  -2.384   1.010  1.00  0.00    -0.252 OA
BRANCH   6   8
ATOM      8  C   UNL     1       6.295  -0.058   1.712  1.00  0.00     0.144 C 
BRANCH   8   9
ATOM      9  C   UNL     1       4.967   0.734   1.910  1.00  0.00     0.140 C 
BRANCH   9  10
ATOM     10  N   UNL     1       4.500   0.861   3.279  1.00  0.00    -0.286 N 
ATOM     11  C   UNL     1       4.555  -0.165   4.143  1.00  0.00     0.171 A 
ATOM     12  N   UNL     1       4.955  -0.020   5.364  1.00  0.00    -0.224 NA
ATOM     13  C   UNL     1       5.008   1.302   5.824  1.00  0.00     0.079 A 
ATOM     14  C   UNL     1       3.846   1.965   3.785  1.00  0.00     0.262 A 
ATOM     15  C   UNL     1       5.701   1.645   6.980  1.00  0.00     0.029 A 
ATOM     16  C   UNL     1       4.176   2.246   5.212  1.00  0.00     0.066 A 
ATOM     17  O   UNL     1       3.090   2.681   3.143  1.00  0.00    -0.269 OA
ATOM     18  C   UNL     1       5.463   2.885   7.576  1.00  0.00     0.002 A 
ATOM     19  C   UNL     1       3.833   3.425   5.861  1.00  0.00     0.016 A 
ATOM     20  C   UNL     1       4.480   3.738   7.058  1.00  0.00     0.001 A 
BRANCH  11  21
ATOM     21  S   UNL     1       3.881  -1.653   3.702  1.00  0.00    -0.083 SA
BRANCH  21  22
ATOM     22  C   UNL     1       3.319  -1.968   2.029  1.00  0.00     0.113 C 
BRANCH  22  23
ATOM     23  C   UNL     1       1.843  -1.777   1.861  1.00  0.00    -0.034 A 
ATOM     24  C   UNL     1       0.022  -0.476   0.948  1.00  0.00     0.119 A 
ATOM     25  C   UNL     1      -0.883  -1.225   1.702  1.00  0.00     0.046 A 
ATOM     26  C   UNL     1       1.382  -0.752   1.039  1.00  0.00     0.051 A 
ATOM     27  C   UNL     1      -0.443  -2.304   2.464  1.00  0.00     0.004 A 
ATOM     28  C   UNL     1       0.914  -2.597   2.515  1.00  0.00     0.005 A 
BRANCH  24  29
ATOM     29  O   UNL     1      -0.512   0.519   0.177  1.00  0.00    -0.497 OA
ATOM     30  C   UNL     1       0.336   1.003  -0.861  1.00  0.00     0.278 C 
ENDBRANCH  24  29
ENDBRANCH  22  23
ENDBRANCH  21  22
ENDBRANCH  11  21
ENDBRANCH   9  10
ENDBRANCH   8   9
ENDBRANCH   6   8
ENDBRANCH   5   6
ENDBRANCH   4   5
ENDBRANCH   3   4
ENDBRANCH   2   3
ENDBRANCH   1   2
BRANCH   1  31
ATOM     31  C   UNL     1       3.452  -4.393   4.761  1.00  0.00     0.188 C 
BRANCH  31  32
ATOM     32  O   UNL     1       3.777  -4.050   6.090  1.00  0.00    -0.377 OA
BRANCH  32  33
ATOM     33  C   UNL     1       4.152  -5.143   6.903  1.00  0.00     0.188 C 
BRANCH  33  34
ATOM     34  C   UNL     1       3.124  -6.284   7.061  1.00  0.00     0.188 C 
BRANCH  34  35
ATOM     35  O   UNL     1       2.389  -6.628   5.894  1.00  0.00    -0.376 OA
BRANCH  35  36
ATOM     36  C   UNL     1       0.966  -6.435   5.940  1.00  0.00     0.202 C 
BRANCH  36  37
ATOM     37  C   UNL     1       0.363  -5.008   6.048  1.00  0.00     0.261 C 
BRANCH  37  38
ATOM     38  O   UNL     1       0.933  -4.152   7.042  1.00  0.00    -0.460 OA
BRANCH  38  39
ATOM     39  C   UNL     1       0.619  -4.446   8.315  1.00  0.00     0.338 C 
ATOM     40  O   UNL     1      -0.108  -5.352   8.707  1.00  0.00    -0.246 OA
BRANCH  39  41
ATOM     41  C   UNL     1       1.477  -3.647   9.199  1.00  0.00     0.060 A 
ATOM     42  C   UNL     1       2.441  -4.332   9.945  1.00  0.00     0.016 A 
ATOM     43  C   UNL     1       1.302  -2.267   9.344  1.00  0.00     0.016 A 
ATOM     44  C   UNL     1       3.228  -3.649  10.854  1.00  0.00     0.010 A 
ATOM     45  C   UNL     1       2.054  -1.586  10.307  1.00  0.00     0.010 A 
ATOM     46  C   UNL     1       2.982  -2.292  11.092  1.00  0.00    -0.014 A 
BRANCH  46  47
ATOM     47  C   UNL     1       3.481  -1.766  12.378  1.00  0.00     0.031 A 
ATOM     48  C   UNL     1       2.599  -1.956  13.582  1.00  0.00     0.074 A 
ATOM     49  C   UNL     1       4.738  -1.313  12.498  1.00  0.00     0.049 A 
ATOM     50  N   UNL     1       2.856  -1.743  14.845  1.00  0.00    -0.248 NA
ATOM     51  C   UNL     1       1.248  -2.486  13.325  1.00  0.00     0.031 C 
ATOM     52  C   UNL     1       5.694  -1.172  11.402  1.00  0.00     0.029 A 
ATOM     53  N   UNL     1       5.431  -0.917  13.611  1.00  0.00    -0.354 N 
ATOM     54  C   UNL     1       1.708  -2.123  15.529  1.00  0.00     0.074 A 
ATOM     55  C   UNL     1       0.740  -2.549  14.544  1.00  0.00     0.031 C 
ATOM     56  C   UNL     1       6.858  -0.719  11.901  1.00  0.00     0.029 A 
ATOM     57  C   UNL     1       6.718  -0.523  13.343  1.00  0.00     0.049 A 
ATOM     58  H   UNL     1       5.044  -0.915  14.516  1.00  0.00     0.167 HD
ATOM     59  C   UNL     1       1.484  -2.125  16.863  1.00  0.00     0.037 A 
ATOM     60  C   UNL     1       7.663  -0.052  14.177  1.00  0.00     0.037 A 
ATOM     61  C   UNL     1       2.450  -1.680  17.829  1.00  0.00     0.049 A 
ATOM     62  C   UNL     1       7.357   0.027  15.650  1.00  0.00     0.074 A 
ATOM     63  C   UNL     1       2.329  -1.616  19.205  1.00  0.00     0.029 A 
ATOM     64  N   UNL     1       3.716  -1.207  17.512  1.00  0.00    -0.354 N 
ATOM     65  N   UNL     1       6.273  -0.341  16.294  1.00  0.00    -0.248 NA
ATOM     66  C   UNL     1       8.409   0.575  16.516  1.00  0.00     0.031 C 
ATOM     67  C   UNL     1       3.499  -1.046  19.715  1.00  0.00     0.029 A 
ATOM     68  C   UNL     1       4.377  -0.821  18.665  1.00  0.00     0.049 A 
ATOM     69  H   UNL     1       4.088  -1.155  16.603  1.00  0.00     0.167 HD
ATOM     70  C   UNL     1       6.523  -0.097  17.639  1.00  0.00     0.074 A 
ATOM     71  C   UNL     1       7.869   0.434  17.718  1.00  0.00     0.031 C 
ATOM     72  C   UNL     1       5.718  -0.295  18.713  1.00  0.00     0.037 A 
BRANCH  59  73
ATOM     73  C   UNL     1       0.130  -2.570  17.333  1.00  0.00     0.057 A 
ATOM     74  C   UNL     1      -0.290  -3.905  17.250  1.00  0.00     0.134 A 
ATOM     75  C   UNL     1      -0.771  -1.644  17.873  1.00  0.00     0.134 A 
ATOM     76  F   UNL     1       0.514  -4.840  16.721  1.00  0.00    -0.206 F 
ATOM     77  C   UNL     1      -1.565  -4.297  17.664  1.00  0.00     0.040 A 
ATOM     78  C   UNL     1      -2.037  -2.028  18.317  1.00  0.00     0.040 A 
ATOM     79  F   UNL     1      -0.436  -0.349  17.977  1.00  0.00    -0.206 F 
ATOM     80  C   UNL     1      -2.440  -3.357  18.206  1.00  0.00     0.006 A 
ENDBRANCH  59  73
BRANCH  60  81
ATOM     81  C   UNL     1       8.975   0.394  13.641  1.00  0.00     0.057 A 
ATOM     82  C   UNL     1      10.164  -0.274  13.956  1.00  0.00     0.134 A 
ATOM     83  C   UNL     1       9.071   1.520  12.813  1.00  0.00     0.134 A 
ATOM     84  F   UNL     1      10.145  -1.347  14.759  1.00  0.00    -0.206 F 
ATOM     85  C   UNL     1      11.401   0.174  13.485  1.00  0.00     0.040 A 
ATOM     86  C   UNL     1      10.296   1.962  12.314  1.00  0.00     0.040 A 
ATOM     87  F   UNL     1       7.970   2.206  12.472  1.00  0.00    -0.206 F 
ATOM     88  C   UNL     1      11.468   1.292  12.657  1.00  0.00     0.006 A 
ENDBRANCH  60  81
BRANCH  72  89
ATOM     89  C   UNL     1       6.289   0.028  20.065  1.00  0.00     0.057 A 
ATOM     90  C   UNL     1       6.537   1.345  20.473  1.00  0.00     0.134 A 
ATOM     91  C   UNL     1       6.560  -0.995  20.983  1.00  0.00     0.134 A 
ATOM     92  F   UNL     1       6.306   2.370  19.639  1.00  0.00    -0.206 F 
ATOM     93  C   UNL     1       7.068   1.629  21.732  1.00  0.00     0.040 A 
ATOM     94  C   UNL     1       7.059  -0.721  22.256  1.00  0.00     0.040 A 
ATOM     95  F   UNL     1       6.331  -2.278  20.663  1.00  0.00    -0.206 F 
ATOM     96  C   UNL     1       7.324   0.595  22.630  1.00  0.00     0.006 A 
ENDBRANCH  72  89
ENDBRANCH  46  47
ENDBRANCH  39  41
ENDBRANCH  38  39
ENDBRANCH  37  38
ENDBRANCH  36  37
ENDBRANCH  35  36
ENDBRANCH  34  35
ENDBRANCH  33  34
ENDBRANCH  32  33
ENDBRANCH  31  32
ENDBRANCH   1  31
TORSDOF 26
