REMARK SMILES CCc1cc(C(=O)N[C@@H]2C=C[C@H](C(=O)OCCOCCOCCOCCOC(=O)c3ccc(-c4c5nc(c(-c6c(F)cccc6F)c6ccc([nH]6)c(-c6c(F)cccc6F)c6nc(c(-c7c(F)cccc7F)c7ccc4[nH]7)C=C6)C=C5)cc3)C2)n(C)n1
REMARK SMILES IDX 20 1 19 2 18 3 17 4 16 5 15 6 13 7 14 8 12 9 9 10 10 11
REMARK SMILES IDX 84 12 11 13 8 14 6 15 7 16 5 18 3 19 4 20 87 21 85 22 86 23
REMARK SMILES IDX 2 24 1 25 21 26 22 27 23 28 24 29 25 30 26 31 27 32 28 33
REMARK SMILES IDX 29 34 30 35 31 36 83 37 32 38 82 39 33 40 34 41 35 42 76 43
REMARK SMILES IDX 36 44 81 45 75 46 77 47 37 48 80 49 74 50 73 51 38 53 64 54
REMARK SMILES IDX 47 55 63 56 48 57 51 58 62 59 78 60 49 61 50 62 61 64 79 65
REMARK SMILES IDX 52 66 39 67 40 68 45 69 41 70 42 71 44 72 46 73 43 74 65 75
REMARK SMILES IDX 66 76 71 77 67 78 68 79 70 80 72 81 69 82 53 83 54 84 59 85
REMARK SMILES IDX 55 86 56 87 58 88 60 89 57 90
REMARK H PARENT 8 17 77 52 51 63
REMARK Flexibility Score: inf
ROOT
ATOM      1  C   UNL     1       3.613  -8.121  -4.327  1.00  0.00     0.188 C 
ENDROOT
BRANCH   1   2
ATOM      2  C   UNL     1       3.272  -7.426  -2.994  1.00  0.00     0.188 C 
BRANCH   2   3
ATOM      3  O   UNL     1       2.722  -8.316  -2.043  1.00  0.00    -0.376 OA
BRANCH   3   4
ATOM      4  C   UNL     1       1.366  -8.196  -1.660  1.00  0.00     0.202 C 
BRANCH   4   5
ATOM      5  C   UNL     1       0.226  -8.041  -2.684  1.00  0.00     0.261 C 
BRANCH   5   6
ATOM      6  O   UNL     1       0.613  -7.674  -4.008  1.00  0.00    -0.463 OA
BRANCH   6   7
ATOM      7  C   UNL     1       0.380  -6.393  -4.392  1.00  0.00     0.312 C 
ATOM      8  O   UNL     1      -0.144  -5.541  -3.688  1.00  0.00    -0.252 OA
BRANCH   7   9
ATOM      9  C   UNL     1       0.949  -6.159  -5.790  1.00  0.00     0.124 C 
ATOM     10  C   UNL     1       1.636  -3.811  -5.955  1.00  0.00     0.106 C 
ATOM     11  C   UNL     1       0.374  -4.089  -6.723  1.00  0.00    -0.006 C 
ATOM     12  C   UNL     1       2.159  -5.225  -5.735  1.00  0.00     0.048 C 
ATOM     13  C   UNL     1       0.007  -5.375  -6.646  1.00  0.00    -0.014 C 
BRANCH  10  14
ATOM     14  N   UNL     1       1.292  -3.058  -4.771  1.00  0.00    -0.344 N 
ATOM     15  C   UNL     1       1.910  -2.707  -3.602  1.00  0.00     0.270 C 
ATOM     16  O   UNL     1       1.270  -1.913  -2.905  1.00  0.00    -0.268 OA
ATOM     17  H   UNL     1       0.375  -2.704  -4.819  1.00  0.00     0.164 HD
BRANCH  15  18
ATOM     18  C   UNL     1       3.149  -3.272  -3.111  1.00  0.00     0.126 A 
ATOM     19  C   UNL     1       4.691  -4.056  -1.670  1.00  0.00     0.063 A 
ATOM     20  C   UNL     1       3.411  -3.479  -1.758  1.00  0.00     0.059 A 
ATOM     21  N   UNL     1       5.214  -4.214  -2.887  1.00  0.00    -0.178 NA
ATOM     22  N   UNL     1       4.329  -3.622  -3.717  1.00  0.00    -0.263 N 
ATOM     23  C   UNL     1       4.786  -3.409  -5.067  1.00  0.00     0.174 C 
BRANCH  19  24
ATOM     24  C   UNL     1       5.417  -4.499  -0.441  1.00  0.00     0.055 C 
ATOM     25  C   UNL     1       6.916  -4.233  -0.482  1.00  0.00     0.011 C 
ENDBRANCH  19  24
ENDBRANCH  15  18
ENDBRANCH  10  14
ENDBRANCH   7   9
ENDBRANCH   6   7
ENDBRANCH   5   6
ENDBRANCH   4   5
ENDBRANCH   3   4
ENDBRANCH   2   3
ENDBRANCH   1   2
BRANCH   1  26
ATOM     26  O   UNL     1       2.761  -9.186  -4.718  1.00  0.00    -0.377 OA
BRANCH  26  27
ATOM     27  C   UNL     1       2.769 -10.403  -3.970  1.00  0.00     0.188 C 
BRANCH  27  28
ATOM     28  C   UNL     1       3.783 -10.695  -2.837  1.00  0.00     0.188 C 
BRANCH  28  29
ATOM     29  O   UNL     1       5.005  -9.983  -2.933  1.00  0.00    -0.376 OA
BRANCH  29  30
ATOM     30  C   UNL     1       6.162 -10.724  -3.277  1.00  0.00     0.202 C 
BRANCH  30  31
ATOM     31  C   UNL     1       6.207 -11.235  -4.722  1.00  0.00     0.261 C 
BRANCH  31  32
ATOM     32  O   UNL     1       5.113 -12.076  -5.122  1.00  0.00    -0.460 OA
BRANCH  32  33
ATOM     33  C   UNL     1       4.951 -13.250  -4.475  1.00  0.00     0.338 C 
ATOM     34  O   UNL     1       5.647 -13.712  -3.588  1.00  0.00    -0.246 OA
BRANCH  33  35
ATOM     35  C   UNL     1       3.656 -13.812  -4.909  1.00  0.00     0.060 A 
ATOM     36  C   UNL     1       2.643 -14.037  -3.964  1.00  0.00     0.016 A 
ATOM     37  C   UNL     1       3.439 -14.088  -6.260  1.00  0.00     0.016 A 
ATOM     38  C   UNL     1       1.415 -14.567  -4.369  1.00  0.00     0.010 A 
ATOM     39  C   UNL     1       2.222 -14.638  -6.658  1.00  0.00     0.010 A 
ATOM     40  C   UNL     1       1.217 -14.910  -5.712  1.00  0.00    -0.014 A 
BRANCH  40  41
ATOM     41  C   UNL     1       0.074 -15.759  -6.122  1.00  0.00     0.031 A 
ATOM     42  C   UNL     1       0.320 -17.234  -6.268  1.00  0.00     0.074 A 
ATOM     43  C   UNL     1      -1.129 -15.239  -6.421  1.00  0.00     0.049 A 
ATOM     44  N   UNL     1      -0.439 -18.159  -6.793  1.00  0.00    -0.248 NA
ATOM     45  C   UNL     1       1.613 -17.726  -5.764  1.00  0.00     0.031 C 
ATOM     46  C   UNL     1      -1.508 -13.837  -6.274  1.00  0.00     0.029 A 
ATOM     47  N   UNL     1      -2.246 -15.841  -6.947  1.00  0.00    -0.354 N 
ATOM     48  C   UNL     1       0.294 -19.336  -6.707  1.00  0.00     0.074 A 
ATOM     49  C   UNL     1       1.563 -19.006  -6.097  1.00  0.00     0.031 C 
ATOM     50  C   UNL     1      -2.764 -13.679  -6.730  1.00  0.00     0.029 A 
ATOM     51  C   UNL     1      -3.255 -14.957  -7.245  1.00  0.00     0.049 A 
ATOM     52  H   UNL     1      -2.317 -16.812  -7.096  1.00  0.00     0.167 HD
ATOM     53  C   UNL     1      -0.059 -20.579  -7.105  1.00  0.00     0.037 A 
ATOM     54  C   UNL     1      -4.418 -15.154  -7.897  1.00  0.00     0.037 A 
ATOM     55  C   UNL     1      -1.321 -20.899  -7.716  1.00  0.00     0.049 A 
ATOM     56  C   UNL     1      -4.761 -16.532  -8.407  1.00  0.00     0.074 A 
ATOM     57  C   UNL     1      -1.785 -22.132  -8.138  1.00  0.00     0.029 A 
ATOM     58  N   UNL     1      -2.313 -19.974  -8.003  1.00  0.00    -0.354 N 
ATOM     59  N   UNL     1      -4.073 -17.645  -8.310  1.00  0.00    -0.248 NA
ATOM     60  C   UNL     1      -6.038 -16.682  -9.121  1.00  0.00     0.031 C 
ATOM     61  C   UNL     1      -3.033 -21.943  -8.736  1.00  0.00     0.029 A 
ATOM     62  C   UNL     1      -3.377 -20.605  -8.623  1.00  0.00     0.049 A 
ATOM     63  H   UNL     1      -2.268 -19.013  -7.797  1.00  0.00     0.167 HD
ATOM     64  C   UNL     1      -4.849 -18.630  -8.911  1.00  0.00     0.074 A 
ATOM     65  C   UNL     1      -6.058 -17.984  -9.376  1.00  0.00     0.031 C 
ATOM     66  C   UNL     1      -4.587 -19.952  -9.056  1.00  0.00     0.037 A 
BRANCH  53  67
ATOM     67  C   UNL     1       0.954 -21.673  -6.933  1.00  0.00     0.057 A 
ATOM     68  C   UNL     1       1.317 -22.161  -5.671  1.00  0.00     0.134 A 
ATOM     69  C   UNL     1       1.564 -22.256  -8.051  1.00  0.00     0.134 A 
ATOM     70  F   UNL     1       0.783 -21.635  -4.558  1.00  0.00    -0.206 F 
ATOM     71  C   UNL     1       2.273 -23.168  -5.527  1.00  0.00     0.040 A 
ATOM     72  C   UNL     1       2.497 -23.285  -7.921  1.00  0.00     0.040 A 
ATOM     73  F   UNL     1       1.259 -21.838  -9.289  1.00  0.00    -0.206 F 
ATOM     74  C   UNL     1       2.860 -23.738  -6.655  1.00  0.00     0.006 A 
ENDBRANCH  53  67
BRANCH  54  75
ATOM     75  C   UNL     1      -5.338 -14.011  -8.134  1.00  0.00     0.057 A 
ATOM     76  C   UNL     1      -6.580 -13.936  -7.493  1.00  0.00     0.134 A 
ATOM     77  C   UNL     1      -5.006 -12.975  -9.015  1.00  0.00     0.134 A 
ATOM     78  F   UNL     1      -6.968 -14.911  -6.658  1.00  0.00    -0.206 F 
ATOM     79  C   UNL     1      -7.463 -12.880  -7.728  1.00  0.00     0.040 A 
ATOM     80  C   UNL     1      -5.867 -11.899  -9.239  1.00  0.00     0.040 A 
ATOM     81  F   UNL     1      -3.831 -12.986  -9.663  1.00  0.00    -0.206 F 
ATOM     82  C   UNL     1      -7.103 -11.853  -8.598  1.00  0.00     0.006 A 
ENDBRANCH  54  75
BRANCH  66  83
ATOM     83  C   UNL     1      -5.643 -20.818  -9.682  1.00  0.00     0.057 A 
ATOM     84  C   UNL     1      -5.906 -20.798 -11.056  1.00  0.00     0.134 A 
ATOM     85  C   UNL     1      -6.330 -21.760  -8.904  1.00  0.00     0.134 A 
ATOM     86  F   UNL     1      -5.289 -19.915 -11.855  1.00  0.00    -0.206 F 
ATOM     87  C   UNL     1      -6.819 -21.683 -11.634  1.00  0.00     0.040 A 
ATOM     88  C   UNL     1      -7.224 -22.667  -9.474  1.00  0.00     0.040 A 
ATOM     89  F   UNL     1      -6.115 -21.839  -7.582  1.00  0.00    -0.206 F 
ATOM     90  C   UNL     1      -7.471 -22.629 -10.844  1.00  0.00     0.006 A 
ENDBRANCH  66  83
ENDBRANCH  40  41
ENDBRANCH  33  35
ENDBRANCH  32  33
ENDBRANCH  31  32
ENDBRANCH  30  31
ENDBRANCH  29  30
ENDBRANCH  28  29
ENDBRANCH  27  28
ENDBRANCH  26  27
ENDBRANCH   1  26
TORSDOF 23
