REMARK SMILES O=C(OCCOCCOCCOCCOC(=O)[C@H]1CCCCN1c1cc(-c2ccccc2)nc(-c2cccc(Cl)c2)n1)c1ccc(-c2c3nc(c(-c4c(F)cccc4F)c4ccc([nH]4)c(-c4c(F)cccc4F)c4nc(c(-c5c(F)cccc5F)c5ccc2[nH]5)C=C4)C=C3)cc1
REMARK SMILES IDX 9 1 8 2 7 3 6 4 5 5 4 6 3 7 2 8 1 9 43 10 44 11 96 12 45 13
REMARK SMILES IDX 95 14 46 15 47 16 48 17 89 18 49 19 94 20 88 21 90 22 50 23
REMARK SMILES IDX 93 24 87 25 86 26 51 28 77 29 60 30 76 31 61 32 64 33 75 34
REMARK SMILES IDX 91 35 62 36 63 37 74 39 92 40 65 41 52 42 53 43 58 44 54 45
REMARK SMILES IDX 55 46 57 47 59 48 56 49 78 50 79 51 84 52 80 53 81 54 83 55
REMARK SMILES IDX 85 56 82 57 66 58 67 59 72 60 68 61 69 62 71 63 73 64 70 65
REMARK SMILES IDX 10 66 11 67 12 68 13 69 14 70 15 71 16 72 17 73 18 74 19 75
REMARK SMILES IDX 23 76 20 77 22 78 21 79 24 80 25 81 42 82 26 83 34 84 33 85
REMARK SMILES IDX 27 86 28 87 32 88 29 89 31 90 30 91 35 92 36 93 41 94 37 95
REMARK SMILES IDX 39 96 38 97 40 98
REMARK H PARENT 90 27 64 38
REMARK Flexibility Score: inf
ROOT
ATOM      1  O   UNL     1       7.601  -2.900  -0.813  1.00  0.00    -0.377 OA
ENDROOT
BRANCH   1   2
ATOM      2  C   UNL     1       8.469  -3.048   0.296  1.00  0.00     0.188 C 
BRANCH   2   3
ATOM      3  C   UNL     1       7.819  -3.669   1.535  1.00  0.00     0.188 C 
BRANCH   3   4
ATOM      4  O   UNL     1       7.621  -5.079   1.353  1.00  0.00    -0.376 OA
BRANCH   4   5
ATOM      5  C   UNL     1       6.391  -5.616   1.846  1.00  0.00     0.202 C 
BRANCH   5   6
ATOM      6  C   UNL     1       6.338  -5.886   3.348  1.00  0.00     0.261 C 
BRANCH   6   7
ATOM      7  O   UNL     1       7.044  -4.913   4.123  1.00  0.00    -0.460 OA
BRANCH   7   8
ATOM      8  C   UNL     1       8.368  -4.859   4.403  1.00  0.00     0.338 C 
ATOM      9  O   UNL     1       8.748  -3.973   5.169  1.00  0.00    -0.246 OA
BRANCH   8  10
ATOM     10  C   UNL     1       9.423  -5.732   3.773  1.00  0.00     0.060 A 
ATOM     11  C   UNL     1       9.210  -6.766   2.855  1.00  0.00     0.016 A 
ATOM     12  C   UNL     1      10.757  -5.442   4.121  1.00  0.00     0.016 A 
ATOM     13  C   UNL     1      10.255  -7.477   2.285  1.00  0.00     0.010 A 
ATOM     14  C   UNL     1      11.817  -6.198   3.615  1.00  0.00     0.010 A 
ATOM     15  C   UNL     1      11.550  -7.240   2.724  1.00  0.00    -0.014 A 
BRANCH  15  16
ATOM     16  C   UNL     1      12.508  -8.334   2.530  1.00  0.00     0.031 A 
ATOM     17  C   UNL     1      12.565  -9.362   3.620  1.00  0.00     0.074 A 
ATOM     18  C   UNL     1      13.165  -8.476   1.371  1.00  0.00     0.049 A 
ATOM     19  N   UNL     1      13.368 -10.376   3.770  1.00  0.00    -0.248 NA
ATOM     20  C   UNL     1      11.553  -9.233   4.688  1.00  0.00     0.031 C 
ATOM     21  C   UNL     1      13.007  -7.617   0.197  1.00  0.00     0.029 A 
ATOM     22  N   UNL     1      14.088  -9.409   0.990  1.00  0.00    -0.354 N 
ATOM     23  C   UNL     1      12.984 -10.977   4.962  1.00  0.00     0.074 A 
ATOM     24  C   UNL     1      11.870 -10.232   5.491  1.00  0.00     0.031 C 
ATOM     25  C   UNL     1      13.830  -8.053  -0.771  1.00  0.00     0.029 A 
ATOM     26  C   UNL     1      14.610  -9.175  -0.256  1.00  0.00     0.049 A 
ATOM     27  H   UNL     1      14.351 -10.172   1.554  1.00  0.00     0.167 HD
ATOM     28  C   UNL     1      13.541 -12.048   5.567  1.00  0.00     0.037 A 
ATOM     29  C   UNL     1      15.646  -9.779  -0.867  1.00  0.00     0.037 A 
ATOM     30  C   UNL     1      14.669 -12.739   5.012  1.00  0.00     0.049 A 
ATOM     31  C   UNL     1      16.340 -10.891  -0.125  1.00  0.00     0.074 A 
ATOM     32  C   UNL     1      15.404 -13.778   5.546  1.00  0.00     0.029 A 
ATOM     33  N   UNL     1      15.228 -12.435   3.775  1.00  0.00    -0.354 N 
ATOM     34  N   UNL     1      16.051 -11.404   1.051  1.00  0.00    -0.248 NA
ATOM     35  C   UNL     1      17.507 -11.496  -0.774  1.00  0.00     0.031 C 
ATOM     36  C   UNL     1      16.440 -14.069   4.650  1.00  0.00     0.029 A 
ATOM     37  C   UNL     1      16.311 -13.254   3.532  1.00  0.00     0.049 A 
ATOM     38  H   UNL     1      14.899 -11.738   3.163  1.00  0.00     0.167 HD
ATOM     39  C   UNL     1      16.982 -12.409   1.272  1.00  0.00     0.074 A 
ATOM     40  C   UNL     1      17.843 -12.433   0.103  1.00  0.00     0.031 C 
ATOM     41  C   UNL     1      17.120 -13.240   2.336  1.00  0.00     0.037 A 
BRANCH  28  42
ATOM     42  C   UNL     1      13.002 -12.416   6.918  1.00  0.00     0.057 A 
ATOM     43  C   UNL     1      11.719 -12.954   7.097  1.00  0.00     0.134 A 
ATOM     44  C   UNL     1      13.743 -12.128   8.071  1.00  0.00     0.134 A 
ATOM     45  F   UNL     1      10.937 -13.213   6.038  1.00  0.00    -0.206 F 
ATOM     46  C   UNL     1      11.181 -13.154   8.371  1.00  0.00     0.040 A 
ATOM     47  C   UNL     1      13.227 -12.349   9.349  1.00  0.00     0.040 A 
ATOM     48  F   UNL     1      14.971 -11.596   7.976  1.00  0.00    -0.206 F 
ATOM     49  C   UNL     1      11.937 -12.851   9.502  1.00  0.00     0.006 A 
ENDBRANCH  28  42
BRANCH  29  50
ATOM     50  C   UNL     1      16.110  -9.302  -2.195  1.00  0.00     0.057 A 
ATOM     51  C   UNL     1      16.003 -10.097  -3.340  1.00  0.00     0.134 A 
ATOM     52  C   UNL     1      16.659  -8.021  -2.355  1.00  0.00     0.134 A 
ATOM     53  F   UNL     1      15.505 -11.339  -3.255  1.00  0.00    -0.206 F 
ATOM     54  C   UNL     1      16.427  -9.642  -4.592  1.00  0.00     0.040 A 
ATOM     55  C   UNL     1      17.063  -7.543  -3.603  1.00  0.00     0.040 A 
ATOM     56  F   UNL     1      16.793  -7.204  -1.299  1.00  0.00    -0.206 F 
ATOM     57  C   UNL     1      16.952  -8.358  -4.726  1.00  0.00     0.006 A 
ENDBRANCH  29  50
BRANCH  41  58
ATOM     58  C   UNL     1      18.200 -14.273   2.254  1.00  0.00     0.057 A 
ATOM     59  C   UNL     1      19.550 -13.948   2.421  1.00  0.00     0.134 A 
ATOM     60  C   UNL     1      17.866 -15.624   2.094  1.00  0.00     0.134 A 
ATOM     61  F   UNL     1      19.930 -12.670   2.569  1.00  0.00    -0.206 F 
ATOM     62  C   UNL     1      20.536 -14.934   2.419  1.00  0.00     0.040 A 
ATOM     63  C   UNL     1      18.839 -16.620   2.120  1.00  0.00     0.040 A 
ATOM     64  F   UNL     1      16.585 -15.996   1.944  1.00  0.00    -0.206 F 
ATOM     65  C   UNL     1      20.179 -16.275   2.280  1.00  0.00     0.006 A 
ENDBRANCH  41  58
ENDBRANCH  15  16
ENDBRANCH   8  10
ENDBRANCH   7   8
ENDBRANCH   6   7
ENDBRANCH   5   6
ENDBRANCH   4   5
ENDBRANCH   3   4
ENDBRANCH   2   3
ENDBRANCH   1   2
BRANCH   1  66
ATOM     66  C   UNL     1       6.818  -4.032  -1.122  1.00  0.00     0.188 C 
BRANCH  66  67
ATOM     67  C   UNL     1       7.488  -5.301  -1.668  1.00  0.00     0.188 C 
BRANCH  67  68
ATOM     68  O   UNL     1       8.722  -5.216  -2.331  1.00  0.00    -0.376 OA
BRANCH  68  69
ATOM     69  C   UNL     1       8.958  -4.174  -3.250  1.00  0.00     0.202 C 
BRANCH  69  70
ATOM     70  C   UNL     1       7.871  -3.519  -4.138  1.00  0.00     0.261 C 
BRANCH  70  71
ATOM     71  O   UNL     1       6.477  -3.652  -3.804  1.00  0.00    -0.462 OA
BRANCH  71  72
ATOM     72  C   UNL     1       5.802  -4.731  -4.279  1.00  0.00     0.328 C 
ATOM     73  O   UNL     1       6.330  -5.549  -5.033  1.00  0.00    -0.250 OA
BRANCH  72  74
ATOM     74  C   UNL     1       4.301  -4.787  -3.810  1.00  0.00     0.193 C 
ATOM     75  C   UNL     1       3.641  -5.980  -4.518  1.00  0.00     0.037 C 
ATOM     76  N   UNL     1       4.056  -4.866  -2.320  1.00  0.00    -0.343 N 
ATOM     77  C   UNL     1       4.053  -7.298  -3.866  1.00  0.00     0.005 C 
ATOM     78  C   UNL     1       4.067  -6.158  -1.617  1.00  0.00     0.119 C 
ATOM     79  C   UNL     1       3.531  -7.321  -2.442  1.00  0.00     0.022 C 
BRANCH  76  80
ATOM     80  C   UNL     1       3.202  -3.915  -1.737  1.00  0.00     0.134 A 
ATOM     81  C   UNL     1       3.477  -3.383  -0.477  1.00  0.00     0.076 A 
ATOM     82  N   UNL     1       2.091  -3.557  -2.382  1.00  0.00    -0.211 NA
ATOM     83  C   UNL     1       2.620  -2.438   0.062  1.00  0.00     0.076 A 
ATOM     84  C   UNL     1       1.278  -2.678  -1.760  1.00  0.00     0.162 A 
ATOM     85  N   UNL     1       1.492  -2.092  -0.571  1.00  0.00    -0.228 NA
BRANCH  83  86
ATOM     86  C   UNL     1       2.890  -1.723   1.327  1.00  0.00     0.000 A 
ATOM     87  C   UNL     1       1.907  -1.618   2.329  1.00  0.00     0.010 A 
ATOM     88  C   UNL     1       4.114  -1.063   1.551  1.00  0.00     0.010 A 
ATOM     89  C   UNL     1       2.131  -0.880   3.498  1.00  0.00     0.001 A 
ATOM     90  C   UNL     1       4.335  -0.315   2.715  1.00  0.00     0.001 A 
ATOM     91  C   UNL     1       3.343  -0.222   3.687  1.00  0.00     0.000 A 
ENDBRANCH  83  86
BRANCH  84  92
ATOM     92  C   UNL     1       0.035  -2.340  -2.437  1.00  0.00     0.021 A 
ATOM     93  C   UNL     1      -0.907  -3.338  -2.741  1.00  0.00     0.012 A 
ATOM     94  C   UNL     1      -0.239  -1.015  -2.807  1.00  0.00     0.032 A 
ATOM     95  C   UNL     1      -2.085  -3.025  -3.417  1.00  0.00     0.002 A 
ATOM     96  C   UNL     1      -1.407  -0.710  -3.501  1.00  0.00     0.041 A 
ATOM     97  C   UNL     1      -2.329  -1.709  -3.809  1.00  0.00     0.020 A 
ATOM     98  Cl  UNL     1      -1.703   0.910  -3.997  1.00  0.00    -0.084 Cl
ENDBRANCH  84  92
ENDBRANCH  76  80
ENDBRANCH  72  74
ENDBRANCH  71  72
ENDBRANCH  70  71
ENDBRANCH  69  70
ENDBRANCH  68  69
ENDBRANCH  67  68
ENDBRANCH  66  67
ENDBRANCH   1  66
TORSDOF 23
