REMARK SMILES CSc1ncc(Cl)c(C(=O)Nc2ccsc2C(=O)OCCOCCOCCOCCOC(=O)c2ccc(-c3c4nc(c(-c5c(F)cccc5F)c5ccc([nH]5)c(-c5c(F)cccc5F)c5nc(c(-c6c(F)cccc6F)c6ccc3[nH]6)C=C5)C=C4)cc2)n1
REMARK SMILES IDX 24 1 23 2 22 3 21 4 20 5 19 6 17 7 18 8 16 9 12 10 13 11
REMARK SMILES IDX 14 12 15 13 11 14 9 15 10 16 8 18 3 19 4 20 88 21 5 22 6 23
REMARK SMILES IDX 7 24 2 25 1 26 25 27 26 28 27 29 28 30 29 31 30 32 31 33
REMARK SMILES IDX 32 34 33 35 34 36 35 37 87 38 36 39 86 40 37 41 38 42 39 43
REMARK SMILES IDX 80 44 40 45 85 46 79 47 81 48 41 49 84 50 78 51 77 52 42 54
REMARK SMILES IDX 68 55 51 56 67 57 52 58 55 59 66 60 82 61 53 62 54 63 65 65
REMARK SMILES IDX 83 66 56 67 43 68 44 69 49 70 45 71 46 72 48 73 50 74 47 75
REMARK SMILES IDX 69 76 70 77 75 78 71 79 72 80 74 81 76 82 73 83 57 84 58 85
REMARK SMILES IDX 63 86 59 87 60 88 62 89 64 90 61 91
REMARK H PARENT 11 17 81 53 55 64
REMARK Flexibility Score: inf
ROOT
ATOM      1  C   UNL     1      -0.510  -8.553  -2.350  1.00  0.00     0.188 C 
ENDROOT
BRANCH   1   2
ATOM      2  C   UNL     1       0.078  -9.866  -2.892  1.00  0.00     0.188 C 
BRANCH   2   3
ATOM      3  O   UNL     1      -0.518 -11.136  -2.655  1.00  0.00    -0.376 OA
BRANCH   3   4
ATOM      4  C   UNL     1      -1.501 -11.322  -1.654  1.00  0.00     0.202 C 
BRANCH   4   5
ATOM      5  C   UNL     1      -1.120 -11.109  -0.178  1.00  0.00     0.261 C 
BRANCH   5   6
ATOM      6  O   UNL     1      -0.153 -10.081   0.096  1.00  0.00    -0.459 OA
BRANCH   6   7
ATOM      7  C   UNL     1       1.141 -10.502   0.202  1.00  0.00     0.350 C 
ATOM      8  O   UNL     1       1.479 -11.678   0.099  1.00  0.00    -0.245 OA
BRANCH   7   9
ATOM      9  C   UNL     1       2.043  -9.375   0.432  1.00  0.00     0.136 A 
ATOM     10  C   UNL     1       1.831  -8.022   0.714  1.00  0.00     0.067 A 
ATOM     11  C   UNL     1       3.072  -7.342   0.930  1.00  0.00     0.039 A 
ATOM     12  C   UNL     1       4.168  -8.123   0.652  1.00  0.00     0.068 A 
ATOM     13  S   UNL     1       3.728  -9.714   0.261  1.00  0.00    -0.135 S 
BRANCH  10  14
ATOM     14  N   UNL     1       0.559  -7.460   0.791  1.00  0.00    -0.319 N 
ATOM     15  C   UNL     1       0.108  -6.153   0.778  1.00  0.00     0.276 C 
ATOM     16  O   UNL     1      -1.091  -5.958   0.997  1.00  0.00    -0.267 OA
ATOM     17  H   UNL     1      -0.162  -8.125   0.870  1.00  0.00     0.170 HD
BRANCH  15  18
ATOM     18  C   UNL     1       0.950  -4.961   0.455  1.00  0.00     0.151 A 
ATOM     19  C   UNL     1       1.338  -2.750   0.992  1.00  0.00     0.188 A 
ATOM     20  N   UNL     1       2.187  -2.586  -0.032  1.00  0.00    -0.230 NA
ATOM     21  N   UNL     1       0.747  -3.911   1.302  1.00  0.00    -0.216 NA
ATOM     22  C   UNL     1       2.355  -3.643  -0.849  1.00  0.00     0.137 A 
ATOM     23  C   UNL     1       1.716  -4.852  -0.691  1.00  0.00     0.090 A 
ATOM     24  Cl  UNL     1       1.864  -6.006  -1.948  1.00  0.00    -0.080 Cl
BRANCH  19  25
ATOM     25  S   UNL     1       0.871  -1.309   1.913  1.00  0.00    -0.090 SA
ATOM     26  C   UNL     1       0.976  -0.074   0.587  1.00  0.00     0.094 C 
ENDBRANCH  19  25
ENDBRANCH  15  18
ENDBRANCH  10  14
ENDBRANCH   7   9
ENDBRANCH   6   7
ENDBRANCH   5   6
ENDBRANCH   4   5
ENDBRANCH   3   4
ENDBRANCH   2   3
ENDBRANCH   1   2
BRANCH   1  27
ATOM     27  O   UNL     1      -1.813  -8.647  -1.807  1.00  0.00    -0.377 OA
BRANCH  27  28
ATOM     28  C   UNL     1      -2.843  -8.080  -2.606  1.00  0.00     0.188 C 
BRANCH  28  29
ATOM     29  C   UNL     1      -2.902  -8.603  -4.048  1.00  0.00     0.188 C 
BRANCH  29  30
ATOM     30  O   UNL     1      -1.796  -8.149  -4.833  1.00  0.00    -0.376 OA
BRANCH  30  31
ATOM     31  C   UNL     1      -2.078  -7.098  -5.755  1.00  0.00     0.202 C 
BRANCH  31  32
ATOM     32  C   UNL     1      -2.087  -5.698  -5.123  1.00  0.00     0.261 C 
BRANCH  32  33
ATOM     33  O   UNL     1      -3.145  -5.461  -4.178  1.00  0.00    -0.460 OA
BRANCH  33  34
ATOM     34  C   UNL     1      -4.413  -5.598  -4.619  1.00  0.00     0.338 C 
ATOM     35  O   UNL     1      -4.776  -5.827  -5.758  1.00  0.00    -0.246 OA
BRANCH  34  36
ATOM     36  C   UNL     1      -5.310  -5.609  -3.447  1.00  0.00     0.060 A 
ATOM     37  C   UNL     1      -6.204  -6.677  -3.299  1.00  0.00     0.016 A 
ATOM     38  C   UNL     1      -5.287  -4.569  -2.514  1.00  0.00     0.016 A 
ATOM     39  C   UNL     1      -7.108  -6.685  -2.236  1.00  0.00     0.010 A 
ATOM     40  C   UNL     1      -6.204  -4.570  -1.461  1.00  0.00     0.010 A 
ATOM     41  C   UNL     1      -7.141  -5.610  -1.338  1.00  0.00    -0.014 A 
BRANCH  41  42
ATOM     42  C   UNL     1      -8.273  -5.476  -0.390  1.00  0.00     0.031 A 
ATOM     43  C   UNL     1      -9.459  -4.649  -0.808  1.00  0.00     0.074 A 
ATOM     44  C   UNL     1      -8.261  -6.085   0.808  1.00  0.00     0.049 A 
ATOM     45  N   UNL     1     -10.546  -4.357  -0.141  1.00  0.00    -0.248 NA
ATOM     46  C   UNL     1      -9.412  -4.077  -2.164  1.00  0.00     0.031 C 
ATOM     47  C   UNL     1      -7.188  -6.937   1.316  1.00  0.00     0.029 A 
ATOM     48  N   UNL     1      -9.188  -6.067   1.820  1.00  0.00    -0.354 N 
ATOM     49  C   UNL     1     -11.314  -3.579  -0.997  1.00  0.00     0.074 A 
ATOM     50  C   UNL     1     -10.558  -3.414  -2.219  1.00  0.00     0.031 C 
ATOM     51  C   UNL     1      -7.514  -7.353   2.554  1.00  0.00     0.029 A 
ATOM     52  C   UNL     1      -8.803  -6.776   2.932  1.00  0.00     0.049 A 
ATOM     53  H   UNL     1     -10.047  -5.591   1.756  1.00  0.00     0.167 HD
ATOM     54  C   UNL     1     -12.546  -3.059  -0.790  1.00  0.00     0.037 A 
ATOM     55  C   UNL     1      -9.416  -6.922   4.122  1.00  0.00     0.037 A 
ATOM     56  C   UNL     1     -13.294  -3.202   0.429  1.00  0.00     0.049 A 
ATOM     57  C   UNL     1     -10.748  -6.255   4.358  1.00  0.00     0.074 A 
ATOM     58  C   UNL     1     -14.542  -2.692   0.741  1.00  0.00     0.029 A 
ATOM     59  N   UNL     1     -12.858  -3.906   1.540  1.00  0.00    -0.354 N 
ATOM     60  N   UNL     1     -11.474  -5.537   3.536  1.00  0.00    -0.248 NA
ATOM     61  C   UNL     1     -11.345  -6.421   5.693  1.00  0.00     0.031 C 
ATOM     62  C   UNL     1     -14.849  -3.062   2.054  1.00  0.00     0.029 A 
ATOM     63  C   UNL     1     -13.808  -3.834   2.544  1.00  0.00     0.049 A 
ATOM     64  H   UNL     1     -12.001  -4.385   1.605  1.00  0.00     0.167 HD
ATOM     65  C   UNL     1     -12.623  -5.197   4.239  1.00  0.00     0.074 A 
ATOM     66  C   UNL     1     -12.504  -5.794   5.552  1.00  0.00     0.031 C 
ATOM     67  C   UNL     1     -13.684  -4.456   3.836  1.00  0.00     0.037 A 
BRANCH  54  68
ATOM     68  C   UNL     1     -13.159  -2.277  -1.912  1.00  0.00     0.057 A 
ATOM     69  C   UNL     1     -13.672  -2.913  -3.050  1.00  0.00     0.134 A 
ATOM     70  C   UNL     1     -13.270  -0.884  -1.841  1.00  0.00     0.134 A 
ATOM     71  F   UNL     1     -13.579  -4.245  -3.185  1.00  0.00    -0.206 F 
ATOM     72  C   UNL     1     -14.266  -2.188  -4.083  1.00  0.00     0.040 A 
ATOM     73  C   UNL     1     -13.880  -0.150  -2.858  1.00  0.00     0.040 A 
ATOM     74  F   UNL     1     -12.797  -0.216  -0.777  1.00  0.00    -0.206 F 
ATOM     75  C   UNL     1     -14.378  -0.802  -3.985  1.00  0.00     0.006 A 
ENDBRANCH  54  68
BRANCH  55  76
ATOM     76  C   UNL     1      -8.784  -7.718   5.205  1.00  0.00     0.057 A 
ATOM     77  C   UNL     1      -9.342  -8.928   5.635  1.00  0.00     0.134 A 
ATOM     78  C   UNL     1      -7.647  -7.256   5.878  1.00  0.00     0.134 A 
ATOM     79  F   UNL     1     -10.449  -9.407   5.048  1.00  0.00    -0.206 F 
ATOM     80  C   UNL     1      -8.809  -9.636   6.714  1.00  0.00     0.040 A 
ATOM     81  C   UNL     1      -7.089  -7.967   6.942  1.00  0.00     0.040 A 
ATOM     82  F   UNL     1      -7.070  -6.101   5.519  1.00  0.00    -0.206 F 
ATOM     83  C   UNL     1      -7.678  -9.156   7.370  1.00  0.00     0.006 A 
ENDBRANCH  55  76
BRANCH  67  84
ATOM     84  C   UNL     1     -14.820  -4.293   4.802  1.00  0.00     0.057 A 
ATOM     85  C   UNL     1     -14.727  -3.454   5.919  1.00  0.00     0.134 A 
ATOM     86  C   UNL     1     -16.036  -4.953   4.585  1.00  0.00     0.134 A 
ATOM     87  F   UNL     1     -13.585  -2.804   6.188  1.00  0.00    -0.206 F 
ATOM     88  C   UNL     1     -15.799  -3.293   6.799  1.00  0.00     0.040 A 
ATOM     89  C   UNL     1     -17.122  -4.781   5.444  1.00  0.00     0.040 A 
ATOM     90  F   UNL     1     -16.193  -5.763   3.527  1.00  0.00    -0.206 F 
ATOM     91  C   UNL     1     -17.003  -3.953   6.558  1.00  0.00     0.006 A 
ENDBRANCH  67  84
ENDBRANCH  41  42
ENDBRANCH  34  36
ENDBRANCH  33  34
ENDBRANCH  32  33
ENDBRANCH  31  32
ENDBRANCH  30  31
ENDBRANCH  29  30
ENDBRANCH  28  29
ENDBRANCH  27  28
ENDBRANCH   1  27
TORSDOF 23
