REMARK SMILES Cc1c(C(=O)OCCOCCOCCOCCOC(=O)c2ccc(-c3c4nc(c(-c5c(F)cccc5F)c5ccc([nH]5)c(-c5c(F)cccc5F)c5nc(c(-c6c(F)cccc6F)c6ccc3[nH]6)C=C5)C=C4)cc2)cccc1N1[C@@H](C)C=C(/C=C(\C#N)C(=O)NCCc2c[nH]c3ccccc23)[C@@H]1C
REMARK SMILES IDX 10 1 9 2 8 3 7 4 6 5 4 6 5 7 3 8 1 9 2 10 78 11 75 12 77 13
REMARK SMILES IDX 76 14 79 15 80 16 102 17 82 18 81 19 83 20 103 21 84 22
REMARK SMILES IDX 85 23 86 24 87 25 88 26 89 27 90 28 91 30 92 31 93 32 94 33
REMARK SMILES IDX 101 34 95 35 96 36 100 37 97 39 99 40 98 41 11 42 12 43
REMARK SMILES IDX 13 44 14 45 15 46 16 47 17 48 18 49 19 50 20 51 21 52 22 53
REMARK SMILES IDX 74 54 23 55 73 56 24 57 25 58 26 59 67 60 27 61 72 62 66 63
REMARK SMILES IDX 68 64 28 65 71 66 65 67 64 68 29 70 55 71 38 72 54 73 39 74
REMARK SMILES IDX 42 75 53 76 69 77 40 78 41 79 52 81 70 82 43 83 30 84 31 85
REMARK SMILES IDX 36 86 32 87 33 88 35 89 37 90 34 91 56 92 57 93 62 94 58 95
REMARK SMILES IDX 59 96 61 97 63 98 60 99 44 100 45 101 50 102 46 103 47 104
REMARK SMILES IDX 49 105 51 106 48 107
REMARK H PARENT 90 29 95 38 68 69 42 80
REMARK Flexibility Score: inf
ROOT
ATOM      1  C   UNL     1      -1.125  -2.352   2.136  1.00  0.00     0.188 C 
ENDROOT
BRANCH   1   2
ATOM      2  O   UNL     1      -0.844  -3.735   1.974  1.00  0.00    -0.376 OA
BRANCH   2   3
ATOM      3  C   UNL     1       0.136  -4.045   0.991  1.00  0.00     0.202 C 
BRANCH   3   4
ATOM      4  C   UNL     1      -0.285  -3.780  -0.440  1.00  0.00     0.261 C 
BRANCH   4   5
ATOM      5  O   UNL     1      -0.127  -2.393  -0.728  1.00  0.00    -0.460 OA
BRANCH   5   6
ATOM      6  C   UNL     1      -1.222  -1.804  -1.212  1.00  0.00     0.338 C 
ATOM      7  O   UNL     1      -2.175  -2.384  -1.715  1.00  0.00    -0.246 OA
BRANCH   6   8
ATOM      8  C   UNL     1      -1.294  -0.378  -0.791  1.00  0.00     0.065 A 
ATOM      9  C   UNL     1       1.099   0.111   0.056  1.00  0.00     0.047 C 
ATOM     10  C   UNL     1      -0.257   0.528  -0.449  1.00  0.00    -0.013 A 
ATOM     11  C   UNL     1      -0.577   1.887  -0.241  1.00  0.00     0.041 A 
ATOM     12  C   UNL     1      -2.627   0.001  -0.571  1.00  0.00     0.016 A 
ATOM     13  C   UNL     1      -1.937   2.226  -0.107  1.00  0.00     0.026 A 
ATOM     14  C   UNL     1      -2.948   1.282  -0.185  1.00  0.00     0.003 A 
BRANCH  11  15
ATOM     15  N   UNL     1       0.386   2.839   0.029  1.00  0.00    -0.358 N 
ATOM     16  C   UNL     1       0.244   3.677   1.211  1.00  0.00     0.103 C 
ATOM     17  C   UNL     1       1.557   3.199  -0.802  1.00  0.00     0.110 C 
ATOM     18  C   UNL     1       1.458   4.520   1.130  1.00  0.00     0.003 C 
ATOM     19  C   UNL     1       0.292   2.873   2.509  1.00  0.00     0.035 C 
ATOM     20  C   UNL     1       2.254   4.212   0.099  1.00  0.00    -0.026 C 
ATOM     21  C   UNL     1       1.104   3.812  -2.130  1.00  0.00     0.036 C 
BRANCH  20  22
ATOM     22  C   UNL     1       3.572   4.763  -0.165  1.00  0.00     0.031 C 
ATOM     23  C   UNL     1       4.321   5.548   0.648  1.00  0.00     0.117 C 
BRANCH  23  24
ATOM     24  C   UNL     1       3.921   5.941   1.943  1.00  0.00     0.105 C 
ATOM     25  N   UNL     1       3.579   6.297   3.009  1.00  0.00    -0.192 NA
ENDBRANCH  23  24
BRANCH  23  26
ATOM     26  C   UNL     1       5.482   6.241   0.023  1.00  0.00     0.261 C 
ATOM     27  O   UNL     1       5.726   6.124  -1.179  1.00  0.00    -0.268 OA
ATOM     28  N   UNL     1       6.140   7.213   0.711  1.00  0.00    -0.351 N 
ATOM     29  H   UNL     1       6.278   8.032   0.183  1.00  0.00     0.163 HD
BRANCH  28  30
ATOM     30  C   UNL     1       6.690   7.307   2.076  1.00  0.00     0.121 C 
BRANCH  30  31
ATOM     31  C   UNL     1       8.074   6.619   2.300  1.00  0.00     0.059 C 
BRANCH  31  32
ATOM     32  C   UNL     1       9.257   7.259   1.556  1.00  0.00    -0.021 A 
ATOM     33  C   UNL     1       9.290   8.624   1.268  1.00  0.00     0.087 A 
ATOM     34  C   UNL     1       9.835   6.771   0.338  1.00  0.00     0.003 A 
ATOM     35  N   UNL     1       8.620   8.572   0.035  1.00  0.00    -0.361 N 
ATOM     36  C   UNL     1       9.120   7.471  -0.634  1.00  0.00     0.046 A 
ATOM     37  C   UNL     1      10.837   5.884  -0.089  1.00  0.00     0.010 A 
ATOM     38  H   UNL     1       7.932   9.197  -0.289  1.00  0.00     0.166 HD
ATOM     39  C   UNL     1       9.067   7.093  -1.971  1.00  0.00     0.026 A 
ATOM     40  C   UNL     1      10.968   5.657  -1.471  1.00  0.00     0.001 A 
ATOM     41  C   UNL     1      10.041   6.180  -2.378  1.00  0.00     0.002 A 
ENDBRANCH  31  32
ENDBRANCH  30  31
ENDBRANCH  28  30
ENDBRANCH  23  26
ENDBRANCH  20  22
ENDBRANCH  11  15
ENDBRANCH   6   8
ENDBRANCH   5   6
ENDBRANCH   4   5
ENDBRANCH   3   4
ENDBRANCH   2   3
ENDBRANCH   1   2
BRANCH   1  42
ATOM     42  C   UNL     1      -0.152  -1.464   2.925  1.00  0.00     0.188 C 
BRANCH  42  43
ATOM     43  O   UNL     1       1.190  -1.522   2.449  1.00  0.00    -0.377 OA
BRANCH  43  44
ATOM     44  C   UNL     1       2.128  -1.879   3.438  1.00  0.00     0.188 C 
BRANCH  44  45
ATOM     45  C   UNL     1       1.950  -3.289   3.930  1.00  0.00     0.188 C 
BRANCH  45  46
ATOM     46  O   UNL     1       0.664  -3.781   4.241  1.00  0.00    -0.376 OA
BRANCH  46  47
ATOM     47  C   UNL     1       0.215  -3.835   5.585  1.00  0.00     0.202 C 
BRANCH  47  48
ATOM     48  C   UNL     1       1.314  -4.050   6.630  1.00  0.00     0.261 C 
BRANCH  48  49
ATOM     49  O   UNL     1       1.980  -5.308   6.325  1.00  0.00    -0.460 OA
BRANCH  49  50
ATOM     50  C   UNL     1       3.311  -5.279   6.010  1.00  0.00     0.338 C 
ATOM     51  O   UNL     1       4.140  -4.572   6.562  1.00  0.00    -0.246 OA
BRANCH  50  52
ATOM     52  C   UNL     1       3.542  -5.912   4.651  1.00  0.00     0.060 A 
ATOM     53  C   UNL     1       4.716  -5.614   3.929  1.00  0.00     0.016 A 
ATOM     54  C   UNL     1       2.452  -6.395   3.941  1.00  0.00     0.016 A 
ATOM     55  C   UNL     1       4.705  -5.543   2.510  1.00  0.00     0.010 A 
ATOM     56  C   UNL     1       2.436  -6.241   2.552  1.00  0.00     0.010 A 
ATOM     57  C   UNL     1       3.515  -5.705   1.810  1.00  0.00    -0.014 A 
BRANCH  57  58
ATOM     58  C   UNL     1       3.244  -5.236   0.398  1.00  0.00     0.031 A 
ATOM     59  C   UNL     1       2.469  -6.182  -0.501  1.00  0.00     0.074 A 
ATOM     60  C   UNL     1       3.330  -3.912   0.037  1.00  0.00     0.049 A 
ATOM     61  N   UNL     1       1.975  -5.907  -1.659  1.00  0.00    -0.248 NA
ATOM     62  C   UNL     1       2.067  -7.521  -0.086  1.00  0.00     0.031 C 
ATOM     63  C   UNL     1       2.656  -3.235  -1.080  1.00  0.00     0.029 A 
ATOM     64  N   UNL     1       3.961  -2.804   0.635  1.00  0.00    -0.354 N 
ATOM     65  C   UNL     1       0.917  -6.769  -1.932  1.00  0.00     0.074 A 
ATOM     66  C   UNL     1       1.062  -7.789  -0.927  1.00  0.00     0.031 C 
ATOM     67  C   UNL     1       3.012  -1.950  -1.210  1.00  0.00     0.029 A 
ATOM     68  C   UNL     1       4.167  -1.824  -0.385  1.00  0.00     0.049 A 
ATOM     69  H   UNL     1       4.213  -2.719   1.583  1.00  0.00     0.167 HD
ATOM     70  C   UNL     1      -0.007  -6.422  -2.895  1.00  0.00     0.037 A 
ATOM     71  C   UNL     1       5.397  -1.568  -0.915  1.00  0.00     0.037 A 
ATOM     72  C   UNL     1       0.396  -5.150  -3.563  1.00  0.00     0.049 A 
ATOM     73  C   UNL     1       5.409  -2.084  -2.381  1.00  0.00     0.074 A 
ATOM     74  C   UNL     1      -0.188  -3.916  -3.802  1.00  0.00     0.029 A 
ATOM     75  N   UNL     1       1.736  -4.974  -3.921  1.00  0.00    -0.354 N 
ATOM     76  N   UNL     1       4.573  -3.005  -2.836  1.00  0.00    -0.248 NA
ATOM     77  C   UNL     1       6.129  -1.473  -3.492  1.00  0.00     0.031 C 
ATOM     78  C   UNL     1       0.828  -3.003  -4.236  1.00  0.00     0.029 A 
ATOM     79  C   UNL     1       2.037  -3.684  -4.309  1.00  0.00     0.049 A 
ATOM     80  H   UNL     1       2.401  -5.700  -3.898  1.00  0.00     0.167 HD
ATOM     81  C   UNL     1       4.416  -2.911  -4.198  1.00  0.00     0.074 A 
ATOM     82  C   UNL     1       5.557  -2.073  -4.561  1.00  0.00     0.031 C 
ATOM     83  C   UNL     1       3.336  -3.393  -4.926  1.00  0.00     0.037 A 
BRANCH  70  84
ATOM     84  C   UNL     1      -1.377  -7.109  -3.167  1.00  0.00     0.057 A 
ATOM     85  C   UNL     1      -2.333  -6.546  -4.050  1.00  0.00     0.134 A 
ATOM     86  C   UNL     1      -1.833  -8.325  -2.609  1.00  0.00     0.134 A 
ATOM     87  F   UNL     1      -2.076  -5.444  -4.763  1.00  0.00    -0.206 F 
ATOM     88  C   UNL     1      -3.612  -7.094  -4.298  1.00  0.00     0.040 A 
ATOM     89  C   UNL     1      -3.106  -8.890  -2.854  1.00  0.00     0.040 A 
ATOM     90  F   UNL     1      -1.071  -9.083  -1.823  1.00  0.00    -0.206 F 
ATOM     91  C   UNL     1      -4.008  -8.272  -3.696  1.00  0.00     0.006 A 
ENDBRANCH  70  84
BRANCH  71  92
ATOM     92  C   UNL     1       6.361  -1.478   0.241  1.00  0.00     0.057 A 
ATOM     93  C   UNL     1       6.064  -0.443   1.180  1.00  0.00     0.134 A 
ATOM     94  C   UNL     1       6.882  -2.652   0.795  1.00  0.00     0.134 A 
ATOM     95  F   UNL     1       5.604   0.744   0.746  1.00  0.00    -0.206 F 
ATOM     96  C   UNL     1       5.987  -0.679   2.564  1.00  0.00     0.040 A 
ATOM     97  C   UNL     1       6.857  -2.874   2.188  1.00  0.00     0.040 A 
ATOM     98  F   UNL     1       7.197  -3.687   0.003  1.00  0.00    -0.206 F 
ATOM     99  C   UNL     1       6.322  -1.929   3.064  1.00  0.00     0.006 A 
ENDBRANCH  71  92
BRANCH  83 100
ATOM    100  C   UNL     1       3.411  -3.771  -6.391  1.00  0.00     0.057 A 
ATOM    101  C   UNL     1       4.169  -3.102  -7.340  1.00  0.00     0.134 A 
ATOM    102  C   UNL     1       2.740  -4.926  -6.882  1.00  0.00     0.134 A 
ATOM    103  F   UNL     1       4.574  -1.843  -7.143  1.00  0.00    -0.206 F 
ATOM    104  C   UNL     1       4.482  -3.684  -8.572  1.00  0.00     0.040 A 
ATOM    105  C   UNL     1       2.987  -5.483  -8.129  1.00  0.00     0.040 A 
ATOM    106  F   UNL     1       1.810  -5.594  -6.190  1.00  0.00    -0.206 F 
ATOM    107  C   UNL     1       3.925  -4.900  -8.952  1.00  0.00     0.006 A 
ENDBRANCH  83 100
ENDBRANCH  57  58
ENDBRANCH  50  52
ENDBRANCH  49  50
ENDBRANCH  48  49
ENDBRANCH  47  48
ENDBRANCH  46  47
ENDBRANCH  45  46
ENDBRANCH  44  45
ENDBRANCH  43  44
ENDBRANCH  42  43
ENDBRANCH   1  42
TORSDOF 27
