REMARK SMILES COc1ccc2c(c1)c(CC(=O)OCCOCCOCCOCCOC(=O)c1ccc(-c3c4nc(c(-c5c(F)cccc5F)c5ccc([nH]5)c(-c5c(F)cccc5F)c5nc(c(-c6c(F)cccc6F)c6ccc3[nH]6)C=C5)C=C4)cc1)c(C)n2Cc1ccn(C(F)F)c(=O)c1
REMARK SMILES IDX 18 1 17 2 16 3 15 4 14 5 13 6 11 7 12 8 10 9 9 10 3 11 4 12
REMARK SMILES IDX 8 13 5 14 7 15 6 16 84 17 82 18 83 19 2 20 1 21 85 22 86 23
REMARK SMILES IDX 87 24 95 25 88 26 93 27 89 28 94 29 90 30 91 31 92 32 19 33
REMARK SMILES IDX 20 34 21 35 22 36 23 37 24 38 25 39 26 40 27 41 28 42 29 43
REMARK SMILES IDX 81 44 30 45 80 46 31 47 32 48 33 49 74 50 34 51 79 52 73 53
REMARK SMILES IDX 75 54 35 55 78 56 72 57 71 58 36 60 62 61 45 62 61 63 46 64
REMARK SMILES IDX 49 65 60 66 76 67 47 68 48 69 59 71 77 72 50 73 37 74 38 75
REMARK SMILES IDX 43 76 39 77 40 78 42 79 44 80 41 81 63 82 64 83 69 84 65 85
REMARK SMILES IDX 66 86 68 87 70 88 67 89 51 90 52 91 57 92 53 93 54 94 56 95
REMARK SMILES IDX 58 96 55 97
REMARK H PARENT 75 59 49 70
REMARK Flexibility Score: inf
ROOT
ATOM      1  C   UNL     1      -1.026   2.038   3.836  1.00  0.00     0.188 C 
ENDROOT
BRANCH   1   2
ATOM      2  C   UNL     1      -2.422   2.321   3.289  1.00  0.00     0.188 C 
BRANCH   2   3
ATOM      3  O   UNL     1      -3.418   2.599   4.277  1.00  0.00    -0.376 OA
BRANCH   3   4
ATOM      4  C   UNL     1      -3.160   3.717   5.118  1.00  0.00     0.202 C 
BRANCH   4   5
ATOM      5  C   UNL     1      -2.785   3.309   6.557  1.00  0.00     0.261 C 
BRANCH   5   6
ATOM      6  O   UNL     1      -2.139   2.016   6.640  1.00  0.00    -0.463 OA
BRANCH   6   7
ATOM      7  C   UNL     1      -2.964   0.937   6.676  1.00  0.00     0.310 C 
ATOM      8  O   UNL     1      -4.169   1.023   6.909  1.00  0.00    -0.252 OA
BRANCH   7   9
ATOM      9  C   UNL     1      -2.325  -0.404   6.320  1.00  0.00     0.160 C 
BRANCH   9  10
ATOM     10  C   UNL     1      -0.818  -0.538   6.280  1.00  0.00    -0.008 A 
ATOM     11  C   UNL     1       0.689  -1.223   2.815  1.00  0.00     0.119 A 
ATOM     12  C   UNL     1       2.013  -1.049   3.192  1.00  0.00     0.048 A 
ATOM     13  C   UNL     1      -0.316  -1.192   3.790  1.00  0.00     0.057 A 
ATOM     14  C   UNL     1       2.354  -0.818   4.536  1.00  0.00     0.031 A 
ATOM     15  C   UNL     1      -0.015  -0.852   5.132  1.00  0.00     0.007 A 
ATOM     16  C   UNL     1       1.327  -0.731   5.500  1.00  0.00     0.049 A 
ATOM     17  N   UNL     1       1.355  -0.585   6.885  1.00  0.00    -0.340 N 
ATOM     18  C   UNL     1       0.048  -0.614   7.363  1.00  0.00     0.020 A 
ATOM     19  C   UNL     1      -0.335  -0.772   8.791  1.00  0.00     0.065 C 
BRANCH  11  20
ATOM     20  O   UNL     1       0.232  -1.413   1.540  1.00  0.00    -0.497 OA
ATOM     21  C   UNL     1       1.040  -0.940   0.468  1.00  0.00     0.278 C 
ENDBRANCH  11  20
BRANCH  17  22
ATOM     22  C   UNL     1       2.587  -0.705   7.687  1.00  0.00     0.158 C 
BRANCH  22  23
ATOM     23  C   UNL     1       3.027   0.523   8.458  1.00  0.00    -0.021 A 
ATOM     24  C   UNL     1       2.394   0.822   9.727  1.00  0.00     0.024 A 
ATOM     25  C   UNL     1       4.089   1.271   8.099  1.00  0.00     0.077 A 
ATOM     26  C   UNL     1       2.764   1.874  10.463  1.00  0.00     0.095 A 
ATOM     27  C   UNL     1       4.564   2.414   8.943  1.00  0.00     0.255 A 
ATOM     28  N   UNL     1       3.809   2.684  10.073  1.00  0.00    -0.258 N 
ATOM     29  O   UNL     1       5.573   3.018   8.595  1.00  0.00    -0.269 OA
BRANCH  28  30
ATOM     30  C   UNL     1       4.222   3.777  10.918  1.00  0.00     0.451 C 
ATOM     31  F   UNL     1       5.377   3.475  11.559  1.00  0.00    -0.185 F 
ATOM     32  F   UNL     1       4.417   4.913  10.208  1.00  0.00    -0.185 F 
ENDBRANCH  28  30
ENDBRANCH  22  23
ENDBRANCH  17  22
ENDBRANCH   9  10
ENDBRANCH   7   9
ENDBRANCH   6   7
ENDBRANCH   5   6
ENDBRANCH   4   5
ENDBRANCH   3   4
ENDBRANCH   2   3
ENDBRANCH   1   2
BRANCH   1  33
ATOM     33  O   UNL     1       0.088   2.733   3.344  1.00  0.00    -0.377 OA
BRANCH  33  34
ATOM     34  C   UNL     1       0.034   4.128   3.285  1.00  0.00     0.188 C 
BRANCH  34  35
ATOM     35  C   UNL     1      -0.313   4.640   1.887  1.00  0.00     0.188 C 
BRANCH  35  36
ATOM     36  O   UNL     1       0.250   4.059   0.707  1.00  0.00    -0.376 OA
BRANCH  36  37
ATOM     37  C   UNL     1       0.960   2.826   0.765  1.00  0.00     0.202 C 
BRANCH  37  38
ATOM     38  C   UNL     1       2.470   2.981   1.020  1.00  0.00     0.261 C 
BRANCH  38  39
ATOM     39  O   UNL     1       2.755   3.827   2.139  1.00  0.00    -0.460 OA
BRANCH  39  40
ATOM     40  C   UNL     1       3.521   4.922   1.907  1.00  0.00     0.338 C 
ATOM     41  O   UNL     1       4.249   5.147   0.957  1.00  0.00    -0.246 OA
BRANCH  40  42
ATOM     42  C   UNL     1       3.025   5.938   2.852  1.00  0.00     0.060 A 
ATOM     43  C   UNL     1       3.026   5.696   4.231  1.00  0.00     0.016 A 
ATOM     44  C   UNL     1       2.251   6.964   2.295  1.00  0.00     0.016 A 
ATOM     45  C   UNL     1       2.136   6.406   5.033  1.00  0.00     0.010 A 
ATOM     46  C   UNL     1       1.352   7.657   3.098  1.00  0.00     0.010 A 
ATOM     47  C   UNL     1       1.256   7.341   4.457  1.00  0.00    -0.014 A 
BRANCH  47  48
ATOM     48  C   UNL     1       0.419   8.139   5.355  1.00  0.00     0.031 A 
ATOM     49  C   UNL     1       1.211   9.085   6.186  1.00  0.00     0.074 A 
ATOM     50  C   UNL     1      -0.928   8.233   5.352  1.00  0.00     0.049 A 
ATOM     51  N   UNL     1       1.226   9.218   7.471  1.00  0.00    -0.248 NA
ATOM     52  C   UNL     1       2.178   9.936   5.471  1.00  0.00     0.031 C 
ATOM     53  C   UNL     1      -1.873   7.660   4.396  1.00  0.00     0.029 A 
ATOM     54  N   UNL     1      -1.731   8.989   6.167  1.00  0.00    -0.354 N 
ATOM     55  C   UNL     1       2.093  10.277   7.719  1.00  0.00     0.074 A 
ATOM     56  C   UNL     1       2.751  10.587   6.477  1.00  0.00     0.031 C 
ATOM     57  C   UNL     1      -3.081   8.247   4.562  1.00  0.00     0.029 A 
ATOM     58  C   UNL     1      -3.017   9.182   5.677  1.00  0.00     0.049 A 
ATOM     59  H   UNL     1      -1.423   9.363   7.024  1.00  0.00     0.167 HD
ATOM     60  C   UNL     1       2.067  10.988   8.876  1.00  0.00     0.037 A 
ATOM     61  C   UNL     1      -3.927  10.100   6.095  1.00  0.00     0.037 A 
ATOM     62  C   UNL     1       1.452  10.269   9.955  1.00  0.00     0.049 A 
ATOM     63  C   UNL     1      -3.503  10.610   7.423  1.00  0.00     0.074 A 
ATOM     64  C   UNL     1       1.662   9.033  10.540  1.00  0.00     0.029 A 
ATOM     65  N   UNL     1       0.234  10.691  10.425  1.00  0.00    -0.354 N 
ATOM     66  N   UNL     1      -3.610   9.956   8.543  1.00  0.00    -0.248 NA
ATOM     67  C   UNL     1      -2.614  11.763   7.456  1.00  0.00     0.031 C 
ATOM     68  C   UNL     1       0.367   8.573  10.917  1.00  0.00     0.029 A 
ATOM     69  C   UNL     1      -0.539   9.565  10.548  1.00  0.00     0.049 A 
ATOM     70  H   UNL     1      -0.031  11.616  10.632  1.00  0.00     0.167 HD
ATOM     71  C   UNL     1      -2.506  10.346   9.284  1.00  0.00     0.074 A 
ATOM     72  C   UNL     1      -1.995  11.537   8.616  1.00  0.00     0.031 C 
ATOM     73  C   UNL     1      -1.937   9.513  10.203  1.00  0.00     0.037 A 
BRANCH  60  74
ATOM     74  C   UNL     1       2.323  12.469   8.906  1.00  0.00     0.057 A 
ATOM     75  C   UNL     1       2.069  13.324   7.812  1.00  0.00     0.134 A 
ATOM     76  C   UNL     1       2.580  13.111  10.126  1.00  0.00     0.134 A 
ATOM     77  F   UNL     1       1.679  12.857   6.617  1.00  0.00    -0.206 F 
ATOM     78  C   UNL     1       2.102  14.715   7.913  1.00  0.00     0.040 A 
ATOM     79  C   UNL     1       2.556  14.505  10.252  1.00  0.00     0.040 A 
ATOM     80  F   UNL     1       2.786  12.401  11.245  1.00  0.00    -0.206 F 
ATOM     81  C   UNL     1       2.320  15.311   9.144  1.00  0.00     0.006 A 
ENDBRANCH  60  74
BRANCH  61  82
ATOM     82  C   UNL     1      -5.053  10.728   5.358  1.00  0.00     0.057 A 
ATOM     83  C   UNL     1      -5.041  10.878   3.961  1.00  0.00     0.134 A 
ATOM     84  C   UNL     1      -6.078  11.413   6.032  1.00  0.00     0.134 A 
ATOM     85  F   UNL     1      -4.056  10.358   3.215  1.00  0.00    -0.206 F 
ATOM     86  C   UNL     1      -5.992  11.641   3.275  1.00  0.00     0.040 A 
ATOM     87  C   UNL     1      -7.026  12.197   5.359  1.00  0.00     0.040 A 
ATOM     88  F   UNL     1      -6.155  11.386   7.371  1.00  0.00    -0.206 F 
ATOM     89  C   UNL     1      -6.984  12.314   3.975  1.00  0.00     0.006 A 
ENDBRANCH  61  82
BRANCH  73  90
ATOM     90  C   UNL     1      -2.711   8.306  10.645  1.00  0.00     0.057 A 
ATOM     91  C   UNL     1      -2.915   8.106  12.016  1.00  0.00     0.134 A 
ATOM     92  C   UNL     1      -3.147   7.291   9.781  1.00  0.00     0.134 A 
ATOM     93  F   UNL     1      -2.469   9.006  12.908  1.00  0.00    -0.206 F 
ATOM     94  C   UNL     1      -3.547   6.962  12.508  1.00  0.00     0.040 A 
ATOM     95  C   UNL     1      -3.816   6.160  10.259  1.00  0.00     0.040 A 
ATOM     96  F   UNL     1      -2.891   7.336   8.465  1.00  0.00    -0.206 F 
ATOM     97  C   UNL     1      -4.014   5.992  11.626  1.00  0.00     0.006 A 
ENDBRANCH  73  90
ENDBRANCH  47  48
ENDBRANCH  40  42
ENDBRANCH  39  40
ENDBRANCH  38  39
ENDBRANCH  37  38
ENDBRANCH  36  37
ENDBRANCH  35  36
ENDBRANCH  34  35
ENDBRANCH  33  34
ENDBRANCH   1  33
TORSDOF 25
