REMARK SMILES Cc1coc2cc3c(cc12)[C@@H](C)[C@H](CCC(=O)N[C@@H](Cc1c[nH]c2ccccc12)C(=O)OCCOCCOCCOCCOC(=O)c1ccc(-c2c4nc(c(-c5c(F)cccc5F)c5ccc([nH]5)c(-c5c(F)cccc5F)c5nc(c(-c6c(F)cccc6F)c6ccc2[nH]6)C=C5)C=C4)cc1)C(=O)O3
REMARK SMILES IDX 37 1 36 2 35 3 34 4 33 5 32 6 30 7 31 8 19 9 18 10 16 11
REMARK SMILES IDX 17 12 15 14 14 15 13 16 1 17 2 18 3 19 10 20 4 21 5 22 9 23
REMARK SMILES IDX 6 24 8 25 7 26 11 27 103 28 12 29 101 30 102 31 20 32 21 33
REMARK SMILES IDX 22 34 29 35 23 36 24 37 28 38 25 40 27 41 26 42 38 43 39 44
REMARK SMILES IDX 40 45 41 46 42 47 43 48 44 49 45 50 46 51 47 52 48 53 100 54
REMARK SMILES IDX 49 55 99 56 50 57 51 58 52 59 93 60 53 61 98 62 92 63 94 64
REMARK SMILES IDX 54 65 97 66 91 67 90 68 55 70 81 71 64 72 80 73 65 74 68 75
REMARK SMILES IDX 79 76 95 77 66 78 67 79 78 81 96 82 69 83 56 84 57 85 62 86
REMARK SMILES IDX 58 87 59 88 61 89 63 90 60 91 82 92 83 93 88 94 84 95 85 96
REMARK SMILES IDX 87 97 89 98 86 99 70 100 71 101 76 102 72 103 73 104 75 105
REMARK SMILES IDX 77 106 74 107
REMARK H PARENT 18 13 23 39 94 69 68 80
REMARK Flexibility Score: inf
ROOT
ATOM      1  C   UNL     1      -5.103   2.629   9.628  1.00  0.00     0.188 C 
ENDROOT
BRANCH   1   2
ATOM      2  C   UNL     1      -4.886   1.352  10.431  1.00  0.00     0.188 C 
BRANCH   2   3
ATOM      3  O   UNL     1      -4.510   1.416  11.789  1.00  0.00    -0.376 OA
BRANCH   3   4
ATOM      4  C   UNL     1      -3.210   1.788  12.220  1.00  0.00     0.202 C 
BRANCH   4   5
ATOM      5  C   UNL     1      -1.940   1.783  11.368  1.00  0.00     0.261 C 
BRANCH   5   6
ATOM      6  O   UNL     1      -2.112   2.086   9.988  1.00  0.00    -0.462 OA
BRANCH   6   7
ATOM      7  C   UNL     1      -1.931   1.056   9.137  1.00  0.00     0.329 C 
ATOM      8  O   UNL     1      -1.623  -0.084   9.480  1.00  0.00    -0.250 OA
BRANCH   7   9
ATOM      9  C   UNL     1      -2.080   1.432   7.669  1.00  0.00     0.196 C 
BRANCH   9  10
ATOM     10  N   UNL     1      -2.818   2.662   7.300  1.00  0.00    -0.342 N 
ATOM     11  C   UNL     1      -3.992   2.879   6.616  1.00  0.00     0.220 C 
ATOM     12  O   UNL     1      -4.375   4.032   6.400  1.00  0.00    -0.275 OA
ATOM     13  H   UNL     1      -2.382   3.490   7.605  1.00  0.00     0.164 HD
BRANCH  11  14
ATOM     14  C   UNL     1      -4.850   1.710   6.112  1.00  0.00     0.101 C 
BRANCH  14  15
ATOM     15  C   UNL     1      -4.489   1.073   4.756  1.00  0.00     0.026 C 
BRANCH  15  16
ATOM     16  C   UNL     1      -2.993   1.101   4.491  1.00  0.00     0.107 C 
ATOM     17  C   UNL     1       1.650  -0.447  -0.655  1.00  0.00     0.048 C 
ATOM     18  C   UNL     1       1.234   0.857  -0.100  1.00  0.00    -0.005 A 
ATOM     19  C   UNL     1       1.654   2.110  -0.500  1.00  0.00     0.199 A 
ATOM     20  C   UNL     1       0.232   1.075   0.884  1.00  0.00     0.024 A 
ATOM     21  O   UNL     1       0.925   3.080   0.103  1.00  0.00    -0.464 OA
ATOM     22  C   UNL     1       0.016   2.448   0.884  1.00  0.00     0.137 A 
ATOM     23  C   UNL     1      -0.550   0.246   1.716  1.00  0.00     0.020 A 
ATOM     24  C   UNL     1      -1.019   3.069   1.545  1.00  0.00     0.095 A 
ATOM     25  C   UNL     1      -1.591   0.828   2.440  1.00  0.00    -0.001 A 
ATOM     26  C   UNL     1      -1.846   2.204   2.253  1.00  0.00     0.138 A 
ATOM     27  C   UNL     1      -2.411   0.079   3.483  1.00  0.00     0.034 C 
ATOM     28  O   UNL     1      -2.936   2.789   2.853  1.00  0.00    -0.426 OA
ATOM     29  C   UNL     1      -1.560  -0.954   4.272  1.00  0.00     0.014 C 
ATOM     30  C   UNL     1      -2.570   2.513   4.121  1.00  0.00     0.314 C 
ATOM     31  O   UNL     1      -1.931   3.297   4.815  1.00  0.00    -0.251 OA
ENDBRANCH  15  16
ENDBRANCH  14  15
ENDBRANCH  11  14
ENDBRANCH   9  10
BRANCH   9  32
ATOM     32  C   UNL     1      -0.655   1.321   7.033  1.00  0.00     0.074 C 
BRANCH  32  33
ATOM     33  C   UNL     1       0.276   2.474   7.248  1.00  0.00    -0.020 A 
ATOM     34  C   UNL     1       0.710   3.369   6.288  1.00  0.00     0.087 A 
ATOM     35  C   UNL     1       0.881   2.875   8.470  1.00  0.00     0.003 A 
ATOM     36  N   UNL     1       1.415   4.362   6.909  1.00  0.00    -0.361 N 
ATOM     37  C   UNL     1       1.448   4.130   8.261  1.00  0.00     0.046 A 
ATOM     38  C   UNL     1       0.924   2.325   9.757  1.00  0.00     0.010 A 
ATOM     39  H   UNL     1       1.837   5.127   6.455  1.00  0.00     0.166 HD
ATOM     40  C   UNL     1       1.920   4.926   9.306  1.00  0.00     0.026 A 
ATOM     41  C   UNL     1       1.305   3.140  10.820  1.00  0.00     0.001 A 
ATOM     42  C   UNL     1       1.776   4.425  10.599  1.00  0.00     0.002 A 
ENDBRANCH  32  33
ENDBRANCH   9  32
ENDBRANCH   7   9
ENDBRANCH   6   7
ENDBRANCH   5   6
ENDBRANCH   4   5
ENDBRANCH   3   4
ENDBRANCH   2   3
ENDBRANCH   1   2
BRANCH   1  43
ATOM     43  O   UNL     1      -4.094   3.600   9.697  1.00  0.00    -0.377 OA
BRANCH  43  44
ATOM     44  C   UNL     1      -4.108   4.528  10.761  1.00  0.00     0.188 C 
BRANCH  44  45
ATOM     45  C   UNL     1      -5.282   4.519  11.756  1.00  0.00     0.188 C 
BRANCH  45  46
ATOM     46  O   UNL     1      -6.557   4.427  11.166  1.00  0.00    -0.376 OA
BRANCH  46  47
ATOM     47  C   UNL     1      -7.208   5.575  10.662  1.00  0.00     0.202 C 
BRANCH  47  48
ATOM     48  C   UNL     1      -6.471   6.801  10.079  1.00  0.00     0.261 C 
BRANCH  48  49
ATOM     49  O   UNL     1      -5.216   7.166  10.680  1.00  0.00    -0.460 OA
BRANCH  49  50
ATOM     50  C   UNL     1      -5.160   7.843  11.849  1.00  0.00     0.338 C 
ATOM     51  O   UNL     1      -6.077   8.418  12.396  1.00  0.00    -0.246 OA
BRANCH  50  52
ATOM     52  C   UNL     1      -3.872   7.428  12.507  1.00  0.00     0.060 A 
ATOM     53  C   UNL     1      -2.680   7.266  11.794  1.00  0.00     0.016 A 
ATOM     54  C   UNL     1      -3.968   6.901  13.807  1.00  0.00     0.016 A 
ATOM     55  C   UNL     1      -1.643   6.501  12.351  1.00  0.00     0.010 A 
ATOM     56  C   UNL     1      -2.939   6.114  14.350  1.00  0.00     0.010 A 
ATOM     57  C   UNL     1      -1.772   5.886  13.621  1.00  0.00    -0.014 A 
BRANCH  57  58
ATOM     58  C   UNL     1      -0.548   5.315  14.243  1.00  0.00     0.031 A 
ATOM     59  C   UNL     1       0.514   6.356  14.333  1.00  0.00     0.074 A 
ATOM     60  C   UNL     1      -0.303   4.125  14.852  1.00  0.00     0.049 A 
ATOM     61  N   UNL     1       1.661   6.362  13.743  1.00  0.00    -0.248 NA
ATOM     62  C   UNL     1       0.193   7.604  15.047  1.00  0.00     0.031 C 
ATOM     63  C   UNL     1      -1.262   3.074  15.194  1.00  0.00     0.029 A 
ATOM     64  N   UNL     1       0.879   3.627  15.377  1.00  0.00    -0.354 N 
ATOM     65  C   UNL     1       2.285   7.538  14.148  1.00  0.00     0.074 A 
ATOM     66  C   UNL     1       1.286   8.330  14.814  1.00  0.00     0.031 C 
ATOM     67  C   UNL     1      -0.679   2.176  16.029  1.00  0.00     0.029 A 
ATOM     68  C   UNL     1       0.729   2.509  16.203  1.00  0.00     0.049 A 
ATOM     69  H   UNL     1       1.756   4.029  15.184  1.00  0.00     0.167 HD
ATOM     70  C   UNL     1       3.639   7.649  14.124  1.00  0.00     0.037 A 
ATOM     71  C   UNL     1       1.664   1.904  16.991  1.00  0.00     0.037 A 
ATOM     72  C   UNL     1       4.253   6.598  13.358  1.00  0.00     0.049 A 
ATOM     73  C   UNL     1       3.017   2.263  16.518  1.00  0.00     0.074 A 
ATOM     74  C   UNL     1       4.670   6.370  12.069  1.00  0.00     0.029 A 
ATOM     75  N   UNL     1       4.285   5.399  14.007  1.00  0.00    -0.354 N 
ATOM     76  N   UNL     1       3.576   1.751  15.463  1.00  0.00    -0.248 NA
ATOM     77  C   UNL     1       3.732   3.382  17.122  1.00  0.00     0.031 C 
ATOM     78  C   UNL     1       4.927   4.967  11.966  1.00  0.00     0.029 A 
ATOM     79  C   UNL     1       4.672   4.369  13.195  1.00  0.00     0.049 A 
ATOM     80  H   UNL     1       4.055   5.288  14.957  1.00  0.00     0.167 HD
ATOM     81  C   UNL     1       4.398   2.751  15.008  1.00  0.00     0.074 A 
ATOM     82  C   UNL     1       4.627   3.617  16.158  1.00  0.00     0.031 C 
ATOM     83  C   UNL     1       4.501   3.010  13.672  1.00  0.00     0.037 A 
BRANCH  70  84
ATOM     84  C   UNL     1       4.451   8.383  15.168  1.00  0.00     0.057 A 
ATOM     85  C   UNL     1       5.838   8.521  14.974  1.00  0.00     0.134 A 
ATOM     86  C   UNL     1       4.001   8.646  16.478  1.00  0.00     0.134 A 
ATOM     87  F   UNL     1       6.393   8.297  13.773  1.00  0.00    -0.206 F 
ATOM     88  C   UNL     1       6.718   8.816  16.023  1.00  0.00     0.040 A 
ATOM     89  C   UNL     1       4.865   8.993  17.520  1.00  0.00     0.040 A 
ATOM     90  F   UNL     1       2.726   8.477  16.846  1.00  0.00    -0.206 F 
ATOM     91  C   UNL     1       6.233   9.045  17.304  1.00  0.00     0.006 A 
ENDBRANCH  70  84
BRANCH  71  92
ATOM     92  C   UNL     1       1.562   1.083  18.230  1.00  0.00     0.057 A 
ATOM     93  C   UNL     1       2.621   0.251  18.649  1.00  0.00     0.134 A 
ATOM     94  C   UNL     1       0.587   1.358  19.197  1.00  0.00     0.134 A 
ATOM     95  F   UNL     1       3.615  -0.072  17.809  1.00  0.00    -0.206 F 
ATOM     96  C   UNL     1       2.741  -0.212  19.967  1.00  0.00     0.040 A 
ATOM     97  C   UNL     1       0.691   0.896  20.517  1.00  0.00     0.040 A 
ATOM     98  F   UNL     1      -0.444   2.169  18.918  1.00  0.00    -0.206 F 
ATOM     99  C   UNL     1       1.784   0.131  20.913  1.00  0.00     0.006 A 
ENDBRANCH  71  92
BRANCH  83 100
ATOM    100  C   UNL     1       4.212   1.894  12.701  1.00  0.00     0.057 A 
ATOM    101  C   UNL     1       3.050   1.101  12.699  1.00  0.00     0.134 A 
ATOM    102  C   UNL     1       5.128   1.642  11.671  1.00  0.00     0.134 A 
ATOM    103  F   UNL     1       2.038   1.327  13.551  1.00  0.00    -0.206 F 
ATOM    104  C   UNL     1       2.824   0.108  11.739  1.00  0.00     0.040 A 
ATOM    105  C   UNL     1       4.886   0.696  10.672  1.00  0.00     0.040 A 
ATOM    106  F   UNL     1       6.280   2.327  11.602  1.00  0.00    -0.206 F 
ATOM    107  C   UNL     1       3.732  -0.079  10.706  1.00  0.00     0.006 A 
ENDBRANCH  83 100
ENDBRANCH  57  58
ENDBRANCH  50  52
ENDBRANCH  49  50
ENDBRANCH  48  49
ENDBRANCH  47  48
ENDBRANCH  46  47
ENDBRANCH  45  46
ENDBRANCH  44  45
ENDBRANCH  43  44
ENDBRANCH   1  43
TORSDOF 26
