REMARK SMILES C[C@@H](NC(=O)[C@H]1CC=CC[C@@H]1C(=O)OCCOCCOCCOCCOC(=O)c1ccc(-c2c3nc(c(-c4c(F)cccc4F)c4ccc([nH]4)c(-c4c(F)cccc4F)c4nc(c(-c5c(F)cccc5F)c5ccc2[nH]5)C=C4)C=C3)cc1)c1ccc(-n2ccnc2)cc1
REMARK SMILES IDX 19 1 18 2 17 3 16 4 15 5 14 6 12 7 13 8 11 9 6 10 7 11 8 12
REMARK SMILES IDX 10 13 9 14 4 15 3 16 5 18 2 19 1 20 83 21 84 22 93 23 85 24
REMARK SMILES IDX 92 25 86 26 87 27 88 28 91 29 89 30 90 31 20 32 21 33 22 34
REMARK SMILES IDX 23 35 24 36 25 37 26 38 27 39 28 40 29 41 30 42 82 43 31 44
REMARK SMILES IDX 81 45 32 46 33 47 34 48 75 49 35 50 80 51 74 52 76 53 36 54
REMARK SMILES IDX 79 55 73 56 72 57 37 59 63 60 46 61 62 62 47 63 50 64 61 65
REMARK SMILES IDX 77 66 48 67 49 68 60 70 78 71 51 72 38 73 39 74 44 75 40 76
REMARK SMILES IDX 41 77 43 78 45 79 42 80 64 81 65 82 70 83 66 84 67 85 69 86
REMARK SMILES IDX 71 87 68 88 52 89 53 90 58 91 54 92 55 93 57 94 59 95 56 96
REMARK H PARENT 3 17 76 58 50 69
REMARK Flexibility Score: inf
ROOT
ATOM      1  C   UNL     1      -4.261   2.374   4.328  1.00  0.00     0.188 C 
ENDROOT
BRANCH   1   2
ATOM      2  C   UNL     1      -5.279   2.762   3.222  1.00  0.00     0.188 C 
BRANCH   2   3
ATOM      3  O   UNL     1      -6.337   1.917   2.742  1.00  0.00    -0.376 OA
BRANCH   3   4
ATOM      4  C   UNL     1      -6.521   0.765   1.614  1.00  0.00     0.202 C 
BRANCH   4   5
ATOM      5  C   UNL     1      -5.591   0.445  -0.429  1.00  0.00     0.261 C 
BRANCH   5   6
ATOM      6  O   UNL     1      -3.931   0.650  -0.747  1.00  0.00    -0.463 OA
BRANCH   6   7
ATOM      7  C   UNL     1      -3.355   1.808  -1.214  1.00  0.00     0.310 C 
ATOM      8  O   UNL     1      -4.007   2.722  -1.700  1.00  0.00    -0.252 OA
BRANCH   7   9
ATOM      9  C   UNL     1      -1.823   1.876  -0.928  1.00  0.00     0.115 C 
ATOM     10  C   UNL     1      -1.381   2.762   0.270  1.00  0.00     0.097 C 
ATOM     11  C   UNL     1      -1.761   4.253   0.043  1.00  0.00     0.041 C 
ATOM     12  C   UNL     1      -1.504   4.721  -1.353  1.00  0.00    -0.030 C 
ATOM     13  C   UNL     1      -1.124   2.389  -2.192  1.00  0.00     0.043 C 
ATOM     14  C   UNL     1      -1.192   3.884  -2.352  1.00  0.00    -0.030 C 
BRANCH  10  15
ATOM     15  C   UNL     1       0.119   2.660   0.710  1.00  0.00     0.224 C 
ATOM     16  N   UNL     1       0.789   1.551   1.130  1.00  0.00    -0.349 N 
ATOM     17  H   UNL     1       1.648   1.810   1.536  1.00  0.00     0.164 HD
ATOM     18  O   UNL     1       0.795   3.693   0.833  1.00  0.00    -0.275 OA
BRANCH  16  19
ATOM     19  C   UNL     1       0.632   0.067   1.171  1.00  0.00     0.109 C 
ATOM     20  C   UNL     1       1.118  -0.496  -0.159  1.00  0.00     0.036 C 
BRANCH  19  21
ATOM     21  C   UNL     1      -0.733  -0.371   1.641  1.00  0.00    -0.026 A 
ATOM     22  C   UNL     1      -1.364   0.497   2.503  1.00  0.00     0.008 A 
ATOM     23  C   UNL     1      -1.465  -1.471   1.149  1.00  0.00     0.008 A 
ATOM     24  C   UNL     1      -2.708   0.634   2.311  1.00  0.00     0.027 A 
ATOM     25  C   UNL     1      -2.867  -1.479   1.231  1.00  0.00     0.027 A 
ATOM     26  C   UNL     1      -3.463  -0.312   1.678  1.00  0.00     0.046 A 
BRANCH  26  27
ATOM     27  N   UNL     1      -4.753   0.100   1.280  1.00  0.00    -0.306 N 
ATOM     28  C   UNL     1      -6.095  -1.051   0.819  1.00  0.00     0.113 A 
ATOM     29  C   UNL     1      -5.253   1.829   0.761  1.00  0.00     0.204 A 
ATOM     30  C   UNL     1      -7.370  -0.133   0.096  1.00  0.00     0.131 A 
ATOM     31  N   UNL     1      -6.818   1.698   0.090  1.00  0.00    -0.245 NA
ENDBRANCH  26  27
ENDBRANCH  19  21
ENDBRANCH  16  19
ENDBRANCH  10  15
ENDBRANCH   7   9
ENDBRANCH   6   7
ENDBRANCH   5   6
ENDBRANCH   4   5
ENDBRANCH   3   4
ENDBRANCH   2   3
ENDBRANCH   1   2
BRANCH   1  32
ATOM     32  O   UNL     1      -4.062   1.014   4.669  1.00  0.00    -0.377 OA
BRANCH  32  33
ATOM     33  C   UNL     1      -5.219   0.207   4.773  1.00  0.00     0.188 C 
BRANCH  33  34
ATOM     34  C   UNL     1      -6.415   0.837   5.494  1.00  0.00     0.188 C 
BRANCH  34  35
ATOM     35  O   UNL     1      -6.078   1.978   6.252  1.00  0.00    -0.376 OA
BRANCH  35  36
ATOM     36  C   UNL     1      -5.411   1.813   7.494  1.00  0.00     0.202 C 
BRANCH  36  37
ATOM     37  C   UNL     1      -4.382   0.691   7.767  1.00  0.00     0.261 C 
BRANCH  37  38
ATOM     38  O   UNL     1      -4.674  -0.669   7.382  1.00  0.00    -0.460 OA
BRANCH  38  39
ATOM     39  C   UNL     1      -5.835  -1.246   7.754  1.00  0.00     0.338 C 
ATOM     40  O   UNL     1      -6.668  -0.779   8.508  1.00  0.00    -0.246 OA
BRANCH  39  41
ATOM     41  C   UNL     1      -6.051  -2.466   6.918  1.00  0.00     0.060 A 
ATOM     42  C   UNL     1      -7.208  -2.565   6.126  1.00  0.00     0.016 A 
ATOM     43  C   UNL     1      -5.141  -3.525   6.938  1.00  0.00     0.016 A 
ATOM     44  C   UNL     1      -7.503  -3.742   5.431  1.00  0.00     0.010 A 
ATOM     45  C   UNL     1      -5.454  -4.719   6.269  1.00  0.00     0.010 A 
ATOM     46  C   UNL     1      -6.666  -4.855   5.565  1.00  0.00    -0.014 A 
BRANCH  46  47
ATOM     47  C   UNL     1      -7.186  -6.210   5.230  1.00  0.00     0.031 A 
ATOM     48  C   UNL     1      -7.734  -7.051   6.357  1.00  0.00     0.074 A 
ATOM     49  C   UNL     1      -7.216  -6.689   3.973  1.00  0.00     0.049 A 
ATOM     50  N   UNL     1      -8.164  -8.287   6.348  1.00  0.00    -0.248 NA
ATOM     51  C   UNL     1      -7.799  -6.404   7.678  1.00  0.00     0.031 C 
ATOM     52  C   UNL     1      -6.789  -5.967   2.778  1.00  0.00     0.029 A 
ATOM     53  N   UNL     1      -7.618  -7.916   3.501  1.00  0.00    -0.354 N 
ATOM     54  C   UNL     1      -8.532  -8.569   7.659  1.00  0.00     0.074 A 
ATOM     55  C   UNL     1      -8.246  -7.387   8.442  1.00  0.00     0.031 C 
ATOM     56  C   UNL     1      -6.929  -6.773   1.710  1.00  0.00     0.029 A 
ATOM     57  C   UNL     1      -7.420  -8.080   2.151  1.00  0.00     0.049 A 
ATOM     58  H   UNL     1      -8.011  -8.612   4.076  1.00  0.00     0.167 HD
ATOM     59  C   UNL     1      -9.068  -9.704   8.169  1.00  0.00     0.037 A 
ATOM     60  C   UNL     1      -7.584  -9.167   1.369  1.00  0.00     0.037 A 
ATOM     61  C   UNL     1      -9.353 -10.883   7.395  1.00  0.00     0.049 A 
ATOM     62  C   UNL     1      -8.091 -10.455   1.974  1.00  0.00     0.074 A 
ATOM     63  C   UNL     1      -9.904 -12.079   7.820  1.00  0.00     0.029 A 
ATOM     64  N   UNL     1      -9.101 -11.018   6.039  1.00  0.00    -0.354 N 
ATOM     65  N   UNL     1      -8.445 -10.708   3.212  1.00  0.00    -0.248 NA
ATOM     66  C   UNL     1      -8.224 -11.608   1.070  1.00  0.00     0.031 C 
ATOM     67  C   UNL     1      -9.924 -12.961   6.735  1.00  0.00     0.029 A 
ATOM     68  C   UNL     1      -9.455 -12.290   5.618  1.00  0.00     0.049 A 
ATOM     69  H   UNL     1      -8.726 -10.315   5.461  1.00  0.00     0.167 HD
ATOM     70  C   UNL     1      -8.874 -12.032   3.225  1.00  0.00     0.074 A 
ATOM     71  C   UNL     1      -8.747 -12.525   1.871  1.00  0.00     0.031 C 
ATOM     72  C   UNL     1      -9.335 -12.771   4.265  1.00  0.00     0.037 A 
BRANCH  59  73
ATOM     73  C   UNL     1      -9.345  -9.737   9.646  1.00  0.00     0.057 A 
ATOM     74  C   UNL     1     -10.360  -8.970  10.232  1.00  0.00     0.134 A 
ATOM     75  C   UNL     1      -8.600 -10.572  10.489  1.00  0.00     0.134 A 
ATOM     76  F   UNL     1     -11.102  -8.138   9.486  1.00  0.00    -0.206 F 
ATOM     77  C   UNL     1     -10.604  -9.010  11.607  1.00  0.00     0.040 A 
ATOM     78  C   UNL     1      -8.857 -10.646  11.859  1.00  0.00     0.040 A 
ATOM     79  F   UNL     1      -7.616 -11.339   9.995  1.00  0.00    -0.206 F 
ATOM     80  C   UNL     1      -9.857  -9.856  12.423  1.00  0.00     0.006 A 
ENDBRANCH  59  73
BRANCH  60  81
ATOM     81  C   UNL     1      -7.241  -9.107  -0.077  1.00  0.00     0.057 A 
ATOM     82  C   UNL     1      -8.224  -9.232  -1.066  1.00  0.00     0.134 A 
ATOM     83  C   UNL     1      -5.915  -8.962  -0.506  1.00  0.00     0.134 A 
ATOM     84  F   UNL     1      -9.509  -9.403  -0.722  1.00  0.00    -0.206 F 
ATOM     85  C   UNL     1      -7.902  -9.237  -2.425  1.00  0.00     0.040 A 
ATOM     86  C   UNL     1      -5.582  -8.934  -1.861  1.00  0.00     0.040 A 
ATOM     87  F   UNL     1      -4.923  -8.839   0.388  1.00  0.00    -0.206 F 
ATOM     88  C   UNL     1      -6.576  -9.081  -2.825  1.00  0.00     0.006 A 
ENDBRANCH  60  81
BRANCH  72  89
ATOM     89  C   UNL     1      -9.787 -14.177   3.978  1.00  0.00     0.057 A 
ATOM     90  C   UNL     1      -8.888 -15.199   3.645  1.00  0.00     0.134 A 
ATOM     91  C   UNL     1     -11.142 -14.523   4.084  1.00  0.00     0.134 A 
ATOM     92  F   UNL     1      -7.578 -14.938   3.518  1.00  0.00    -0.206 F 
ATOM     93  C   UNL     1      -9.323 -16.504   3.401  1.00  0.00     0.040 A 
ATOM     94  C   UNL     1     -11.584 -15.830   3.875  1.00  0.00     0.040 A 
ATOM     95  F   UNL     1     -12.057 -13.599   4.413  1.00  0.00    -0.206 F 
ATOM     96  C   UNL     1     -10.674 -16.824   3.524  1.00  0.00     0.006 A 
ENDBRANCH  72  89
ENDBRANCH  46  47
ENDBRANCH  39  41
ENDBRANCH  38  39
ENDBRANCH  37  38
ENDBRANCH  36  37
ENDBRANCH  35  36
ENDBRANCH  34  35
ENDBRANCH  33  34
ENDBRANCH  32  33
ENDBRANCH   1  32
TORSDOF 24
