REMARK SMILES O=C(CCN1C(=O)/C(=C/c2cc(Br)cc(Br)c2O)SC1=S)OCCOCCOCCOCCOC(=O)c1ccc(-c2c3nc(c(-c4c(F)cccc4F)c4ccc([nH]4)c(-c4c(F)cccc4F)c4nc(c(-c5c(F)cccc5F)c5ccc2[nH]5)C=C4)C=C3)cc1
REMARK SMILES IDX 27 1 26 2 25 3 24 4 23 5 22 6 2 7 1 8 3 9 4 10 5 11 6 12
REMARK SMILES IDX 20 13 7 14 8 15 19 16 21 17 9 18 10 19 11 20 17 21 12 22
REMARK SMILES IDX 15 23 13 24 14 25 16 26 18 27 28 29 29 30 30 31 31 32 32 33
REMARK SMILES IDX 33 34 34 35 35 36 36 37 37 38 38 39 90 40 39 41 89 42 40 43
REMARK SMILES IDX 41 44 42 45 83 46 43 47 88 48 82 49 84 50 44 51 87 52 81 53
REMARK SMILES IDX 80 54 45 56 71 57 54 58 70 59 55 60 58 61 69 62 85 63 56 64
REMARK SMILES IDX 57 65 68 67 86 68 59 69 46 70 47 71 52 72 48 73 49 74 51 75
REMARK SMILES IDX 53 76 50 77 72 78 73 79 78 80 74 81 75 82 77 83 79 84 76 85
REMARK SMILES IDX 60 86 61 87 66 88 62 89 63 90 65 91 67 92 64 93
REMARK H PARENT 18 28 84 55 58 66
REMARK Flexibility Score: inf
ROOT
ATOM      1  C   UNL     1       2.230   2.820  -1.040  1.00  0.00     0.188 C 
ENDROOT
BRANCH   1   2
ATOM      2  C   UNL     1       2.484   1.679  -0.055  1.00  0.00     0.188 C 
BRANCH   2   3
ATOM      3  O   UNL     1       3.470   0.742  -0.483  1.00  0.00    -0.376 OA
BRANCH   3   4
ATOM      4  C   UNL     1       3.215   0.095  -1.713  1.00  0.00     0.202 C 
BRANCH   4   5
ATOM      5  C   UNL     1       2.960  -1.375  -1.451  1.00  0.00     0.261 C 
BRANCH   5   6
ATOM      6  O   UNL     1       1.884  -1.586  -0.521  1.00  0.00    -0.463 OA
BRANCH   6   7
ATOM      7  C   UNL     1       1.995  -1.830   0.803  1.00  0.00     0.307 C 
ATOM      8  O   UNL     1       1.052  -2.378   1.377  1.00  0.00    -0.252 OA
BRANCH   7   9
ATOM      9  C   UNL     1       3.171  -1.338   1.622  1.00  0.00     0.144 C 
BRANCH   9  10
ATOM     10  C   UNL     1       4.385  -2.248   1.775  1.00  0.00     0.139 C 
BRANCH  10  11
ATOM     11  N   UNL     1       5.389  -2.176   0.703  1.00  0.00    -0.292 N 
ATOM     12  C   UNL     1       6.062  -0.983   0.462  1.00  0.00     0.266 C 
ATOM     13  C   UNL     1       5.793  -3.261  -0.052  1.00  0.00     0.148 C 
ATOM     14  O   UNL     1       6.023   0.031   1.142  1.00  0.00    -0.268 OA
ATOM     15  C   UNL     1       6.881  -1.104  -0.780  1.00  0.00     0.081 C 
ATOM     16  S   UNL     1       7.026  -2.763  -1.202  1.00  0.00    -0.054 SA
ATOM     17  S   UNL     1       5.224  -4.827  -0.011  1.00  0.00    -0.052 S 
ATOM     18  C   UNL     1       7.339  -0.041  -1.462  1.00  0.00     0.033 C 
BRANCH  18  19
ATOM     19  C   UNL     1       8.066  -0.081  -2.750  1.00  0.00     0.020 A 
ATOM     20  C   UNL     1       7.479  -0.727  -3.853  1.00  0.00     0.027 A 
ATOM     21  C   UNL     1       9.323   0.524  -2.927  1.00  0.00     0.137 A 
ATOM     22  C   UNL     1       8.161  -0.836  -5.067  1.00  0.00     0.019 A 
ATOM     23  C   UNL     1       9.992   0.424  -4.159  1.00  0.00     0.061 A 
ATOM     24  Br  UNL     1       7.380  -1.806  -6.491  1.00  0.00    -0.051 Br
ATOM     25  C   UNL     1       9.417  -0.266  -5.227  1.00  0.00     0.035 A 
ATOM     26  Br  UNL     1      11.709   1.192  -4.422  1.00  0.00    -0.047 Br
BRANCH  21  27
ATOM     27  O   UNL     1       9.937   1.219  -1.916  1.00  0.00    -0.506 OA
ATOM     28  H   UNL     1       9.516   1.303  -1.083  1.00  0.00     0.293 HD
ENDBRANCH  21  27
ENDBRANCH  18  19
ENDBRANCH  10  11
ENDBRANCH   9  10
ENDBRANCH   7   9
ENDBRANCH   6   7
ENDBRANCH   5   6
ENDBRANCH   4   5
ENDBRANCH   3   4
ENDBRANCH   2   3
ENDBRANCH   1   2
BRANCH   1  29
ATOM     29  O   UNL     1       3.336   3.346  -1.772  1.00  0.00    -0.377 OA
BRANCH  29  30
ATOM     30  C   UNL     1       4.647   3.253  -1.232  1.00  0.00     0.188 C 
BRANCH  30  31
ATOM     31  C   UNL     1       5.037   4.159  -0.059  1.00  0.00     0.188 C 
BRANCH  31  32
ATOM     32  O   UNL     1       4.069   4.250   0.960  1.00  0.00    -0.376 OA
BRANCH  32  33
ATOM     33  C   UNL     1       3.152   5.336   0.978  1.00  0.00     0.202 C 
BRANCH  33  34
ATOM     34  C   UNL     1       3.058   6.445  -0.095  1.00  0.00     0.261 C 
BRANCH  34  35
ATOM     35  O   UNL     1       3.358   6.079  -1.448  1.00  0.00    -0.460 OA
BRANCH  35  36
ATOM     36  C   UNL     1       4.429   6.715  -1.996  1.00  0.00     0.338 C 
ATOM     37  O   UNL     1       5.127   7.558  -1.470  1.00  0.00    -0.246 OA
BRANCH  36  38
ATOM     38  C   UNL     1       4.783   6.111  -3.298  1.00  0.00     0.060 A 
ATOM     39  C   UNL     1       6.071   5.576  -3.446  1.00  0.00     0.016 A 
ATOM     40  C   UNL     1       3.906   6.147  -4.381  1.00  0.00     0.016 A 
ATOM     41  C   UNL     1       6.489   5.077  -4.680  1.00  0.00     0.010 A 
ATOM     42  C   UNL     1       4.340   5.686  -5.629  1.00  0.00     0.010 A 
ATOM     43  C   UNL     1       5.641   5.173  -5.790  1.00  0.00    -0.014 A 
BRANCH  43  44
ATOM     44  C   UNL     1       6.193   4.956  -7.150  1.00  0.00     0.031 A 
ATOM     45  C   UNL     1       6.755   6.142  -7.885  1.00  0.00     0.074 A 
ATOM     46  C   UNL     1       6.212   3.740  -7.725  1.00  0.00     0.049 A 
ATOM     47  N   UNL     1       7.244   6.217  -9.096  1.00  0.00    -0.248 NA
ATOM     48  C   UNL     1       6.762   7.418  -7.151  1.00  0.00     0.031 C 
ATOM     49  C   UNL     1       5.737   2.505  -7.109  1.00  0.00     0.029 A 
ATOM     50  N   UNL     1       6.642   3.355  -8.972  1.00  0.00    -0.354 N 
ATOM     51  C   UNL     1       7.616   7.544  -9.268  1.00  0.00     0.074 A 
ATOM     52  C   UNL     1       7.270   8.245  -8.051  1.00  0.00     0.031 C 
ATOM     53  C   UNL     1       5.884   1.499  -7.990  1.00  0.00     0.029 A 
ATOM     54  C   UNL     1       6.447   2.022  -9.235  1.00  0.00     0.049 A 
ATOM     55  H   UNL     1       7.052   3.977  -9.616  1.00  0.00     0.167 HD
ATOM     56  C   UNL     1       8.197   8.130 -10.342  1.00  0.00     0.037 A 
ATOM     57  C   UNL     1       6.678   1.313 -10.359  1.00  0.00     0.037 A 
ATOM     58  C   UNL     1       8.523   7.444 -11.563  1.00  0.00     0.049 A 
ATOM     59  C   UNL     1       7.245   2.006 -11.574  1.00  0.00     0.074 A 
ATOM     60  C   UNL     1       9.108   7.955 -12.708  1.00  0.00     0.029 A 
ATOM     61  N   UNL     1       8.280   6.101 -11.802  1.00  0.00    -0.354 N 
ATOM     62  N   UNL     1       7.609   3.257 -11.722  1.00  0.00    -0.248 NA
ATOM     63  C   UNL     1       7.425   1.186 -12.782  1.00  0.00     0.031 C 
ATOM     64  C   UNL     1       9.174   6.931 -13.659  1.00  0.00     0.029 A 
ATOM     65  C   UNL     1       8.682   5.769 -13.085  1.00  0.00     0.049 A 
ATOM     66  H   UNL     1       7.880   5.475 -11.155  1.00  0.00     0.167 HD
ATOM     67  C   UNL     1       8.091   3.365 -13.022  1.00  0.00     0.074 A 
ATOM     68  C   UNL     1       7.981   2.051 -13.619  1.00  0.00     0.031 C 
ATOM     69  C   UNL     1       8.580   4.454 -13.664  1.00  0.00     0.037 A 
BRANCH  56  70
ATOM     70  C   UNL     1       8.487   9.598 -10.247  1.00  0.00     0.057 A 
ATOM     71  C   UNL     1       9.505  10.098  -9.425  1.00  0.00     0.134 A 
ATOM     72  C   UNL     1       7.750  10.521 -10.998  1.00  0.00     0.134 A 
ATOM     73  F   UNL     1      10.236   9.268  -8.665  1.00  0.00    -0.206 F 
ATOM     74  C   UNL     1       9.764  11.467  -9.336  1.00  0.00     0.040 A 
ATOM     75  C   UNL     1       8.017  11.890 -10.938  1.00  0.00     0.040 A 
ATOM     76  F   UNL     1       6.761  10.108 -11.806  1.00  0.00    -0.206 F 
ATOM     77  C   UNL     1       9.023  12.366 -10.100  1.00  0.00     0.006 A 
ENDBRANCH  56  70
BRANCH  57  78
ATOM     78  C   UNL     1       6.367  -0.140 -10.408  1.00  0.00     0.057 A 
ATOM     79  C   UNL     1       7.384  -1.095 -10.522  1.00  0.00     0.134 A 
ATOM     80  C   UNL     1       5.047  -0.606 -10.388  1.00  0.00     0.134 A 
ATOM     81  F   UNL     1       8.668  -0.709 -10.574  1.00  0.00    -0.206 F 
ATOM     82  C   UNL     1       7.101  -2.457 -10.635  1.00  0.00     0.040 A 
ATOM     83  C   UNL     1       4.750  -1.968 -10.473  1.00  0.00     0.040 A 
ATOM     84  F   UNL     1       4.025   0.256 -10.285  1.00  0.00    -0.206 F 
ATOM     85  C   UNL     1       5.780  -2.897 -10.605  1.00  0.00     0.006 A 
ENDBRANCH  57  78
BRANCH  69  86
ATOM     86  C   UNL     1       9.079   4.270 -15.070  1.00  0.00     0.057 A 
ATOM     87  C   UNL     1       8.209   4.061 -16.147  1.00  0.00     0.134 A 
ATOM     88  C   UNL     1      10.449   4.358 -15.355  1.00  0.00     0.134 A 
ATOM     89  F   UNL     1       6.887   3.958 -15.943  1.00  0.00    -0.206 F 
ATOM     90  C   UNL     1       8.684   3.925 -17.453  1.00  0.00     0.040 A 
ATOM     91  C   UNL     1      10.933   4.251 -16.659  1.00  0.00     0.040 A 
ATOM     92  F   UNL     1      11.337   4.568 -14.371  1.00  0.00    -0.206 F 
ATOM     93  C   UNL     1      10.050   4.028 -17.713  1.00  0.00     0.006 A 
ENDBRANCH  69  86
ENDBRANCH  43  44
ENDBRANCH  36  38
ENDBRANCH  35  36
ENDBRANCH  34  35
ENDBRANCH  33  34
ENDBRANCH  32  33
ENDBRANCH  31  32
ENDBRANCH  30  31
ENDBRANCH  29  30
ENDBRANCH   1  29
TORSDOF 24
