REMARK SMILES CS(=O)(=O)c1ccc(C2=NN(c3ccc(C(=O)OCCOCCOCCOCCOC(=O)c4ccc(-c5c6nc(c(-c7c(F)cccc7F)c7ccc([nH]7)c(-c7c(F)cccc7F)c7nc(c(-c8c(F)cccc8F)c8ccc5[nH]8)C=C7)C=C6)cc4)cc3)[C@H](c3ccc(Cl)cc3)C2)cc1
REMARK SMILES IDX 23 1 22 2 21 3 20 4 19 5 18 6 16 7 17 8 15 9 12 10 13 11
REMARK SMILES IDX 88 12 14 13 87 14 11 15 9 16 10 17 97 18 89 19 8 20 5 21
REMARK SMILES IDX 6 22 99 23 7 24 98 25 2 26 1 27 3 28 4 29 90 30 91 31 96 32
REMARK SMILES IDX 92 33 95 34 93 35 94 36 24 37 25 38 26 39 27 40 28 41 29 42
REMARK SMILES IDX 30 43 31 44 32 45 33 46 34 47 86 48 35 49 85 50 36 51 37 52
REMARK SMILES IDX 38 53 79 54 39 55 84 56 78 57 80 58 40 59 83 60 77 61 76 62
REMARK SMILES IDX 41 64 67 65 50 66 66 67 51 68 54 69 65 70 81 71 52 72 53 73
REMARK SMILES IDX 64 75 82 76 55 77 42 78 43 79 48 80 44 81 45 82 47 83 49 84
REMARK SMILES IDX 46 85 68 86 69 87 74 88 70 89 71 90 73 91 75 92 72 93 56 94
REMARK SMILES IDX 57 95 62 96 58 97 59 98 61 99 63 100 60 101
REMARK H PARENT 80 63 54 74
REMARK Flexibility Score: inf
ROOT
ATOM      1  C   UNL     1       9.579   9.655  -2.474  1.00  0.00     0.188 C 
ENDROOT
BRANCH   1   2
ATOM      2  C   UNL     1       9.498  10.494  -3.765  1.00  0.00     0.188 C 
BRANCH   2   3
ATOM      3  O   UNL     1      10.505  11.487  -3.848  1.00  0.00    -0.376 OA
BRANCH   3   4
ATOM      4  C   UNL     1      10.224  12.835  -3.521  1.00  0.00     0.202 C 
BRANCH   4   5
ATOM      5  C   UNL     1       9.423  13.244  -2.274  1.00  0.00     0.261 C 
BRANCH   5   6
ATOM      6  O   UNL     1       8.419  12.338  -1.820  1.00  0.00    -0.460 OA
BRANCH   6   7
ATOM      7  C   UNL     1       7.238  12.330  -2.472  1.00  0.00     0.338 C 
ATOM      8  O   UNL     1       6.913  13.049  -3.400  1.00  0.00    -0.246 OA
BRANCH   7   9
ATOM      9  C   UNL     1       6.450  11.170  -1.980  1.00  0.00     0.060 A 
ATOM     10  C   UNL     1       4.848   9.048  -1.081  1.00  0.00     0.060 A 
ATOM     11  C   UNL     1       4.812   9.439  -2.425  1.00  0.00     0.029 A 
ATOM     12  C   UNL     1       5.798   9.634  -0.234  1.00  0.00     0.029 A 
ATOM     13  C   UNL     1       5.604  10.502  -2.874  1.00  0.00     0.018 A 
ATOM     14  C   UNL     1       6.579  10.704  -0.667  1.00  0.00     0.018 A 
BRANCH  10  15
ATOM     15  N   UNL     1       3.854   8.232  -0.525  1.00  0.00    -0.257 N 
ATOM     16  C   UNL     1       2.465   6.634  -0.783  1.00  0.00     0.071 C 
ATOM     17  N   UNL     1       3.710   6.952  -0.960  1.00  0.00    -0.176 NA
ATOM     18  C   UNL     1       1.562   7.741  -0.315  1.00  0.00     0.091 C 
ATOM     19  C   UNL     1       2.580   8.875  -0.135  1.00  0.00     0.144 C 
BRANCH  16  20
ATOM     20  C   UNL     1       1.953   5.266  -0.986  1.00  0.00    -0.002 A 
ATOM     21  C   UNL     1       1.057   2.643  -1.292  1.00  0.00     0.067 A 
ATOM     22  C   UNL     1       2.300   2.881  -0.703  1.00  0.00     0.021 A 
ATOM     23  C   UNL     1       0.260   3.710  -1.728  1.00  0.00     0.021 A 
ATOM     24  C   UNL     1       2.749   4.195  -0.557  1.00  0.00     0.011 A 
ATOM     25  C   UNL     1       0.707   5.027  -1.570  1.00  0.00     0.011 A 
BRANCH  21  26
ATOM     26  S   UNL     1       0.456   0.982  -1.513  1.00  0.00     0.175 S 
ATOM     27  C   UNL     1       1.003   0.059  -0.103  1.00  0.00     0.163 C 
ATOM     28  O   UNL     1       1.124   0.458  -2.687  1.00  0.00    -0.224 OA
ATOM     29  O   UNL     1      -0.992   1.048  -1.438  1.00  0.00    -0.224 OA
ENDBRANCH  21  26
ENDBRANCH  16  20
BRANCH  19  30
ATOM     30  C   UNL     1       2.699   9.535   1.238  1.00  0.00    -0.023 A 
ATOM     31  C   UNL     1       2.278   8.941   2.436  1.00  0.00     0.007 A 
ATOM     32  C   UNL     1       3.335  10.793   1.324  1.00  0.00     0.007 A 
ATOM     33  C   UNL     1       2.511   9.566   3.669  1.00  0.00     0.021 A 
ATOM     34  C   UNL     1       3.620  11.390   2.553  1.00  0.00     0.021 A 
ATOM     35  C   UNL     1       3.204  10.772   3.724  1.00  0.00     0.041 A 
ATOM     36  Cl  UNL     1       3.558  11.493   5.245  1.00  0.00    -0.084 Cl
ENDBRANCH  19  30
ENDBRANCH  10  15
ENDBRANCH   7   9
ENDBRANCH   6   7
ENDBRANCH   5   6
ENDBRANCH   4   5
ENDBRANCH   3   4
ENDBRANCH   2   3
ENDBRANCH   1   2
BRANCH   1  37
ATOM     37  O   UNL     1      10.327  10.227  -1.412  1.00  0.00    -0.377 OA
BRANCH  37  38
ATOM     38  C   UNL     1      11.741  10.370  -1.550  1.00  0.00     0.188 C 
BRANCH  38  39
ATOM     39  C   UNL     1      12.522   9.927  -2.814  1.00  0.00     0.188 C 
BRANCH  39  40
ATOM     40  O   UNL     1      11.879   8.950  -3.614  1.00  0.00    -0.376 OA
BRANCH  40  41
ATOM     41  C   UNL     1      12.364   7.621  -3.588  1.00  0.00     0.202 C 
BRANCH  41  42
ATOM     42  C   UNL     1      12.235   6.864  -2.260  1.00  0.00     0.261 C 
BRANCH  42  43
ATOM     43  O   UNL     1      12.805   7.515  -1.115  1.00  0.00    -0.460 OA
BRANCH  43  44
ATOM     44  C   UNL     1      14.144   7.670  -1.110  1.00  0.00     0.338 C 
ATOM     45  O   UNL     1      14.935   7.302  -1.967  1.00  0.00    -0.246 OA
BRANCH  44  46
ATOM     46  C   UNL     1      14.500   8.529   0.034  1.00  0.00     0.060 A 
ATOM     47  C   UNL     1      15.178   9.730  -0.207  1.00  0.00     0.016 A 
ATOM     48  C   UNL     1      14.184   8.140   1.338  1.00  0.00     0.016 A 
ATOM     49  C   UNL     1      15.599  10.518   0.863  1.00  0.00     0.010 A 
ATOM     50  C   UNL     1      14.621   8.921   2.410  1.00  0.00     0.010 A 
ATOM     51  C   UNL     1      15.374  10.086   2.176  1.00  0.00    -0.014 A 
BRANCH  51  52
ATOM     52  C   UNL     1      16.126  10.723   3.284  1.00  0.00     0.031 A 
ATOM     53  C   UNL     1      17.375  10.041   3.777  1.00  0.00     0.074 A 
ATOM     54  C   UNL     1      15.744  11.899   3.809  1.00  0.00     0.049 A 
ATOM     55  N   UNL     1      18.194  10.392   4.734  1.00  0.00    -0.248 NA
ATOM     56  C   UNL     1      17.749   8.791   3.094  1.00  0.00     0.031 C 
ATOM     57  C   UNL     1      14.581  12.677   3.389  1.00  0.00     0.029 A 
ATOM     58  N   UNL     1      16.304  12.643   4.817  1.00  0.00    -0.354 N 
ATOM     59  C   UNL     1      19.172   9.405   4.773  1.00  0.00     0.074 A 
ATOM     60  C   UNL     1      18.825   8.422   3.771  1.00  0.00     0.031 C 
ATOM     61  C   UNL     1      14.509  13.790   4.141  1.00  0.00     0.029 A 
ATOM     62  C   UNL     1      15.601  13.785   5.113  1.00  0.00     0.049 A 
ATOM     63  H   UNL     1      17.131  12.383   5.284  1.00  0.00     0.167 HD
ATOM     64  C   UNL     1      20.268   9.330   5.563  1.00  0.00     0.037 A 
ATOM     65  C   UNL     1      15.810  14.709   6.072  1.00  0.00     0.037 A 
ATOM     66  C   UNL     1      20.610  10.308   6.561  1.00  0.00     0.049 A 
ATOM     67  C   UNL     1      16.998  14.566   6.989  1.00  0.00     0.074 A 
ATOM     68  C   UNL     1      21.705  10.330   7.407  1.00  0.00     0.029 A 
ATOM     69  N   UNL     1      19.855  11.434   6.853  1.00  0.00    -0.354 N 
ATOM     70  N   UNL     1      17.930  13.642   7.004  1.00  0.00    -0.248 NA
ATOM     71  C   UNL     1      17.167  15.601   8.018  1.00  0.00     0.031 C 
ATOM     72  C   UNL     1      21.581  11.438   8.252  1.00  0.00     0.029 A 
ATOM     73  C   UNL     1      20.447  12.145   7.884  1.00  0.00     0.049 A 
ATOM     74  H   UNL     1      19.022  11.691   6.395  1.00  0.00     0.167 HD
ATOM     75  C   UNL     1      18.814  14.006   8.013  1.00  0.00     0.074 A 
ATOM     76  C   UNL     1      18.312  15.241   8.580  1.00  0.00     0.031 C 
ATOM     77  C   UNL     1      19.942  13.379   8.431  1.00  0.00     0.037 A 
BRANCH  64  78
ATOM     78  C   UNL     1      21.157   8.130   5.400  1.00  0.00     0.057 A 
ATOM     79  C   UNL     1      21.942   7.934   4.255  1.00  0.00     0.134 A 
ATOM     80  C   UNL     1      21.244   7.167   6.413  1.00  0.00     0.134 A 
ATOM     81  F   UNL     1      21.894   8.809   3.239  1.00  0.00    -0.206 F 
ATOM     82  C   UNL     1      22.760   6.811   4.113  1.00  0.00     0.040 A 
ATOM     83  C   UNL     1      22.081   6.056   6.296  1.00  0.00     0.040 A 
ATOM     84  F   UNL     1      20.522   7.292   7.536  1.00  0.00    -0.206 F 
ATOM     85  C   UNL     1      22.836   5.872   5.140  1.00  0.00     0.006 A 
ENDBRANCH  64  78
BRANCH  65  86
ATOM     86  C   UNL     1      14.871  15.851   6.226  1.00  0.00     0.057 A 
ATOM     87  C   UNL     1      15.274  17.166   5.966  1.00  0.00     0.134 A 
ATOM     88  C   UNL     1      13.557  15.657   6.670  1.00  0.00     0.134 A 
ATOM     89  F   UNL     1      16.527  17.421   5.561  1.00  0.00    -0.206 F 
ATOM     90  C   UNL     1      14.414  18.248   6.163  1.00  0.00     0.040 A 
ATOM     91  C   UNL     1      12.677  16.726   6.843  1.00  0.00     0.040 A 
ATOM     92  F   UNL     1      13.108  14.422   6.937  1.00  0.00    -0.206 F 
ATOM     93  C   UNL     1      13.109  18.028   6.599  1.00  0.00     0.006 A 
ENDBRANCH  65  86
BRANCH  77  94
ATOM     94  C   UNL     1      20.743  14.046   9.515  1.00  0.00     0.057 A 
ATOM     95  C   UNL     1      20.286  14.138  10.836  1.00  0.00     0.134 A 
ATOM     96  C   UNL     1      22.009  14.579   9.233  1.00  0.00     0.134 A 
ATOM     97  F   UNL     1      19.080  13.656  11.174  1.00  0.00    -0.206 F 
ATOM     98  C   UNL     1      21.042  14.767  11.828  1.00  0.00     0.040 A 
ATOM     99  C   UNL     1      22.788  15.179  10.223  1.00  0.00     0.040 A 
ATOM    100  F   UNL     1      22.516  14.513   7.993  1.00  0.00    -0.206 F 
ATOM    101  C   UNL     1      22.300  15.283  11.524  1.00  0.00     0.006 A 
ENDBRANCH  77  94
ENDBRANCH  51  52
ENDBRANCH  44  46
ENDBRANCH  43  44
ENDBRANCH  42  43
ENDBRANCH  41  42
ENDBRANCH  40  41
ENDBRANCH  39  40
ENDBRANCH  38  39
ENDBRANCH  37  38
ENDBRANCH   1  37
TORSDOF 24
