REMARK SMILES Cc1ccccc1OCC(=O)N1C[C@@H](O)C[C@H]1C(=O)OCCOCCOCCOCCOC(=O)c1ccc(-c2c3nc(c(-c4c(F)cccc4F)c4ccc([nH]4)c(-c4c(F)cccc4F)c4nc(c(-c5c(F)cccc5F)c5ccc2[nH]5)C=C4)C=C3)cc1
REMARK SMILES IDX 25 1 24 2 23 3 22 4 21 5 20 6 18 7 19 8 17 9 12 10 13 11
REMARK SMILES IDX 14 12 16 13 10 14 11 15 9 16 8 17 7 18 1 19 2 20 3 21 4 22
REMARK SMILES IDX 6 23 5 24 15 25 26 27 27 28 28 29 29 30 30 31 31 32 32 33
REMARK SMILES IDX 33 34 34 35 35 36 36 37 88 38 37 39 87 40 38 41 39 42 40 43
REMARK SMILES IDX 81 44 41 45 86 46 80 47 82 48 42 49 85 50 79 51 78 52 43 54
REMARK SMILES IDX 69 55 52 56 68 57 53 58 56 59 67 60 83 61 54 62 55 63 66 65
REMARK SMILES IDX 84 66 57 67 44 68 45 69 50 70 46 71 47 72 49 73 51 74 48 75
REMARK SMILES IDX 70 76 71 77 76 78 72 79 73 80 75 81 77 82 74 83 58 84 59 85
REMARK SMILES IDX 64 86 60 87 61 88 63 89 65 90 62 91
REMARK H PARENT 15 26 82 53 56 64
REMARK Flexibility Score: inf
ROOT
ATOM      1  C   UNL     1       3.940   0.787   1.709  1.00  0.00     0.188 C 
ENDROOT
BRANCH   1   2
ATOM      2  C   UNL     1       5.403   1.162   1.386  1.00  0.00     0.188 C 
BRANCH   2   3
ATOM      3  O   UNL     1       6.485   0.741   2.205  1.00  0.00    -0.376 OA
BRANCH   3   4
ATOM      4  C   UNL     1       6.199   0.475   3.560  1.00  0.00     0.202 C 
BRANCH   4   5
ATOM      5  C   UNL     1       5.912   1.688   4.430  1.00  0.00     0.261 C 
BRANCH   5   6
ATOM      6  O   UNL     1       4.661   2.320   4.114  1.00  0.00    -0.462 OA
BRANCH   6   7
ATOM      7  C   UNL     1       4.714   3.620   3.746  1.00  0.00     0.329 C 
ATOM      8  O   UNL     1       5.747   4.291   3.720  1.00  0.00    -0.250 OA
BRANCH   7   9
ATOM      9  C   UNL     1       3.323   4.235   3.519  1.00  0.00     0.198 C 
ATOM     10  N   UNL     1       2.364   3.682   2.526  1.00  0.00    -0.323 N 
ATOM     11  C   UNL     1       1.038   3.550   3.111  1.00  0.00     0.152 C 
ATOM     12  C   UNL     1       1.101   4.413   4.370  1.00  0.00     0.136 C 
ATOM     13  C   UNL     1       2.534   4.206   4.838  1.00  0.00     0.070 C 
BRANCH  10  14
ATOM     14  C   UNL     1       2.656   3.715   1.181  1.00  0.00     0.261 C 
ATOM     15  O   UNL     1       3.807   3.975   0.811  1.00  0.00    -0.271 OA
BRANCH  14  16
ATOM     16  C   UNL     1       1.569   3.490   0.093  1.00  0.00     0.329 C 
BRANCH  16  17
ATOM     17  O   UNL     1       0.315   2.925   0.366  1.00  0.00    -0.484 OA
BRANCH  17  18
ATOM     18  C   UNL     1      -0.188   1.745  -0.082  1.00  0.00     0.122 A 
ATOM     19  C   UNL     1       1.685   0.770  -1.566  1.00  0.00     0.048 C 
ATOM     20  C   UNL     1       0.383   0.706  -0.826  1.00  0.00    -0.009 A 
ATOM     21  C   UNL     1      -0.325  -0.520  -0.925  1.00  0.00     0.007 A 
ATOM     22  C   UNL     1      -1.624  -0.665  -0.442  1.00  0.00     0.001 A 
ATOM     23  C   UNL     1      -1.525   1.599   0.337  1.00  0.00     0.047 A 
ATOM     24  C   UNL     1      -2.248   0.422   0.143  1.00  0.00     0.004 A 
ENDBRANCH  17  18
ENDBRANCH  16  17
ENDBRANCH  14  16
ENDBRANCH  10  14
BRANCH  12  25
ATOM     25  O   UNL     1       0.148   4.055   5.349  1.00  0.00    -0.391 OA
ATOM     26  H   UNL     1       0.276   3.127   5.601  1.00  0.00     0.211 HD
ENDBRANCH  12  25
ENDBRANCH   7   9
ENDBRANCH   6   7
ENDBRANCH   5   6
ENDBRANCH   4   5
ENDBRANCH   3   4
ENDBRANCH   2   3
ENDBRANCH   1   2
BRANCH   1  27
ATOM     27  O   UNL     1       3.700  -0.560   2.086  1.00  0.00    -0.377 OA
BRANCH  27  28
ATOM     28  C   UNL     1       2.687  -1.195   1.323  1.00  0.00     0.188 C 
BRANCH  28  29
ATOM     29  C   UNL     1       3.228  -1.761   0.024  1.00  0.00     0.188 C 
BRANCH  29  30
ATOM     30  O   UNL     1       4.600  -1.441  -0.093  1.00  0.00    -0.376 OA
BRANCH  30  31
ATOM     31  C   UNL     1       5.149  -1.391  -1.393  1.00  0.00     0.202 C 
BRANCH  31  32
ATOM     32  C   UNL     1       4.965  -2.690  -2.181  1.00  0.00     0.261 C 
BRANCH  32  33
ATOM     33  O   UNL     1       5.547  -3.790  -1.444  1.00  0.00    -0.460 OA
BRANCH  33  34
ATOM     34  C   UNL     1       4.665  -4.611  -0.803  1.00  0.00     0.338 C 
ATOM     35  O   UNL     1       3.644  -5.064  -1.297  1.00  0.00    -0.246 OA
BRANCH  34  36
ATOM     36  C   UNL     1       4.926  -4.596   0.676  1.00  0.00     0.060 A 
ATOM     37  C   UNL     1       3.961  -5.110   1.567  1.00  0.00     0.016 A 
ATOM     38  C   UNL     1       5.888  -3.720   1.157  1.00  0.00     0.016 A 
ATOM     39  C   UNL     1       3.866  -4.624   2.891  1.00  0.00     0.010 A 
ATOM     40  C   UNL     1       5.705  -3.162   2.409  1.00  0.00     0.010 A 
ATOM     41  C   UNL     1       4.700  -3.585   3.302  1.00  0.00    -0.014 A 
BRANCH  41  42
ATOM     42  C   UNL     1       4.607  -2.771   4.544  1.00  0.00     0.031 A 
ATOM     43  C   UNL     1       5.892  -2.464   5.280  1.00  0.00     0.074 A 
ATOM     44  C   UNL     1       3.516  -1.996   4.789  1.00  0.00     0.049 A 
ATOM     45  N   UNL     1       6.033  -1.577   6.208  1.00  0.00    -0.248 NA
ATOM     46  C   UNL     1       7.162  -3.144   5.001  1.00  0.00     0.031 C 
ATOM     47  C   UNL     1       3.531  -0.648   5.369  1.00  0.00     0.029 A 
ATOM     48  N   UNL     1       2.163  -2.181   4.524  1.00  0.00    -0.354 N 
ATOM     49  C   UNL     1       7.380  -1.341   6.401  1.00  0.00     0.074 A 
ATOM     50  C   UNL     1       8.040  -2.395   5.679  1.00  0.00     0.031 C 
ATOM     51  C   UNL     1       2.294  -0.150   5.475  1.00  0.00     0.029 A 
ATOM     52  C   UNL     1       1.407  -1.262   5.279  1.00  0.00     0.049 A 
ATOM     53  H   UNL     1       1.791  -2.851   3.905  1.00  0.00     0.167 HD
ATOM     54  C   UNL     1       7.767  -0.203   7.052  1.00  0.00     0.037 A 
ATOM     55  C   UNL     1       0.561  -1.707   6.254  1.00  0.00     0.037 A 
ATOM     56  C   UNL     1       6.635   0.425   7.757  1.00  0.00     0.049 A 
ATOM     57  C   UNL     1       1.068  -1.380   7.650  1.00  0.00     0.074 A 
ATOM     58  C   UNL     1       6.098   1.700   7.831  1.00  0.00     0.029 A 
ATOM     59  N   UNL     1       5.758  -0.391   8.473  1.00  0.00    -0.354 N 
ATOM     60  N   UNL     1       2.304  -1.011   7.894  1.00  0.00    -0.248 NA
ATOM     61  C   UNL     1       0.251  -1.344   8.860  1.00  0.00     0.031 C 
ATOM     62  C   UNL     1       4.808   1.599   8.431  1.00  0.00     0.029 A 
ATOM     63  C   UNL     1       4.628   0.293   8.856  1.00  0.00     0.049 A 
ATOM     64  H   UNL     1       5.927  -1.339   8.679  1.00  0.00     0.167 HD
ATOM     65  C   UNL     1       2.466  -0.717   9.215  1.00  0.00     0.074 A 
ATOM     66  C   UNL     1       1.148  -0.936   9.780  1.00  0.00     0.031 C 
ATOM     67  C   UNL     1       3.665  -0.337   9.747  1.00  0.00     0.037 A 
BRANCH  54  68
ATOM     68  C   UNL     1       9.140   0.461   6.941  1.00  0.00     0.057 A 
ATOM     69  C   UNL     1       9.482   1.548   7.775  1.00  0.00     0.134 A 
ATOM     70  C   UNL     1      10.109   0.182   5.953  1.00  0.00     0.134 A 
ATOM     71  F   UNL     1       8.684   1.934   8.779  1.00  0.00    -0.206 F 
ATOM     72  C   UNL     1      10.655   2.308   7.619  1.00  0.00     0.040 A 
ATOM     73  C   UNL     1      11.316   0.896   5.825  1.00  0.00     0.040 A 
ATOM     74  F   UNL     1       9.926  -0.760   5.021  1.00  0.00    -0.206 F 
ATOM     75  C   UNL     1      11.584   1.978   6.646  1.00  0.00     0.006 A 
ENDBRANCH  54  68
BRANCH  55  76
ATOM     76  C   UNL     1      -0.283  -2.829   5.726  1.00  0.00     0.057 A 
ATOM     77  C   UNL     1      -1.174  -2.416   4.710  1.00  0.00     0.134 A 
ATOM     78  C   UNL     1       0.283  -4.105   5.578  1.00  0.00     0.134 A 
ATOM     79  F   UNL     1      -1.791  -1.226   4.809  1.00  0.00    -0.206 F 
ATOM     80  C   UNL     1      -1.246  -3.080   3.480  1.00  0.00     0.040 A 
ATOM     81  C   UNL     1       0.196  -4.791   4.353  1.00  0.00     0.040 A 
ATOM     82  F   UNL     1       1.114  -4.592   6.510  1.00  0.00    -0.206 F 
ATOM     83  C   UNL     1      -0.507  -4.241   3.279  1.00  0.00     0.006 A 
ENDBRANCH  55  76
BRANCH  67  84
ATOM     84  C   UNL     1       4.069  -0.513  11.195  1.00  0.00     0.057 A 
ATOM     85  C   UNL     1       3.473  -1.446  12.054  1.00  0.00     0.134 A 
ATOM     86  C   UNL     1       5.241   0.100  11.704  1.00  0.00     0.134 A 
ATOM     87  F   UNL     1       2.432  -2.195  11.670  1.00  0.00    -0.206 F 
ATOM     88  C   UNL     1       3.968  -1.711  13.336  1.00  0.00     0.040 A 
ATOM     89  C   UNL     1       5.777  -0.202  12.958  1.00  0.00     0.040 A 
ATOM     90  F   UNL     1       5.950   0.990  10.995  1.00  0.00    -0.206 F 
ATOM     91  C   UNL     1       5.130  -1.101  13.787  1.00  0.00     0.006 A 
ENDBRANCH  67  84
ENDBRANCH  41  42
ENDBRANCH  34  36
ENDBRANCH  33  34
ENDBRANCH  32  33
ENDBRANCH  31  32
ENDBRANCH  30  31
ENDBRANCH  29  30
ENDBRANCH  28  29
ENDBRANCH  27  28
ENDBRANCH   1  27
TORSDOF 25
