REMARK SMILES CCc1nc(COC)cc(N2CCCC[C@H]2C(=O)OCCOCCOCCOCCOC(=O)c2ccc(-c3c4nc(c(-c5c(F)cccc5F)c5ccc([nH]5)c(-c5c(F)cccc5F)c5nc(c(-c6c(F)cccc6F)c6ccc3[nH]6)C=C5)C=C4)cc2)n1
REMARK SMILES IDX 24 1 23 2 22 3 21 4 20 5 19 6 17 7 18 8 16 9 11 10 12 11
REMARK SMILES IDX 13 12 15 13 14 14 10 15 3 16 4 17 88 18 5 19 9 20 2 21 1 22
REMARK SMILES IDX 6 23 7 24 8 25 25 26 26 27 27 28 28 29 29 30 30 31 31 32
REMARK SMILES IDX 32 33 33 34 34 35 35 36 87 37 36 38 86 39 37 40 38 41 39 42
REMARK SMILES IDX 80 43 40 44 85 45 79 46 81 47 41 48 84 49 78 50 77 51 42 53
REMARK SMILES IDX 68 54 51 55 67 56 52 57 55 58 66 59 82 60 53 61 54 62 65 64
REMARK SMILES IDX 83 65 56 66 43 67 44 68 49 69 45 70 46 71 48 72 50 73 47 74
REMARK SMILES IDX 69 75 70 76 75 77 71 78 72 79 74 80 76 81 73 82 57 83 58 84
REMARK SMILES IDX 63 85 59 86 60 87 62 88 64 89 61 90
REMARK H PARENT 81 52 55 63
REMARK Flexibility Score: inf
ROOT
ATOM      1  C   UNL     1       1.210   0.636   9.181  1.00  0.00     0.188 C 
ENDROOT
BRANCH   1   2
ATOM      2  C   UNL     1       1.857  -0.453  10.059  1.00  0.00     0.188 C 
BRANCH   2   3
ATOM      3  O   UNL     1       2.951   0.024  10.825  1.00  0.00    -0.376 OA
BRANCH   3   4
ATOM      4  C   UNL     1       4.299  -0.182  10.435  1.00  0.00     0.202 C 
BRANCH   4   5
ATOM      5  C   UNL     1       4.818   0.098   9.012  1.00  0.00     0.261 C 
BRANCH   5   6
ATOM      6  O   UNL     1       3.919  -0.178   7.944  1.00  0.00    -0.462 OA
BRANCH   6   7
ATOM      7  C   UNL     1       3.667  -1.489   7.700  1.00  0.00     0.328 C 
ATOM      8  O   UNL     1       4.243  -2.416   8.252  1.00  0.00    -0.250 OA
BRANCH   7   9
ATOM      9  C   UNL     1       2.490  -1.595   6.717  1.00  0.00     0.193 C 
ATOM     10  N   UNL     1       2.938  -1.443   5.334  1.00  0.00    -0.343 N 
ATOM     11  C   UNL     1       3.753  -2.531   4.812  1.00  0.00     0.119 C 
ATOM     12  C   UNL     1       3.098  -3.897   5.031  1.00  0.00     0.022 C 
ATOM     13  C   UNL     1       1.698  -2.894   6.884  1.00  0.00     0.037 C 
ATOM     14  C   UNL     1       2.497  -4.105   6.422  1.00  0.00     0.005 C 
BRANCH  10  15
ATOM     15  C   UNL     1       2.194  -0.633   4.491  1.00  0.00     0.133 A 
ATOM     16  C   UNL     1       1.035  -0.331   2.526  1.00  0.00     0.130 A 
ATOM     17  N   UNL     1       0.714   0.944   2.800  1.00  0.00    -0.235 NA
ATOM     18  N   UNL     1       1.771  -1.132   3.321  1.00  0.00    -0.216 NA
ATOM     19  C   UNL     1       1.192   1.456   3.948  1.00  0.00     0.072 A 
ATOM     20  C   UNL     1       1.914   0.683   4.841  1.00  0.00     0.073 A 
BRANCH  16  21
ATOM     21  C   UNL     1       0.532  -0.903   1.231  1.00  0.00     0.074 C 
ATOM     22  C   UNL     1       1.045  -0.119   0.033  1.00  0.00     0.012 C 
ENDBRANCH  16  21
BRANCH  19  23
ATOM     23  C   UNL     1       0.985   2.937   4.189  1.00  0.00     0.216 C 
BRANCH  23  24
ATOM     24  O   UNL     1       1.674   3.765   3.243  1.00  0.00    -0.378 OA
ATOM     25  C   UNL     1       3.088   3.695   3.357  1.00  0.00     0.195 C 
ENDBRANCH  23  24
ENDBRANCH  19  23
ENDBRANCH  10  15
ENDBRANCH   7   9
ENDBRANCH   6   7
ENDBRANCH   5   6
ENDBRANCH   4   5
ENDBRANCH   3   4
ENDBRANCH   2   3
ENDBRANCH   1   2
BRANCH   1  26
ATOM     26  O   UNL     1       2.109   1.663   8.802  1.00  0.00    -0.377 OA
BRANCH  26  27
ATOM     27  C   UNL     1       2.383   2.686   9.764  1.00  0.00     0.188 C 
BRANCH  27  28
ATOM     28  C   UNL     1       2.006   2.553  11.267  1.00  0.00     0.188 C 
BRANCH  28  29
ATOM     29  O   UNL     1       0.837   1.794  11.537  1.00  0.00    -0.376 OA
BRANCH  29  30
ATOM     30  C   UNL     1      -0.362   2.471  11.869  1.00  0.00     0.202 C 
BRANCH  30  31
ATOM     31  C   UNL     1      -0.992   3.348  10.777  1.00  0.00     0.261 C 
BRANCH  31  32
ATOM     32  O   UNL     1      -0.136   4.348  10.207  1.00  0.00    -0.460 OA
BRANCH  32  33
ATOM     33  C   UNL     1       0.325   5.310  11.033  1.00  0.00     0.338 C 
ATOM     34  O   UNL     1       0.065   5.455  12.217  1.00  0.00    -0.246 OA
BRANCH  33  35
ATOM     35  C   UNL     1       1.373   6.056  10.307  1.00  0.00     0.060 A 
ATOM     36  C   UNL     1       2.675   6.084  10.827  1.00  0.00     0.016 A 
ATOM     37  C   UNL     1       1.073   6.700   9.106  1.00  0.00     0.016 A 
ATOM     38  C   UNL     1       3.676   6.792  10.164  1.00  0.00     0.010 A 
ATOM     39  C   UNL     1       2.069   7.432   8.457  1.00  0.00     0.010 A 
ATOM     40  C   UNL     1       3.362   7.511   9.005  1.00  0.00    -0.014 A 
BRANCH  40  41
ATOM     41  C   UNL     1       4.304   8.534   8.494  1.00  0.00     0.031 A 
ATOM     42  C   UNL     1       4.079   9.962   8.905  1.00  0.00     0.074 A 
ATOM     43  C   UNL     1       5.325   8.213   7.683  1.00  0.00     0.049 A 
ATOM     44  N   UNL     1       4.690  11.048   8.514  1.00  0.00    -0.248 NA
ATOM     45  C   UNL     1       3.005  10.192   9.886  1.00  0.00     0.031 C 
ATOM     46  C   UNL     1       5.675   6.862   7.254  1.00  0.00     0.029 A 
ATOM     47  N   UNL     1       6.245   9.018   7.058  1.00  0.00    -0.354 N 
ATOM     48  C   UNL     1       4.064  12.091   9.184  1.00  0.00     0.074 A 
ATOM     49  C   UNL     1       3.010  11.511   9.986  1.00  0.00     0.031 C 
ATOM     50  C   UNL     1       6.721   6.932   6.412  1.00  0.00     0.029 A 
ATOM     51  C   UNL     1       7.085   8.335   6.213  1.00  0.00     0.049 A 
ATOM     52  H   UNL     1       6.297   9.991   7.201  1.00  0.00     0.167 HD
ATOM     53  C   UNL     1       4.343  13.415   9.134  1.00  0.00     0.037 A 
ATOM     54  C   UNL     1       8.014   8.798   5.354  1.00  0.00     0.037 A 
ATOM     55  C   UNL     1       5.389  13.985   8.329  1.00  0.00     0.049 A 
ATOM     56  C   UNL     1       8.259  10.282   5.255  1.00  0.00     0.074 A 
ATOM     57  C   UNL     1       5.773  15.310   8.228  1.00  0.00     0.029 A 
ATOM     58  N   UNL     1       6.206  13.263   7.472  1.00  0.00    -0.354 N 
ATOM     59  N   UNL     1       7.685  11.262   5.912  1.00  0.00    -0.248 NA
ATOM     60  C   UNL     1       9.282  10.725   4.296  1.00  0.00     0.031 C 
ATOM     61  C   UNL     1       6.777  15.398   7.260  1.00  0.00     0.029 A 
ATOM     62  C   UNL     1       7.070  14.120   6.811  1.00  0.00     0.049 A 
ATOM     63  H   UNL     1       6.176  12.287   7.351  1.00  0.00     0.167 HD
ATOM     64  C   UNL     1       8.297  12.430   5.471  1.00  0.00     0.074 A 
ATOM     65  C   UNL     1       9.291  12.036   4.494  1.00  0.00     0.031 C 
ATOM     66  C   UNL     1       8.061  13.712   5.846  1.00  0.00     0.037 A 
BRANCH  53  67
ATOM     67  C   UNL     1       3.468  14.333   9.938  1.00  0.00     0.057 A 
ATOM     68  C   UNL     1       3.487  14.349  11.339  1.00  0.00     0.134 A 
ATOM     69  C   UNL     1       2.593  15.219   9.295  1.00  0.00     0.134 A 
ATOM     70  F   UNL     1       4.288  13.514  12.018  1.00  0.00    -0.206 F 
ATOM     71  C   UNL     1       2.643  15.187  12.071  1.00  0.00     0.040 A 
ATOM     72  C   UNL     1       1.770  16.085  10.015  1.00  0.00     0.040 A 
ATOM     73  F   UNL     1       2.526  15.258   7.956  1.00  0.00    -0.206 F 
ATOM     74  C   UNL     1       1.786  16.063  11.408  1.00  0.00     0.006 A 
ENDBRANCH  53  67
BRANCH  54  75
ATOM     75  C   UNL     1       8.766   7.844   4.499  1.00  0.00     0.057 A 
ATOM     76  C   UNL     1      10.133   7.618   4.690  1.00  0.00     0.134 A 
ATOM     77  C   UNL     1       8.134   7.134   3.470  1.00  0.00     0.134 A 
ATOM     78  F   UNL     1      10.801   8.284   5.644  1.00  0.00    -0.206 F 
ATOM     79  C   UNL     1      10.848   6.730   3.883  1.00  0.00     0.040 A 
ATOM     80  C   UNL     1       8.830   6.224   2.673  1.00  0.00     0.040 A 
ATOM     81  F   UNL     1       6.824   7.303   3.236  1.00  0.00    -0.206 F 
ATOM     82  C   UNL     1      10.193   6.024   2.876  1.00  0.00     0.006 A 
ENDBRANCH  54  75
BRANCH  66  83
ATOM     83  C   UNL     1       8.919  14.787   5.240  1.00  0.00     0.057 A 
ATOM     84  C   UNL     1       8.784  15.185   3.905  1.00  0.00     0.134 A 
ATOM     85  C   UNL     1       9.844  15.484   6.031  1.00  0.00     0.134 A 
ATOM     86  F   UNL     1       7.924  14.555   3.091  1.00  0.00    -0.206 F 
ATOM     87  C   UNL     1       9.548  16.226   3.373  1.00  0.00     0.040 A 
ATOM     88  C   UNL     1      10.592  16.545   5.519  1.00  0.00     0.040 A 
ATOM     89  F   UNL     1      10.016  15.162   7.322  1.00  0.00    -0.206 F 
ATOM     90  C   UNL     1      10.448  16.916   4.184  1.00  0.00     0.006 A 
ENDBRANCH  66  83
ENDBRANCH  40  41
ENDBRANCH  33  35
ENDBRANCH  32  33
ENDBRANCH  31  32
ENDBRANCH  30  31
ENDBRANCH  29  30
ENDBRANCH  28  29
ENDBRANCH  27  28
ENDBRANCH  26  27
ENDBRANCH   1  26
TORSDOF 24
