REMARK SMILES Cc1onc(-c2ccccc2Cl)c1C(=O)N1CCCC[C@@H]1C(=O)OCCOCCOCCOCCOC(=O)c1ccc(-c2c3nc(c(-c4c(F)cccc4F)c4ccc([nH]4)c(-c4c(F)cccc4F)c4nc(c(-c5c(F)cccc5F)c5ccc2[nH]5)C=C4)C=C3)cc1
REMARK SMILES IDX 29 1 28 2 27 3 26 4 25 5 24 6 22 7 23 8 21 9 16 10 17 11
REMARK SMILES IDX 18 12 20 13 19 14 14 15 15 16 13 17 1 18 2 19 3 20 4 21 5 22
REMARK SMILES IDX 6 23 7 24 11 25 8 26 10 27 12 28 9 29 30 30 31 31 32 32
REMARK SMILES IDX 33 33 34 34 35 35 36 36 37 37 38 38 39 39 40 40 92 41 41 42
REMARK SMILES IDX 91 43 42 44 43 45 44 46 85 47 45 48 90 49 84 50 86 51 46 52
REMARK SMILES IDX 89 53 83 54 82 55 47 57 73 58 56 59 72 60 57 61 60 62 71 63
REMARK SMILES IDX 87 64 58 65 59 66 70 68 88 69 61 70 48 71 49 72 54 73 50 74
REMARK SMILES IDX 51 75 53 76 55 77 52 78 74 79 75 80 80 81 76 82 77 83 79 84
REMARK SMILES IDX 81 85 78 86 62 87 63 88 68 89 64 90 65 91 67 92 69 93 66 94
REMARK H PARENT 86 56 60 67
REMARK Flexibility Score: inf
ROOT
ATOM      1  C   UNL     1       3.689  -1.858   3.974  1.00  0.00     0.188 C 
ENDROOT
BRANCH   1   2
ATOM      2  C   UNL     1       3.258  -0.383   3.923  1.00  0.00     0.188 C 
BRANCH   2   3
ATOM      3  O   UNL     1       2.122  -0.098   4.707  1.00  0.00    -0.376 OA
BRANCH   3   4
ATOM      4  C   UNL     1       0.827  -0.011   4.160  1.00  0.00     0.202 C 
BRANCH   4   5
ATOM      5  C   UNL     1       0.159  -1.117   3.323  1.00  0.00     0.261 C 
BRANCH   5   6
ATOM      6  O   UNL     1       0.937  -2.120   2.662  1.00  0.00    -0.462 OA
BRANCH   6   7
ATOM      7  C   UNL     1       1.653  -1.685   1.609  1.00  0.00     0.328 C 
ATOM      8  O   UNL     1       1.797  -0.497   1.349  1.00  0.00    -0.250 OA
BRANCH   7   9
ATOM      9  C   UNL     1       2.226  -2.798   0.721  1.00  0.00     0.195 C 
ATOM     10  N   UNL     1       1.647  -2.941  -0.639  1.00  0.00    -0.325 N 
ATOM     11  C   UNL     1       2.374  -3.843  -1.527  1.00  0.00     0.121 C 
ATOM     12  C   UNL     1       2.672  -5.200  -0.891  1.00  0.00     0.022 C 
ATOM     13  C   UNL     1       2.438  -4.172   1.377  1.00  0.00     0.037 C 
ATOM     14  C   UNL     1       3.329  -5.034   0.476  1.00  0.00     0.005 C 
BRANCH  10  15
ATOM     15  C   UNL     1       0.284  -2.761  -0.885  1.00  0.00     0.260 C 
ATOM     16  O   UNL     1      -0.413  -3.660  -1.348  1.00  0.00    -0.269 OA
BRANCH  15  17
ATOM     17  C   UNL     1      -0.244  -1.417  -0.707  1.00  0.00     0.110 A 
ATOM     18  C   UNL     1       1.767   0.225  -1.322  1.00  0.00     0.092 C 
ATOM     19  C   UNL     1       0.408  -0.209  -0.919  1.00  0.00     0.147 A 
ATOM     20  O   UNL     1      -0.437   0.813  -0.633  1.00  0.00    -0.360 OA
ATOM     21  N   UNL     1      -1.676   0.318  -0.318  1.00  0.00    -0.079 NA
ATOM     22  C   UNL     1      -1.586  -1.020  -0.414  1.00  0.00     0.128 A 
BRANCH  22  23
ATOM     23  C   UNL     1      -2.810  -1.809  -0.321  1.00  0.00     0.023 A 
ATOM     24  C   UNL     1      -3.812  -1.524  -1.268  1.00  0.00     0.012 A 
ATOM     25  C   UNL     1      -3.068  -2.784   0.650  1.00  0.00     0.050 A 
ATOM     26  C   UNL     1      -5.037  -2.190  -1.246  1.00  0.00     0.001 A 
ATOM     27  C   UNL     1      -4.309  -3.434   0.683  1.00  0.00     0.021 A 
ATOM     28  Cl  UNL     1      -1.932  -3.248   1.856  1.00  0.00    -0.084 Cl
ATOM     29  C   UNL     1      -5.288  -3.140  -0.264  1.00  0.00     0.002 A 
ENDBRANCH  22  23
ENDBRANCH  15  17
ENDBRANCH  10  15
ENDBRANCH   7   9
ENDBRANCH   6   7
ENDBRANCH   5   6
ENDBRANCH   4   5
ENDBRANCH   3   4
ENDBRANCH   2   3
ENDBRANCH   1   2
BRANCH   1  30
ATOM     30  O   UNL     1       2.757  -2.803   4.479  1.00  0.00    -0.377 OA
BRANCH  30  31
ATOM     31  C   UNL     1       2.224  -2.665   5.796  1.00  0.00     0.188 C 
BRANCH  31  32
ATOM     32  C   UNL     1       2.810  -1.654   6.808  1.00  0.00     0.188 C 
BRANCH  32  33
ATOM     33  O   UNL     1       4.130  -1.230   6.525  1.00  0.00    -0.376 OA
BRANCH  33  34
ATOM     34  C   UNL     1       5.201  -1.864   7.201  1.00  0.00     0.202 C 
BRANCH  34  35
ATOM     35  C   UNL     1       5.347  -3.384   7.035  1.00  0.00     0.261 C 
BRANCH  35  36
ATOM     36  O   UNL     1       4.223  -4.183   7.439  1.00  0.00    -0.460 OA
BRANCH  36  37
ATOM     37  C   UNL     1       3.784  -4.057   8.706  1.00  0.00     0.338 C 
ATOM     38  O   UNL     1       4.274  -3.377   9.598  1.00  0.00    -0.246 OA
BRANCH  37  39
ATOM     39  C   UNL     1       2.475  -4.730   8.803  1.00  0.00     0.060 A 
ATOM     40  C   UNL     1       1.349  -3.986   9.185  1.00  0.00     0.016 A 
ATOM     41  C   UNL     1       2.367  -6.096   8.537  1.00  0.00     0.016 A 
ATOM     42  C   UNL     1       0.123  -4.621   9.364  1.00  0.00     0.010 A 
ATOM     43  C   UNL     1       1.145  -6.737   8.745  1.00  0.00     0.010 A 
ATOM     44  C   UNL     1       0.034  -6.009   9.210  1.00  0.00    -0.014 A 
BRANCH  44  45
ATOM     45  C   UNL     1      -1.121  -6.726   9.798  1.00  0.00     0.031 A 
ATOM     46  C   UNL     1      -0.954  -7.310  11.176  1.00  0.00     0.074 A 
ATOM     47  C   UNL     1      -2.296  -6.826   9.155  1.00  0.00     0.049 A 
ATOM     48  N   UNL     1      -1.788  -8.021  11.888  1.00  0.00    -0.248 NA
ATOM     49  C   UNL     1       0.338  -7.056  11.838  1.00  0.00     0.031 C 
ATOM     50  C   UNL     1      -2.598  -6.253   7.846  1.00  0.00     0.029 A 
ATOM     51  N   UNL     1      -3.456  -7.457   9.526  1.00  0.00    -0.354 N 
ATOM     52  C   UNL     1      -1.119  -8.308  13.072  1.00  0.00     0.074 A 
ATOM     53  C   UNL     1       0.199  -7.725  12.970  1.00  0.00     0.031 C 
ATOM     54  C   UNL     1      -3.862  -6.571   7.515  1.00  0.00     0.029 A 
ATOM     55  C   UNL     1      -4.442  -7.397   8.573  1.00  0.00     0.049 A 
ATOM     56  H   UNL     1      -3.571  -7.909  10.393  1.00  0.00     0.167 HD
ATOM     57  C   UNL     1      -1.567  -8.988  14.153  1.00  0.00     0.037 A 
ATOM     58  C   UNL     1      -5.663  -7.967   8.554  1.00  0.00     0.037 A 
ATOM     59  C   UNL     1      -2.879  -9.569  14.248  1.00  0.00     0.049 A 
ATOM     60  C   UNL     1      -6.111  -8.791   9.735  1.00  0.00     0.074 A 
ATOM     61  C   UNL     1      -3.435 -10.276  15.299  1.00  0.00     0.029 A 
ATOM     62  N   UNL     1      -3.838  -9.517  13.247  1.00  0.00    -0.354 N 
ATOM     63  N   UNL     1      -5.479  -9.050  10.855  1.00  0.00    -0.248 NA
ATOM     64  C   UNL     1      -7.447  -9.398   9.649  1.00  0.00     0.031 C 
ATOM     65  C   UNL     1      -4.710 -10.701  14.911  1.00  0.00     0.029 A 
ATOM     66  C   UNL     1      -4.975 -10.200  13.646  1.00  0.00     0.049 A 
ATOM     67  H   UNL     1      -3.728  -9.061  12.381  1.00  0.00     0.167 HD
ATOM     68  C   UNL     1      -6.354  -9.813  11.621  1.00  0.00     0.074 A 
ATOM     69  C   UNL     1      -7.563  -9.968  10.840  1.00  0.00     0.031 C 
ATOM     70  C   UNL     1      -6.176 -10.332  12.862  1.00  0.00     0.037 A 
BRANCH  57  71
ATOM     71  C   UNL     1      -0.613  -9.171  15.297  1.00  0.00     0.057 A 
ATOM     72  C   UNL     1      -0.208  -8.102  16.109  1.00  0.00     0.134 A 
ATOM     73  C   UNL     1      -0.099 -10.438  15.598  1.00  0.00     0.134 A 
ATOM     74  F   UNL     1      -0.647  -6.858  15.864  1.00  0.00    -0.206 F 
ATOM     75  C   UNL     1       0.695  -8.283  17.159  1.00  0.00     0.040 A 
ATOM     76  C   UNL     1       0.779 -10.637  16.665  1.00  0.00     0.040 A 
ATOM     77  F   UNL     1      -0.444 -11.506  14.863  1.00  0.00    -0.206 F 
ATOM     78  C   UNL     1       1.185  -9.556  17.443  1.00  0.00     0.006 A 
ENDBRANCH  57  71
BRANCH  58  79
ATOM     79  C   UNL     1      -6.550  -7.791   7.375  1.00  0.00     0.057 A 
ATOM     80  C   UNL     1      -7.743  -7.065   7.463  1.00  0.00     0.134 A 
ATOM     81  C   UNL     1      -6.239  -8.370   6.138  1.00  0.00     0.134 A 
ATOM     82  F   UNL     1      -8.109  -6.508   8.627  1.00  0.00    -0.206 F 
ATOM     83  C   UNL     1      -8.605  -6.938   6.373  1.00  0.00     0.040 A 
ATOM     84  C   UNL     1      -7.078  -8.227   5.031  1.00  0.00     0.040 A 
ATOM     85  F   UNL     1      -5.112  -9.079   5.985  1.00  0.00    -0.206 F 
ATOM     86  C   UNL     1      -8.270  -7.516   5.150  1.00  0.00     0.006 A 
ENDBRANCH  58  79
BRANCH  70  87
ATOM     87  C   UNL     1      -7.335 -11.064  13.479  1.00  0.00     0.057 A 
ATOM     88  C   UNL     1      -7.763 -12.315  13.017  1.00  0.00     0.134 A 
ATOM     89  C   UNL     1      -8.005 -10.522  14.585  1.00  0.00     0.134 A 
ATOM     90  F   UNL     1      -7.172 -12.887  11.957  1.00  0.00    -0.206 F 
ATOM     91  C   UNL     1      -8.835 -12.985  13.611  1.00  0.00     0.040 A 
ATOM     92  C   UNL     1      -9.055 -11.197  15.208  1.00  0.00     0.040 A 
ATOM     93  F   UNL     1      -7.638  -9.334  15.089  1.00  0.00    -0.206 F 
ATOM     94  C   UNL     1      -9.479 -12.429  14.715  1.00  0.00     0.006 A 
ENDBRANCH  70  87
ENDBRANCH  44  45
ENDBRANCH  37  39
ENDBRANCH  36  37
ENDBRANCH  35  36
ENDBRANCH  34  35
ENDBRANCH  33  34
ENDBRANCH  32  33
ENDBRANCH  31  32
ENDBRANCH  30  31
ENDBRANCH   1  30
TORSDOF 23
