REMARK SMILES CC(C)CCc1cc2c(cc1Cl)C=C(C(=O)OCCOCCOCCOCCOC(=O)c1ccc(-c3c4nc(c(-c5c(F)cccc5F)c5ccc([nH]5)c(-c5c(F)cccc5F)c5nc(c(-c6c(F)cccc6F)c6ccc3[nH]6)C=C5)C=C4)cc1)[C@@H](C(F)(F)F)O2
REMARK SMILES IDX 22 1 21 2 20 3 19 4 18 5 17 6 15 7 16 8 14 9 6 10 7 11 11 12
REMARK SMILES IDX 8 13 10 14 12 15 9 16 91 17 13 18 86 19 5 20 4 21 2 22 1 23
REMARK SMILES IDX 3 24 87 25 88 26 89 27 90 28 23 29 24 30 25 31 26 32 27 33
REMARK SMILES IDX 28 34 29 35 30 36 31 37 32 38 33 39 85 40 34 41 84 42 35 43
REMARK SMILES IDX 36 44 37 45 78 46 38 47 83 48 77 49 79 50 39 51 82 52 76 53
REMARK SMILES IDX 75 54 40 56 66 57 49 58 65 59 50 60 53 61 64 62 80 63 51 64
REMARK SMILES IDX 52 65 63 67 81 68 54 69 41 70 42 71 47 72 43 73 44 74 46 75
REMARK SMILES IDX 48 76 45 77 67 78 68 79 73 80 69 81 70 82 72 83 74 84 71 85
REMARK SMILES IDX 55 86 56 87 61 88 57 89 58 90 60 91 62 92 59 93
REMARK H PARENT 79 55 53 66
REMARK Flexibility Score: inf
ROOT
ATOM      1  C   UNL     1       1.088   9.424   0.350  1.00  0.00     0.188 C 
ENDROOT
BRANCH   1   2
ATOM      2  C   UNL     1       1.775   9.869  -0.953  1.00  0.00     0.188 C 
BRANCH   2   3
ATOM      3  O   UNL     1       1.679  11.270  -1.198  1.00  0.00    -0.376 OA
BRANCH   3   4
ATOM      4  C   UNL     1       0.817  11.679  -2.252  1.00  0.00     0.202 C 
BRANCH   4   5
ATOM      5  C   UNL     1      -0.689  11.591  -1.957  1.00  0.00     0.261 C 
BRANCH   5   6
ATOM      6  O   UNL     1      -1.144  10.284  -1.577  1.00  0.00    -0.460 OA
BRANCH   6   7
ATOM      7  C   UNL     1      -1.126   9.351  -2.546  1.00  0.00     0.338 C 
ATOM      8  O   UNL     1      -0.875   9.533  -3.726  1.00  0.00    -0.246 OA
BRANCH   7   9
ATOM      9  C   UNL     1      -1.254   8.024  -1.920  1.00  0.00     0.087 C 
ATOM     10  C   UNL     1      -0.773   3.097  -0.981  1.00  0.00    -0.026 A 
ATOM     11  C   UNL     1      -1.591   4.138  -0.459  1.00  0.00     0.052 A 
ATOM     12  C   UNL     1       0.252   3.479  -1.863  1.00  0.00     0.045 A 
ATOM     13  C   UNL     1      -1.445   5.471  -0.861  1.00  0.00     0.128 A 
ATOM     14  C   UNL     1       0.441   4.823  -2.199  1.00  0.00     0.032 A 
ATOM     15  Cl  UNL     1       1.318   2.431  -2.714  1.00  0.00    -0.084 Cl
ATOM     16  C   UNL     1      -0.433   5.802  -1.746  1.00  0.00     0.019 A 
ATOM     17  O   UNL     1      -2.338   6.380  -0.368  1.00  0.00    -0.475 OA
ATOM     18  C   UNL     1      -0.328   7.135  -2.290  1.00  0.00     0.027 C 
ATOM     19  C   UNL     1      -2.331   7.740  -0.908  1.00  0.00     0.316 C 
BRANCH  10  20
ATOM     20  C   UNL     1      -1.107   1.698  -0.480  1.00  0.00     0.037 C 
BRANCH  20  21
ATOM     21  C   UNL     1      -0.801   0.450  -1.322  1.00  0.00     0.008 C 
BRANCH  21  22
ATOM     22  C   UNL     1       0.584  -0.189  -1.080  1.00  0.00    -0.017 C 
ATOM     23  C   UNL     1       0.689  -0.926   0.253  1.00  0.00     0.007 C 
ATOM     24  C   UNL     1       0.922  -1.135  -2.236  1.00  0.00     0.007 C 
ENDBRANCH  21  22
ENDBRANCH  20  21
ENDBRANCH  10  20
BRANCH  19  25
ATOM     25  C   UNL     1      -3.723   8.055  -1.473  1.00  0.00     0.430 C 
ATOM     26  F   UNL     1      -4.697   7.787  -0.572  1.00  0.00    -0.167 F 
ATOM     27  F   UNL     1      -3.846   9.363  -1.801  1.00  0.00    -0.167 F 
ATOM     28  F   UNL     1      -3.990   7.335  -2.587  1.00  0.00    -0.167 F 
ENDBRANCH  19  25
ENDBRANCH   7   9
ENDBRANCH   6   7
ENDBRANCH   5   6
ENDBRANCH   4   5
ENDBRANCH   3   4
ENDBRANCH   2   3
ENDBRANCH   1   2
BRANCH   1  29
ATOM     29  O   UNL     1       0.228  10.389   0.928  1.00  0.00    -0.377 OA
BRANCH  29  30
ATOM     30  C   UNL     1       0.807  11.556   1.514  1.00  0.00     0.188 C 
BRANCH  30  31
ATOM     31  C   UNL     1       2.328  11.842   1.496  1.00  0.00     0.188 C 
BRANCH  31  32
ATOM     32  O   UNL     1       3.151  10.686   1.585  1.00  0.00    -0.376 OA
BRANCH  32  33
ATOM     33  C   UNL     1       3.874  10.508   2.794  1.00  0.00     0.202 C 
BRANCH  33  34
ATOM     34  C   UNL     1       3.017   9.997   3.957  1.00  0.00     0.261 C 
BRANCH  34  35
ATOM     35  O   UNL     1       1.947  10.870   4.352  1.00  0.00    -0.460 OA
BRANCH  35  36
ATOM     36  C   UNL     1       2.273  12.108   4.785  1.00  0.00     0.338 C 
ATOM     37  O   UNL     1       3.391  12.571   4.930  1.00  0.00    -0.246 OA
BRANCH  36  38
ATOM     38  C   UNL     1       1.021  12.889   4.861  1.00  0.00     0.060 A 
ATOM     39  C   UNL     1      -0.085  12.380   5.547  1.00  0.00     0.016 A 
ATOM     40  C   UNL     1       0.939  14.120   4.197  1.00  0.00     0.016 A 
ATOM     41  C   UNL     1      -1.264  13.122   5.599  1.00  0.00     0.010 A 
ATOM     42  C   UNL     1      -0.246  14.859   4.244  1.00  0.00     0.010 A 
ATOM     43  C   UNL     1      -1.345  14.377   4.970  1.00  0.00    -0.014 A 
BRANCH  43  44
ATOM     44  C   UNL     1      -2.501  15.259   5.256  1.00  0.00     0.031 A 
ATOM     45  C   UNL     1      -3.639  15.433   4.299  1.00  0.00     0.074 A 
ATOM     46  C   UNL     1      -2.498  15.917   6.431  1.00  0.00     0.049 A 
ATOM     47  N   UNL     1      -4.755  16.098   4.467  1.00  0.00    -0.248 NA
ATOM     48  C   UNL     1      -3.510  14.788   2.986  1.00  0.00     0.031 C 
ATOM     49  C   UNL     1      -1.422  15.853   7.424  1.00  0.00     0.029 A 
ATOM     50  N   UNL     1      -3.421  16.758   6.992  1.00  0.00    -0.354 N 
ATOM     51  C   UNL     1      -5.477  15.935   3.293  1.00  0.00     0.074 A 
ATOM     52  C   UNL     1      -4.648  15.146   2.401  1.00  0.00     0.031 C 
ATOM     53  C   UNL     1      -1.757  16.607   8.481  1.00  0.00     0.029 A 
ATOM     54  C   UNL     1      -3.057  17.220   8.232  1.00  0.00     0.049 A 
ATOM     55  H   UNL     1      -4.264  17.008   6.548  1.00  0.00     0.167 HD
ATOM     56  C   UNL     1      -6.720  16.391   2.998  1.00  0.00     0.037 A 
ATOM     57  C   UNL     1      -3.700  18.044   9.078  1.00  0.00     0.037 A 
ATOM     58  C   UNL     1      -7.526  17.199   3.881  1.00  0.00     0.049 A 
ATOM     59  C   UNL     1      -5.055  18.568   8.702  1.00  0.00     0.074 A 
ATOM     60  C   UNL     1      -8.816  17.668   3.688  1.00  0.00     0.029 A 
ATOM     61  N   UNL     1      -7.114  17.677   5.117  1.00  0.00    -0.354 N 
ATOM     62  N   UNL     1      -5.769  18.326   7.630  1.00  0.00    -0.248 NA
ATOM     63  C   UNL     1      -5.698  19.475   9.662  1.00  0.00     0.031 C 
ATOM     64  C   UNL     1      -9.163  18.471   4.781  1.00  0.00     0.029 A 
ATOM     65  C   UNL     1      -8.110  18.462   5.681  1.00  0.00     0.049 A 
ATOM     66  H   UNL     1      -6.242  17.488   5.533  1.00  0.00     0.167 HD
ATOM     67  C   UNL     1      -6.954  19.029   7.797  1.00  0.00     0.074 A 
ATOM     68  C   UNL     1      -6.871  19.687   9.085  1.00  0.00     0.031 C 
ATOM     69  C   UNL     1      -8.015  19.122   6.958  1.00  0.00     0.037 A 
BRANCH  56  70
ATOM     70  C   UNL     1      -7.295  16.024   1.659  1.00  0.00     0.057 A 
ATOM     71  C   UNL     1      -7.502  16.997   0.672  1.00  0.00     0.134 A 
ATOM     72  C   UNL     1      -7.708  14.716   1.371  1.00  0.00     0.134 A 
ATOM     73  F   UNL     1      -7.143  18.271   0.886  1.00  0.00    -0.206 F 
ATOM     74  C   UNL     1      -8.100  16.682  -0.550  1.00  0.00     0.040 A 
ATOM     75  C   UNL     1      -8.286  14.385   0.144  1.00  0.00     0.040 A 
ATOM     76  F   UNL     1      -7.538  13.736   2.272  1.00  0.00    -0.206 F 
ATOM     77  C   UNL     1      -8.490  15.372  -0.819  1.00  0.00     0.006 A 
ENDBRANCH  56  70
BRANCH  57  78
ATOM     78  C   UNL     1      -3.082  18.408  10.375  1.00  0.00     0.057 A 
ATOM     79  C   UNL     1      -1.958  19.240  10.438  1.00  0.00     0.134 A 
ATOM     80  C   UNL     1      -3.618  17.951  11.584  1.00  0.00     0.134 A 
ATOM     81  F   UNL     1      -1.392  19.701   9.312  1.00  0.00    -0.206 F 
ATOM     82  C   UNL     1      -1.391  19.608  11.658  1.00  0.00     0.040 A 
ATOM     83  C   UNL     1      -3.077  18.333  12.812  1.00  0.00     0.040 A 
ATOM     84  F   UNL     1      -4.703  17.163  11.586  1.00  0.00    -0.206 F 
ATOM     85  C   UNL     1      -1.958  19.163  12.850  1.00  0.00     0.006 A 
ENDBRANCH  57  78
BRANCH  69  86
ATOM     86  C   UNL     1      -9.175  19.952   7.427  1.00  0.00     0.057 A 
ATOM     87  C   UNL     1     -10.382  19.349   7.803  1.00  0.00     0.134 A 
ATOM     88  C   UNL     1      -9.096  21.349   7.517  1.00  0.00     0.134 A 
ATOM     89  F   UNL     1     -10.528  18.017   7.737  1.00  0.00    -0.206 F 
ATOM     90  C   UNL     1     -11.465  20.104   8.256  1.00  0.00     0.040 A 
ATOM     91  C   UNL     1     -10.163  22.111   7.996  1.00  0.00     0.040 A 
ATOM     92  F   UNL     1      -7.963  21.988   7.191  1.00  0.00    -0.206 F 
ATOM     93  C   UNL     1     -11.354  21.488   8.364  1.00  0.00     0.006 A 
ENDBRANCH  69  86
ENDBRANCH  43  44
ENDBRANCH  36  38
ENDBRANCH  35  36
ENDBRANCH  34  35
ENDBRANCH  33  34
ENDBRANCH  32  33
ENDBRANCH  31  32
ENDBRANCH  30  31
ENDBRANCH  29  30
ENDBRANCH   1  29
TORSDOF 24
