REMARK SMILES O=C(COc1ccc([N+](=O)[O-])cc1)Nc1ccc(C(=O)OCCOCCOCCOCCOC(=O)c2ccc(-c3c4nc(c(-c5c(F)cccc5F)c5ccc([nH]5)c(-c5c(F)cccc5F)c5nc(c(-c6c(F)cccc6F)c6ccc3[nH]6)C=C5)C=C4)cc2)c(O)c1
REMARK SMILES IDX 25 1 24 2 23 3 22 4 21 5 19 6 20 7 18 8 15 9 16 10 92 11
REMARK SMILES IDX 17 12 90 13 14 14 1 15 2 16 3 18 4 19 5 20 6 21 13 22 7 23
REMARK SMILES IDX 12 24 8 25 9 26 10 27 11 28 91 29 26 31 27 32 28 33 29 34
REMARK SMILES IDX 30 35 31 36 32 37 33 38 34 39 35 40 36 41 37 42 89 43 38 44
REMARK SMILES IDX 88 45 39 46 40 47 41 48 82 49 42 50 87 51 81 52 83 53 43 54
REMARK SMILES IDX 86 55 80 56 79 57 44 59 70 60 53 61 69 62 54 63 57 64 68 65
REMARK SMILES IDX 84 66 55 67 56 68 67 70 85 71 58 72 45 73 46 74 51 75 47 76
REMARK SMILES IDX 48 77 50 78 52 79 49 80 71 81 72 82 77 83 73 84 74 85 76 86
REMARK SMILES IDX 78 87 75 88 59 89 60 90 65 91 61 92 62 93 64 94 66 95 63 96
REMARK H PARENT 14 17 91 30 83 58 57 69
REMARK Flexibility Score: inf
ROOT
ATOM      1  C   UNL     1       1.670   5.031   6.259  1.00  0.00     0.188 C 
ENDROOT
BRANCH   1   2
ATOM      2  O   UNL     1       0.690   5.613   7.097  1.00  0.00    -0.376 OA
BRANCH   2   3
ATOM      3  C   UNL     1      -0.498   6.131   6.534  1.00  0.00     0.202 C 
BRANCH   3   4
ATOM      4  C   UNL     1      -1.411   5.179   5.755  1.00  0.00     0.261 C 
BRANCH   4   5
ATOM      5  O   UNL     1      -0.732   4.217   4.948  1.00  0.00    -0.460 OA
BRANCH   5   6
ATOM      6  C   UNL     1      -0.317   4.627   3.731  1.00  0.00     0.341 C 
ATOM      7  O   UNL     1      -0.420   5.753   3.272  1.00  0.00    -0.246 OA
BRANCH   6   8
ATOM      8  C   UNL     1       0.501   3.561   3.109  1.00  0.00     0.101 A 
ATOM      9  C   UNL     1       2.084   1.669   1.778  1.00  0.00     0.045 A 
ATOM     10  C   UNL     1       2.532   2.987   1.908  1.00  0.00     0.027 A 
ATOM     11  C   UNL     1       0.910   1.275   2.426  1.00  0.00     0.073 A 
ATOM     12  C   UNL     1       1.730   3.936   2.545  1.00  0.00     0.022 A 
ATOM     13  C   UNL     1       0.125   2.216   3.095  1.00  0.00     0.132 A 
BRANCH   9  14
ATOM     14  N   UNL     1       2.788   0.838   0.884  1.00  0.00    -0.323 N 
ATOM     15  O   UNL     1       1.182  -0.806   0.457  1.00  0.00    -0.271 OA
ATOM     16  C   UNL     1       2.246  -0.248   0.207  1.00  0.00     0.262 C 
ATOM     17  H   UNL     1       3.737   1.043   0.726  1.00  0.00     0.170 HD
BRANCH  16  18
ATOM     18  C   UNL     1       3.103  -0.691  -0.983  1.00  0.00     0.329 C 
BRANCH  18  19
ATOM     19  O   UNL     1       3.888   0.345  -1.575  1.00  0.00    -0.484 OA
BRANCH  19  20
ATOM     20  C   UNL     1       3.221   1.052  -2.542  1.00  0.00     0.120 A 
ATOM     21  C   UNL     1       3.698   0.973  -3.851  1.00  0.00     0.053 A 
ATOM     22  C   UNL     1       2.192   1.943  -2.225  1.00  0.00     0.053 A 
ATOM     23  C   UNL     1       3.140   1.776  -4.853  1.00  0.00     0.089 A 
ATOM     24  C   UNL     1       1.633   2.755  -3.216  1.00  0.00     0.089 A 
ATOM     25  C   UNL     1       2.115   2.674  -4.527  1.00  0.00     0.269 A 
BRANCH  25  26
ATOM     26  N   UNL     1       1.560   3.562  -5.557  1.00  0.00     0.062 N 
ATOM     27  O   UNL     1       2.024   3.475  -6.703  1.00  0.00    -0.258 OA
ATOM     28  O   UNL     1       0.667   4.351  -5.218  1.00  0.00    -0.258 OA
ENDBRANCH  25  26
ENDBRANCH  19  20
ENDBRANCH  18  19
ENDBRANCH  16  18
ENDBRANCH   9  14
BRANCH  13  29
ATOM     29  O   UNL     1      -1.030   1.804   3.699  1.00  0.00    -0.507 OA
ATOM     30  H   UNL     1      -1.568   2.423   4.152  1.00  0.00     0.293 HD
ENDBRANCH  13  29
ENDBRANCH   6   8
ENDBRANCH   5   6
ENDBRANCH   4   5
ENDBRANCH   3   4
ENDBRANCH   2   3
ENDBRANCH   1   2
BRANCH   1  31
ATOM     31  C   UNL     1       1.847   3.498   6.420  1.00  0.00     0.188 C 
BRANCH  31  32
ATOM     32  O   UNL     1       1.085   2.724   7.342  1.00  0.00    -0.377 OA
BRANCH  32  33
ATOM     33  C   UNL     1       0.499   3.346   8.478  1.00  0.00     0.188 C 
BRANCH  33  34
ATOM     34  C   UNL     1       1.383   4.262   9.352  1.00  0.00     0.188 C 
BRANCH  34  35
ATOM     35  O   UNL     1       2.679   4.475   8.821  1.00  0.00    -0.376 OA
BRANCH  35  36
ATOM     36  C   UNL     1       3.762   3.778   9.408  1.00  0.00     0.202 C 
BRANCH  36  37
ATOM     37  C   UNL     1       3.712   2.243   9.481  1.00  0.00     0.261 C 
BRANCH  37  38
ATOM     38  O   UNL     1       2.504   1.654   9.983  1.00  0.00    -0.460 OA
BRANCH  38  39
ATOM     39  C   UNL     1       2.215   1.832  11.287  1.00  0.00     0.338 C 
ATOM     40  O   UNL     1       2.870   2.449  12.114  1.00  0.00    -0.246 OA
BRANCH  39  41
ATOM     41  C   UNL     1       0.857   1.299  11.515  1.00  0.00     0.060 A 
ATOM     42  C   UNL     1      -0.158   2.165  11.947  1.00  0.00     0.016 A 
ATOM     43  C   UNL     1       0.588  -0.053  11.294  1.00  0.00     0.016 A 
ATOM     44  C   UNL     1      -1.437   1.670  12.198  1.00  0.00     0.010 A 
ATOM     45  C   UNL     1      -0.687  -0.553  11.569  1.00  0.00     0.010 A 
ATOM     46  C   UNL     1      -1.692   0.300  12.060  1.00  0.00    -0.014 A 
BRANCH  46  47
ATOM     47  C   UNL     1      -2.926  -0.278  12.644  1.00  0.00     0.031 A 
ATOM     48  C   UNL     1      -2.834  -0.911  14.005  1.00  0.00     0.074 A 
ATOM     49  C   UNL     1      -4.104  -0.225  11.999  1.00  0.00     0.049 A 
ATOM     50  N   UNL     1      -3.753  -1.525  14.704  1.00  0.00    -0.248 NA
ATOM     51  C   UNL     1      -1.520  -0.844  14.665  1.00  0.00     0.031 C 
ATOM     52  C   UNL     1      -4.332   0.401  10.700  1.00  0.00     0.029 A 
ATOM     53  N   UNL     1      -5.333  -0.719  12.358  1.00  0.00    -0.354 N 
ATOM     54  C   UNL     1      -3.127  -1.924  15.878  1.00  0.00     0.074 A 
ATOM     55  C   UNL     1      -1.742  -1.517  15.782  1.00  0.00     0.031 C 
ATOM     56  C   UNL     1      -5.624   0.245  10.364  1.00  0.00     0.029 A 
ATOM     57  C   UNL     1      -6.304  -0.521  11.408  1.00  0.00     0.049 A 
ATOM     58  H   UNL     1      -5.503  -1.172  13.216  1.00  0.00     0.167 HD
ATOM     59  C   UNL     1      -3.659  -2.564  16.946  1.00  0.00     0.037 A 
ATOM     60  C   UNL     1      -7.586  -0.933  11.379  1.00  0.00     0.037 A 
ATOM     61  C   UNL     1      -5.035  -2.974  17.034  1.00  0.00     0.049 A 
ATOM     62  C   UNL     1      -8.137  -1.718  12.543  1.00  0.00     0.074 A 
ATOM     63  C   UNL     1      -5.677  -3.621  18.075  1.00  0.00     0.029 A 
ATOM     64  N   UNL     1      -5.979  -2.787  16.035  1.00  0.00    -0.354 N 
ATOM     65  N   UNL     1      -7.545  -2.075  13.658  1.00  0.00    -0.248 NA
ATOM     66  C   UNL     1      -9.538  -2.152  12.444  1.00  0.00     0.031 C 
ATOM     67  C   UNL     1      -6.994  -3.879  17.682  1.00  0.00     0.029 A 
ATOM     68  C   UNL     1      -7.192  -3.330  16.425  1.00  0.00     0.049 A 
ATOM     69  H   UNL     1      -5.812  -2.334  15.177  1.00  0.00     0.167 HD
ATOM     70  C   UNL     1      -8.510  -2.739  14.408  1.00  0.00     0.074 A 
ATOM     71  C   UNL     1      -9.727  -2.728  13.623  1.00  0.00     0.031 C 
ATOM     72  C   UNL     1      -8.400  -3.302  15.637  1.00  0.00     0.037 A 
BRANCH  59  73
ATOM     73  C   UNL     1      -2.734  -2.890  18.084  1.00  0.00     0.057 A 
ATOM     74  C   UNL     1      -2.187  -1.897  18.908  1.00  0.00     0.134 A 
ATOM     75  C   UNL     1      -2.392  -4.219  18.364  1.00  0.00     0.134 A 
ATOM     76  F   UNL     1      -2.458  -0.602  18.685  1.00  0.00    -0.206 F 
ATOM     77  C   UNL     1      -1.308  -2.211  19.946  1.00  0.00     0.040 A 
ATOM     78  C   UNL     1      -1.541  -4.548  19.420  1.00  0.00     0.040 A 
ATOM     79  F   UNL     1      -2.882  -5.221  17.618  1.00  0.00    -0.206 F 
ATOM     80  C   UNL     1      -0.989  -3.541  20.209  1.00  0.00     0.006 A 
ENDBRANCH  59  73
BRANCH  60  81
ATOM     81  C   UNL     1      -8.444  -0.618  10.207  1.00  0.00     0.057 A 
ATOM     82  C   UNL     1      -9.530   0.258  10.316  1.00  0.00     0.134 A 
ATOM     83  C   UNL     1      -8.212  -1.203   8.956  1.00  0.00     0.134 A 
ATOM     84  F   UNL     1      -9.820   0.830  11.493  1.00  0.00    -0.206 F 
ATOM     85  C   UNL     1     -10.365   0.527   9.230  1.00  0.00     0.040 A 
ATOM     86  C   UNL     1      -9.021  -0.921   7.854  1.00  0.00     0.040 A 
ATOM     87  F   UNL     1      -7.188  -2.053   8.784  1.00  0.00    -0.206 F 
ATOM     88  C   UNL     1     -10.107  -0.059   7.992  1.00  0.00     0.006 A 
ENDBRANCH  60  81
BRANCH  72  89
ATOM     89  C   UNL     1      -9.640  -3.903  16.238  1.00  0.00     0.057 A 
ATOM     90  C   UNL     1     -10.215  -5.082  15.746  1.00  0.00     0.134 A 
ATOM     91  C   UNL     1     -10.243  -3.311  17.357  1.00  0.00     0.134 A 
ATOM     92  F   UNL     1      -9.694  -5.697  14.673  1.00  0.00    -0.206 F 
ATOM     93  C   UNL     1     -11.360  -5.633  16.325  1.00  0.00     0.040 A 
ATOM     94  C   UNL     1     -11.368  -3.870  17.964  1.00  0.00     0.040 A 
ATOM     95  F   UNL     1      -9.738  -2.188  17.889  1.00  0.00    -0.206 F 
ATOM     96  C   UNL     1     -11.936  -5.030  17.442  1.00  0.00     0.006 A 
ENDBRANCH  72  89
ENDBRANCH  46  47
ENDBRANCH  39  41
ENDBRANCH  38  39
ENDBRANCH  37  38
ENDBRANCH  36  37
ENDBRANCH  35  36
ENDBRANCH  34  35
ENDBRANCH  33  34
ENDBRANCH  32  33
ENDBRANCH  31  32
ENDBRANCH   1  31
TORSDOF 26
