REMARK SMILES CC1(C)CC[C@@]2(C(=O)OCCOCCOCCOCCOC(=O)c3ccc(-c4c5nc(c(-c6c(F)cccc6F)c6ccc([nH]6)c(-c6c(F)cccc6F)c6nc(c(-c7c(F)cccc7F)c7ccc4[nH]7)C=C6)C=C5)cc3)CC[C@@]3(C)C(=CC[C@H]4[C@@]5(C)CC[C@H](O)C(C)(C)[C@@H]5CC[C@]43C)[C@@H]2C1
REMARK SMILES IDX 16 1 15 2 14 3 13 4 12 5 11 6 10 7 9 8 7 9 8 10 6 11 1 12
REMARK SMILES IDX 2 13 3 14 4 15 101 16 5 17 100 18 82 19 78 20 80 21 83 22
REMARK SMILES IDX 79 23 81 24 98 25 84 26 85 27 97 28 99 29 86 30 96 31 87 32
REMARK SMILES IDX 88 33 95 34 89 35 92 36 90 37 93 38 94 39 91 40 17 42 18 43
REMARK SMILES IDX 19 44 20 45 21 46 22 47 23 48 24 49 25 50 77 51 26 52 76 53
REMARK SMILES IDX 27 54 28 55 29 56 70 57 30 58 75 59 69 60 71 61 31 62 74 63
REMARK SMILES IDX 68 64 67 65 32 67 58 68 41 69 57 70 42 71 45 72 56 73 72 74
REMARK SMILES IDX 43 75 44 76 55 78 73 79 46 80 33 81 34 82 39 83 35 84 36 85
REMARK SMILES IDX 38 86 40 87 37 88 59 89 60 90 65 91 61 92 62 93 64 94 66 95
REMARK SMILES IDX 63 96 47 97 48 98 53 99 49 100 50 101 52 102 54 103 51 104
REMARK H PARENT 91 41 71 66 45 77
REMARK Flexibility Score: inf
ROOT
ATOM      1  C   UNL     1      -2.323  -0.616   4.975  1.00  0.00     0.188 C 
ENDROOT
BRANCH   1   2
ATOM      2  O   UNL     1      -1.461  -1.354   4.132  1.00  0.00    -0.377 OA
BRANCH   2   3
ATOM      3  C   UNL     1      -1.554  -2.775   4.031  1.00  0.00     0.188 C 
BRANCH   3   4
ATOM      4  C   UNL     1      -0.261  -3.354   3.420  1.00  0.00     0.188 C 
BRANCH   4   5
ATOM      5  O   UNL     1       0.910  -2.868   4.041  1.00  0.00    -0.376 OA
BRANCH   5   6
ATOM      6  C   UNL     1       1.085  -1.458   4.049  1.00  0.00     0.202 C 
BRANCH   6   7
ATOM      7  C   UNL     1       0.783  -0.809   2.756  1.00  0.00     0.261 C 
BRANCH   7   8
ATOM      8  O   UNL     1       1.466  -1.570   1.788  1.00  0.00    -0.463 OA
BRANCH   8   9
ATOM      9  C   UNL     1       2.750  -1.909   2.030  1.00  0.00     0.312 C 
ATOM     10  O   UNL     1       3.081  -3.056   2.310  1.00  0.00    -0.252 OA
BRANCH   9  11
ATOM     11  C   UNL     1       3.708  -0.881   1.482  1.00  0.00     0.075 C 
ATOM     12  C   UNL     1       1.324   0.890  -1.751  1.00  0.00     0.011 C 
ATOM     13  C   UNL     1       1.434   0.236  -0.343  1.00  0.00    -0.035 C 
ATOM     14  C   UNL     1      -0.096   0.122   0.020  1.00  0.00     0.011 C 
ATOM     15  C   UNL     1       2.127  -1.132  -0.618  1.00  0.00     0.007 C 
ATOM     16  C   UNL     1       2.257   1.172   0.711  1.00  0.00     0.015 C 
ATOM     17  C   UNL     1       3.582  -1.234  -0.045  1.00  0.00     0.020 C 
ATOM     18  C   UNL     1       3.402   0.608   1.770  1.00  0.00     0.033 C 
ATOM     19  C   UNL     1       3.430   0.855   3.404  1.00  0.00    -0.063 C 
ATOM     20  C   UNL     1       5.087  -1.173   2.159  1.00  0.00     0.020 C 
ATOM     21  C   UNL     1       4.619   0.300   4.355  1.00  0.00    -0.006 C 
ATOM     22  C   UNL     1       2.383   1.413   4.034  1.00  0.00    -0.027 C 
ATOM     23  C   UNL     1       5.086  -1.056   3.745  1.00  0.00     0.013 C 
ATOM     24  C   UNL     1       5.834   1.258   4.162  1.00  0.00     0.017 C 
ATOM     25  C   UNL     1       4.219   0.350   6.097  1.00  0.00    -0.020 C 
ATOM     26  C   UNL     1       1.925   1.004   5.425  1.00  0.00     0.032 C 
ATOM     27  C   UNL     1       2.749  -0.090   6.269  1.00  0.00     0.006 C 
ATOM     28  C   UNL     1       4.964  -0.377   7.300  1.00  0.00     0.008 C 
ATOM     29  C   UNL     1       4.378   1.866   6.549  1.00  0.00     0.012 C 
ATOM     30  C   UNL     1       2.555  -1.808   6.720  1.00  0.00    -0.025 C 
ATOM     31  C   UNL     1       4.007  -0.811   8.555  1.00  0.00     0.005 C 
ATOM     32  C   UNL     1       1.081  -2.095   6.886  1.00  0.00     0.012 C 
ATOM     33  C   UNL     1       3.149  -3.035   5.949  1.00  0.00     0.010 C 
ATOM     34  C   UNL     1       3.300  -2.085   8.112  1.00  0.00     0.003 C 
ATOM     35  C   UNL     1       2.620  -4.386   6.529  1.00  0.00     0.033 C 
ATOM     36  C   UNL     1       2.779  -3.295   9.029  1.00  0.00    -0.006 C 
ATOM     37  C   UNL     1       2.569  -4.571   8.076  1.00  0.00     0.120 C 
ATOM     38  C   UNL     1       1.600  -3.067  10.026  1.00  0.00     0.014 C 
ATOM     39  C   UNL     1       3.917  -3.691  10.014  1.00  0.00     0.014 C 
BRANCH  37  40
ATOM     40  O   UNL     1       1.360  -5.277   8.399  1.00  0.00    -0.393 OA
ATOM     41  H   UNL     1       0.594  -4.728   8.171  1.00  0.00     0.210 HD
ENDBRANCH  37  40
ENDBRANCH   9  11
ENDBRANCH   8   9
ENDBRANCH   7   8
ENDBRANCH   6   7
ENDBRANCH   5   6
ENDBRANCH   4   5
ENDBRANCH   3   4
ENDBRANCH   2   3
ENDBRANCH   1   2
BRANCH   1  42
ATOM     42  C   UNL     1      -1.732  -0.275   6.359  1.00  0.00     0.188 C 
BRANCH  42  43
ATOM     43  O   UNL     1      -1.902  -1.445   7.119  1.00  0.00    -0.376 OA
BRANCH  43  44
ATOM     44  C   UNL     1      -1.387  -1.624   8.429  1.00  0.00     0.202 C 
BRANCH  44  45
ATOM     45  C   UNL     1      -1.657  -3.128   8.666  1.00  0.00     0.261 C 
BRANCH  45  46
ATOM     46  O   UNL     1      -3.074  -3.419   8.629  1.00  0.00    -0.460 OA
BRANCH  46  47
ATOM     47  C   UNL     1      -3.774  -2.564   9.419  1.00  0.00     0.338 C 
ATOM     48  O   UNL     1      -3.678  -2.475  10.619  1.00  0.00    -0.246 OA
BRANCH  47  49
ATOM     49  C   UNL     1      -4.333  -1.502   8.547  1.00  0.00     0.060 A 
ATOM     50  C   UNL     1      -4.068  -0.172   8.938  1.00  0.00     0.016 A 
ATOM     51  C   UNL     1      -4.925  -1.794   7.311  1.00  0.00     0.016 A 
ATOM     52  C   UNL     1      -4.412   0.874   8.106  1.00  0.00     0.010 A 
ATOM     53  C   UNL     1      -5.369  -0.741   6.518  1.00  0.00     0.010 A 
ATOM     54  C   UNL     1      -5.172   0.576   6.970  1.00  0.00    -0.014 A 
BRANCH  54  55
ATOM     55  C   UNL     1      -6.226   1.556   6.700  1.00  0.00     0.031 A 
ATOM     56  C   UNL     1      -7.406   1.455   7.632  1.00  0.00     0.074 A 
ATOM     57  C   UNL     1      -6.066   2.511   5.779  1.00  0.00     0.049 A 
ATOM     58  N   UNL     1      -8.460   2.209   7.735  1.00  0.00    -0.248 NA
ATOM     59  C   UNL     1      -7.376   0.360   8.624  1.00  0.00     0.031 C 
ATOM     60  C   UNL     1      -4.897   2.687   4.917  1.00  0.00     0.029 A 
ATOM     61  N   UNL     1      -6.910   3.518   5.421  1.00  0.00    -0.354 N 
ATOM     62  C   UNL     1      -9.182   1.682   8.802  1.00  0.00     0.074 A 
ATOM     63  C   UNL     1      -8.470   0.556   9.324  1.00  0.00     0.031 C 
ATOM     64  C   UNL     1      -5.118   3.729   4.097  1.00  0.00     0.029 A 
ATOM     65  C   UNL     1      -6.450   4.262   4.367  1.00  0.00     0.049 A 
ATOM     66  H   UNL     1      -7.765   3.694   5.876  1.00  0.00     0.167 HD
ATOM     67  C   UNL     1     -10.368   2.092   9.291  1.00  0.00     0.037 A 
ATOM     68  C   UNL     1      -7.085   5.236   3.694  1.00  0.00     0.037 A 
ATOM     69  C   UNL     1     -11.090   3.156   8.671  1.00  0.00     0.049 A 
ATOM     70  C   UNL     1      -8.459   5.618   4.178  1.00  0.00     0.074 A 
ATOM     71  C   UNL     1     -12.332   3.660   8.982  1.00  0.00     0.029 A 
ATOM     72  N   UNL     1     -10.617   3.858   7.566  1.00  0.00    -0.354 N 
ATOM     73  N   UNL     1      -9.147   5.120   5.184  1.00  0.00    -0.248 NA
ATOM     74  C   UNL     1      -9.142   6.687   3.450  1.00  0.00     0.031 C 
ATOM     75  C   UNL     1     -12.636   4.632   8.024  1.00  0.00     0.029 A 
ATOM     76  C   UNL     1     -11.556   4.778   7.160  1.00  0.00     0.049 A 
ATOM     77  H   UNL     1      -9.742   3.717   7.139  1.00  0.00     0.167 HD
ATOM     78  C   UNL     1     -10.341   5.824   5.222  1.00  0.00     0.074 A 
ATOM     79  C   UNL     1     -10.269   6.795   4.142  1.00  0.00     0.031 C 
ATOM     80  C   UNL     1     -11.404   5.699   6.059  1.00  0.00     0.037 A 
BRANCH  67  81
ATOM     81  C   UNL     1     -10.942   1.300  10.429  1.00  0.00     0.057 A 
ATOM     82  C   UNL     1     -10.361   1.295  11.707  1.00  0.00     0.134 A 
ATOM     83  C   UNL     1     -12.023   0.438  10.213  1.00  0.00     0.134 A 
ATOM     84  F   UNL     1      -9.280   2.047  11.966  1.00  0.00    -0.206 F 
ATOM     85  C   UNL     1     -10.820   0.445  12.718  1.00  0.00     0.040 A 
ATOM     86  C   UNL     1     -12.510  -0.394  11.223  1.00  0.00     0.040 A 
ATOM     87  F   UNL     1     -12.600   0.359   9.004  1.00  0.00    -0.206 F 
ATOM     88  C   UNL     1     -11.903  -0.398  12.478  1.00  0.00     0.006 A 
ENDBRANCH  67  81
BRANCH  68  89
ATOM     89  C   UNL     1      -6.436   5.854   2.513  1.00  0.00     0.057 A 
ATOM     90  C   UNL     1      -5.975   7.174   2.533  1.00  0.00     0.134 A 
ATOM     91  C   UNL     1      -6.193   5.108   1.350  1.00  0.00     0.134 A 
ATOM     92  F   UNL     1      -6.181   7.944   3.611  1.00  0.00    -0.206 F 
ATOM     93  C   UNL     1      -5.295   7.729   1.445  1.00  0.00     0.040 A 
ATOM     94  C   UNL     1      -5.495   5.641   0.265  1.00  0.00     0.040 A 
ATOM     95  F   UNL     1      -6.598   3.832   1.268  1.00  0.00    -0.206 F 
ATOM     96  C   UNL     1      -5.044   6.957   0.311  1.00  0.00     0.006 A 
ENDBRANCH  68  89
BRANCH  80  97
ATOM     97  C   UNL     1     -12.540   6.645   5.838  1.00  0.00     0.057 A 
ATOM     98  C   UNL     1     -13.413   6.503   4.755  1.00  0.00     0.134 A 
ATOM     99  C   UNL     1     -12.796   7.662   6.765  1.00  0.00     0.134 A 
ATOM    100  F   UNL     1     -13.210   5.546   3.837  1.00  0.00    -0.206 F 
ATOM    101  C   UNL     1     -14.494   7.365   4.585  1.00  0.00     0.040 A 
ATOM    102  C   UNL     1     -13.893   8.507   6.624  1.00  0.00     0.040 A 
ATOM    103  F   UNL     1     -12.003   7.827   7.835  1.00  0.00    -0.206 F 
ATOM    104  C   UNL     1     -14.739   8.364   5.526  1.00  0.00     0.006 A 
ENDBRANCH  80  97
ENDBRANCH  54  55
ENDBRANCH  47  49
ENDBRANCH  46  47
ENDBRANCH  45  46
ENDBRANCH  44  45
ENDBRANCH  43  44
ENDBRANCH  42  43
ENDBRANCH   1  42
TORSDOF 21
