REMARK SMILES O=C(OCCOCCOCCOCCOC(=O)c1ccc(-c2c3nc(c(-c4c(F)cccc4F)c4ccc([nH]4)c(-c4c(F)cccc4F)c4nc(c(-c5c(F)cccc5F)c5ccc2[nH]5)C=C4)C=C3)cc1)C1=Cc2cc(Cl)c(Cl)c(Cl)c2O[C@@H]1C(F)(F)F
REMARK SMILES IDX 10 1 9 2 8 3 7 4 6 5 5 6 4 7 3 8 2 9 1 10 72 11 73 12 84 13
REMARK SMILES IDX 74 14 83 15 75 16 82 17 76 18 80 19 77 20 78 21 81 22 79 23
REMARK SMILES IDX 85 24 86 25 87 26 88 27 11 28 12 29 13 30 14 31 15 32 16 33
REMARK SMILES IDX 17 34 18 35 19 36 71 37 20 38 70 39 21 40 22 41 23 42 64 43
REMARK SMILES IDX 24 44 69 45 63 46 65 47 25 48 68 49 62 50 61 51 26 53 52 54
REMARK SMILES IDX 35 55 51 56 36 57 39 58 50 59 66 60 37 61 38 62 49 64 67 65
REMARK SMILES IDX 40 66 27 67 28 68 33 69 29 70 30 71 32 72 34 73 31 74 53 75
REMARK SMILES IDX 54 76 59 77 55 78 56 79 58 80 60 81 57 82 41 83 42 84 47 85
REMARK SMILES IDX 43 86 44 87 46 88 48 89 45 90
REMARK H PARENT 65 52 39 63
REMARK Flexibility Score: inf
ROOT
ATOM      1  C   UNL     1       4.031   1.308   3.485  1.00  0.00     0.188 C 
ENDROOT
BRANCH   1   2
ATOM      2  O   UNL     1       2.692   1.218   3.910  1.00  0.00    -0.377 OA
BRANCH   2   3
ATOM      3  C   UNL     1       1.841   0.775   2.881  1.00  0.00     0.188 C 
BRANCH   3   4
ATOM      4  C   UNL     1       2.173  -0.611   2.314  1.00  0.00     0.188 C 
BRANCH   4   5
ATOM      5  O   UNL     1       3.501  -1.012   1.828  1.00  0.00    -0.376 OA
BRANCH   5   6
ATOM      6  C   UNL     1       4.245  -0.949   0.352  1.00  0.00     0.202 C 
BRANCH   6   7
ATOM      7  C   UNL     1       3.532   0.070  -1.444  1.00  0.00     0.261 C 
BRANCH   7   8
ATOM      8  O   UNL     1       2.605  -0.495  -2.491  1.00  0.00    -0.460 OA
BRANCH   8   9
ATOM      9  C   UNL     1       2.778  -1.811  -2.665  1.00  0.00     0.338 C 
ATOM     10  O   UNL     1       2.095  -2.571  -3.304  1.00  0.00    -0.246 OA
BRANCH   9  11
ATOM     11  C   UNL     1       3.647  -2.036  -1.518  1.00  0.00     0.087 C 
ATOM     12  C   UNL     1       5.034  -1.598  -1.711  1.00  0.00     0.027 C 
ATOM     13  C   UNL     1       2.405  -1.223  -0.300  1.00  0.00     0.316 C 
ATOM     14  C   UNL     1       5.729  -0.086  -1.021  1.00  0.00     0.020 A 
ATOM     15  O   UNL     1       3.070   0.494   0.346  1.00  0.00    -0.474 OA
ATOM     16  C   UNL     1       7.017   0.249  -1.333  1.00  0.00     0.034 A 
ATOM     17  C   UNL     1       4.778   1.031  -0.099  1.00  0.00     0.148 A 
ATOM     18  C   UNL     1       7.457   1.500  -0.851  1.00  0.00     0.062 A 
ATOM     19  C   UNL     1       5.267   2.266   0.269  1.00  0.00     0.103 A 
ATOM     20  Cl  UNL     1       9.115   1.866  -1.271  1.00  0.00    -0.083 Cl
ATOM     21  C   UNL     1       6.638   2.465  -0.098  1.00  0.00     0.082 A 
ATOM     22  Cl  UNL     1       4.294   3.498   0.952  1.00  0.00    -0.079 Cl
ATOM     23  Cl  UNL     1       7.413   3.967   0.372  1.00  0.00    -0.081 Cl
BRANCH  13  24
ATOM     24  C   UNL     1       2.099  -2.684   0.466  1.00  0.00     0.430 C 
ATOM     25  F   UNL     1       1.217  -2.704   1.480  1.00  0.00    -0.167 F 
ATOM     26  F   UNL     1       1.535  -3.502  -0.476  1.00  0.00    -0.167 F 
ATOM     27  F   UNL     1       3.204  -3.361   0.871  1.00  0.00    -0.167 F 
ENDBRANCH  13  24
ENDBRANCH   9  11
ENDBRANCH   8   9
ENDBRANCH   7   8
ENDBRANCH   6   7
ENDBRANCH   5   6
ENDBRANCH   4   5
ENDBRANCH   3   4
ENDBRANCH   2   3
ENDBRANCH   1   2
BRANCH   1  28
ATOM     28  C   UNL     1       5.009   0.291   4.082  1.00  0.00     0.188 C 
BRANCH  28  29
ATOM     29  O   UNL     1       4.586  -0.867   4.778  1.00  0.00    -0.376 OA
BRANCH  29  30
ATOM     30  C   UNL     1       3.399  -0.876   5.550  1.00  0.00     0.202 C 
BRANCH  30  31
ATOM     31  C   UNL     1       3.153   0.125   6.689  1.00  0.00     0.261 C 
BRANCH  31  32
ATOM     32  O   UNL     1       3.456   1.499   6.417  1.00  0.00    -0.460 OA
BRANCH  32  33
ATOM     33  C   UNL     1       4.708   1.893   6.735  1.00  0.00     0.338 C 
ATOM     34  O   UNL     1       5.566   1.230   7.292  1.00  0.00    -0.246 OA
BRANCH  33  35
ATOM     35  C   UNL     1       4.979   3.217   6.131  1.00  0.00     0.060 A 
ATOM     36  C   UNL     1       6.164   3.376   5.394  1.00  0.00     0.016 A 
ATOM     37  C   UNL     1       4.104   4.292   6.293  1.00  0.00     0.016 A 
ATOM     38  C   UNL     1       6.502   4.613   4.856  1.00  0.00     0.010 A 
ATOM     39  C   UNL     1       4.469   5.548   5.799  1.00  0.00     0.010 A 
ATOM     40  C   UNL     1       5.692   5.719   5.124  1.00  0.00    -0.014 A 
BRANCH  40  41
ATOM     41  C   UNL     1       6.255   7.075   4.932  1.00  0.00     0.031 A 
ATOM     42  C   UNL     1       6.835   7.771   6.133  1.00  0.00     0.074 A 
ATOM     43  C   UNL     1       6.302   7.654   3.721  1.00  0.00     0.049 A 
ATOM     44  N   UNL     1       7.330   8.976   6.239  1.00  0.00    -0.248 NA
ATOM     45  C   UNL     1       6.852   7.000   7.388  1.00  0.00     0.031 C 
ATOM     46  C   UNL     1       5.837   7.048   2.478  1.00  0.00     0.029 A 
ATOM     47  N   UNL     1       6.759   8.892   3.347  1.00  0.00    -0.354 N 
ATOM     48  C   UNL     1       7.700   9.113   7.571  1.00  0.00     0.074 A 
ATOM     49  C   UNL     1       7.343   7.883   8.242  1.00  0.00     0.031 C 
ATOM     50  C   UNL     1       6.016   7.924   1.474  1.00  0.00     0.029 A 
ATOM     51  C   UNL     1       6.568   9.165   2.015  1.00  0.00     0.049 A 
ATOM     52  H   UNL     1       7.182   9.523   3.973  1.00  0.00     0.167 HD
ATOM     53  C   UNL     1       8.291  10.169   8.177  1.00  0.00     0.037 A 
ATOM     54  C   UNL     1       6.784  10.302   1.325  1.00  0.00     0.037 A 
ATOM     55  C   UNL     1       8.635  11.391   7.500  1.00  0.00     0.049 A 
ATOM     56  C   UNL     1       7.351  11.500   2.044  1.00  0.00     0.074 A 
ATOM     57  C   UNL     1       9.245  12.519   8.018  1.00  0.00     0.029 A 
ATOM     58  N   UNL     1       8.385  11.649   6.160  1.00  0.00    -0.354 N 
ATOM     59  N   UNL     1       7.713  11.621   3.299  1.00  0.00    -0.248 NA
ATOM     60  C   UNL     1       7.540  12.721   1.248  1.00  0.00     0.031 C 
ATOM     61  C   UNL     1       9.293  13.488   7.011  1.00  0.00     0.029 A 
ATOM     62  C   UNL     1       8.793  12.934   5.843  1.00  0.00     0.049 A 
ATOM     63  H   UNL     1       7.977  11.014   5.528  1.00  0.00     0.167 HD
ATOM     64  C   UNL     1       8.205  12.915   3.433  1.00  0.00     0.074 A 
ATOM     65  C   UNL     1       8.109  13.533   2.128  1.00  0.00     0.031 C 
ATOM     66  C   UNL     1       8.695  13.535   4.536  1.00  0.00     0.037 A 
BRANCH  53  67
ATOM     67  C   UNL     1       8.556  10.064   9.652  1.00  0.00     0.057 A 
ATOM     68  C   UNL     1       9.506   9.180  10.181  1.00  0.00     0.134 A 
ATOM     69  C   UNL     1       7.864  10.880  10.556  1.00  0.00     0.134 A 
ATOM     70  F   UNL     1      10.196   8.359   9.374  1.00  0.00    -0.206 F 
ATOM     71  C   UNL     1       9.735   9.090  11.555  1.00  0.00     0.040 A 
ATOM     72  C   UNL     1       8.109  10.825  11.928  1.00  0.00     0.040 A 
ATOM     73  F   UNL     1       6.942  11.752  10.120  1.00  0.00    -0.206 F 
ATOM     74  C   UNL     1       9.041   9.921  12.433  1.00  0.00     0.006 A 
ENDBRANCH  53  67
BRANCH  54  75
ATOM     75  C   UNL     1       6.441  10.376  -0.119  1.00  0.00     0.057 A 
ATOM     76  C   UNL     1       7.428  10.556  -1.094  1.00  0.00     0.134 A 
ATOM     77  C   UNL     1       5.112  10.303  -0.557  1.00  0.00     0.134 A 
ATOM     78  F   UNL     1       8.718  10.659  -0.739  1.00  0.00    -0.206 F 
ATOM     79  C   UNL     1       7.108  10.686  -2.447  1.00  0.00     0.040 A 
ATOM     80  C   UNL     1       4.780  10.396  -1.910  1.00  0.00     0.040 A 
ATOM     81  F   UNL     1       4.115  10.131   0.323  1.00  0.00    -0.206 F 
ATOM     82  C   UNL     1       5.779  10.600  -2.858  1.00  0.00     0.006 A 
ENDBRANCH  54  75
BRANCH  66  83
ATOM     83  C   UNL     1       9.211  14.938   4.371  1.00  0.00     0.057 A 
ATOM     84  C   UNL     1       8.364  16.020   4.104  1.00  0.00     0.134 A 
ATOM     85  C   UNL     1      10.577  15.214   4.525  1.00  0.00     0.134 A 
ATOM     86  F   UNL     1       7.046  15.829   3.937  1.00  0.00    -0.206 F 
ATOM     87  C   UNL     1       8.859  17.318   3.961  1.00  0.00     0.040 A 
ATOM     88  C   UNL     1      11.079  16.512   4.424  1.00  0.00     0.040 A 
ATOM     89  F   UNL     1      11.446  14.228   4.798  1.00  0.00    -0.206 F 
ATOM     90  C   UNL     1      10.220  17.567   4.130  1.00  0.00     0.006 A 
ENDBRANCH  66  83
ENDBRANCH  40  41
ENDBRANCH  33  35
ENDBRANCH  32  33
ENDBRANCH  31  32
ENDBRANCH  30  31
ENDBRANCH  29  30
ENDBRANCH  28  29
ENDBRANCH   1  28
TORSDOF 21
