REMARK SMILES O=C(OCCOCCOCCOCCOC(=O)[C@H]1CSCN1C(=O)c1cccc2cccnc12)c1ccc(-c2c3nc(c(-c4c(F)cccc4F)c4ccc([nH]4)c(-c4c(F)cccc4F)c4nc(c(-c5c(F)cccc5F)c5ccc2[nH]5)C=C4)C=C3)cc1
REMARK SMILES IDX 9 1 8 2 7 3 6 4 5 5 4 6 3 7 2 8 1 9 35 10 36 11 88 12 37 13
REMARK SMILES IDX 87 14 38 15 39 16 40 17 81 18 41 19 86 20 80 21 82 22 42 23
REMARK SMILES IDX 85 24 79 25 78 26 43 28 69 29 52 30 68 31 53 32 56 33 67 34
REMARK SMILES IDX 83 35 54 36 55 37 66 39 84 40 57 41 44 42 45 43 50 44 46 45
REMARK SMILES IDX 47 46 49 47 51 48 48 49 70 50 71 51 76 52 72 53 73 54 75 55
REMARK SMILES IDX 77 56 74 57 58 58 59 59 64 60 60 61 61 62 63 63 65 64 62 65
REMARK SMILES IDX 10 66 11 67 12 68 13 69 14 70 15 71 16 72 17 73 18 74 19 75
REMARK SMILES IDX 22 76 20 77 21 78 23 79 24 80 25 81 26 82 34 83 27 84 29 85
REMARK SMILES IDX 33 86 28 87 30 88 32 89 31 90
REMARK H PARENT 82 27 56 38
REMARK Flexibility Score: inf
ROOT
ATOM      1  O   UNL     1       3.301  -3.883  -0.039  1.00  0.00    -0.377 OA
ENDROOT
BRANCH   1   2
ATOM      2  C   UNL     1       2.326  -2.854  -0.232  1.00  0.00     0.188 C 
BRANCH   2   3
ATOM      3  C   UNL     1       2.619  -1.556   0.510  1.00  0.00     0.188 C 
BRANCH   3   4
ATOM      4  O   UNL     1       3.844  -0.989   0.060  1.00  0.00    -0.376 OA
BRANCH   4   5
ATOM      5  C   UNL     1       4.750  -0.575   1.079  1.00  0.00     0.202 C 
BRANCH   5   6
ATOM      6  C   UNL     1       4.349   0.702   1.806  1.00  0.00     0.261 C 
BRANCH   6   7
ATOM      7  O   UNL     1       2.963   1.048   1.671  1.00  0.00    -0.460 OA
BRANCH   7   8
ATOM      8  C   UNL     1       2.309   1.670   0.664  1.00  0.00     0.338 C 
ATOM      9  O   UNL     1       1.105   1.881   0.807  1.00  0.00    -0.246 OA
BRANCH   8  10
ATOM     10  C   UNL     1       2.931   2.142  -0.610  1.00  0.00     0.060 A 
ATOM     11  C   UNL     1       4.018   1.559  -1.263  1.00  0.00     0.016 A 
ATOM     12  C   UNL     1       2.284   3.212  -1.252  1.00  0.00     0.016 A 
ATOM     13  C   UNL     1       4.473   2.017  -2.490  1.00  0.00     0.010 A 
ATOM     14  C   UNL     1       2.739   3.697  -2.478  1.00  0.00     0.010 A 
ATOM     15  C   UNL     1       3.857   3.111  -3.078  1.00  0.00    -0.014 A 
BRANCH  15  16
ATOM     16  C   UNL     1       4.574   3.786  -4.165  1.00  0.00     0.031 A 
ATOM     17  C   UNL     1       5.364   4.997  -3.789  1.00  0.00     0.074 A 
ATOM     18  C   UNL     1       4.606   3.259  -5.396  1.00  0.00     0.049 A 
ATOM     19  N   UNL     1       5.930   5.890  -4.548  1.00  0.00    -0.248 NA
ATOM     20  C   UNL     1       5.541   5.229  -2.343  1.00  0.00     0.031 C 
ATOM     21  C   UNL     1       4.012   1.978  -5.783  1.00  0.00     0.029 A 
ATOM     22  N   UNL     1       5.168   3.735  -6.547  1.00  0.00    -0.354 N 
ATOM     23  C   UNL     1       6.471   6.823  -3.675  1.00  0.00     0.074 A 
ATOM     24  C   UNL     1       6.190   6.380  -2.330  1.00  0.00     0.031 C 
ATOM     25  C   UNL     1       4.221   1.782  -7.095  1.00  0.00     0.029 A 
ATOM     26  C   UNL     1       4.885   2.961  -7.644  1.00  0.00     0.049 A 
ATOM     27  H   UNL     1       5.719   4.551  -6.585  1.00  0.00     0.167 HD
ATOM     28  C   UNL     1       7.119   7.966  -3.990  1.00  0.00     0.037 A 
ATOM     29  C   UNL     1       5.080   3.230  -8.947  1.00  0.00     0.037 A 
ATOM     30  C   UNL     1       7.366   8.352  -5.351  1.00  0.00     0.049 A 
ATOM     31  C   UNL     1       5.715   4.549  -9.294  1.00  0.00     0.074 A 
ATOM     32  C   UNL     1       7.944   9.506  -5.839  1.00  0.00     0.029 A 
ATOM     33  N   UNL     1       7.032   7.565  -6.449  1.00  0.00    -0.354 N 
ATOM     34  N   UNL     1       6.139   5.495  -8.485  1.00  0.00    -0.248 NA
ATOM     35  C   UNL     1       5.882   4.855 -10.718  1.00  0.00     0.031 C 
ATOM     36  C   UNL     1       7.916   9.435  -7.237  1.00  0.00     0.029 A 
ATOM     37  C   UNL     1       7.374   8.214  -7.618  1.00  0.00     0.049 A 
ATOM     38  H   UNL     1       6.614   6.675  -6.399  1.00  0.00     0.167 HD
ATOM     39  C   UNL     1       6.639   6.502  -9.296  1.00  0.00     0.074 A 
ATOM     40  C   UNL     1       6.468   6.045 -10.665  1.00  0.00     0.031 C 
ATOM     41  C   UNL     1       7.191   7.693  -8.953  1.00  0.00     0.037 A 
BRANCH  28  42
ATOM     42  C   UNL     1       7.464   8.881  -2.852  1.00  0.00     0.057 A 
ATOM     43  C   UNL     1       8.437   8.563  -1.894  1.00  0.00     0.134 A 
ATOM     44  C   UNL     1       6.728  10.056  -2.654  1.00  0.00     0.134 A 
ATOM     45  F   UNL     1       9.152   7.432  -1.999  1.00  0.00    -0.206 F 
ATOM     46  C   UNL     1       8.630   9.355  -0.758  1.00  0.00     0.040 A 
ATOM     47  C   UNL     1       6.932  10.870  -1.538  1.00  0.00     0.040 A 
ATOM     48  F   UNL     1       5.772  10.416  -3.524  1.00  0.00    -0.206 F 
ATOM     49  C   UNL     1       7.875  10.512  -0.578  1.00  0.00     0.006 A 
ENDBRANCH  28  42
BRANCH  29  50
ATOM     50  C   UNL     1       4.596   2.276  -9.976  1.00  0.00     0.057 A 
ATOM     51  C   UNL     1       5.480   1.542 -10.772  1.00  0.00     0.134 A 
ATOM     52  C   UNL     1       3.225   2.028 -10.146  1.00  0.00     0.134 A 
ATOM     53  F   UNL     1       6.802   1.741 -10.671  1.00  0.00    -0.206 F 
ATOM     54  C   UNL     1       5.023   0.595 -11.693  1.00  0.00     0.040 A 
ATOM     55  C   UNL     1       2.755   1.068 -11.043  1.00  0.00     0.040 A 
ATOM     56  F   UNL     1       2.321   2.693  -9.411  1.00  0.00    -0.206 F 
ATOM     57  C   UNL     1       3.657   0.348 -11.822  1.00  0.00     0.006 A 
ENDBRANCH  29  50
BRANCH  41  58
ATOM     58  C   UNL     1       7.690   8.555 -10.069  1.00  0.00     0.057 A 
ATOM     59  C   UNL     1       6.819   9.311 -10.861  1.00  0.00     0.134 A 
ATOM     60  C   UNL     1       9.066   8.710 -10.271  1.00  0.00     0.134 A 
ATOM     61  F   UNL     1       5.491   9.194 -10.715  1.00  0.00    -0.206 F 
ATOM     62  C   UNL     1       7.305  10.197 -11.822  1.00  0.00     0.040 A 
ATOM     63  C   UNL     1       9.563   9.610 -11.211  1.00  0.00     0.040 A 
ATOM     64  F   UNL     1       9.946   8.019  -9.530  1.00  0.00    -0.206 F 
ATOM     65  C   UNL     1       8.681  10.357 -11.989  1.00  0.00     0.006 A 
ENDBRANCH  41  58
ENDBRANCH  15  16
ENDBRANCH   8  10
ENDBRANCH   7   8
ENDBRANCH   6   7
ENDBRANCH   5   6
ENDBRANCH   4   5
ENDBRANCH   3   4
ENDBRANCH   2   3
ENDBRANCH   1   2
BRANCH   1  66
ATOM     66  C   UNL     1       4.650  -3.590  -0.411  1.00  0.00     0.188 C 
BRANCH  66  67
ATOM     67  C   UNL     1       4.974  -3.291  -1.890  1.00  0.00     0.188 C 
BRANCH  67  68
ATOM     68  O   UNL     1       3.969  -2.532  -2.558  1.00  0.00    -0.376 OA
BRANCH  68  69
ATOM     69  C   UNL     1       3.493  -3.115  -3.774  1.00  0.00     0.202 C 
BRANCH  69  70
ATOM     70  C   UNL     1       2.658  -4.409  -3.638  1.00  0.00     0.261 C 
BRANCH  70  71
ATOM     71  O   UNL     1       2.997  -5.128  -2.446  1.00  0.00    -0.462 OA
BRANCH  71  72
ATOM     72  C   UNL     1       3.345  -6.443  -2.525  1.00  0.00     0.329 C 
ATOM     73  O   UNL     1       3.160  -7.149  -3.489  1.00  0.00    -0.250 OA
BRANCH  72  74
ATOM     74  C   UNL     1       4.092  -6.830  -1.220  1.00  0.00     0.206 C 
ATOM     75  C   UNL     1       3.172  -6.782  -0.002  1.00  0.00     0.108 C 
ATOM     76  N   UNL     1       4.720  -8.138  -1.319  1.00  0.00    -0.315 N 
ATOM     77  S   UNL     1       2.943  -8.498   0.527  1.00  0.00    -0.138 SA
ATOM     78  C   UNL     1       4.507  -9.013  -0.190  1.00  0.00     0.191 C 
BRANCH  76  79
ATOM     79  C   UNL     1       5.690  -8.329  -2.294  1.00  0.00     0.257 C 
ATOM     80  O   UNL     1       6.295  -7.387  -2.797  1.00  0.00    -0.269 OA
BRANCH  79  81
ATOM     81  C   UNL     1       5.775  -9.700  -2.850  1.00  0.00     0.066 A 
ATOM     82  C   UNL     1       4.549 -10.362  -3.074  1.00  0.00     0.016 A 
ATOM     83  C   UNL     1       7.001 -10.268  -3.204  1.00  0.00     0.083 A 
ATOM     84  C   UNL     1       4.527 -11.653  -3.567  1.00  0.00     0.002 A 
ATOM     85  C   UNL     1       6.951 -11.578  -3.737  1.00  0.00     0.001 A 
ATOM     86  N   UNL     1       8.185  -9.628  -3.054  1.00  0.00    -0.255 NA
ATOM     87  C   UNL     1       5.730 -12.264  -3.888  1.00  0.00     0.010 A 
ATOM     88  C   UNL     1       8.149 -12.186  -4.130  1.00  0.00     0.012 A 
ATOM     89  C   UNL     1       9.315 -10.229  -3.481  1.00  0.00     0.112 A 
ATOM     90  C   UNL     1       9.349 -11.498  -4.018  1.00  0.00     0.021 A 
ENDBRANCH  79  81
ENDBRANCH  76  79
ENDBRANCH  72  74
ENDBRANCH  71  72
ENDBRANCH  70  71
ENDBRANCH  69  70
ENDBRANCH  68  69
ENDBRANCH  67  68
ENDBRANCH  66  67
ENDBRANCH   1  66
TORSDOF 22
