REMARK SMILES COC(=O)c1c(NC(=O)[C@@H]2C[C@@H]2C(=O)OCCOCCOCCOCCOC(=O)c2ccc(-c3c4nc(c(-c5c(F)cccc5F)c5ccc([nH]5)c(-c5c(F)cccc5F)c5nc(c(-c6c(F)cccc6F)c6ccc3[nH]6)C=C5)C=C4)cc2)sc2c1CC[N@@H+](Cc1ccccc1)C2
REMARK SMILES IDX 20 1 19 2 18 3 17 4 16 5 15 6 13 7 14 8 12 9 10 10 11 11
REMARK SMILES IDX 8 12 7 13 9 15 6 16 5 17 86 18 84 19 85 20 87 21 97 22 88 23
REMARK SMILES IDX 89 24 3 26 4 27 2 28 1 29 90 30 91 31 92 32 96 33 93 34
REMARK SMILES IDX 95 35 94 36 21 37 22 38 23 39 24 40 25 41 26 42 27 43 28 44
REMARK SMILES IDX 29 45 30 46 31 47 83 48 32 49 82 50 33 51 34 52 35 53 76 54
REMARK SMILES IDX 36 55 81 56 75 57 77 58 37 59 80 60 74 61 73 62 38 64 64 65
REMARK SMILES IDX 47 66 63 67 48 68 51 69 62 70 78 71 49 72 50 73 61 75 79 76
REMARK SMILES IDX 52 77 39 78 40 79 45 80 41 81 42 82 44 83 46 84 43 85 65 86
REMARK SMILES IDX 66 87 71 88 67 89 68 90 70 91 72 92 69 93 53 94 54 95 59 96
REMARK SMILES IDX 55 97 56 98 58 99 60 100 57 101
REMARK H PARENT 7 14 89 25 77 63 51 74
REMARK Flexibility Score: inf
ROOT
ATOM      1  C   UNL     1      -3.243  -0.112  -4.648  1.00  0.00     0.188 C 
ENDROOT
BRANCH   1   2
ATOM      2  C   UNL     1      -2.085   0.377  -5.559  1.00  0.00     0.188 C 
BRANCH   2   3
ATOM      3  O   UNL     1      -1.629  -0.431  -6.639  1.00  0.00    -0.376 OA
BRANCH   3   4
ATOM      4  C   UNL     1      -1.769  -1.837  -6.549  1.00  0.00     0.202 C 
BRANCH   4   5
ATOM      5  C   UNL     1      -1.109  -2.545  -5.363  1.00  0.00     0.261 C 
BRANCH   5   6
ATOM      6  O   UNL     1      -0.979  -1.758  -4.166  1.00  0.00    -0.463 OA
BRANCH   6   7
ATOM      7  C   UNL     1       0.163  -1.053  -4.024  1.00  0.00     0.309 C 
ATOM      8  O   UNL     1       1.095  -1.048  -4.836  1.00  0.00    -0.252 OA
BRANCH   7   9
ATOM      9  C   UNL     1       0.264  -0.239  -2.777  1.00  0.00     0.112 C 
ATOM     10  C   UNL     1      -0.573  -0.389  -1.518  1.00  0.00     0.094 C 
ATOM     11  C   UNL     1      -0.703   0.843  -2.378  1.00  0.00     0.030 C 
BRANCH  10  12
ATOM     12  C   UNL     1      -1.734  -1.282  -1.310  1.00  0.00     0.229 C 
ATOM     13  N   UNL     1      -1.637  -2.646  -1.382  1.00  0.00    -0.317 N 
ATOM     14  H   UNL     1      -2.432  -3.139  -1.075  1.00  0.00     0.170 HD
ATOM     15  O   UNL     1      -2.814  -0.771  -1.014  1.00  0.00    -0.274 OA
BRANCH  13  16
ATOM     16  C   UNL     1      -0.596  -3.430  -1.818  1.00  0.00     0.110 A 
ATOM     17  C   UNL     1       0.777  -3.322  -1.964  1.00  0.00     0.098 A 
ATOM     18  C   UNL     1       1.212  -4.266  -2.969  1.00  0.00    -0.006 A 
ATOM     19  S   UNL     1      -1.202  -4.918  -2.419  1.00  0.00    -0.116 S 
ATOM     20  C   UNL     1       0.283  -5.272  -3.148  1.00  0.00     0.065 A 
ATOM     21  C   UNL     1       2.575  -4.364  -3.599  1.00  0.00     0.099 C 
ATOM     22  C   UNL     1       0.590  -6.578  -3.809  1.00  0.00     0.310 C 
ATOM     23  C   UNL     1       2.837  -5.750  -4.233  1.00  0.00     0.267 C 
ATOM     24  N   UNL     1       2.033  -6.879  -3.727  1.00  0.00    -0.326 N 
ATOM     25  H   UNL     1       2.201  -7.662  -4.359  1.00  0.00     0.348 HD
BRANCH  17  26
ATOM     26  C   UNL     1       1.685  -2.399  -1.291  1.00  0.00     0.341 C 
ATOM     27  O   UNL     1       2.739  -2.006  -1.789  1.00  0.00    -0.246 OA
BRANCH  26  28
ATOM     28  O   UNL     1       1.259  -2.007  -0.054  1.00  0.00    -0.465 OA
ATOM     29  C   UNL     1       2.097  -1.017   0.548  1.00  0.00     0.282 C 
ENDBRANCH  26  28
ENDBRANCH  17  26
BRANCH  24  30
ATOM     30  C   UNL     1       2.489  -7.453  -2.444  1.00  0.00     0.299 C 
BRANCH  30  31
ATOM     31  C   UNL     1       2.398  -6.622  -1.176  1.00  0.00     0.006 A 
ATOM     32  C   UNL     1       3.470  -5.816  -0.760  1.00  0.00     0.009 A 
ATOM     33  C   UNL     1       1.224  -6.612  -0.405  1.00  0.00     0.009 A 
ATOM     34  C   UNL     1       3.344  -4.971   0.347  1.00  0.00     0.001 A 
ATOM     35  C   UNL     1       1.093  -5.758   0.694  1.00  0.00     0.001 A 
ATOM     36  C   UNL     1       2.151  -4.933   1.066  1.00  0.00     0.000 A 
ENDBRANCH  30  31
ENDBRANCH  24  30
ENDBRANCH  13  16
ENDBRANCH  10  12
ENDBRANCH   7   9
ENDBRANCH   6   7
ENDBRANCH   5   6
ENDBRANCH   4   5
ENDBRANCH   3   4
ENDBRANCH   2   3
ENDBRANCH   1   2
BRANCH   1  37
ATOM     37  O   UNL     1      -4.081  -1.087  -5.247  1.00  0.00    -0.377 OA
BRANCH  37  38
ATOM     38  C   UNL     1      -5.304  -0.596  -5.764  1.00  0.00     0.188 C 
BRANCH  38  39
ATOM     39  C   UNL     1      -5.212   0.527  -6.817  1.00  0.00     0.188 C 
BRANCH  39  40
ATOM     40  O   UNL     1      -4.322   1.579  -6.465  1.00  0.00    -0.376 OA
BRANCH  40  41
ATOM     41  C   UNL     1      -4.794   2.898  -6.254  1.00  0.00     0.202 C 
BRANCH  41  42
ATOM     42  C   UNL     1      -5.044   3.194  -4.772  1.00  0.00     0.261 C 
BRANCH  42  43
ATOM     43  O   UNL     1      -5.835   2.194  -4.146  1.00  0.00    -0.460 OA
BRANCH  43  44
ATOM     44  C   UNL     1      -7.031   2.005  -4.720  1.00  0.00     0.338 C 
ATOM     45  O   UNL     1      -7.505   2.608  -5.677  1.00  0.00    -0.246 OA
BRANCH  44  46
ATOM     46  C   UNL     1      -7.771   0.988  -3.979  1.00  0.00     0.060 A 
ATOM     47  C   UNL     1      -8.985   0.624  -4.558  1.00  0.00     0.016 A 
ATOM     48  C   UNL     1      -7.480   0.821  -2.619  1.00  0.00     0.016 A 
ATOM     49  C   UNL     1     -10.047   0.499  -3.712  1.00  0.00     0.010 A 
ATOM     50  C   UNL     1      -8.546   0.707  -1.772  1.00  0.00     0.010 A 
ATOM     51  C   UNL     1      -9.813   0.698  -2.348  1.00  0.00    -0.014 A 
BRANCH  51  52
ATOM     52  C   UNL     1     -10.964   1.033  -1.554  1.00  0.00     0.031 A 
ATOM     53  C   UNL     1     -11.773  -0.129  -1.172  1.00  0.00     0.074 A 
ATOM     54  C   UNL     1     -11.212   2.306  -1.202  1.00  0.00     0.049 A 
ATOM     55  N   UNL     1     -12.990  -0.398  -1.502  1.00  0.00    -0.248 NA
ATOM     56  C   UNL     1     -11.076  -1.198  -0.444  1.00  0.00     0.031 C 
ATOM     57  C   UNL     1     -10.324   3.471  -1.294  1.00  0.00     0.029 A 
ATOM     58  N   UNL     1     -12.310   2.800  -0.580  1.00  0.00    -0.354 N 
ATOM     59  C   UNL     1     -13.276  -1.597  -0.863  1.00  0.00     0.074 A 
ATOM     60  C   UNL     1     -12.029  -2.123  -0.376  1.00  0.00     0.031 C 
ATOM     61  C   UNL     1     -10.838   4.473  -0.545  1.00  0.00     0.029 A 
ATOM     62  C   UNL     1     -12.134   4.057  -0.033  1.00  0.00     0.049 A 
ATOM     63  H   UNL     1     -13.160   2.305  -0.521  1.00  0.00     0.167 HD
ATOM     64  C   UNL     1     -14.551  -1.950  -0.564  1.00  0.00     0.037 A 
ATOM     65  C   UNL     1     -12.961   4.648   0.860  1.00  0.00     0.037 A 
ATOM     66  C   UNL     1     -15.506  -1.258  -1.387  1.00  0.00     0.049 A 
ATOM     67  C   UNL     1     -14.268   3.939   0.802  1.00  0.00     0.074 A 
ATOM     68  C   UNL     1     -15.757  -1.210  -2.745  1.00  0.00     0.029 A 
ATOM     69  N   UNL     1     -16.176  -0.189  -0.845  1.00  0.00    -0.354 N 
ATOM     70  N   UNL     1     -15.091   3.993  -0.209  1.00  0.00    -0.248 NA
ATOM     71  C   UNL     1     -14.475   2.817   1.707  1.00  0.00     0.031 C 
ATOM     72  C   UNL     1     -16.196   0.121  -3.002  1.00  0.00     0.029 A 
ATOM     73  C   UNL     1     -16.196   0.808  -1.787  1.00  0.00     0.049 A 
ATOM     74  H   UNL     1     -16.571  -0.146   0.056  1.00  0.00     0.167 HD
ATOM     75  C   UNL     1     -15.649   2.724  -0.290  1.00  0.00     0.074 A 
ATOM     76  C   UNL     1     -15.315   2.080   0.975  1.00  0.00     0.031 C 
ATOM     77  C   UNL     1     -16.085   2.217  -1.481  1.00  0.00     0.037 A 
BRANCH  64  78
ATOM     78  C   UNL     1     -14.911  -2.665   0.708  1.00  0.00     0.057 A 
ATOM     79  C   UNL     1     -16.204  -3.182   0.864  1.00  0.00     0.134 A 
ATOM     80  C   UNL     1     -14.125  -2.639   1.881  1.00  0.00     0.134 A 
ATOM     81  F   UNL     1     -17.057  -3.226  -0.170  1.00  0.00    -0.206 F 
ATOM     82  C   UNL     1     -16.693  -3.604   2.106  1.00  0.00     0.040 A 
ATOM     83  C   UNL     1     -14.581  -3.113   3.111  1.00  0.00     0.040 A 
ATOM     84  F   UNL     1     -12.915  -2.067   1.926  1.00  0.00    -0.206 F 
ATOM     85  C   UNL     1     -15.881  -3.571   3.233  1.00  0.00     0.006 A 
ENDBRANCH  64  78
BRANCH  65  86
ATOM     86  C   UNL     1     -12.587   5.556   1.965  1.00  0.00     0.057 A 
ATOM     87  C   UNL     1     -13.543   6.356   2.601  1.00  0.00     0.134 A 
ATOM     88  C   UNL     1     -11.326   5.486   2.587  1.00  0.00     0.134 A 
ATOM     89  F   UNL     1     -14.788   6.446   2.111  1.00  0.00    -0.206 F 
ATOM     90  C   UNL     1     -13.265   7.043   3.790  1.00  0.00     0.040 A 
ATOM     91  C   UNL     1     -11.031   6.176   3.766  1.00  0.00     0.040 A 
ATOM     92  F   UNL     1     -10.363   4.678   2.121  1.00  0.00    -0.206 F 
ATOM     93  C   UNL     1     -12.007   6.950   4.378  1.00  0.00     0.006 A 
ENDBRANCH  65  86
BRANCH  77  94
ATOM     94  C   UNL     1     -16.180   3.168  -2.642  1.00  0.00     0.057 A 
ATOM     95  C   UNL     1     -15.060   3.771  -3.235  1.00  0.00     0.134 A 
ATOM     96  C   UNL     1     -17.412   3.365  -3.272  1.00  0.00     0.134 A 
ATOM     97  F   UNL     1     -13.826   3.549  -2.764  1.00  0.00    -0.206 F 
ATOM     98  C   UNL     1     -15.170   4.573  -4.375  1.00  0.00     0.040 A 
ATOM     99  C   UNL     1     -17.532   4.138  -4.430  1.00  0.00     0.040 A 
ATOM    100  F   UNL     1     -18.517   2.766  -2.799  1.00  0.00    -0.206 F 
ATOM    101  C   UNL     1     -16.409   4.754  -4.979  1.00  0.00     0.006 A 
ENDBRANCH  77  94
ENDBRANCH  51  52
ENDBRANCH  44  46
ENDBRANCH  43  44
ENDBRANCH  42  43
ENDBRANCH  41  42
ENDBRANCH  40  41
ENDBRANCH  39  40
ENDBRANCH  38  39
ENDBRANCH  37  38
ENDBRANCH   1  37
TORSDOF 26
