REMARK SMILES O=C(COc1ccc(Cl)c2ccccc12)N[C@@H](Cc1c[nH]c2ccccc12)C(=O)OCCOCCOCCOCCOC(=O)c1ccc(-c2c3nc(c(-c4c(F)cccc4F)c4ccc([nH]4)c(-c4c(F)cccc4F)c4nc(c(-c5c(F)cccc5F)c5ccc2[nH]5)C=C4)C=C3)cc1
REMARK SMILES IDX 35 1 34 2 33 3 32 4 31 5 30 6 28 7 29 8 17 9 16 10 1 11 2 12
REMARK SMILES IDX 3 14 4 15 5 16 6 17 15 18 7 19 10 20 14 21 8 22 11 23 13 24
REMARK SMILES IDX 9 25 12 26 18 27 19 28 20 29 27 30 21 31 22 32 26 33 23 35
REMARK SMILES IDX 25 36 24 37 36 38 37 39 38 40 39 41 40 42 41 43 42 44 43 45
REMARK SMILES IDX 44 46 45 47 46 48 98 49 47 50 97 51 48 52 49 53 50 54 91 55
REMARK SMILES IDX 51 56 96 57 90 58 92 59 52 60 95 61 89 62 88 63 53 65 79 66
REMARK SMILES IDX 62 67 78 68 63 69 66 70 77 71 93 72 64 73 65 74 76 76 94 77
REMARK SMILES IDX 67 78 54 79 55 80 60 81 56 82 57 83 59 84 61 85 58 86 80 87
REMARK SMILES IDX 81 88 86 89 82 90 83 91 85 92 87 93 84 94 68 95 69 96 74 97
REMARK SMILES IDX 70 98 71 99 73 100 75 101 72 102
REMARK H PARENT 16 13 21 34 92 64 66 75
REMARK Flexibility Score: inf
ROOT
ATOM      1  C   UNL     1       3.201  -2.511  -3.143  1.00  0.00     0.188 C 
ENDROOT
BRANCH   1   2
ATOM      2  C   UNL     1       2.019  -2.139  -4.049  1.00  0.00     0.188 C 
BRANCH   2   3
ATOM      3  O   UNL     1       2.342  -1.846  -5.411  1.00  0.00    -0.376 OA
BRANCH   3   4
ATOM      4  C   UNL     1       3.442  -0.966  -5.637  1.00  0.00     0.202 C 
BRANCH   4   5
ATOM      5  C   UNL     1       3.079   0.474  -5.327  1.00  0.00     0.261 C 
BRANCH   5   6
ATOM      6  O   UNL     1       2.997   0.633  -3.900  1.00  0.00    -0.462 OA
BRANCH   6   7
ATOM      7  C   UNL     1       2.092   1.542  -3.465  1.00  0.00     0.329 C 
ATOM      8  O   UNL     1       1.290   2.122  -4.191  1.00  0.00    -0.250 OA
BRANCH   7   9
ATOM      9  C   UNL     1       2.351   1.964  -2.014  1.00  0.00     0.196 C 
BRANCH   9  10
ATOM     10  N   UNL     1       2.801   1.011  -0.988  1.00  0.00    -0.339 N 
ATOM     11  O   UNL     1       0.690   0.414  -0.365  1.00  0.00    -0.271 OA
ATOM     12  C   UNL     1       1.902   0.361  -0.171  1.00  0.00     0.258 C 
ATOM     13  H   UNL     1       3.764   0.834  -0.883  1.00  0.00     0.164 HD
BRANCH  12  14
ATOM     14  C   UNL     1       2.506  -0.374   1.042  1.00  0.00     0.329 C 
BRANCH  14  15
ATOM     15  O   UNL     1       3.097  -1.641   0.791  1.00  0.00    -0.483 OA
BRANCH  15  16
ATOM     16  C   UNL     1       2.278  -2.739   0.955  1.00  0.00     0.128 A 
ATOM     17  C   UNL     1       0.970  -2.752   0.468  1.00  0.00     0.048 A 
ATOM     18  C   UNL     1       2.846  -3.918   1.508  1.00  0.00     0.025 A 
ATOM     19  C   UNL     1       0.216  -3.920   0.502  1.00  0.00     0.025 A 
ATOM     20  C   UNL     1       2.078  -5.118   1.539  1.00  0.00     0.004 A 
ATOM     21  C   UNL     1       4.167  -3.956   2.010  1.00  0.00     0.012 A 
ATOM     22  C   UNL     1       0.763  -5.092   1.019  1.00  0.00     0.049 A 
ATOM     23  C   UNL     1       2.687  -6.300   2.030  1.00  0.00     0.010 A 
ATOM     24  C   UNL     1       4.739  -5.136   2.491  1.00  0.00     0.001 A 
ATOM     25  Cl  UNL     1      -0.227  -6.512   0.922  1.00  0.00    -0.084 Cl
ATOM     26  C   UNL     1       4.003  -6.311   2.487  1.00  0.00     0.001 A 
ENDBRANCH  15  16
ENDBRANCH  14  15
ENDBRANCH  12  14
ENDBRANCH   9  10
BRANCH   9  27
ATOM     27  C   UNL     1       3.251   3.201  -2.054  1.00  0.00     0.074 C 
BRANCH  27  28
ATOM     28  C   UNL     1       4.678   3.128  -2.561  1.00  0.00    -0.020 A 
ATOM     29  C   UNL     1       5.328   4.288  -2.958  1.00  0.00     0.087 A 
ATOM     30  C   UNL     1       5.647   2.063  -2.720  1.00  0.00     0.003 A 
ATOM     31  N   UNL     1       6.607   3.992  -3.316  1.00  0.00    -0.361 N 
ATOM     32  C   UNL     1       6.835   2.647  -3.179  1.00  0.00     0.046 A 
ATOM     33  C   UNL     1       5.680   0.661  -2.534  1.00  0.00     0.010 A 
ATOM     34  H   UNL     1       7.272   4.647  -3.627  1.00  0.00     0.166 HD
ATOM     35  C   UNL     1       8.010   1.926  -3.429  1.00  0.00     0.026 A 
ATOM     36  C   UNL     1       6.839  -0.084  -2.792  1.00  0.00     0.001 A 
ATOM     37  C   UNL     1       7.993   0.549  -3.224  1.00  0.00     0.002 A 
ENDBRANCH  27  28
ENDBRANCH   9  27
ENDBRANCH   7   9
ENDBRANCH   6   7
ENDBRANCH   5   6
ENDBRANCH   4   5
ENDBRANCH   3   4
ENDBRANCH   2   3
ENDBRANCH   1   2
BRANCH   1  38
ATOM     38  O   UNL     1       4.150  -3.486  -3.577  1.00  0.00    -0.377 OA
BRANCH  38  39
ATOM     39  C   UNL     1       3.929  -4.195  -4.793  1.00  0.00     0.188 C 
BRANCH  39  40
ATOM     40  C   UNL     1       4.075  -5.708  -4.615  1.00  0.00     0.188 C 
BRANCH  40  41
ATOM     41  O   UNL     1       2.964  -6.363  -3.999  1.00  0.00    -0.376 OA
BRANCH  41  42
ATOM     42  C   UNL     1       2.600  -5.904  -2.699  1.00  0.00     0.202 C 
BRANCH  42  43
ATOM     43  C   UNL     1       3.637  -6.129  -1.597  1.00  0.00     0.261 C 
BRANCH  43  44
ATOM     44  O   UNL     1       4.888  -5.477  -1.853  1.00  0.00    -0.460 OA
BRANCH  44  45
ATOM     45  C   UNL     1       5.967  -6.071  -1.320  1.00  0.00     0.338 C 
ATOM     46  O   UNL     1       5.996  -7.050  -0.572  1.00  0.00    -0.246 OA
BRANCH  45  47
ATOM     47  C   UNL     1       7.188  -5.391  -1.769  1.00  0.00     0.060 A 
ATOM     48  C   UNL     1       7.613  -5.515  -3.098  1.00  0.00     0.016 A 
ATOM     49  C   UNL     1       8.007  -4.780  -0.818  1.00  0.00     0.016 A 
ATOM     50  C   UNL     1       8.880  -5.074  -3.467  1.00  0.00     0.010 A 
ATOM     51  C   UNL     1       9.277  -4.333  -1.189  1.00  0.00     0.010 A 
ATOM     52  C   UNL     1       9.735  -4.527  -2.503  1.00  0.00    -0.014 A 
BRANCH  52  53
ATOM     53  C   UNL     1      11.169  -4.363  -2.825  1.00  0.00     0.031 A 
ATOM     54  C   UNL     1      12.124  -5.450  -2.420  1.00  0.00     0.074 A 
ATOM     55  C   UNL     1      11.602  -3.296  -3.516  1.00  0.00     0.049 A 
ATOM     56  N   UNL     1      13.417  -5.529  -2.602  1.00  0.00    -0.248 NA
ATOM     57  C   UNL     1      11.540  -6.611  -1.729  1.00  0.00     0.031 C 
ATOM     58  C   UNL     1      10.750  -2.228  -4.030  1.00  0.00     0.029 A 
ATOM     59  N   UNL     1      12.866  -2.940  -3.907  1.00  0.00    -0.354 N 
ATOM     60  C   UNL     1      13.799  -6.746  -2.052  1.00  0.00     0.074 A 
ATOM     61  C   UNL     1      12.610  -7.358  -1.501  1.00  0.00     0.031 C 
ATOM     62  C   UNL     1      11.518  -1.321  -4.656  1.00  0.00     0.029 A 
ATOM     63  C   UNL     1      12.915  -1.740  -4.571  1.00  0.00     0.049 A 
ATOM     64  H   UNL     1      13.662  -3.492  -3.730  1.00  0.00     0.167 HD
ATOM     65  C   UNL     1      15.030  -7.307  -2.021  1.00  0.00     0.037 A 
ATOM     66  C   UNL     1      13.974  -1.057  -5.044  1.00  0.00     0.037 A 
ATOM     67  C   UNL     1      16.209  -6.690  -2.566  1.00  0.00     0.049 A 
ATOM     68  C   UNL     1      15.348  -1.651  -4.901  1.00  0.00     0.074 A 
ATOM     69  C   UNL     1      17.503  -7.175  -2.599  1.00  0.00     0.029 A 
ATOM     70  N   UNL     1      16.232  -5.439  -3.166  1.00  0.00    -0.354 N 
ATOM     71  N   UNL     1      15.699  -2.810  -4.396  1.00  0.00    -0.248 NA
ATOM     72  C   UNL     1      16.473  -0.846  -5.396  1.00  0.00     0.031 C 
ATOM     73  C   UNL     1      18.319  -6.196  -3.178  1.00  0.00     0.029 A 
ATOM     74  C   UNL     1      17.525  -5.120  -3.544  1.00  0.00     0.049 A 
ATOM     75  H   UNL     1      15.446  -4.863  -3.303  1.00  0.00     0.167 HD
ATOM     76  C   UNL     1      17.077  -2.889  -4.541  1.00  0.00     0.074 A 
ATOM     77  C   UNL     1      17.499  -1.660  -5.184  1.00  0.00     0.031 C 
ATOM     78  C   UNL     1      17.919  -3.890  -4.184  1.00  0.00     0.037 A 
BRANCH  65  79
ATOM     79  C   UNL     1      15.156  -8.637  -1.339  1.00  0.00     0.057 A 
ATOM     80  C   UNL     1      14.654  -9.814  -1.911  1.00  0.00     0.134 A 
ATOM     81  C   UNL     1      15.775  -8.739  -0.088  1.00  0.00     0.134 A 
ATOM     82  F   UNL     1      14.032  -9.781  -3.099  1.00  0.00    -0.206 F 
ATOM     83  C   UNL     1      14.739 -11.040  -1.248  1.00  0.00     0.040 A 
ATOM     84  C   UNL     1      15.886  -9.963   0.574  1.00  0.00     0.040 A 
ATOM     85  F   UNL     1      16.275  -7.650   0.515  1.00  0.00    -0.206 F 
ATOM     86  C   UNL     1      15.360 -11.117  -0.003  1.00  0.00     0.006 A 
ENDBRANCH  65  79
BRANCH  66  87
ATOM     87  C   UNL     1      13.774   0.257  -5.703  1.00  0.00     0.057 A 
ATOM     88  C   UNL     1      13.963   0.412  -7.080  1.00  0.00     0.134 A 
ATOM     89  C   UNL     1      13.391   1.388  -4.972  1.00  0.00     0.134 A 
ATOM     90  F   UNL     1      14.349  -0.630  -7.830  1.00  0.00    -0.206 F 
ATOM     91  C   UNL     1      13.786   1.647  -7.707  1.00  0.00     0.040 A 
ATOM     92  C   UNL     1      13.193   2.625  -5.588  1.00  0.00     0.040 A 
ATOM     93  F   UNL     1      13.191   1.305  -3.648  1.00  0.00    -0.206 F 
ATOM     94  C   UNL     1      13.395   2.757  -6.961  1.00  0.00     0.006 A 
ENDBRANCH  66  87
BRANCH  78  95
ATOM     95  C   UNL     1      19.371  -3.708  -4.508  1.00  0.00     0.057 A 
ATOM     96  C   UNL     1      20.186  -2.836  -3.777  1.00  0.00     0.134 A 
ATOM     97  C   UNL     1      19.968  -4.445  -5.539  1.00  0.00     0.134 A 
ATOM     98  F   UNL     1      19.670  -2.092  -2.787  1.00  0.00    -0.206 F 
ATOM     99  C   UNL     1      21.542  -2.688  -4.074  1.00  0.00     0.040 A 
ATOM    100  C   UNL     1      21.326  -4.324  -5.829  1.00  0.00     0.040 A 
ATOM    101  F   UNL     1      19.242  -5.304  -6.271  1.00  0.00    -0.206 F 
ATOM    102  C   UNL     1      22.117  -3.439  -5.098  1.00  0.00     0.006 A 
ENDBRANCH  78  95
ENDBRANCH  52  53
ENDBRANCH  45  47
ENDBRANCH  44  45
ENDBRANCH  43  44
ENDBRANCH  42  43
ENDBRANCH  41  42
ENDBRANCH  40  41
ENDBRANCH  39  40
ENDBRANCH  38  39
ENDBRANCH   1  38
TORSDOF 26
