REMARK SMILES Cc1ccc(S(=O)(=O)n2cc(C(=O)C(=O)N[C@@H](Cc3c[nH]c4ccccc34)C(=O)OCCOCCOCCOCCOC(=O)c3ccc(-c4c5nc(c(-c6c(F)cccc6F)c6ccc([nH]6)c(-c6c(F)cccc6F)c6nc(c(-c7c(F)cccc7F)c7ccc4[nH]7)C=C6)C=C5)cc3)c3ccccc32)cc1
REMARK SMILES IDX 34 1 33 2 32 3 31 4 30 5 28 6 29 7 17 8 16 9 14 10 15 11
REMARK SMILES IDX 12 13 13 14 11 15 9 16 10 17 104 18 99 19 103 20 100 21
REMARK SMILES IDX 102 22 101 23 6 24 7 25 8 26 5 27 1 28 2 29 3 30 106 31 4 32
REMARK SMILES IDX 105 33 18 34 19 35 20 36 27 37 21 38 22 39 26 40 23 42 25 43
REMARK SMILES IDX 24 44 35 45 36 46 37 47 38 48 39 49 40 50 41 51 42 52 43 53
REMARK SMILES IDX 44 54 45 55 46 56 98 57 47 58 97 59 48 60 49 61 50 62 91 63
REMARK SMILES IDX 51 64 96 65 90 66 92 67 52 68 95 69 89 70 88 71 53 73 79 74
REMARK SMILES IDX 62 75 78 76 63 77 66 78 77 79 93 80 64 81 65 82 76 84 94 85
REMARK SMILES IDX 67 86 54 87 55 88 60 89 56 90 57 91 59 92 61 93 58 94 80 95
REMARK SMILES IDX 81 96 86 97 82 98 83 99 85 100 87 101 84 102 68 103 69 104
REMARK SMILES IDX 74 105 70 106 71 107 73 108 75 109 72 110
REMARK H PARENT 16 12 21 41 92 72 66 83
REMARK Flexibility Score: inf
ROOT
ATOM      1  C   UNL     1      -9.011   0.562  -2.791  1.00  0.00     0.188 C 
ENDROOT
BRANCH   1   2
ATOM      2  O   UNL     1     -10.322   0.637  -3.334  1.00  0.00    -0.376 OA
BRANCH   2   3
ATOM      3  C   UNL     1     -11.159  -0.410  -2.856  1.00  0.00     0.202 C 
BRANCH   3   4
ATOM      4  C   UNL     1     -11.811  -0.175  -1.482  1.00  0.00     0.261 C 
BRANCH   4   5
ATOM      5  O   UNL     1     -11.073   0.633  -0.559  1.00  0.00    -0.462 OA
BRANCH   5   6
ATOM      6  C   UNL     1     -11.340   0.338   0.743  1.00  0.00     0.329 C 
ATOM      7  O   UNL     1     -12.034  -0.608   1.113  1.00  0.00    -0.250 OA
BRANCH   6   8
ATOM      8  C   UNL     1     -10.647   1.275   1.756  1.00  0.00     0.197 C 
BRANCH   8   9
ATOM      9  N   UNL     1      -9.721   2.345   1.293  1.00  0.00    -0.335 N 
ATOM     10  C   UNL     1      -8.354   2.230   1.034  1.00  0.00     0.293 C 
ATOM     11  O   UNL     1      -7.622   3.210   0.934  1.00  0.00    -0.265 OA
ATOM     12  H   UNL     1     -10.118   3.236   1.154  1.00  0.00     0.164 HD
BRANCH  10  13
ATOM     13  C   UNL     1      -7.820   0.833   0.717  1.00  0.00     0.252 C 
ATOM     14  O   UNL     1      -8.707  -0.010   0.567  1.00  0.00    -0.283 OA
BRANCH  13  15
ATOM     15  C   UNL     1      -6.448   0.354   0.536  1.00  0.00     0.054 A 
ATOM     16  N   UNL     1      -4.350  -0.331   0.884  1.00  0.00    -0.240 N 
ATOM     17  C   UNL     1      -5.135   0.822   0.677  1.00  0.00     0.117 A 
ATOM     18  C   UNL     1      -5.245  -1.418   0.927  1.00  0.00     0.065 A 
ATOM     19  C   UNL     1      -6.280  -0.998   0.122  1.00  0.00     0.012 A 
ATOM     20  C   UNL     1      -5.085  -2.774   1.253  1.00  0.00     0.028 A 
ATOM     21  C   UNL     1      -7.023  -1.953  -0.597  1.00  0.00     0.011 A 
ATOM     22  C   UNL     1      -5.811  -3.706   0.507  1.00  0.00     0.002 A 
ATOM     23  C   UNL     1      -6.725  -3.303  -0.455  1.00  0.00     0.001 A 
BRANCH  16  24
ATOM     24  S   UNL     1      -2.889  -0.839   0.098  1.00  0.00     0.268 S 
ATOM     25  O   UNL     1      -3.291  -1.043  -1.284  1.00  0.00    -0.201 OA
ATOM     26  O   UNL     1      -2.531  -1.968   0.953  1.00  0.00    -0.201 OA
BRANCH  24  27
ATOM     27  C   UNL     1      -1.328  -0.059   0.007  1.00  0.00     0.088 A 
ATOM     28  C   UNL     1       2.905   0.748  -0.036  1.00  0.00     0.044 C 
ATOM     29  C   UNL     1       1.422   0.528  -0.094  1.00  0.00    -0.051 A 
ATOM     30  C   UNL     1       1.001  -0.768  -0.335  1.00  0.00     0.005 A 
ATOM     31  C   UNL     1       0.457   1.536   0.139  1.00  0.00     0.005 A 
ATOM     32  C   UNL     1      -0.348  -1.038  -0.311  1.00  0.00     0.022 A 
ATOM     33  C   UNL     1      -0.934   1.251   0.198  1.00  0.00     0.022 A 
ENDBRANCH  24  27
ENDBRANCH  16  24
ENDBRANCH  13  15
ENDBRANCH  10  13
ENDBRANCH   8   9
BRANCH   8  34
ATOM     34  C   UNL     1     -11.693   1.738   2.795  1.00  0.00     0.074 C 
BRANCH  34  35
ATOM     35  C   UNL     1     -12.505   2.956   2.485  1.00  0.00    -0.020 A 
ATOM     36  C   UNL     1     -13.859   2.980   2.210  1.00  0.00     0.087 A 
ATOM     37  C   UNL     1     -12.073   4.322   2.524  1.00  0.00     0.003 A 
ATOM     38  N   UNL     1     -14.255   4.284   2.091  1.00  0.00    -0.361 N 
ATOM     39  C   UNL     1     -13.180   5.123   2.249  1.00  0.00     0.046 A 
ATOM     40  C   UNL     1     -10.836   4.955   2.768  1.00  0.00     0.010 A 
ATOM     41  H   UNL     1     -15.178   4.578   1.917  1.00  0.00     0.166 HD
ATOM     42  C   UNL     1     -13.106   6.519   2.179  1.00  0.00     0.026 A 
ATOM     43  C   UNL     1     -10.728   6.340   2.640  1.00  0.00     0.001 A 
ATOM     44  C   UNL     1     -11.851   7.110   2.358  1.00  0.00     0.002 A 
ENDBRANCH  34  35
ENDBRANCH   8  34
ENDBRANCH   6   8
ENDBRANCH   5   6
ENDBRANCH   4   5
ENDBRANCH   3   4
ENDBRANCH   2   3
ENDBRANCH   1   2
BRANCH   1  45
ATOM     45  C   UNL     1      -8.613   1.836  -2.058  1.00  0.00     0.188 C 
BRANCH  45  46
ATOM     46  O   UNL     1      -8.230   2.937  -2.849  1.00  0.00    -0.377 OA
BRANCH  46  47
ATOM     47  C   UNL     1      -9.357   3.656  -3.333  1.00  0.00     0.188 C 
BRANCH  47  48
ATOM     48  C   UNL     1      -8.886   4.327  -4.591  1.00  0.00     0.188 C 
BRANCH  48  49
ATOM     49  O   UNL     1      -8.495   3.263  -5.461  1.00  0.00    -0.376 OA
BRANCH  49  50
ATOM     50  C   UNL     1      -7.112   3.231  -5.787  1.00  0.00     0.202 C 
BRANCH  50  51
ATOM     51  C   UNL     1      -6.817   4.299  -6.841  1.00  0.00     0.261 C 
BRANCH  51  52
ATOM     52  O   UNL     1      -7.770   4.144  -7.922  1.00  0.00    -0.460 OA
BRANCH  52  53
ATOM     53  C   UNL     1      -8.807   5.017  -7.896  1.00  0.00     0.338 C 
ATOM     54  O   UNL     1      -8.694   6.236  -7.711  1.00  0.00    -0.246 OA
BRANCH  53  55
ATOM     55  C   UNL     1     -10.128   4.319  -7.829  1.00  0.00     0.060 A 
ATOM     56  C   UNL     1     -11.279   5.081  -7.557  1.00  0.00     0.016 A 
ATOM     57  C   UNL     1     -10.168   2.936  -7.643  1.00  0.00     0.016 A 
ATOM     58  C   UNL     1     -12.389   4.494  -6.933  1.00  0.00     0.010 A 
ATOM     59  C   UNL     1     -11.217   2.386  -6.914  1.00  0.00     0.010 A 
ATOM     60  C   UNL     1     -12.313   3.164  -6.503  1.00  0.00    -0.014 A 
BRANCH  60  61
ATOM     61  C   UNL     1     -13.104   2.630  -5.371  1.00  0.00     0.031 A 
ATOM     62  C   UNL     1     -13.623   1.206  -5.316  1.00  0.00     0.074 A 
ATOM     63  C   UNL     1     -12.958   3.301  -4.204  1.00  0.00     0.049 A 
ATOM     64  N   UNL     1     -14.241   0.653  -4.310  1.00  0.00    -0.248 NA
ATOM     65  C   UNL     1     -13.537   0.293  -6.457  1.00  0.00     0.031 C 
ATOM     66  C   UNL     1     -12.713   2.631  -2.949  1.00  0.00     0.029 A 
ATOM     67  N   UNL     1     -12.740   4.614  -3.853  1.00  0.00    -0.354 N 
ATOM     68  C   UNL     1     -14.342  -0.712  -4.551  1.00  0.00     0.074 A 
ATOM     69  C   UNL     1     -14.016  -0.848  -5.948  1.00  0.00     0.031 C 
ATOM     70  C   UNL     1     -12.538   3.489  -1.944  1.00  0.00     0.029 A 
ATOM     71  C   UNL     1     -12.844   4.784  -2.466  1.00  0.00     0.049 A 
ATOM     72  H   UNL     1     -12.539   5.336  -4.490  1.00  0.00     0.167 HD
ATOM     73  C   UNL     1     -14.543  -1.613  -3.533  1.00  0.00     0.037 A 
ATOM     74  C   UNL     1     -13.796   5.576  -1.908  1.00  0.00     0.037 A 
ATOM     75  C   UNL     1     -14.931  -0.981  -2.253  1.00  0.00     0.049 A 
ATOM     76  C   UNL     1     -14.965   4.804  -1.290  1.00  0.00     0.074 A 
ATOM     77  C   UNL     1     -14.680  -1.232  -0.912  1.00  0.00     0.029 A 
ATOM     78  N   UNL     1     -15.686   0.197  -2.256  1.00  0.00    -0.354 N 
ATOM     79  N   UNL     1     -15.068   3.488  -1.250  1.00  0.00    -0.248 NA
ATOM     80  C   UNL     1     -16.128   5.440  -0.676  1.00  0.00     0.031 C 
ATOM     81  C   UNL     1     -15.130  -0.113  -0.147  1.00  0.00     0.029 A 
ATOM     82  C   UNL     1     -15.810   0.743  -0.997  1.00  0.00     0.049 A 
ATOM     83  H   UNL     1     -16.084   0.591  -3.066  1.00  0.00     0.167 HD
ATOM     84  C   UNL     1     -16.299   3.109  -0.755  1.00  0.00     0.074 A 
ATOM     85  C   UNL     1     -16.880   4.375  -0.339  1.00  0.00     0.031 C 
ATOM     86  C   UNL     1     -16.773   1.816  -0.758  1.00  0.00     0.037 A 
BRANCH  73  87
ATOM     87  C   UNL     1     -14.207  -3.121  -3.640  1.00  0.00     0.057 A 
ATOM     88  C   UNL     1     -14.668  -4.054  -2.683  1.00  0.00     0.134 A 
ATOM     89  C   UNL     1     -13.320  -3.692  -4.582  1.00  0.00     0.134 A 
ATOM     90  F   UNL     1     -15.533  -3.699  -1.723  1.00  0.00    -0.206 F 
ATOM     91  C   UNL     1     -14.265  -5.406  -2.652  1.00  0.00     0.040 A 
ATOM     92  C   UNL     1     -12.976  -5.059  -4.612  1.00  0.00     0.040 A 
ATOM     93  F   UNL     1     -12.676  -2.951  -5.492  1.00  0.00    -0.206 F 
ATOM     94  C   UNL     1     -13.430  -5.920  -3.630  1.00  0.00     0.006 A 
ENDBRANCH  73  87
BRANCH  74  95
ATOM     95  C   UNL     1     -13.533   7.004  -2.300  1.00  0.00     0.057 A 
ATOM     96  C   UNL     1     -12.339   7.499  -1.725  1.00  0.00     0.134 A 
ATOM     97  C   UNL     1     -13.752   7.382  -3.634  1.00  0.00     0.134 A 
ATOM     98  F   UNL     1     -12.081   7.271  -0.434  1.00  0.00    -0.206 F 
ATOM     99  C   UNL     1     -11.280   7.984  -2.502  1.00  0.00     0.040 A 
ATOM    100  C   UNL     1     -12.702   7.890  -4.426  1.00  0.00     0.040 A 
ATOM    101  F   UNL     1     -14.884   7.025  -4.256  1.00  0.00    -0.206 F 
ATOM    102  C   UNL     1     -11.440   8.112  -3.875  1.00  0.00     0.006 A 
ENDBRANCH  74  95
BRANCH  86 103
ATOM    103  C   UNL     1     -18.225   1.348  -0.529  1.00  0.00     0.057 A 
ATOM    104  C   UNL     1     -19.357   2.171  -0.585  1.00  0.00     0.134 A 
ATOM    105  C   UNL     1     -18.543  -0.037  -0.402  1.00  0.00     0.134 A 
ATOM    106  F   UNL     1     -19.272   3.479  -0.846  1.00  0.00    -0.206 F 
ATOM    107  C   UNL     1     -20.669   1.681  -0.450  1.00  0.00     0.040 A 
ATOM    108  C   UNL     1     -19.846  -0.541  -0.327  1.00  0.00     0.040 A 
ATOM    109  F   UNL     1     -17.611  -0.998  -0.379  1.00  0.00    -0.206 F 
ATOM    110  C   UNL     1     -20.921   0.322  -0.332  1.00  0.00     0.006 A 
ENDBRANCH  86 103
ENDBRANCH  60  61
ENDBRANCH  53  55
ENDBRANCH  52  53
ENDBRANCH  51  52
ENDBRANCH  50  51
ENDBRANCH  49  50
ENDBRANCH  48  49
ENDBRANCH  47  48
ENDBRANCH  46  47
ENDBRANCH  45  46
ENDBRANCH   1  45
TORSDOF 27
