REMARK SMILES Cc1cc(C)c2c(OCCCC(=O)OCCOCCOCCOCCOC(=O)c3ccc(-c4c5nc(c(-c6c(F)cccc6F)c6ccc([nH]6)c(-c6c(F)cccc6F)c6nc(c(-c7c(F)cccc7F)c7ccc4[nH]7)C=C6)C=C5)cc3)nsc2n1
REMARK SMILES IDX 19 1 18 2 17 3 16 4 15 5 14 6 12 7 13 8 11 9 10 10 9 11 8 12
REMARK SMILES IDX 7 13 1 14 2 15 3 16 86 17 4 18 85 19 5 20 6 21 84 22 83 23
REMARK SMILES IDX 20 24 21 25 22 26 23 27 24 28 25 29 26 30 27 31 28 32 29 33
REMARK SMILES IDX 30 34 82 35 31 36 81 37 32 38 33 39 34 40 75 41 35 42 80 43
REMARK SMILES IDX 74 44 76 45 36 46 79 47 73 48 72 49 37 51 63 52 46 53 62 54
REMARK SMILES IDX 47 55 50 56 61 57 77 58 48 59 49 60 60 62 78 63 51 64 38 65
REMARK SMILES IDX 39 66 44 67 40 68 41 69 43 70 45 71 42 72 64 73 65 74 70 75
REMARK SMILES IDX 66 76 67 77 69 78 71 79 68 80 52 81 53 82 58 83 54 84 55 85
REMARK SMILES IDX 57 86 59 87 56 88
REMARK H PARENT 76 50 50 61
REMARK Flexibility Score: inf
ROOT
ATOM      1  C   UNL     1      -1.146  -2.894   4.912  1.00  0.00     0.188 C 
ENDROOT
BRANCH   1   2
ATOM      2  C   UNL     1      -1.133  -3.468   3.477  1.00  0.00     0.188 C 
BRANCH   2   3
ATOM      3  O   UNL     1       0.110  -3.864   2.911  1.00  0.00    -0.376 OA
BRANCH   3   4
ATOM      4  C   UNL     1       1.177  -2.931   2.956  1.00  0.00     0.202 C 
BRANCH   4   5
ATOM      5  C   UNL     1       0.869  -1.524   2.450  1.00  0.00     0.261 C 
BRANCH   5   6
ATOM      6  O   UNL     1      -0.096  -0.753   3.226  1.00  0.00    -0.463 OA
BRANCH   6   7
ATOM      7  C   UNL     1      -1.151  -0.264   2.527  1.00  0.00     0.305 C 
ATOM      8  O   UNL     1      -1.346  -0.519   1.340  1.00  0.00    -0.252 OA
BRANCH   7   9
ATOM      9  C   UNL     1      -2.083   0.702   3.250  1.00  0.00     0.126 C 
BRANCH   9  10
ATOM     10  C   UNL     1      -2.372   0.749   4.754  1.00  0.00     0.053 C 
BRANCH  10  11
ATOM     11  C   UNL     1      -1.323   1.228   5.769  1.00  0.00     0.232 C 
BRANCH  11  12
ATOM     12  O   UNL     1      -1.038   2.624   5.888  1.00  0.00    -0.477 OA
BRANCH  12  13
ATOM     13  C   UNL     1      -0.678   3.252   4.750  1.00  0.00     0.235 A 
ATOM     14  C   UNL     1       1.599   1.661  -0.012  1.00  0.00     0.067 C 
ATOM     15  C   UNL     1       1.365   2.283   1.336  1.00  0.00     0.039 A 
ATOM     16  C   UNL     1       1.909   1.678   2.465  1.00  0.00     0.027 A 
ATOM     17  N   UNL     1       0.504   3.314   1.388  1.00  0.00    -0.240 NA
ATOM     18  C   UNL     1       1.406   1.957   3.748  1.00  0.00    -0.034 A 
ATOM     19  C   UNL     1       0.048   3.579   2.625  1.00  0.00     0.147 A 
ATOM     20  C   UNL     1       1.949   1.181   4.917  1.00  0.00     0.045 C 
ATOM     21  C   UNL     1       0.339   2.888   3.801  1.00  0.00     0.078 A 
ATOM     22  S   UNL     1      -1.088   4.810   2.940  1.00  0.00    -0.012 S 
ATOM     23  N   UNL     1      -1.430   4.319   4.489  1.00  0.00    -0.153 NA
ENDBRANCH  12  13
ENDBRANCH  11  12
ENDBRANCH  10  11
ENDBRANCH   9  10
ENDBRANCH   7   9
ENDBRANCH   6   7
ENDBRANCH   5   6
ENDBRANCH   4   5
ENDBRANCH   3   4
ENDBRANCH   2   3
ENDBRANCH   1   2
BRANCH   1  24
ATOM     24  O   UNL     1       0.125  -2.622   5.487  1.00  0.00    -0.377 OA
BRANCH  24  25
ATOM     25  C   UNL     1       0.611  -3.640   6.363  1.00  0.00     0.188 C 
BRANCH  25  26
ATOM     26  C   UNL     1       0.670  -5.082   5.803  1.00  0.00     0.188 C 
BRANCH  26  27
ATOM     27  O   UNL     1      -0.526  -5.498   5.149  1.00  0.00    -0.376 OA
BRANCH  27  28
ATOM     28  C   UNL     1      -1.397  -6.441   5.751  1.00  0.00     0.202 C 
BRANCH  28  29
ATOM     29  C   UNL     1      -2.321  -5.852   6.819  1.00  0.00     0.261 C 
BRANCH  29  30
ATOM     30  O   UNL     1      -1.620  -5.147   7.832  1.00  0.00    -0.460 OA
BRANCH  30  31
ATOM     31  C   UNL     1      -0.701  -5.888   8.483  1.00  0.00     0.338 C 
ATOM     32  O   UNL     1      -0.439  -7.062   8.313  1.00  0.00    -0.246 OA
BRANCH  31  33
ATOM     33  C   UNL     1      -0.066  -5.067   9.514  1.00  0.00     0.060 A 
ATOM     34  C   UNL     1       1.013  -5.673  10.156  1.00  0.00     0.016 A 
ATOM     35  C   UNL     1      -0.806  -4.020  10.079  1.00  0.00     0.016 A 
ATOM     36  C   UNL     1       1.103  -5.498  11.509  1.00  0.00     0.010 A 
ATOM     37  C   UNL     1      -0.719  -3.850  11.434  1.00  0.00     0.010 A 
ATOM     38  C   UNL     1       0.137  -4.699  12.128  1.00  0.00    -0.014 A 
BRANCH  38  39
ATOM     39  C   UNL     1      -0.031  -4.892  13.545  1.00  0.00     0.031 A 
ATOM     40  C   UNL     1       0.968  -4.202  14.370  1.00  0.00     0.074 A 
ATOM     41  C   UNL     1      -1.046  -5.623  14.036  1.00  0.00     0.049 A 
ATOM     42  N   UNL     1       1.857  -4.724  15.145  1.00  0.00    -0.248 NA
ATOM     43  C   UNL     1       1.059  -2.745  14.208  1.00  0.00     0.031 C 
ATOM     44  C   UNL     1      -2.249  -6.098  13.344  1.00  0.00     0.029 A 
ATOM     45  N   UNL     1      -1.254  -6.005  15.321  1.00  0.00    -0.354 N 
ATOM     46  C   UNL     1       2.516  -3.644  15.710  1.00  0.00     0.074 A 
ATOM     47  C   UNL     1       2.092  -2.465  14.997  1.00  0.00     0.031 C 
ATOM     48  C   UNL     1      -3.154  -6.498  14.267  1.00  0.00     0.029 A 
ATOM     49  C   UNL     1      -2.546  -6.421  15.586  1.00  0.00     0.049 A 
ATOM     50  H   UNL     1      -0.546  -5.987  16.005  1.00  0.00     0.167 HD
ATOM     51  C   UNL     1       3.201  -3.750  16.875  1.00  0.00     0.037 A 
ATOM     52  C   UNL     1      -3.082  -6.573  16.819  1.00  0.00     0.037 A 
ATOM     53  C   UNL     1       3.535  -5.106  17.202  1.00  0.00     0.049 A 
ATOM     54  C   UNL     1      -1.960  -6.672  17.790  1.00  0.00     0.074 A 
ATOM     55  C   UNL     1       4.295  -6.084  16.590  1.00  0.00     0.029 A 
ATOM     56  N   UNL     1       2.772  -5.756  18.139  1.00  0.00    -0.354 N 
ATOM     57  N   UNL     1      -1.139  -7.682  17.875  1.00  0.00    -0.248 NA
ATOM     58  C   UNL     1      -1.495  -5.443  18.420  1.00  0.00     0.031 C 
ATOM     59  C   UNL     1       3.631  -7.311  16.874  1.00  0.00     0.029 A 
ATOM     60  C   UNL     1       2.511  -7.013  17.652  1.00  0.00     0.049 A 
ATOM     61  H   UNL     1       2.467  -5.389  19.000  1.00  0.00     0.167 HD
ATOM     62  C   UNL     1       0.088  -7.123  18.206  1.00  0.00     0.074 A 
ATOM     63  C   UNL     1      -0.217  -5.763  18.634  1.00  0.00     0.031 C 
ATOM     64  C   UNL     1       1.262  -7.717  17.840  1.00  0.00     0.037 A 
BRANCH  51  65
ATOM     65  C   UNL     1       3.279  -2.614  17.842  1.00  0.00     0.057 A 
ATOM     66  C   UNL     1       4.298  -2.563  18.797  1.00  0.00     0.134 A 
ATOM     67  C   UNL     1       2.240  -1.671  17.997  1.00  0.00     0.134 A 
ATOM     68  F   UNL     1       5.301  -3.453  18.778  1.00  0.00    -0.206 F 
ATOM     69  C   UNL     1       4.288  -1.627  19.837  1.00  0.00     0.040 A 
ATOM     70  C   UNL     1       2.248  -0.697  18.992  1.00  0.00     0.040 A 
ATOM     71  F   UNL     1       1.133  -1.707  17.239  1.00  0.00    -0.206 F 
ATOM     72  C   UNL     1       3.268  -0.684  19.930  1.00  0.00     0.006 A 
ENDBRANCH  51  65
BRANCH  52  73
ATOM     73  C   UNL     1      -4.474  -6.296  17.240  1.00  0.00     0.057 A 
ATOM     74  C   UNL     1      -4.949  -6.745  18.479  1.00  0.00     0.134 A 
ATOM     75  C   UNL     1      -5.290  -5.369  16.566  1.00  0.00     0.134 A 
ATOM     76  F   UNL     1      -4.224  -7.597  19.217  1.00  0.00    -0.206 F 
ATOM     77  C   UNL     1      -6.152  -6.282  19.027  1.00  0.00     0.040 A 
ATOM     78  C   UNL     1      -6.500  -4.910  17.094  1.00  0.00     0.040 A 
ATOM     79  F   UNL     1      -4.902  -4.805  15.413  1.00  0.00    -0.206 F 
ATOM     80  C   UNL     1      -6.928  -5.355  18.337  1.00  0.00     0.006 A 
ENDBRANCH  52  73
BRANCH  64  81
ATOM     81  C   UNL     1       1.198  -9.127  17.321  1.00  0.00     0.057 A 
ATOM     82  C   UNL     1       0.552  -9.485  16.128  1.00  0.00     0.134 A 
ATOM     83  C   UNL     1       1.944 -10.123  17.961  1.00  0.00     0.134 A 
ATOM     84  F   UNL     1      -0.096  -8.573  15.392  1.00  0.00    -0.206 F 
ATOM     85  C   UNL     1       0.608 -10.787  15.622  1.00  0.00     0.040 A 
ATOM     86  C   UNL     1       2.035 -11.420  17.448  1.00  0.00     0.040 A 
ATOM     87  F   UNL     1       2.641  -9.838  19.073  1.00  0.00    -0.206 F 
ATOM     88  C   UNL     1       1.357 -11.758  16.280  1.00  0.00     0.006 A 
ENDBRANCH  64  81
ENDBRANCH  38  39
ENDBRANCH  31  33
ENDBRANCH  30  31
ENDBRANCH  29  30
ENDBRANCH  28  29
ENDBRANCH  27  28
ENDBRANCH  26  27
ENDBRANCH  25  26
ENDBRANCH  24  25
ENDBRANCH   1  24
TORSDOF 24
