REMARK SMILES CC[NH2+][C@]1(C(=O)OCCOCCOCCOCCOC(=O)c2ccc(-c3c4nc(c(-c5c(F)cccc5F)c5ccc([nH]5)c(-c5c(F)cccc5F)c5nc(c(-c6c(F)cccc6F)c6ccc3[nH]6)C=C5)C=C4)cc2)CCC[C@H]1CC[N@H+]1CCC[C@@H](CC)C1
REMARK SMILES IDX 12 1 11 2 10 3 9 4 8 5 7 6 5 7 6 8 4 9 76 10 79 11 77 12
REMARK SMILES IDX 78 13 3 14 2 17 1 18 80 19 81 20 82 21 83 22 89 23 84 25
REMARK SMILES IDX 86 26 85 27 87 28 88 29 13 30 14 31 15 32 16 33 17 34 18 35
REMARK SMILES IDX 19 36 20 37 21 38 22 39 23 40 75 41 24 42 74 43 25 44 26 45
REMARK SMILES IDX 27 46 68 47 28 48 73 49 67 50 69 51 29 52 72 53 66 54 65 55
REMARK SMILES IDX 30 57 56 58 39 59 55 60 40 61 43 62 54 63 70 64 41 65 42 66
REMARK SMILES IDX 53 68 71 69 44 70 31 71 32 72 37 73 33 74 34 75 36 76 38 77
REMARK SMILES IDX 35 78 57 79 58 80 63 81 59 82 60 83 62 84 64 85 61 86 45 87
REMARK SMILES IDX 46 88 51 89 47 90 48 91 50 92 52 93 49 94
REMARK H PARENT 3 15 3 16 82 24 69 56 43 67
REMARK Flexibility Score: inf
ROOT
ATOM      1  C   UNL     1       2.885   1.745  -0.941  1.00  0.00     0.188 C 
ENDROOT
BRANCH   1   2
ATOM      2  C   UNL     1       1.951   1.245   0.184  1.00  0.00     0.188 C 
BRANCH   2   3
ATOM      3  O   UNL     1       2.171  -0.094   0.576  1.00  0.00    -0.376 OA
BRANCH   3   4
ATOM      4  C   UNL     1       1.337  -1.135   0.117  1.00  0.00     0.202 C 
BRANCH   4   5
ATOM      5  C   UNL     1       0.963  -1.254  -1.363  1.00  0.00     0.261 C 
BRANCH   5   6
ATOM      6  O   UNL     1       1.012  -0.038  -2.128  1.00  0.00    -0.459 OA
BRANCH   6   7
ATOM      7  C   UNL     1      -0.165   0.488  -2.514  1.00  0.00     0.368 C 
ATOM      8  O   UNL     1      -1.231  -0.025  -2.172  1.00  0.00    -0.245 OA
BRANCH   7   9
ATOM      9  C   UNL     1      -0.088   1.805  -3.404  1.00  0.00     0.197 C 
ATOM     10  C   UNL     1       0.301   3.140  -2.731  1.00  0.00     0.081 C 
ATOM     11  C   UNL     1       0.854   1.846  -4.670  1.00  0.00     0.068 C 
ATOM     12  C   UNL     1       0.380   4.151  -3.879  1.00  0.00     0.008 C 
ATOM     13  C   UNL     1       0.645   3.324  -5.144  1.00  0.00     0.011 C 
BRANCH   9  14
ATOM     14  N   UNL     1      -1.518   1.969  -3.923  1.00  0.00    -0.332 N 
ATOM     15  H   UNL     1      -1.509   2.645  -4.687  1.00  0.00     0.347 HD
ATOM     16  H   UNL     1      -1.837   1.050  -4.229  1.00  0.00     0.347 HD
BRANCH  14  17
ATOM     17  C   UNL     1      -2.460   2.441  -2.890  1.00  0.00     0.257 C 
ATOM     18  C   UNL     1      -3.832   1.810  -3.057  1.00  0.00     0.071 C 
ENDBRANCH  14  17
ENDBRANCH   9  14
BRANCH  11  19
ATOM     19  C   UNL     1       2.409   1.691  -4.577  1.00  0.00     0.072 C 
BRANCH  19  20
ATOM     20  C   UNL     1       3.050   0.319  -4.345  1.00  0.00     0.262 C 
BRANCH  20  21
ATOM     21  N   UNL     1       2.553  -0.743  -5.232  1.00  0.00    -0.335 N 
ATOM     22  C   UNL     1       3.167  -0.639  -6.568  1.00  0.00     0.262 C 
ATOM     23  C   UNL     1       2.865  -2.054  -4.639  1.00  0.00     0.265 C 
ATOM     24  H   UNL     1       1.544  -0.640  -5.337  1.00  0.00     0.348 HD
ATOM     25  C   UNL     1       2.656  -1.742  -7.494  1.00  0.00     0.062 C 
ATOM     26  C   UNL     1       2.309  -3.209  -5.480  1.00  0.00     0.044 C 
ATOM     27  C   UNL     1       2.885  -3.128  -6.898  1.00  0.00     0.015 C 
BRANCH  26  28
ATOM     28  C   UNL     1       2.502  -4.607  -4.846  1.00  0.00     0.006 C 
ATOM     29  C   UNL     1       3.656  -4.767  -3.866  1.00  0.00     0.004 C 
ENDBRANCH  26  28
ENDBRANCH  20  21
ENDBRANCH  19  20
ENDBRANCH  11  19
ENDBRANCH   7   9
ENDBRANCH   6   7
ENDBRANCH   5   6
ENDBRANCH   4   5
ENDBRANCH   3   4
ENDBRANCH   2   3
ENDBRANCH   1   2
BRANCH   1  30
ATOM     30  O   UNL     1       4.178   1.237  -1.233  1.00  0.00    -0.377 OA
BRANCH  30  31
ATOM     31  C   UNL     1       4.577   0.030  -0.619  1.00  0.00     0.188 C 
BRANCH  31  32
ATOM     32  C   UNL     1       4.938   0.215   0.862  1.00  0.00     0.188 C 
BRANCH  32  33
ATOM     33  O   UNL     1       4.594   1.510   1.353  1.00  0.00    -0.376 OA
BRANCH  33  34
ATOM     34  C   UNL     1       5.638   2.478   1.374  1.00  0.00     0.202 C 
BRANCH  34  35
ATOM     35  C   UNL     1       6.262   2.908   0.033  1.00  0.00     0.261 C 
BRANCH  35  36
ATOM     36  O   UNL     1       6.919   1.885  -0.739  1.00  0.00    -0.460 OA
BRANCH  36  37
ATOM     37  C   UNL     1       7.917   1.183  -0.168  1.00  0.00     0.338 C 
ATOM     38  O   UNL     1       8.383   1.321   0.949  1.00  0.00    -0.246 OA
BRANCH  37  39
ATOM     39  C   UNL     1       8.260   0.077  -1.085  1.00  0.00     0.060 A 
ATOM     40  C   UNL     1       7.992  -1.244  -0.704  1.00  0.00     0.016 A 
ATOM     41  C   UNL     1       8.827   0.353  -2.330  1.00  0.00     0.016 A 
ATOM     42  C   UNL     1       8.283  -2.296  -1.575  1.00  0.00     0.010 A 
ATOM     43  C   UNL     1       9.152  -0.703  -3.185  1.00  0.00     0.010 A 
ATOM     44  C   UNL     1       8.894  -2.032  -2.808  1.00  0.00    -0.014 A 
BRANCH  44  45
ATOM     45  C   UNL     1       9.381  -3.147  -3.656  1.00  0.00     0.031 A 
ATOM     46  C   UNL     1      10.803  -3.597  -3.518  1.00  0.00     0.074 A 
ATOM     47  C   UNL     1       8.582  -3.733  -4.564  1.00  0.00     0.049 A 
ATOM     48  N   UNL     1      11.452  -4.495  -4.210  1.00  0.00    -0.248 NA
ATOM     49  C   UNL     1      11.603  -2.934  -2.477  1.00  0.00     0.031 C 
ATOM     50  C   UNL     1       7.188  -3.379  -4.797  1.00  0.00     0.029 A 
ATOM     51  N   UNL     1       8.830  -4.743  -5.463  1.00  0.00    -0.354 N 
ATOM     52  C   UNL     1      12.748  -4.482  -3.716  1.00  0.00     0.074 A 
ATOM     53  C   UNL     1      12.791  -3.491  -2.661  1.00  0.00     0.031 C 
ATOM     54  C   UNL     1       6.704  -4.171  -5.768  1.00  0.00     0.029 A 
ATOM     55  C   UNL     1       7.747  -5.066  -6.244  1.00  0.00     0.049 A 
ATOM     56  H   UNL     1       9.702  -5.193  -5.541  1.00  0.00     0.167 HD
ATOM     57  C   UNL     1      13.807  -5.219  -4.122  1.00  0.00     0.037 A 
ATOM     58  C   UNL     1       7.602  -5.964  -7.238  1.00  0.00     0.037 A 
ATOM     59  C   UNL     1      13.762  -6.203  -5.170  1.00  0.00     0.049 A 
ATOM     60  C   UNL     1       8.799  -6.763  -7.671  1.00  0.00     0.074 A 
ATOM     61  C   UNL     1      14.781  -7.025  -5.619  1.00  0.00     0.029 A 
ATOM     62  N   UNL     1      12.647  -6.490  -5.943  1.00  0.00    -0.354 N 
ATOM     63  N   UNL     1      10.009  -6.772  -7.167  1.00  0.00    -0.248 NA
ATOM     64  C   UNL     1       8.623  -7.652  -8.829  1.00  0.00     0.031 C 
ATOM     65  C   UNL     1      14.301  -7.767  -6.702  1.00  0.00     0.029 A 
ATOM     66  C   UNL     1      12.966  -7.449  -6.892  1.00  0.00     0.049 A 
ATOM     67  H   UNL     1      11.761  -6.075  -5.835  1.00  0.00     0.167 HD
ATOM     68  C   UNL     1      10.737  -7.658  -7.948  1.00  0.00     0.074 A 
ATOM     69  C   UNL     1       9.823  -8.204  -8.929  1.00  0.00     0.031 C 
ATOM     70  C   UNL     1      12.052  -7.974  -7.872  1.00  0.00     0.037 A 
BRANCH  57  71
ATOM     71  C   UNL     1      15.124  -4.955  -3.460  1.00  0.00     0.057 A 
ATOM     72  C   UNL     1      15.395  -5.369  -2.150  1.00  0.00     0.134 A 
ATOM     73  C   UNL     1      16.155  -4.324  -4.168  1.00  0.00     0.134 A 
ATOM     74  F   UNL     1      14.443  -5.960  -1.413  1.00  0.00    -0.206 F 
ATOM     75  C   UNL     1      16.644  -5.156  -1.565  1.00  0.00     0.040 A 
ATOM     76  C   UNL     1      17.414  -4.129  -3.603  1.00  0.00     0.040 A 
ATOM     77  F   UNL     1      15.957  -3.902  -5.427  1.00  0.00    -0.206 F 
ATOM     78  C   UNL     1      17.661  -4.544  -2.296  1.00  0.00     0.006 A 
ENDBRANCH  57  71
BRANCH  58  79
ATOM     79  C   UNL     1       6.292  -6.154  -7.921  1.00  0.00     0.057 A 
ATOM     80  C   UNL     1       5.598  -7.368  -7.824  1.00  0.00     0.134 A 
ATOM     81  C   UNL     1       5.723  -5.157  -8.722  1.00  0.00     0.134 A 
ATOM     82  F   UNL     1       6.102  -8.376  -7.097  1.00  0.00    -0.206 F 
ATOM     83  C   UNL     1       4.404  -7.590  -8.514  1.00  0.00     0.040 A 
ATOM     84  C   UNL     1       4.514  -5.354  -9.393  1.00  0.00     0.040 A 
ATOM     85  F   UNL     1       6.328  -3.967  -8.856  1.00  0.00    -0.206 F 
ATOM     86  C   UNL     1       3.856  -6.578  -9.297  1.00  0.00     0.006 A 
ENDBRANCH  58  79
BRANCH  70  87
ATOM     87  C   UNL     1      12.579  -8.947  -8.884  1.00  0.00     0.057 A 
ATOM     88  C   UNL     1      12.742  -8.590 -10.229  1.00  0.00     0.134 A 
ATOM     89  C   UNL     1      12.958 -10.241  -8.507  1.00  0.00     0.134 A 
ATOM     90  F   UNL     1      12.382  -7.370 -10.657  1.00  0.00    -0.206 F 
ATOM     91  C   UNL     1      13.243  -9.493 -11.167  1.00  0.00     0.040 A 
ATOM     92  C   UNL     1      13.487 -11.143  -9.430  1.00  0.00     0.040 A 
ATOM     93  F   UNL     1      12.833 -10.644  -7.233  1.00  0.00    -0.206 F 
ATOM     94  C   UNL     1      13.625 -10.772 -10.766  1.00  0.00     0.006 A 
ENDBRANCH  70  87
ENDBRANCH  44  45
ENDBRANCH  37  39
ENDBRANCH  36  37
ENDBRANCH  35  36
ENDBRANCH  34  35
ENDBRANCH  33  34
ENDBRANCH  32  33
ENDBRANCH  31  32
ENDBRANCH  30  31
ENDBRANCH   1  30
TORSDOF 26
