REMARK SMILES Cc1ccc2c(c1)C=C(C(=O)OCCOCCOCCOCCOC(=O)c1ccc(-c3c4nc(c(-c5c(F)cccc5F)c5ccc([nH]5)c(-c5c(F)cccc5F)c5nc(c(-c6c(F)cccc6F)c6ccc3[nH]6)C=C5)C=C4)cc1)[C@@H](C(F)(F)F)O2
REMARK SMILES IDX 19 1 18 2 17 3 16 4 15 5 14 6 13 7 12 8 10 9 11 10 9 11 1 12
REMARK SMILES IDX 2 13 3 14 7 15 4 16 6 17 5 18 8 19 86 20 81 21 82 22 83 23
REMARK SMILES IDX 84 24 85 25 20 26 21 27 22 28 23 29 24 30 25 31 26 32 27 33
REMARK SMILES IDX 28 34 80 35 29 36 79 37 30 38 31 39 32 40 73 41 33 42 78 43
REMARK SMILES IDX 72 44 74 45 34 46 77 47 71 48 70 49 35 51 61 52 44 53 60 54
REMARK SMILES IDX 45 55 48 56 59 57 75 58 46 59 47 60 58 62 76 63 49 64 36 65
REMARK SMILES IDX 37 66 42 67 38 68 39 69 41 70 43 71 40 72 62 73 63 74 68 75
REMARK SMILES IDX 64 76 65 77 67 78 69 79 66 80 50 81 51 82 56 83 52 84 53 85
REMARK SMILES IDX 55 86 57 87 54 88
REMARK H PARENT 74 50 48 61
REMARK Flexibility Score: inf
ROOT
ATOM      1  C   UNL     1      -1.457   9.561  -1.426  1.00  0.00     0.188 C 
ENDROOT
BRANCH   1   2
ATOM      2  O   UNL     1      -0.900   8.305  -1.813  1.00  0.00    -0.377 OA
BRANCH   2   3
ATOM      3  C   UNL     1      -0.491   7.408  -0.795  1.00  0.00     0.188 C 
BRANCH   3   4
ATOM      4  C   UNL     1       0.817   7.806  -0.092  1.00  0.00     0.188 C 
BRANCH   4   5
ATOM      5  O   UNL     1       1.263   9.122  -0.421  1.00  0.00    -0.376 OA
BRANCH   5   6
ATOM      6  C   UNL     1       2.389   9.212  -1.286  1.00  0.00     0.202 C 
BRANCH   6   7
ATOM      7  C   UNL     1       2.104   8.905  -2.762  1.00  0.00     0.261 C 
BRANCH   7   8
ATOM      8  O   UNL     1       1.610   7.578  -3.006  1.00  0.00    -0.460 OA
BRANCH   8   9
ATOM      9  C   UNL     1       2.443   6.554  -2.735  1.00  0.00     0.338 C 
ATOM     10  O   UNL     1       3.602   6.636  -2.370  1.00  0.00    -0.246 OA
BRANCH   9  11
ATOM     11  C   UNL     1       1.669   5.298  -2.808  1.00  0.00     0.087 C 
ATOM     12  C   UNL     1       0.888  -0.120   0.018  1.00  0.00     0.044 C 
ATOM     13  C   UNL     1       0.641   0.944  -1.009  1.00  0.00    -0.050 A 
ATOM     14  C   UNL     1      -0.249   0.732  -2.067  1.00  0.00     0.007 A 
ATOM     15  C   UNL     1       1.307   2.174  -0.915  1.00  0.00     0.015 A 
ATOM     16  C   UNL     1      -0.469   1.734  -3.015  1.00  0.00     0.047 A 
ATOM     17  C   UNL     1       1.114   3.166  -1.884  1.00  0.00     0.017 A 
ATOM     18  C   UNL     1       0.211   2.948  -2.925  1.00  0.00     0.128 A 
ATOM     19  C   UNL     1       1.874   4.403  -1.834  1.00  0.00     0.027 C 
ATOM     20  O   UNL     1      -0.064   3.861  -3.900  1.00  0.00    -0.475 OA
ATOM     21  C   UNL     1       0.665   5.119  -3.918  1.00  0.00     0.316 C 
BRANCH  21  22
ATOM     22  C   UNL     1       1.307   5.281  -5.304  1.00  0.00     0.430 C 
ATOM     23  F   UNL     1       0.409   5.064  -6.295  1.00  0.00    -0.167 F 
ATOM     24  F   UNL     1       1.797   6.529  -5.497  1.00  0.00    -0.167 F 
ATOM     25  F   UNL     1       2.332   4.417  -5.490  1.00  0.00    -0.167 F 
ENDBRANCH  21  22
ENDBRANCH   9  11
ENDBRANCH   8   9
ENDBRANCH   7   8
ENDBRANCH   6   7
ENDBRANCH   5   6
ENDBRANCH   4   5
ENDBRANCH   3   4
ENDBRANCH   2   3
ENDBRANCH   1   2
BRANCH   1  26
ATOM     26  C   UNL     1      -1.432  10.073   0.032  1.00  0.00     0.188 C 
BRANCH  26  27
ATOM     27  O   UNL     1      -1.711   9.075   1.008  1.00  0.00    -0.376 OA
BRANCH  27  28
ATOM     28  C   UNL     1      -2.942   9.201   1.708  1.00  0.00     0.202 C 
BRANCH  28  29
ATOM     29  C   UNL     1      -4.139   8.665   0.917  1.00  0.00     0.261 C 
BRANCH  29  30
ATOM     30  O   UNL     1      -4.416   9.363  -0.306  1.00  0.00    -0.460 OA
BRANCH  30  31
ATOM     31  C   UNL     1      -4.717  10.678  -0.228  1.00  0.00     0.338 C 
ATOM     32  O   UNL     1      -4.822  11.358   0.777  1.00  0.00    -0.246 OA
BRANCH  31  33
ATOM     33  C   UNL     1      -4.703  11.202  -1.608  1.00  0.00     0.060 A 
ATOM     34  C   UNL     1      -5.456  10.572  -2.602  1.00  0.00     0.016 A 
ATOM     35  C   UNL     1      -3.878  12.290  -1.920  1.00  0.00     0.016 A 
ATOM     36  C   UNL     1      -5.396  11.042  -3.913  1.00  0.00     0.010 A 
ATOM     37  C   UNL     1      -3.809  12.752  -3.236  1.00  0.00     0.010 A 
ATOM     38  C   UNL     1      -4.581  12.140  -4.236  1.00  0.00    -0.014 A 
BRANCH  38  39
ATOM     39  C   UNL     1      -4.671  12.738  -5.587  1.00  0.00     0.031 A 
ATOM     40  C   UNL     1      -3.690  12.409  -6.669  1.00  0.00     0.074 A 
ATOM     41  C   UNL     1      -5.686  13.589  -5.825  1.00  0.00     0.049 A 
ATOM     42  N   UNL     1      -3.691  12.794  -7.920  1.00  0.00    -0.248 NA
ATOM     43  C   UNL     1      -2.563  11.540  -6.303  1.00  0.00     0.031 C 
ATOM     44  C   UNL     1      -6.694  13.987  -4.840  1.00  0.00     0.029 A 
ATOM     45  N   UNL     1      -6.040  14.265  -6.962  1.00  0.00    -0.354 N 
ATOM     46  C   UNL     1      -2.585  12.193  -8.504  1.00  0.00     0.074 A 
ATOM     47  C   UNL     1      -1.908  11.456  -7.455  1.00  0.00     0.031 C 
ATOM     48  C   UNL     1      -7.561  14.831  -5.420  1.00  0.00     0.029 A 
ATOM     49  C   UNL     1      -7.158  15.046  -6.806  1.00  0.00     0.049 A 
ATOM     50  H   UNL     1      -5.542  14.197  -7.809  1.00  0.00     0.167 HD
ATOM     51  C   UNL     1      -2.186  12.242  -9.799  1.00  0.00     0.037 A 
ATOM     52  C   UNL     1      -7.786  15.849  -7.683  1.00  0.00     0.037 A 
ATOM     53  C   UNL     1      -2.849  13.002 -10.831  1.00  0.00     0.049 A 
ATOM     54  C   UNL     1      -7.270  15.948  -9.088  1.00  0.00     0.074 A 
ATOM     55  C   UNL     1      -2.543  13.080 -12.179  1.00  0.00     0.029 A 
ATOM     56  N   UNL     1      -3.941  13.833 -10.624  1.00  0.00    -0.354 N 
ATOM     57  N   UNL     1      -6.271  15.311  -9.649  1.00  0.00    -0.248 NA
ATOM     58  C   UNL     1      -7.972  16.877  -9.983  1.00  0.00     0.031 C 
ATOM     59  C   UNL     1      -3.416  13.997 -12.777  1.00  0.00     0.029 A 
ATOM     60  C   UNL     1      -4.295  14.457 -11.811  1.00  0.00     0.049 A 
ATOM     61  H   UNL     1      -4.397  13.960  -9.761  1.00  0.00     0.167 HD
ATOM     62  C   UNL     1      -6.234  15.748 -10.965  1.00  0.00     0.074 A 
ATOM     63  C   UNL     1      -7.326  16.687 -11.125  1.00  0.00     0.031 C 
ATOM     64  C   UNL     1      -5.373  15.403 -11.953  1.00  0.00     0.037 A 
BRANCH  51  65
ATOM     65  C   UNL     1      -0.969  11.448 -10.179  1.00  0.00     0.057 A 
ATOM     66  C   UNL     1       0.228  12.086 -10.528  1.00  0.00     0.134 A 
ATOM     67  C   UNL     1      -1.002  10.049 -10.256  1.00  0.00     0.134 A 
ATOM     68  F   UNL     1       0.324  13.423 -10.489  1.00  0.00    -0.206 F 
ATOM     69  C   UNL     1       1.348  11.361 -10.941  1.00  0.00     0.040 A 
ATOM     70  C   UNL     1       0.119   9.312 -10.645  1.00  0.00     0.040 A 
ATOM     71  F   UNL     1      -2.117   9.377  -9.933  1.00  0.00    -0.206 F 
ATOM     72  C   UNL     1       1.296   9.970 -10.995  1.00  0.00     0.006 A 
ENDBRANCH  51  65
BRANCH  52  73
ATOM     73  C   UNL     1      -8.981  16.617  -7.259  1.00  0.00     0.057 A 
ATOM     74  C   UNL     1      -8.876  17.692  -6.369  1.00  0.00     0.134 A 
ATOM     75  C   UNL     1     -10.253  16.300  -7.747  1.00  0.00     0.134 A 
ATOM     76  F   UNL     1      -7.684  18.039  -5.862  1.00  0.00    -0.206 F 
ATOM     77  C   UNL     1      -9.996  18.425  -5.977  1.00  0.00     0.040 A 
ATOM     78  C   UNL     1     -11.378  17.039  -7.382  1.00  0.00     0.040 A 
ATOM     79  F   UNL     1     -10.410  15.290  -8.615  1.00  0.00    -0.206 F 
ATOM     80  C   UNL     1     -11.251  18.104  -6.491  1.00  0.00     0.006 A 
ENDBRANCH  52  73
BRANCH  64  81
ATOM     81  C   UNL     1      -5.587  16.048 -13.292  1.00  0.00     0.057 A 
ATOM     82  C   UNL     1      -6.095  15.313 -14.370  1.00  0.00     0.134 A 
ATOM     83  C   UNL     1      -5.290  17.399 -13.512  1.00  0.00     0.134 A 
ATOM     84  F   UNL     1      -6.398  14.014 -14.228  1.00  0.00    -0.206 F 
ATOM     85  C   UNL     1      -6.299  15.899 -15.621  1.00  0.00     0.040 A 
ATOM     86  C   UNL     1      -5.514  18.003 -14.751  1.00  0.00     0.040 A 
ATOM     87  F   UNL     1      -4.821  18.163 -12.514  1.00  0.00    -0.206 F 
ATOM     88  C   UNL     1      -6.015  17.250 -15.811  1.00  0.00     0.006 A 
ENDBRANCH  64  81
ENDBRANCH  38  39
ENDBRANCH  31  33
ENDBRANCH  30  31
ENDBRANCH  29  30
ENDBRANCH  28  29
ENDBRANCH  27  28
ENDBRANCH  26  27
ENDBRANCH   1  26
TORSDOF 21
