REMARK SMILES CC(C)[C@@H]([NH2+][C@@H]1CSCC(C)(C)C1)C(=O)OCCOCCOCCOCCOC(=O)c1ccc(-c2c3nc(c(-c4c(F)cccc4F)c4ccc([nH]4)c(-c4c(F)cccc4F)c4nc(c(-c5c(F)cccc5F)c5ccc2[nH]5)C=C4)C=C3)cc1
REMARK SMILES IDX 22 1 21 2 20 3 19 4 18 5 17 6 16 7 14 8 15 9 4 10 2 11 1 12
REMARK SMILES IDX 3 13 5 14 6 17 7 18 13 19 8 20 10 21 9 22 11 23 12 24 23 25
REMARK SMILES IDX 24 26 25 27 26 28 27 29 28 30 29 31 30 32 31 33 32 34 84 35
REMARK SMILES IDX 33 36 83 37 34 38 35 39 36 40 77 41 37 42 82 43 76 44 78 45
REMARK SMILES IDX 38 46 81 47 75 48 74 49 39 51 65 52 48 53 64 54 49 55 52 56
REMARK SMILES IDX 63 57 79 58 50 59 51 60 62 62 80 63 53 64 40 65 41 66 46 67
REMARK SMILES IDX 42 68 43 69 45 70 47 71 44 72 66 73 67 74 72 75 68 76 69 77
REMARK SMILES IDX 71 78 73 79 70 80 54 81 55 82 60 83 56 84 57 85 59 86 61 87
REMARK SMILES IDX 58 88
REMARK H PARENT 5 15 5 16 78 50 52 61
REMARK Flexibility Score: inf
ROOT
ATOM      1  O   UNL     1      -0.128   4.456   1.159  1.00  0.00    -0.377 OA
ENDROOT
BRANCH   1   2
ATOM      2  C   UNL     1      -1.008   4.757   0.101  1.00  0.00     0.188 C 
BRANCH   2   3
ATOM      3  C   UNL     1      -2.469   4.910   0.522  1.00  0.00     0.188 C 
BRANCH   3   4
ATOM      4  O   UNL     1      -2.799   5.596   1.714  1.00  0.00    -0.376 OA
BRANCH   4   5
ATOM      5  C   UNL     1      -2.225   5.276   2.975  1.00  0.00     0.202 C 
BRANCH   5   6
ATOM      6  C   UNL     1      -2.086   3.841   3.545  1.00  0.00     0.261 C 
BRANCH   6   7
ATOM      7  O   UNL     1      -1.187   2.916   2.877  1.00  0.00    -0.459 OA
BRANCH   7   8
ATOM      8  C   UNL     1      -1.833   2.104   2.012  1.00  0.00     0.365 C 
ATOM      9  O   UNL     1      -3.050   2.221   1.843  1.00  0.00    -0.245 OA
BRANCH   8  10
ATOM     10  C   UNL     1      -1.014   1.025   1.207  1.00  0.00     0.296 C 
BRANCH  10  11
ATOM     11  C   UNL     1       0.555   0.915   1.315  1.00  0.00     0.053 C 
ATOM     12  C   UNL     1       1.120  -0.443   0.831  1.00  0.00     0.014 C 
ATOM     13  C   UNL     1       1.290   1.948   0.438  1.00  0.00     0.014 C 
ENDBRANCH  10  11
BRANCH  10  14
ATOM     14  N   UNL     1      -1.655  -0.310   1.451  1.00  0.00    -0.331 N 
ATOM     15  H   UNL     1      -1.523  -0.543   2.435  1.00  0.00     0.347 HD
ATOM     16  H   UNL     1      -1.201  -0.952   0.801  1.00  0.00     0.347 HD
BRANCH  14  17
ATOM     17  C   UNL     1      -3.102  -0.408   1.155  1.00  0.00     0.193 C 
ATOM     18  C   UNL     1      -3.596  -1.858   1.321  1.00  0.00     0.134 C 
ATOM     19  C   UNL     1      -3.571   0.198  -0.192  1.00  0.00     0.073 C 
ATOM     20  S   UNL     1      -3.115  -2.961  -0.040  1.00  0.00    -0.155 SA
ATOM     21  C   UNL     1      -3.225  -0.558  -1.496  1.00  0.00    -0.021 C 
ATOM     22  C   UNL     1      -3.789  -1.988  -1.427  1.00  0.00     0.076 C 
ATOM     23  C   UNL     1      -1.721  -0.579  -1.827  1.00  0.00     0.012 C 
ATOM     24  C   UNL     1      -3.907   0.207  -2.653  1.00  0.00     0.012 C 
ENDBRANCH  14  17
ENDBRANCH  10  14
ENDBRANCH   8  10
ENDBRANCH   7   8
ENDBRANCH   6   7
ENDBRANCH   5   6
ENDBRANCH   4   5
ENDBRANCH   3   4
ENDBRANCH   2   3
ENDBRANCH   1   2
BRANCH   1  25
ATOM     25  C   UNL     1       0.766   5.436   1.673  1.00  0.00     0.188 C 
BRANCH  25  26
ATOM     26  C   UNL     1       0.709   6.838   1.071  1.00  0.00     0.188 C 
BRANCH  26  27
ATOM     27  O   UNL     1       1.193   7.005  -0.264  1.00  0.00    -0.376 OA
BRANCH  27  28
ATOM     28  C   UNL     1       2.078   6.027  -0.806  1.00  0.00     0.202 C 
BRANCH  28  29
ATOM     29  C   UNL     1       3.553   6.178  -0.425  1.00  0.00     0.261 C 
BRANCH  29  30
ATOM     30  O   UNL     1       3.795   6.027   0.983  1.00  0.00    -0.460 OA
BRANCH  30  31
ATOM     31  C   UNL     1       3.858   7.178   1.684  1.00  0.00     0.338 C 
ATOM     32  O   UNL     1       3.755   8.321   1.252  1.00  0.00    -0.246 OA
BRANCH  31  33
ATOM     33  C   UNL     1       3.945   6.879   3.122  1.00  0.00     0.060 A 
ATOM     34  C   UNL     1       3.060   7.523   3.996  1.00  0.00     0.016 A 
ATOM     35  C   UNL     1       4.956   6.050   3.614  1.00  0.00     0.016 A 
ATOM     36  C   UNL     1       3.216   7.383   5.372  1.00  0.00     0.010 A 
ATOM     37  C   UNL     1       5.120   5.922   4.993  1.00  0.00     0.010 A 
ATOM     38  C   UNL     1       4.278   6.623   5.875  1.00  0.00    -0.014 A 
BRANCH  38  39
ATOM     39  C   UNL     1       4.628   6.712   7.309  1.00  0.00     0.031 A 
ATOM     40  C   UNL     1       5.761   7.612   7.717  1.00  0.00     0.074 A 
ATOM     41  C   UNL     1       3.947   6.009   8.229  1.00  0.00     0.049 A 
ATOM     42  N   UNL     1       6.301   7.788   8.895  1.00  0.00    -0.248 NA
ATOM     43  C   UNL     1       6.373   8.419   6.647  1.00  0.00     0.031 C 
ATOM     44  C   UNL     1       2.806   5.138   7.952  1.00  0.00     0.029 A 
ATOM     45  N   UNL     1       4.131   5.907   9.584  1.00  0.00    -0.354 N 
ATOM     46  C   UNL     1       7.323   8.710   8.706  1.00  0.00     0.074 A 
ATOM     47  C   UNL     1       7.347   9.037   7.297  1.00  0.00     0.031 C 
ATOM     48  C   UNL     1       2.403   4.572   9.102  1.00  0.00     0.029 A 
ATOM     49  C   UNL     1       3.281   5.013  10.185  1.00  0.00     0.049 A 
ATOM     50  H   UNL     1       4.807   6.425  10.077  1.00  0.00     0.167 HD
ATOM     51  C   UNL     1       8.161   9.239   9.627  1.00  0.00     0.037 A 
ATOM     52  C   UNL     1       3.242   4.578  11.459  1.00  0.00     0.037 A 
ATOM     53  C   UNL     1       8.127   8.907  11.027  1.00  0.00     0.049 A 
ATOM     54  C   UNL     1       4.231   5.130  12.453  1.00  0.00     0.074 A 
ATOM     55  C   UNL     1       8.914   9.404  12.050  1.00  0.00     0.029 A 
ATOM     56  N   UNL     1       7.263   7.984  11.598  1.00  0.00    -0.354 N 
ATOM     57  N   UNL     1       5.176   6.022  12.274  1.00  0.00    -0.248 NA
ATOM     58  C   UNL     1       4.144   4.618  13.827  1.00  0.00     0.031 C 
ATOM     59  C   UNL     1       8.567   8.738  13.229  1.00  0.00     0.029 A 
ATOM     60  C   UNL     1       7.518   7.874  12.954  1.00  0.00     0.049 A 
ATOM     61  H   UNL     1       6.570   7.482  11.110  1.00  0.00     0.167 HD
ATOM     62  C   UNL     1       5.774   6.201  13.516  1.00  0.00     0.074 A 
ATOM     63  C   UNL     1       5.075   5.334  14.442  1.00  0.00     0.031 C 
ATOM     64  C   UNL     1       6.805   7.011  13.861  1.00  0.00     0.037 A 
BRANCH  51  65
ATOM     65  C   UNL     1       9.207  10.203   9.145  1.00  0.00     0.057 A 
ATOM     66  C   UNL     1       8.884  11.489   8.692  1.00  0.00     0.134 A 
ATOM     67  C   UNL     1      10.562   9.848   9.165  1.00  0.00     0.134 A 
ATOM     68  F   UNL     1       7.604  11.887   8.633  1.00  0.00    -0.206 F 
ATOM     69  C   UNL     1       9.868  12.378   8.255  1.00  0.00     0.040 A 
ATOM     70  C   UNL     1      11.557  10.739   8.758  1.00  0.00     0.040 A 
ATOM     71  F   UNL     1      10.943   8.634   9.588  1.00  0.00    -0.206 F 
ATOM     72  C   UNL     1      11.210  12.006   8.296  1.00  0.00     0.006 A 
ENDBRANCH  51  65
BRANCH  52  73
ATOM     73  C   UNL     1       2.249   3.552  11.865  1.00  0.00     0.057 A 
ATOM     74  C   UNL     1       1.209   3.857  12.751  1.00  0.00     0.134 A 
ATOM     75  C   UNL     1       2.328   2.235  11.394  1.00  0.00     0.134 A 
ATOM     76  F   UNL     1       1.093   5.095  13.254  1.00  0.00    -0.206 F 
ATOM     77  C   UNL     1       0.298   2.887  13.172  1.00  0.00     0.040 A 
ATOM     78  C   UNL     1       1.406   1.262  11.783  1.00  0.00     0.040 A 
ATOM     79  F   UNL     1       3.298   1.878  10.540  1.00  0.00    -0.206 F 
ATOM     80  C   UNL     1       0.393   1.585  12.682  1.00  0.00     0.006 A 
ENDBRANCH  52  73
BRANCH  64  81
ATOM     81  C   UNL     1       7.211   7.032  15.308  1.00  0.00     0.057 A 
ATOM     82  C   UNL     1       7.861   5.950  15.915  1.00  0.00     0.134 A 
ATOM     83  C   UNL     1       6.985   8.172  16.091  1.00  0.00     0.134 A 
ATOM     84  F   UNL     1       8.098   4.824  15.224  1.00  0.00    -0.206 F 
ATOM     85  C   UNL     1       8.247   5.991  17.256  1.00  0.00     0.040 A 
ATOM     86  C   UNL     1       7.395   8.236  17.423  1.00  0.00     0.040 A 
ATOM     87  F   UNL     1       6.378   9.248  15.569  1.00  0.00    -0.206 F 
ATOM     88  C   UNL     1       8.021   7.140  18.011  1.00  0.00     0.006 A 
ENDBRANCH  64  81
ENDBRANCH  38  39
ENDBRANCH  31  33
ENDBRANCH  30  31
ENDBRANCH  29  30
ENDBRANCH  28  29
ENDBRANCH  27  28
ENDBRANCH  26  27
ENDBRANCH  25  26
ENDBRANCH   1  25
TORSDOF 23
