REMARK SMILES COc1ccc([C@H]2CC(c3ccc(S(C)(=O)=O)cc3)=NN2c2ccc(C(=O)OCCOCCOCCOCCOC(=O)c3ccc(-c4c5nc(c(-c6c(F)cccc6F)c6ccc([nH]6)c(-c6c(F)cccc6F)c6nc(c(-c7c(F)cccc7F)c7ccc4[nH]7)C=C6)C=C5)cc3)cc2)cc1
REMARK SMILES IDX 33 1 32 2 31 3 30 4 29 5 28 6 26 7 27 8 25 9 22 10 23 11
REMARK SMILES IDX 98 12 24 13 97 14 21 15 7 16 8 17 9 18 20 19 6 20 3 21 4 22
REMARK SMILES IDX 100 23 5 24 99 25 2 26 1 27 10 28 11 29 19 30 12 31 18 32
REMARK SMILES IDX 13 33 14 34 15 35 16 36 17 37 34 38 35 39 36 40 37 41 38 42
REMARK SMILES IDX 39 43 40 44 41 45 42 46 43 47 44 48 96 49 45 50 95 51 46 52
REMARK SMILES IDX 47 53 48 54 89 55 49 56 94 57 88 58 90 59 50 60 93 61 87 62
REMARK SMILES IDX 86 63 51 65 77 66 60 67 76 68 61 69 64 70 75 71 91 72 62 73
REMARK SMILES IDX 63 74 74 76 92 77 65 78 52 79 53 80 58 81 54 82 55 83 57 84
REMARK SMILES IDX 59 85 56 86 78 87 79 88 84 89 80 90 81 91 83 92 85 93 82 94
REMARK SMILES IDX 66 95 67 96 72 97 68 98 69 99 71 100 73 101 70 102
REMARK H PARENT 90 64 64 75
REMARK Flexibility Score: inf
ROOT
ATOM      1  C   UNL     1       4.377   9.822   4.373  1.00  0.00     0.188 C 
ENDROOT
BRANCH   1   2
ATOM      2  C   UNL     1       4.701   9.887   2.866  1.00  0.00     0.188 C 
BRANCH   2   3
ATOM      3  O   UNL     1       4.190  11.041   2.220  1.00  0.00    -0.376 OA
BRANCH   3   4
ATOM      4  C   UNL     1       3.091  10.901   1.341  1.00  0.00     0.202 C 
BRANCH   4   5
ATOM      5  C   UNL     1       1.768  10.353   1.896  1.00  0.00     0.261 C 
BRANCH   5   6
ATOM      6  O   UNL     1       1.864   9.193   2.731  1.00  0.00    -0.460 OA
BRANCH   6   7
ATOM      7  C   UNL     1       2.185   8.031   2.122  1.00  0.00     0.338 C 
ATOM      8  O   UNL     1       2.377   7.864   0.930  1.00  0.00    -0.246 OA
BRANCH   7   9
ATOM      9  C   UNL     1       2.466   7.022   3.170  1.00  0.00     0.060 A 
ATOM     10  C   UNL     1       3.012   5.028   5.071  1.00  0.00     0.060 A 
ATOM     11  C   UNL     1       3.899   5.263   4.013  1.00  0.00     0.029 A 
ATOM     12  C   UNL     1       1.902   5.875   5.215  1.00  0.00     0.029 A 
ATOM     13  C   UNL     1       3.612   6.229   3.046  1.00  0.00     0.018 A 
ATOM     14  C   UNL     1       1.636   6.882   4.285  1.00  0.00     0.018 A 
BRANCH  10  15
ATOM     15  N   UNL     1       3.157   3.910   5.886  1.00  0.00    -0.257 N 
ATOM     16  C   UNL     1       2.151   2.842   5.896  1.00  0.00     0.144 C 
ATOM     17  C   UNL     1       2.843   1.735   6.697  1.00  0.00     0.091 C 
ATOM     18  C   UNL     1       4.184   2.374   6.931  1.00  0.00     0.071 C 
ATOM     19  N   UNL     1       4.348   3.565   6.443  1.00  0.00    -0.176 NA
BRANCH  16  20
ATOM     20  C   UNL     1       1.742   2.396   4.496  1.00  0.00    -0.023 A 
ATOM     21  C   UNL     1       0.933   1.603   1.909  1.00  0.00     0.118 A 
ATOM     22  C   UNL     1       0.029   2.216   2.776  1.00  0.00     0.047 A 
ATOM     23  C   UNL     1       2.254   1.422   2.315  1.00  0.00     0.047 A 
ATOM     24  C   UNL     1       0.424   2.602   4.059  1.00  0.00     0.010 A 
ATOM     25  C   UNL     1       2.656   1.821   3.596  1.00  0.00     0.010 A 
BRANCH  21  26
ATOM     26  O   UNL     1       0.434   1.277   0.678  1.00  0.00    -0.497 OA
ATOM     27  C   UNL     1       1.028   0.143   0.056  1.00  0.00     0.278 C 
ENDBRANCH  21  26
ENDBRANCH  16  20
BRANCH  18  28
ATOM     28  C   UNL     1       5.205   1.682   7.729  1.00  0.00    -0.002 A 
ATOM     29  C   UNL     1       5.706   2.318   8.870  1.00  0.00     0.011 A 
ATOM     30  C   UNL     1       5.638   0.402   7.374  1.00  0.00     0.011 A 
ATOM     31  C   UNL     1       6.643   1.664   9.672  1.00  0.00     0.021 A 
ATOM     32  C   UNL     1       6.595  -0.243   8.160  1.00  0.00     0.021 A 
ATOM     33  C   UNL     1       7.094   0.392   9.303  1.00  0.00     0.067 A 
BRANCH  33  34
ATOM     34  S   UNL     1       8.294  -0.432  10.326  1.00  0.00     0.175 S 
ATOM     35  C   UNL     1       9.714   0.631  10.281  1.00  0.00     0.163 C 
ATOM     36  O   UNL     1       7.762  -0.433  11.674  1.00  0.00    -0.224 OA
ATOM     37  O   UNL     1       8.657  -1.671   9.663  1.00  0.00    -0.224 OA
ENDBRANCH  33  34
ENDBRANCH  18  28
ENDBRANCH  10  15
ENDBRANCH   7   9
ENDBRANCH   6   7
ENDBRANCH   5   6
ENDBRANCH   4   5
ENDBRANCH   3   4
ENDBRANCH   2   3
ENDBRANCH   1   2
BRANCH   1  38
ATOM     38  O   UNL     1       3.455  10.757   4.915  1.00  0.00    -0.377 OA
BRANCH  38  39
ATOM     39  C   UNL     1       3.596  12.147   4.632  1.00  0.00     0.188 C 
BRANCH  39  40
ATOM     40  C   UNL     1       4.948  12.768   4.207  1.00  0.00     0.188 C 
BRANCH  40  41
ATOM     41  O   UNL     1       6.064  11.904   4.326  1.00  0.00    -0.376 OA
BRANCH  41  42
ATOM     42  C   UNL     1       6.987  12.157   5.368  1.00  0.00     0.202 C 
BRANCH  42  43
ATOM     43  C   UNL     1       6.462  12.017   6.803  1.00  0.00     0.261 C 
BRANCH  43  44
ATOM     44  O   UNL     1       5.289  12.782   7.122  1.00  0.00    -0.460 OA
BRANCH  44  45
ATOM     45  C   UNL     1       5.406  14.126   7.125  1.00  0.00     0.338 C 
ATOM     46  O   UNL     1       6.409  14.782   6.894  1.00  0.00    -0.246 OA
BRANCH  45  47
ATOM     47  C   UNL     1       4.051  14.691   7.278  1.00  0.00     0.060 A 
ATOM     48  C   UNL     1       3.527  15.499   6.260  1.00  0.00     0.016 A 
ATOM     49  C   UNL     1       3.294  14.406   8.417  1.00  0.00     0.016 A 
ATOM     50  C   UNL     1       2.253  16.051   6.395  1.00  0.00     0.010 A 
ATOM     51  C   UNL     1       2.027  14.977   8.560  1.00  0.00     0.010 A 
ATOM     52  C   UNL     1       1.515  15.828   7.564  1.00  0.00    -0.014 A 
BRANCH  52  53
ATOM     53  C   UNL     1       0.293  16.625   7.826  1.00  0.00     0.031 A 
ATOM     54  C   UNL     1       0.400  17.826   8.725  1.00  0.00     0.074 A 
ATOM     55  C   UNL     1      -0.887  16.300   7.272  1.00  0.00     0.049 A 
ATOM     56  N   UNL     1      -0.532  18.650   9.129  1.00  0.00    -0.248 NA
ATOM     57  C   UNL     1       1.743  18.133   9.242  1.00  0.00     0.031 C 
ATOM     58  C   UNL     1      -1.114  15.178   6.366  1.00  0.00     0.029 A 
ATOM     59  N   UNL     1      -2.122  16.884   7.407  1.00  0.00    -0.354 N 
ATOM     60  C   UNL     1       0.108  19.563   9.957  1.00  0.00     0.074 A 
ATOM     61  C   UNL     1       1.500  19.174  10.021  1.00  0.00     0.031 C 
ATOM     62  C   UNL     1      -2.417  15.142   6.038  1.00  0.00     0.029 A 
ATOM     63  C   UNL     1      -3.119  16.219   6.737  1.00  0.00     0.049 A 
ATOM     64  H   UNL     1      -2.278  17.701   7.934  1.00  0.00     0.167 HD
ATOM     65  C   UNL     1      -0.416  20.632  10.602  1.00  0.00     0.037 A 
ATOM     66  C   UNL     1      -4.448  16.438   6.714  1.00  0.00     0.037 A 
ATOM     67  C   UNL     1      -1.803  21.012  10.538  1.00  0.00     0.049 A 
ATOM     68  C   UNL     1      -5.021  17.599   7.484  1.00  0.00     0.074 A 
ATOM     69  C   UNL     1      -2.426  22.102  11.120  1.00  0.00     0.029 A 
ATOM     70  N   UNL     1      -2.787  20.302   9.866  1.00  0.00    -0.354 N 
ATOM     71  N   UNL     1      -4.404  18.486   8.226  1.00  0.00    -0.248 NA
ATOM     72  C   UNL     1      -6.477  17.792   7.408  1.00  0.00     0.031 C 
ATOM     73  C   UNL     1      -3.797  22.012  10.859  1.00  0.00     0.029 A 
ATOM     74  C   UNL     1      -4.020  20.907  10.053  1.00  0.00     0.049 A 
ATOM     75  H   UNL     1      -2.633  19.488   9.334  1.00  0.00     0.167 HD
ATOM     76  C   UNL     1      -5.388  19.354   8.686  1.00  0.00     0.074 A 
ATOM     77  C   UNL     1      -6.642  18.895   8.125  1.00  0.00     0.031 C 
ATOM     78  C   UNL     1      -5.264  20.435   9.496  1.00  0.00     0.037 A 
BRANCH  65  79
ATOM     79  C   UNL     1       0.510  21.434  11.471  1.00  0.00     0.057 A 
ATOM     80  C   UNL     1       1.543  22.220  10.940  1.00  0.00     0.134 A 
ATOM     81  C   UNL     1       0.361  21.424  12.864  1.00  0.00     0.134 A 
ATOM     82  F   UNL     1       1.752  22.264   9.616  1.00  0.00    -0.206 F 
ATOM     83  C   UNL     1       2.414  22.934  11.764  1.00  0.00     0.040 A 
ATOM     84  C   UNL     1       1.205  22.160  13.696  1.00  0.00     0.040 A 
ATOM     85  F   UNL     1      -0.610  20.698  13.440  1.00  0.00    -0.206 F 
ATOM     86  C   UNL     1       2.242  22.910  13.147  1.00  0.00     0.006 A 
ENDBRANCH  65  79
BRANCH  66  87
ATOM     87  C   UNL     1      -5.330  15.523   5.946  1.00  0.00     0.057 A 
ATOM     88  C   UNL     1      -5.988  15.944   4.785  1.00  0.00     0.134 A 
ATOM     89  C   UNL     1      -5.532  14.198   6.356  1.00  0.00     0.134 A 
ATOM     90  F   UNL     1      -5.856  17.207   4.355  1.00  0.00    -0.206 F 
ATOM     91  C   UNL     1      -6.820  15.085   4.064  1.00  0.00     0.040 A 
ATOM     92  C   UNL     1      -6.339  13.321   5.631  1.00  0.00     0.040 A 
ATOM     93  F   UNL     1      -4.931  13.733   7.462  1.00  0.00    -0.206 F 
ATOM     94  C   UNL     1      -6.990  13.766   4.483  1.00  0.00     0.006 A 
ENDBRANCH  66  87
BRANCH  78  95
ATOM     95  C   UNL     1      -6.511  21.216   9.805  1.00  0.00     0.057 A 
ATOM     96  C   UNL     1      -7.524  20.706  10.628  1.00  0.00     0.134 A 
ATOM     97  C   UNL     1      -6.682  22.514   9.305  1.00  0.00     0.134 A 
ATOM     98  F   UNL     1      -7.431  19.467  11.134  1.00  0.00    -0.206 F 
ATOM     99  C   UNL     1      -8.671  21.447  10.919  1.00  0.00     0.040 A 
ATOM    100  C   UNL     1      -7.809  23.276   9.615  1.00  0.00     0.040 A 
ATOM    101  F   UNL     1      -5.747  23.070   8.520  1.00  0.00    -0.206 F 
ATOM    102  C   UNL     1      -8.812  22.740  10.418  1.00  0.00     0.006 A 
ENDBRANCH  78  95
ENDBRANCH  52  53
ENDBRANCH  45  47
ENDBRANCH  44  45
ENDBRANCH  43  44
ENDBRANCH  42  43
ENDBRANCH  41  42
ENDBRANCH  40  41
ENDBRANCH  39  40
ENDBRANCH  38  39
ENDBRANCH   1  38
TORSDOF 25
