REMARK SMILES CC1=C([C@H](NC(=O)[C@@H]2[C@H](C)c3cc(F)ccc3N2C)C(=O)OCCOCCOCCOCCOC(=O)c2ccc(-c3c4nc(c(-c5c(F)cccc5F)c5ccc([nH]5)c(-c5c(F)cccc5F)c5nc(c(-c6c(F)cccc6F)c6ccc3[nH]6)C=C5)C=C4)cc2)[C@@H](C)N=N1
REMARK SMILES IDX 28 1 27 2 26 3 25 4 24 5 23 6 22 7 20 8 21 9 4 10 3 11 1 12
REMARK SMILES IDX 2 13 94 14 91 15 93 16 92 17 5 18 6 19 7 21 8 22 9 23 18 24
REMARK SMILES IDX 11 25 10 26 17 27 19 28 12 29 16 30 13 31 15 32 14 33 29 34
REMARK SMILES IDX 30 35 31 36 32 37 33 38 34 39 35 40 36 41 37 42 38 43 90 44
REMARK SMILES IDX 39 45 89 46 40 47 41 48 42 49 83 50 43 51 88 52 82 53 84 54
REMARK SMILES IDX 44 55 87 56 81 57 80 58 45 60 71 61 54 62 70 63 55 64 58 65
REMARK SMILES IDX 69 66 85 67 56 68 57 69 68 71 86 72 59 73 46 74 47 75 52 76
REMARK SMILES IDX 48 77 49 78 51 79 53 80 50 81 72 82 73 83 78 84 74 85 75 86
REMARK SMILES IDX 77 87 79 88 76 89 60 90 61 91 66 92 62 93 63 94 65 95 67 96
REMARK SMILES IDX 64 97
REMARK H PARENT 5 20 84 59 58 70
REMARK Flexibility Score: inf
ROOT
ATOM      1  O   UNL     1       4.050   0.800   2.916  1.00  0.00    -0.377 OA
ENDROOT
BRANCH   1   2
ATOM      2  C   UNL     1       3.143   1.736   2.381  1.00  0.00     0.188 C 
BRANCH   2   3
ATOM      3  C   UNL     1       3.821   3.029   1.923  1.00  0.00     0.188 C 
BRANCH   3   4
ATOM      4  O   UNL     1       4.320   3.906   2.927  1.00  0.00    -0.376 OA
BRANCH   4   5
ATOM      5  C   UNL     1       3.466   4.460   3.923  1.00  0.00     0.202 C 
BRANCH   5   6
ATOM      6  C   UNL     1       2.050   4.888   3.558  1.00  0.00     0.261 C 
BRANCH   6   7
ATOM      7  O   UNL     1       1.200   3.772   3.220  1.00  0.00    -0.461 OA
BRANCH   7   8
ATOM      8  C   UNL     1       0.565   3.863   2.032  1.00  0.00     0.333 C 
ATOM      9  O   UNL     1       0.717   4.798   1.249  1.00  0.00    -0.249 OA
BRANCH   8  10
ATOM     10  C   UNL     1      -0.439   2.721   1.747  1.00  0.00     0.223 C 
BRANCH  10  11
ATOM     11  C   UNL     1      -1.781   3.334   1.533  1.00  0.00     0.012 C 
ATOM     12  C   UNL     1      -2.120   2.862  -0.944  1.00  0.00     0.069 C 
ATOM     13  C   UNL     1      -2.471   3.424   0.390  1.00  0.00     0.064 C 
ATOM     14  N   UNL     1      -3.589   4.206   0.513  1.00  0.00    -0.160 NA
ATOM     15  C   UNL     1      -2.573   4.127   2.522  1.00  0.00     0.156 C 
ATOM     16  N   UNL     1      -3.669   4.676   1.680  1.00  0.00    -0.181 NA
ATOM     17  C   UNL     1      -1.864   5.277   3.224  1.00  0.00     0.040 C 
ENDBRANCH  10  11
BRANCH  10  18
ATOM     18  N   UNL     1      -0.567   1.375   2.316  1.00  0.00    -0.337 N 
ATOM     19  C   UNL     1      -1.075   0.778   3.424  1.00  0.00     0.244 C 
ATOM     20  H   UNL     1      -0.164   0.706   1.716  1.00  0.00     0.164 HD
ATOM     21  O   UNL     1      -1.291  -0.434   3.302  1.00  0.00    -0.273 OA
BRANCH  19  22
ATOM     22  C   UNL     1      -1.305   1.523   4.738  1.00  0.00     0.178 C 
ATOM     23  C   UNL     1       0.016   1.875   5.459  1.00  0.00     0.050 C 
ATOM     24  N   UNL     1      -2.108   0.763   5.731  1.00  0.00    -0.362 N 
ATOM     25  C   UNL     1      -0.465   1.912   6.878  1.00  0.00    -0.016 A 
ATOM     26  C   UNL     1       1.134   0.834   5.359  1.00  0.00     0.015 C 
ATOM     27  C   UNL     1      -1.641   1.158   6.982  1.00  0.00     0.041 A 
ATOM     28  C   UNL     1      -3.500   0.437   5.527  1.00  0.00     0.144 C 
ATOM     29  C   UNL     1       0.171   2.447   7.979  1.00  0.00     0.045 A 
ATOM     30  C   UNL     1      -2.165   0.864   8.227  1.00  0.00     0.029 A 
ATOM     31  C   UNL     1      -0.346   2.108   9.219  1.00  0.00     0.123 A 
ATOM     32  C   UNL     1      -1.498   1.333   9.357  1.00  0.00     0.041 A 
ATOM     33  F   UNL     1       0.314   2.445  10.324  1.00  0.00    -0.207 F 
ENDBRANCH  19  22
ENDBRANCH  10  18
ENDBRANCH   8  10
ENDBRANCH   7   8
ENDBRANCH   6   7
ENDBRANCH   5   6
ENDBRANCH   4   5
ENDBRANCH   3   4
ENDBRANCH   2   3
ENDBRANCH   1   2
BRANCH   1  34
ATOM     34  C   UNL     1       4.571   1.110   4.197  1.00  0.00     0.188 C 
BRANCH  34  35
ATOM     35  C   UNL     1       6.096   1.086   4.185  1.00  0.00     0.188 C 
BRANCH  35  36
ATOM     36  O   UNL     1       6.807  -0.054   3.698  1.00  0.00    -0.376 OA
BRANCH  36  37
ATOM     37  C   UNL     1       6.085  -1.156   3.165  1.00  0.00     0.202 C 
BRANCH  37  38
ATOM     38  C   UNL     1       5.589  -2.167   4.212  1.00  0.00     0.261 C 
BRANCH  38  39
ATOM     39  O   UNL     1       5.005  -1.548   5.369  1.00  0.00    -0.460 OA
BRANCH  39  40
ATOM     40  C   UNL     1       5.709  -1.607   6.524  1.00  0.00     0.338 C 
ATOM     41  O   UNL     1       6.662  -2.325   6.782  1.00  0.00    -0.246 OA
BRANCH  40  42
ATOM     42  C   UNL     1       5.296  -0.453   7.353  1.00  0.00     0.060 A 
ATOM     43  C   UNL     1       3.955  -0.179   7.617  1.00  0.00     0.016 A 
ATOM     44  C   UNL     1       6.287   0.466   7.723  1.00  0.00     0.016 A 
ATOM     45  C   UNL     1       3.609   1.057   8.165  1.00  0.00     0.010 A 
ATOM     46  C   UNL     1       5.931   1.712   8.244  1.00  0.00     0.010 A 
ATOM     47  C   UNL     1       4.584   2.035   8.424  1.00  0.00    -0.014 A 
BRANCH  47  48
ATOM     48  C   UNL     1       4.152   3.348   8.947  1.00  0.00     0.031 A 
ATOM     49  C   UNL     1       3.466   3.348  10.278  1.00  0.00     0.074 A 
ATOM     50  C   UNL     1       4.419   4.536   8.355  1.00  0.00     0.049 A 
ATOM     51  N   UNL     1       2.446   4.061  10.636  1.00  0.00    -0.248 NA
ATOM     52  C   UNL     1       3.965   2.451  11.333  1.00  0.00     0.031 C 
ATOM     53  C   UNL     1       5.294   4.774   7.205  1.00  0.00     0.029 A 
ATOM     54  N   UNL     1       4.046   5.809   8.728  1.00  0.00    -0.354 N 
ATOM     55  C   UNL     1       2.195   3.747  11.973  1.00  0.00     0.074 A 
ATOM     56  C   UNL     1       3.159   2.749  12.354  1.00  0.00     0.031 C 
ATOM     57  C   UNL     1       5.563   6.095   7.117  1.00  0.00     0.029 A 
ATOM     58  C   UNL     1       4.796   6.811   8.126  1.00  0.00     0.049 A 
ATOM     59  H   UNL     1       3.316   5.992   9.363  1.00  0.00     0.167 HD
ATOM     60  C   UNL     1       1.270   4.411  12.716  1.00  0.00     0.037 A 
ATOM     61  C   UNL     1       4.856   8.127   8.447  1.00  0.00     0.037 A 
ATOM     62  C   UNL     1       0.300   5.111  11.922  1.00  0.00     0.049 A 
ATOM     63  C   UNL     1       3.628   8.530   9.166  1.00  0.00     0.074 A 
ATOM     64  C   UNL     1      -0.984   4.922  11.466  1.00  0.00     0.029 A 
ATOM     65  N   UNL     1       0.784   6.223  11.310  1.00  0.00    -0.354 N 
ATOM     66  N   UNL     1       2.457   8.633   8.606  1.00  0.00    -0.248 NA
ATOM     67  C   UNL     1       3.633   8.619  10.623  1.00  0.00     0.031 C 
ATOM     68  C   UNL     1      -1.215   5.917  10.468  1.00  0.00     0.029 A 
ATOM     69  C   UNL     1      -0.075   6.705  10.364  1.00  0.00     0.049 A 
ATOM     70  H   UNL     1       1.652   6.635  11.524  1.00  0.00     0.167 HD
ATOM     71  C   UNL     1       1.571   8.361   9.627  1.00  0.00     0.074 A 
ATOM     72  C   UNL     1       2.321   8.558  10.859  1.00  0.00     0.031 C 
ATOM     73  C   UNL     1       0.432   7.646   9.398  1.00  0.00     0.037 A 
BRANCH  60  74
ATOM     74  C   UNL     1       1.503   4.836  14.146  1.00  0.00     0.057 A 
ATOM     75  C   UNL     1       2.794   5.034  14.673  1.00  0.00     0.134 A 
ATOM     76  C   UNL     1       0.456   5.447  14.863  1.00  0.00     0.134 A 
ATOM     77  F   UNL     1       3.888   4.547  14.072  1.00  0.00    -0.206 F 
ATOM     78  C   UNL     1       3.034   5.841  15.789  1.00  0.00     0.040 A 
ATOM     79  C   UNL     1       0.691   6.289  15.956  1.00  0.00     0.040 A 
ATOM     80  F   UNL     1      -0.820   5.314  14.470  1.00  0.00    -0.206 F 
ATOM     81  C   UNL     1       1.986   6.505  16.409  1.00  0.00     0.006 A 
ENDBRANCH  60  74
BRANCH  61  82
ATOM     82  C   UNL     1       5.997   9.060   8.288  1.00  0.00     0.057 A 
ATOM     83  C   UNL     1       7.323   8.607   8.398  1.00  0.00     0.134 A 
ATOM     84  C   UNL     1       5.822  10.452   8.270  1.00  0.00     0.134 A 
ATOM     85  F   UNL     1       7.599   7.300   8.515  1.00  0.00    -0.206 F 
ATOM     86  C   UNL     1       8.411   9.480   8.477  1.00  0.00     0.040 A 
ATOM     87  C   UNL     1       6.903  11.339   8.363  1.00  0.00     0.040 A 
ATOM     88  F   UNL     1       4.594  10.987   8.217  1.00  0.00    -0.206 F 
ATOM     89  C   UNL     1       8.203  10.853   8.472  1.00  0.00     0.006 A 
ENDBRANCH  61  82
BRANCH  73  90
ATOM     90  C   UNL     1      -0.169   7.715   8.033  1.00  0.00     0.057 A 
ATOM     91  C   UNL     1      -1.471   8.216   7.901  1.00  0.00     0.134 A 
ATOM     92  C   UNL     1       0.487   7.330   6.857  1.00  0.00     0.134 A 
ATOM     93  F   UNL     1      -2.181   8.562   8.986  1.00  0.00    -0.206 F 
ATOM     94  C   UNL     1      -2.078   8.373   6.655  1.00  0.00     0.040 A 
ATOM     95  C   UNL     1      -0.088   7.541   5.602  1.00  0.00     0.040 A 
ATOM     96  F   UNL     1       1.684   6.725   6.888  1.00  0.00    -0.206 F 
ATOM     97  C   UNL     1      -1.372   8.065   5.498  1.00  0.00     0.006 A 
ENDBRANCH  73  90
ENDBRANCH  47  48
ENDBRANCH  40  42
ENDBRANCH  39  40
ENDBRANCH  38  39
ENDBRANCH  37  38
ENDBRANCH  36  37
ENDBRANCH  35  36
ENDBRANCH  34  35
ENDBRANCH   1  34
TORSDOF 23
