REMARK SMILES O=C(OCCOCCOCCOCCOC(=O)[C@@H]1CCCN(c2ccc3cc(S(=O)(=O)N4CCCCC4)ccc3n2)C1)c1ccc(-c2c3nc(c(-c4c(F)cccc4F)c4ccc([nH]4)c(-c4c(F)cccc4F)c4nc(c(-c5c(F)cccc5F)c5ccc2[nH]5)C=C4)C=C3)cc1
REMARK SMILES IDX 10 1 9 2 8 3 7 4 6 5 5 6 4 7 3 8 2 9 1 10 43 11 44 12 96 13
REMARK SMILES IDX 45 14 95 15 46 16 47 17 48 18 89 19 49 20 94 21 88 22 90 23
REMARK SMILES IDX 50 24 93 25 87 26 86 27 51 29 77 30 60 31 76 32 61 33 64 34
REMARK SMILES IDX 75 35 91 36 62 37 63 38 74 40 92 41 65 42 52 43 53 44 58 45
REMARK SMILES IDX 54 46 55 47 57 48 59 49 56 50 78 51 79 52 84 53 80 54 81 55
REMARK SMILES IDX 83 56 85 57 82 58 66 59 67 60 72 61 68 62 69 63 71 64 73 65
REMARK SMILES IDX 70 66 11 67 12 68 13 69 14 70 15 71 16 72 17 73 18 74 19 75
REMARK SMILES IDX 42 76 20 77 22 78 21 79 23 80 24 81 41 82 25 83 40 84 26 85
REMARK SMILES IDX 39 86 27 87 38 88 28 89 29 90 30 91 31 92 32 93 33 94 37 95
REMARK SMILES IDX 34 96 36 97 35 98
REMARK H PARENT 90 28 64 39
REMARK Flexibility Score: inf
ROOT
ATOM      1  C   UNL     1       5.080  -3.730   0.374  1.00  0.00     0.188 C 
ENDROOT
BRANCH   1   2
ATOM      2  O   UNL     1       3.656  -3.714   0.430  1.00  0.00    -0.377 OA
BRANCH   2   3
ATOM      3  C   UNL     1       2.975  -2.954  -0.557  1.00  0.00     0.188 C 
BRANCH   3   4
ATOM      4  C   UNL     1       3.148  -1.473  -0.359  1.00  0.00     0.188 C 
BRANCH   4   5
ATOM      5  O   UNL     1       4.512  -1.084  -0.476  1.00  0.00    -0.376 OA
BRANCH   5   6
ATOM      6  C   UNL     1       4.982  -0.305   0.634  1.00  0.00     0.202 C 
BRANCH   6   7
ATOM      7  C   UNL     1       4.434   1.132   0.732  1.00  0.00     0.261 C 
BRANCH   7   8
ATOM      8  O   UNL     1       3.064   1.284   0.324  1.00  0.00    -0.460 OA
BRANCH   8   9
ATOM      9  C   UNL     1       2.528   1.430  -0.910  1.00  0.00     0.338 C 
ATOM     10  O   UNL     1       1.305   1.360  -1.032  1.00  0.00    -0.246 OA
BRANCH   9  11
ATOM     11  C   UNL     1       3.293   1.458  -2.178  1.00  0.00     0.060 A 
ATOM     12  C   UNL     1       4.571   0.931  -2.298  1.00  0.00     0.016 A 
ATOM     13  C   UNL     1       2.584   1.786  -3.349  1.00  0.00     0.016 A 
ATOM     14  C   UNL     1       5.058   0.524  -3.511  1.00  0.00     0.010 A 
ATOM     15  C   UNL     1       3.122   1.502  -4.600  1.00  0.00     0.010 A 
ATOM     16  C   UNL     1       4.345   0.835  -4.659  1.00  0.00    -0.014 A 
BRANCH  16  17
ATOM     17  C   UNL     1       5.132   0.701  -5.876  1.00  0.00     0.031 A 
ATOM     18  C   UNL     1       5.949   1.897  -6.239  1.00  0.00     0.074 A 
ATOM     19  C   UNL     1       5.306  -0.523  -6.395  1.00  0.00     0.049 A 
ATOM     20  N   UNL     1       6.752   2.076  -7.242  1.00  0.00    -0.248 NA
ATOM     21  C   UNL     1       5.878   3.045  -5.309  1.00  0.00     0.031 C 
ATOM     22  C   UNL     1       4.701  -1.756  -5.875  1.00  0.00     0.029 A 
ATOM     23  N   UNL     1       6.086  -0.945  -7.428  1.00  0.00    -0.354 N 
ATOM     24  C   UNL     1       7.241   3.367  -7.091  1.00  0.00     0.074 A 
ATOM     25  C   UNL     1       6.680   3.920  -5.886  1.00  0.00     0.031 C 
ATOM     26  C   UNL     1       5.137  -2.798  -6.601  1.00  0.00     0.029 A 
ATOM     27  C   UNL     1       5.980  -2.292  -7.675  1.00  0.00     0.049 A 
ATOM     28  H   UNL     1       6.668  -0.344  -7.947  1.00  0.00     0.167 HD
ATOM     29  C   UNL     1       8.067   4.025  -7.931  1.00  0.00     0.037 A 
ATOM     30  C   UNL     1       6.478  -2.994  -8.707  1.00  0.00     0.037 A 
ATOM     31  C   UNL     1       8.562   3.401  -9.124  1.00  0.00     0.049 A 
ATOM     32  C   UNL     1       7.285  -2.208  -9.708  1.00  0.00     0.074 A 
ATOM     33  C   UNL     1       9.289   3.944 -10.161  1.00  0.00     0.029 A 
ATOM     34  N   UNL     1       8.353   2.056  -9.427  1.00  0.00    -0.354 N 
ATOM     35  N   UNL     1       7.638  -0.941  -9.665  1.00  0.00    -0.248 NA
ATOM     36  C   UNL     1       7.736  -2.921 -10.903  1.00  0.00     0.031 C 
ATOM     37  C   UNL     1       9.476   2.936 -11.115  1.00  0.00     0.029 A 
ATOM     38  C   UNL     1       8.921   1.750 -10.645  1.00  0.00     0.049 A 
ATOM     39  H   UNL     1       7.870   1.418  -8.854  1.00  0.00     0.167 HD
ATOM     40  C   UNL     1       8.362  -0.701 -10.821  1.00  0.00     0.074 A 
ATOM     41  C   UNL     1       8.414  -1.969 -11.532  1.00  0.00     0.031 C 
ATOM     42  C   UNL     1       8.928   0.448 -11.272  1.00  0.00     0.037 A 
BRANCH  29  43
ATOM     43  C   UNL     1       8.314   5.473  -7.629  1.00  0.00     0.057 A 
ATOM     44  C   UNL     1       9.075   5.898  -6.531  1.00  0.00     0.134 A 
ATOM     45  C   UNL     1       7.660   6.461  -8.376  1.00  0.00     0.134 A 
ATOM     46  F   UNL     1       9.682   5.002  -5.736  1.00  0.00    -0.206 F 
ATOM     47  C   UNL     1       9.150   7.247  -6.169  1.00  0.00     0.040 A 
ATOM     48  C   UNL     1       7.748   7.814  -8.040  1.00  0.00     0.040 A 
ATOM     49  F   UNL     1       6.891   6.126  -9.422  1.00  0.00    -0.206 F 
ATOM     50  C   UNL     1       8.484   8.209  -6.926  1.00  0.00     0.006 A 
ENDBRANCH  29  43
BRANCH  30  51
ATOM     51  C   UNL     1       6.152  -4.434  -8.881  1.00  0.00     0.057 A 
ATOM     52  C   UNL     1       7.142  -5.423  -8.879  1.00  0.00     0.134 A 
ATOM     53  C   UNL     1       4.828  -4.865  -9.057  1.00  0.00     0.134 A 
ATOM     54  F   UNL     1       8.432  -5.086  -8.729  1.00  0.00    -0.206 F 
ATOM     55  C   UNL     1       6.832  -6.775  -9.057  1.00  0.00     0.040 A 
ATOM     56  C   UNL     1       4.500  -6.214  -9.208  1.00  0.00     0.040 A 
ATOM     57  F   UNL     1       3.822  -3.977  -9.072  1.00  0.00    -0.206 F 
ATOM     58  C   UNL     1       5.507  -7.175  -9.217  1.00  0.00     0.006 A 
ENDBRANCH  30  51
BRANCH  42  59
ATOM     59  C   UNL     1       9.673   0.347 -12.563  1.00  0.00     0.057 A 
ATOM     60  C   UNL     1       9.008   0.244 -13.789  1.00  0.00     0.134 A 
ATOM     61  C   UNL     1      11.070   0.426 -12.572  1.00  0.00     0.134 A 
ATOM     62  F   UNL     1       7.670   0.153 -13.834  1.00  0.00    -0.206 F 
ATOM     63  C   UNL     1       9.715   0.202 -14.988  1.00  0.00     0.040 A 
ATOM     64  C   UNL     1      11.784   0.417 -13.765  1.00  0.00     0.040 A 
ATOM     65  F   UNL     1      11.754   0.540 -11.423  1.00  0.00    -0.206 F 
ATOM     66  C   UNL     1      11.106   0.300 -14.977  1.00  0.00     0.006 A 
ENDBRANCH  42  59
ENDBRANCH  16  17
ENDBRANCH   9  11
ENDBRANCH   8   9
ENDBRANCH   7   8
ENDBRANCH   6   7
ENDBRANCH   5   6
ENDBRANCH   4   5
ENDBRANCH   3   4
ENDBRANCH   2   3
ENDBRANCH   1   2
BRANCH   1  67
ATOM     67  C   UNL     1       5.718  -4.327  -0.864  1.00  0.00     0.188 C 
BRANCH  67  68
ATOM     68  O   UNL     1       5.419  -5.702  -1.099  1.00  0.00    -0.376 OA
BRANCH  68  69
ATOM     69  C   UNL     1       4.047  -6.066  -1.193  1.00  0.00     0.202 C 
BRANCH  69  70
ATOM     70  C   UNL     1       3.546  -6.864   0.029  1.00  0.00     0.261 C 
BRANCH  70  71
ATOM     71  O   UNL     1       3.418  -6.150   1.293  1.00  0.00    -0.463 OA
BRANCH  71  72
ATOM     72  C   UNL     1       4.491  -6.190   2.130  1.00  0.00     0.310 C 
ATOM     73  O   UNL     1       5.546  -6.755   1.850  1.00  0.00    -0.252 OA
BRANCH  72  74
ATOM     74  C   UNL     1       4.282  -5.545   3.517  1.00  0.00     0.118 C 
ATOM     75  C   UNL     1       3.241  -6.331   4.309  1.00  0.00     0.019 C 
ATOM     76  C   UNL     1       4.249  -3.996   3.709  1.00  0.00     0.133 C 
ATOM     77  C   UNL     1       1.924  -5.584   4.414  1.00  0.00     0.022 C 
ATOM     78  N   UNL     1       3.012  -3.417   4.267  1.00  0.00    -0.356 N 
ATOM     79  C   UNL     1       2.154  -4.241   5.098  1.00  0.00     0.118 C 
BRANCH  78  80
ATOM     80  C   UNL     1       2.366  -2.341   3.653  1.00  0.00     0.129 A 
ATOM     81  C   UNL     1       1.529  -2.606   2.580  1.00  0.00     0.047 A 
ATOM     82  N   UNL     1       2.434  -1.086   4.179  1.00  0.00    -0.231 NA
ATOM     83  C   UNL     1       0.771  -1.589   2.016  1.00  0.00     0.014 A 
ATOM     84  C   UNL     1       1.734  -0.063   3.594  1.00  0.00     0.073 A 
ATOM     85  C   UNL     1       0.907  -0.286   2.480  1.00  0.00     0.002 A 
ATOM     86  C   UNL     1       1.817   1.272   4.022  1.00  0.00     0.030 A 
ATOM     87  C   UNL     1       0.303   0.771   1.772  1.00  0.00     0.032 A 
ATOM     88  C   UNL     1       1.251   2.352   3.297  1.00  0.00     0.024 A 
ATOM     89  C   UNL     1       0.545   2.099   2.124  1.00  0.00     0.083 A 
BRANCH  89  90
ATOM     90  S   UNL     1       0.121   3.364   0.907  1.00  0.00     0.243 S 
ATOM     91  O   UNL     1       1.376   3.872   0.364  1.00  0.00    -0.207 OA
ATOM     92  O   UNL     1      -0.921   2.826   0.072  1.00  0.00    -0.207 OA
BRANCH  90  93
ATOM     93  N   UNL     1      -0.595   4.652   1.748  1.00  0.00    -0.198 NA
ATOM     94  C   UNL     1      -1.871   4.333   2.409  1.00  0.00     0.102 C 
ATOM     95  C   UNL     1       0.316   5.691   2.260  1.00  0.00     0.102 C 
ATOM     96  C   UNL     1      -2.474   5.518   3.138  1.00  0.00     0.017 C 
ATOM     97  C   UNL     1      -0.365   6.774   3.078  1.00  0.00     0.017 C 
ATOM     98  C   UNL     1      -1.425   6.199   3.997  1.00  0.00     0.003 C 
ENDBRANCH  90  93
ENDBRANCH  89  90
ENDBRANCH  78  80
ENDBRANCH  72  74
ENDBRANCH  71  72
ENDBRANCH  70  71
ENDBRANCH  69  70
ENDBRANCH  68  69
ENDBRANCH  67  68
ENDBRANCH   1  67
TORSDOF 23
