REMARK SMILES CC(C)n1cncc1[C@@H](NC(=O)OC(C)(C)C)C(=O)OCCOCCOCCOCCOC(=O)c1ccc(-c2c3nc(c(-c4c(F)cccc4F)c4ccc([nH]4)c(-c4c(F)cccc4F)c4nc(c(-c5c(F)cccc5F)c5ccc2[nH]5)C=C4)C=C3)cc1
REMARK SMILES IDX 25 1 24 2 23 3 22 4 21 5 20 6 18 7 19 8 9 9 8 10 4 11 5 12
REMARK SMILES IDX 6 13 7 14 2 15 1 16 3 17 10 18 11 19 12 21 13 22 14 23 15 24
REMARK SMILES IDX 16 25 17 26 26 27 27 28 28 29 29 30 30 31 31 32 32 33 33 34
REMARK SMILES IDX 34 35 35 36 36 37 88 38 37 39 87 40 38 41 39 42 40 43 81 44
REMARK SMILES IDX 41 45 86 46 80 47 82 48 42 49 85 50 79 51 78 52 43 54 69 55
REMARK SMILES IDX 52 56 68 57 53 58 56 59 67 60 83 61 54 62 55 63 66 65 84 66
REMARK SMILES IDX 57 67 44 68 45 69 50 70 46 71 47 72 49 73 51 74 48 75 70 76
REMARK SMILES IDX 71 77 76 78 72 79 73 80 75 81 77 82 74 83 58 84 59 85 64 86
REMARK SMILES IDX 60 87 61 88 63 89 65 90 62 91
REMARK H PARENT 10 20 82 53 56 64
REMARK Flexibility Score: inf
ROOT
ATOM      1  C   UNL     1      -1.629   2.837   2.966  1.00  0.00     0.188 C 
ENDROOT
BRANCH   1   2
ATOM      2  C   UNL     1      -0.628   3.930   3.413  1.00  0.00     0.188 C 
BRANCH   2   3
ATOM      3  O   UNL     1      -1.051   5.040   4.193  1.00  0.00    -0.376 OA
BRANCH   3   4
ATOM      4  C   UNL     1      -2.310   5.630   3.939  1.00  0.00     0.202 C 
BRANCH   4   5
ATOM      5  C   UNL     1      -2.691   5.989   2.510  1.00  0.00     0.261 C 
BRANCH   5   6
ATOM      6  O   UNL     1      -2.441   5.034   1.475  1.00  0.00    -0.461 OA
BRANCH   6   7
ATOM      7  C   UNL     1      -1.386   5.297   0.664  1.00  0.00     0.335 C 
ATOM      8  O   UNL     1      -0.570   6.197   0.854  1.00  0.00    -0.249 OA
BRANCH   7   9
ATOM      9  C   UNL     1      -1.403   4.474  -0.623  1.00  0.00     0.244 C 
BRANCH   9  10
ATOM     10  C   UNL     1      -1.866   3.039  -0.564  1.00  0.00     0.072 A 
ATOM     11  N   UNL     1      -1.065   1.891  -0.546  1.00  0.00    -0.330 N 
ATOM     12  C   UNL     1      -1.917   0.811  -0.542  1.00  0.00     0.199 A 
ATOM     13  N   UNL     1      -3.175   1.172  -0.532  1.00  0.00    -0.245 NA
ATOM     14  C   UNL     1      -3.158   2.538  -0.536  1.00  0.00     0.137 A 
BRANCH  11  15
ATOM     15  C   UNL     1       0.395   1.790  -0.412  1.00  0.00     0.082 C 
ATOM     16  C   UNL     1       0.908   0.389  -0.011  1.00  0.00     0.031 C 
ATOM     17  C   UNL     1       1.134   2.207  -1.685  1.00  0.00     0.031 C 
ENDBRANCH  11  15
ENDBRANCH   9  10
BRANCH   9  18
ATOM     18  N   UNL     1      -2.042   5.156  -1.737  1.00  0.00    -0.302 N 
ATOM     19  C   UNL     1      -2.945   6.183  -1.745  1.00  0.00     0.408 C 
ATOM     20  H   UNL     1      -1.783   4.826  -2.627  1.00  0.00     0.168 HD
ATOM     21  O   UNL     1      -3.389   6.566  -2.820  1.00  0.00    -0.225 OA
BRANCH  19  22
ATOM     22  O   UNL     1      -3.243   6.734  -0.533  1.00  0.00    -0.444 OA
BRANCH  22  23
ATOM     23  C   UNL     1      -4.073   7.935  -0.466  1.00  0.00     0.106 C 
ATOM     24  C   UNL     1      -3.361   9.102  -1.156  1.00  0.00     0.056 C 
ATOM     25  C   UNL     1      -5.477   7.645  -1.002  1.00  0.00     0.056 C 
ATOM     26  C   UNL     1      -4.254   8.359   1.006  1.00  0.00     0.056 C 
ENDBRANCH  22  23
ENDBRANCH  19  22
ENDBRANCH   9  18
ENDBRANCH   7   9
ENDBRANCH   6   7
ENDBRANCH   5   6
ENDBRANCH   4   5
ENDBRANCH   3   4
ENDBRANCH   2   3
ENDBRANCH   1   2
BRANCH   1  27
ATOM     27  O   UNL     1      -3.001   3.117   3.178  1.00  0.00    -0.377 OA
BRANCH  27  28
ATOM     28  C   UNL     1      -3.597   2.547   4.335  1.00  0.00     0.188 C 
BRANCH  28  29
ATOM     29  C   UNL     1      -2.805   2.635   5.662  1.00  0.00     0.188 C 
BRANCH  29  30
ATOM     30  O   UNL     1      -1.404   2.437   5.534  1.00  0.00    -0.376 OA
BRANCH  30  31
ATOM     31  C   UNL     1      -0.757   1.210   5.819  1.00  0.00     0.202 C 
BRANCH  31  32
ATOM     32  C   UNL     1      -1.105  -0.037   5.006  1.00  0.00     0.261 C 
BRANCH  32  33
ATOM     33  O   UNL     1      -2.477  -0.175   4.708  1.00  0.00    -0.460 OA
BRANCH  33  34
ATOM     34  C   UNL     1      -3.258  -0.369   5.786  1.00  0.00     0.338 C 
ATOM     35  O   UNL     1      -2.941  -0.286   6.956  1.00  0.00    -0.246 OA
BRANCH  34  36
ATOM     36  C   UNL     1      -4.557  -0.849   5.318  1.00  0.00     0.060 A 
ATOM     37  C   UNL     1      -5.511  -1.022   6.316  1.00  0.00     0.016 A 
ATOM     38  C   UNL     1      -4.610  -1.508   4.080  1.00  0.00     0.016 A 
ATOM     39  C   UNL     1      -6.330  -2.111   6.205  1.00  0.00     0.010 A 
ATOM     40  C   UNL     1      -5.417  -2.606   3.979  1.00  0.00     0.010 A 
ATOM     41  C   UNL     1      -6.179  -2.946   5.091  1.00  0.00    -0.014 A 
BRANCH  41  42
ATOM     42  C   UNL     1      -6.954  -4.157   5.074  1.00  0.00     0.031 A 
ATOM     43  C   UNL     1      -8.385  -3.873   4.880  1.00  0.00     0.074 A 
ATOM     44  C   UNL     1      -6.395  -5.376   5.167  1.00  0.00     0.049 A 
ATOM     45  N   UNL     1      -9.325  -4.029   5.747  1.00  0.00    -0.248 NA
ATOM     46  C   UNL     1      -8.782  -3.123   3.676  1.00  0.00     0.031 C 
ATOM     47  C   UNL     1      -4.978  -5.739   5.124  1.00  0.00     0.029 A 
ATOM     48  N   UNL     1      -7.016  -6.582   5.216  1.00  0.00    -0.354 N 
ATOM     49  C   UNL     1     -10.480  -3.622   5.099  1.00  0.00     0.074 A 
ATOM     50  C   UNL     1     -10.067  -2.886   3.934  1.00  0.00     0.031 C 
ATOM     51  C   UNL     1      -4.871  -7.069   4.900  1.00  0.00     0.029 A 
ATOM     52  C   UNL     1      -6.200  -7.657   4.897  1.00  0.00     0.049 A 
ATOM     53  H   UNL     1      -7.965  -6.684   5.458  1.00  0.00     0.167 HD
ATOM     54  C   UNL     1     -11.666  -4.208   5.404  1.00  0.00     0.037 A 
ATOM     55  C   UNL     1      -6.636  -8.895   4.548  1.00  0.00     0.037 A 
ATOM     56  C   UNL     1     -11.633  -4.808   6.716  1.00  0.00     0.049 A 
ATOM     57  C   UNL     1      -8.037  -9.024   5.044  1.00  0.00     0.074 A 
ATOM     58  C   UNL     1     -11.310  -4.336   7.977  1.00  0.00     0.029 A 
ATOM     59  N   UNL     1     -11.561  -6.178   6.805  1.00  0.00    -0.354 N 
ATOM     60  N   UNL     1      -8.350  -9.108   6.308  1.00  0.00    -0.248 NA
ATOM     61  C   UNL     1      -9.108  -8.562   4.168  1.00  0.00     0.031 C 
ATOM     62  C   UNL     1     -10.580  -5.395   8.592  1.00  0.00     0.029 A 
ATOM     63  C   UNL     1     -10.572  -6.474   7.709  1.00  0.00     0.049 A 
ATOM     64  H   UNL     1     -12.115  -6.825   6.312  1.00  0.00     0.167 HD
ATOM     65  C   UNL     1      -9.469  -8.298   6.448  1.00  0.00     0.074 A 
ATOM     66  C   UNL     1      -9.935  -8.050   5.084  1.00  0.00     0.031 C 
ATOM     67  C   UNL     1      -9.738  -7.649   7.620  1.00  0.00     0.037 A 
BRANCH  54  68
ATOM     68  C   UNL     1     -12.652  -4.608   4.339  1.00  0.00     0.057 A 
ATOM     69  C   UNL     1     -13.914  -5.077   4.729  1.00  0.00     0.134 A 
ATOM     70  C   UNL     1     -12.315  -4.836   2.986  1.00  0.00     0.134 A 
ATOM     71  F   UNL     1     -14.334  -4.944   5.997  1.00  0.00    -0.206 F 
ATOM     72  C   UNL     1     -14.747  -5.785   3.857  1.00  0.00     0.040 A 
ATOM     73  C   UNL     1     -13.162  -5.490   2.094  1.00  0.00     0.040 A 
ATOM     74  F   UNL     1     -11.113  -4.542   2.477  1.00  0.00    -0.206 F 
ATOM     75  C   UNL     1     -14.370  -5.998   2.537  1.00  0.00     0.006 A 
ENDBRANCH  54  68
BRANCH  55  76
ATOM     76  C   UNL     1      -6.061  -9.820   3.540  1.00  0.00     0.057 A 
ATOM     77  C   UNL     1      -6.542 -11.132   3.408  1.00  0.00     0.134 A 
ATOM     78  C   UNL     1      -5.215  -9.377   2.506  1.00  0.00     0.134 A 
ATOM     79  F   UNL     1      -7.388 -11.642   4.316  1.00  0.00    -0.206 F 
ATOM     80  C   UNL     1      -6.226 -11.940   2.306  1.00  0.00     0.040 A 
ATOM     81  C   UNL     1      -4.883 -10.176   1.407  1.00  0.00     0.040 A 
ATOM     82  F   UNL     1      -4.747  -8.122   2.473  1.00  0.00    -0.206 F 
ATOM     83  C   UNL     1      -5.402 -11.458   1.295  1.00  0.00     0.006 A 
ENDBRANCH  55  76
BRANCH  67  84
ATOM     84  C   UNL     1      -8.944  -8.013   8.844  1.00  0.00     0.057 A 
ATOM     85  C   UNL     1      -7.548  -7.900   8.948  1.00  0.00     0.134 A 
ATOM     86  C   UNL     1      -9.637  -8.339  10.017  1.00  0.00     0.134 A 
ATOM     87  F   UNL     1      -6.804  -7.484   7.914  1.00  0.00    -0.206 F 
ATOM     88  C   UNL     1      -6.875  -8.150  10.149  1.00  0.00     0.040 A 
ATOM     89  C   UNL     1      -8.980  -8.553  11.230  1.00  0.00     0.040 A 
ATOM     90  F   UNL     1     -10.977  -8.408  10.013  1.00  0.00    -0.206 F 
ATOM     91  C   UNL     1      -7.592  -8.471  11.297  1.00  0.00     0.006 A 
ENDBRANCH  67  84
ENDBRANCH  41  42
ENDBRANCH  34  36
ENDBRANCH  33  34
ENDBRANCH  32  33
ENDBRANCH  31  32
ENDBRANCH  30  31
ENDBRANCH  29  30
ENDBRANCH  28  29
ENDBRANCH  27  28
ENDBRANCH   1  27
TORSDOF 25
