REMARK SMILES Cc1cc(C(=O)OCCOCCOCCOCCOC(=O)c2ccc(-c3c4nc(c(-c5c(F)cccc5F)c5ccc([nH]5)c(-c5c(F)cccc5F)c5nc(c(-c6c(F)cccc6F)c6ccc3[nH]6)C=C5)C=C4)cc2)c(NC(=O)c2nc(C(C)(C)C)n[nH]2)s1
REMARK SMILES IDX 12 1 11 2 10 3 9 4 8 5 7 6 5 7 6 8 4 9 1 10 2 11 3 12 89 13
REMARK SMILES IDX 76 14 77 15 78 16 79 18 80 19 81 20 88 21 82 22 87 23 83 25
REMARK SMILES IDX 84 26 85 27 86 28 13 29 14 30 15 31 16 32 17 33 18 34 19 35
REMARK SMILES IDX 20 36 21 37 22 38 23 39 75 40 24 41 74 42 25 43 26 44 27 45
REMARK SMILES IDX 68 46 28 47 73 48 67 49 69 50 29 51 72 52 66 53 65 54 30 56
REMARK SMILES IDX 56 57 39 58 55 59 40 60 43 61 54 62 70 63 41 64 42 65 53 67
REMARK SMILES IDX 71 68 44 69 31 70 32 71 37 72 33 73 34 74 36 75 38 76 35 77
REMARK SMILES IDX 57 78 58 79 63 80 59 81 60 82 62 83 64 84 61 85 45 86 46 87
REMARK SMILES IDX 51 88 47 89 48 90 50 91 52 92 49 93
REMARK H PARENT 77 17 88 24 69 55 43 66
REMARK Flexibility Score: inf
ROOT
ATOM      1  C   UNL     1      -2.504  -2.534   1.862  1.00  0.00     0.188 C 
ENDROOT
BRANCH   1   2
ATOM      2  C   UNL     1      -3.844  -2.188   1.191  1.00  0.00     0.188 C 
BRANCH   2   3
ATOM      3  O   UNL     1      -4.535  -3.343   0.715  1.00  0.00    -0.376 OA
BRANCH   3   4
ATOM      4  C   UNL     1      -4.441  -3.619  -0.677  1.00  0.00     0.202 C 
BRANCH   4   5
ATOM      5  C   UNL     1      -3.081  -4.120  -1.193  1.00  0.00     0.261 C 
BRANCH   5   6
ATOM      6  O   UNL     1      -1.970  -3.211  -1.094  1.00  0.00    -0.460 OA
BRANCH   6   7
ATOM      7  C   UNL     1      -2.088  -1.962  -1.606  1.00  0.00     0.341 C 
ATOM      8  O   UNL     1      -3.041  -1.551  -2.257  1.00  0.00    -0.246 OA
BRANCH   7   9
ATOM      9  C   UNL     1      -1.020  -1.095  -1.121  1.00  0.00     0.095 A 
ATOM     10  C   UNL     1       2.533  -0.555   0.101  1.00  0.00     0.056 C 
ATOM     11  C   UNL     1       1.098  -0.519  -0.299  1.00  0.00     0.004 A 
ATOM     12  C   UNL     1       0.339  -1.505  -0.887  1.00  0.00     0.033 A 
ATOM     13  S   UNL     1       0.168   0.872   0.002  1.00  0.00    -0.122 S 
ATOM     14  C   UNL     1      -1.229   0.215  -0.709  1.00  0.00     0.110 A 
BRANCH  14  15
ATOM     15  N   UNL     1      -2.442   0.889  -0.700  1.00  0.00    -0.310 N 
ATOM     16  C   UNL     1      -2.797   2.145  -0.240  1.00  0.00     0.293 C 
ATOM     17  H   UNL     1      -3.188   0.379  -1.092  1.00  0.00     0.171 HD
ATOM     18  O   UNL     1      -3.985   2.304   0.054  1.00  0.00    -0.265 OA
BRANCH  16  19
ATOM     19  C   UNL     1      -1.842   3.224  -0.224  1.00  0.00     0.214 A 
ATOM     20  N   UNL     1      -1.669   4.097   0.750  1.00  0.00    -0.207 NA
ATOM     21  N   UNL     1      -1.016   3.557  -1.256  1.00  0.00    -0.255 N 
ATOM     22  C   UNL     1      -0.658   4.905   0.284  1.00  0.00     0.156 A 
ATOM     23  N   UNL     1      -0.244   4.610  -0.956  1.00  0.00    -0.158 NA
ATOM     24  H   UNL     1      -0.990   3.082  -2.118  1.00  0.00     0.192 HD
BRANCH  22  25
ATOM     25  C   UNL     1      -0.104   6.054   1.091  1.00  0.00     0.024 C 
ATOM     26  C   UNL     1      -1.029   7.275   0.939  1.00  0.00     0.019 C 
ATOM     27  C   UNL     1      -0.019   5.676   2.584  1.00  0.00     0.019 C 
ATOM     28  C   UNL     1       1.313   6.441   0.622  1.00  0.00     0.019 C 
ENDBRANCH  22  25
ENDBRANCH  16  19
ENDBRANCH  14  15
ENDBRANCH   7   9
ENDBRANCH   6   7
ENDBRANCH   5   6
ENDBRANCH   4   5
ENDBRANCH   3   4
ENDBRANCH   2   3
ENDBRANCH   1   2
BRANCH   1  29
ATOM     29  O   UNL     1      -2.261  -3.936   1.855  1.00  0.00    -0.377 OA
BRANCH  29  30
ATOM     30  C   UNL     1      -2.695  -4.636   3.020  1.00  0.00     0.188 C 
BRANCH  30  31
ATOM     31  C   UNL     1      -4.088  -4.311   3.593  1.00  0.00     0.188 C 
BRANCH  31  32
ATOM     32  O   UNL     1      -4.186  -2.966   4.071  1.00  0.00    -0.376 OA
BRANCH  32  33
ATOM     33  C   UNL     1      -4.237  -2.802   5.485  1.00  0.00     0.202 C 
BRANCH  33  34
ATOM     34  C   UNL     1      -2.850  -2.807   6.140  1.00  0.00     0.261 C 
BRANCH  34  35
ATOM     35  O   UNL     1      -2.151  -4.058   6.039  1.00  0.00    -0.460 OA
BRANCH  35  36
ATOM     36  C   UNL     1      -2.744  -5.134   6.599  1.00  0.00     0.338 C 
ATOM     37  O   UNL     1      -3.760  -5.154   7.268  1.00  0.00    -0.246 OA
BRANCH  36  38
ATOM     38  C   UNL     1      -2.057  -6.342   6.103  1.00  0.00     0.060 A 
ATOM     39  C   UNL     1      -2.829  -7.368   5.544  1.00  0.00     0.016 A 
ATOM     40  C   UNL     1      -0.668  -6.465   6.198  1.00  0.00     0.016 A 
ATOM     41  C   UNL     1      -2.215  -8.547   5.123  1.00  0.00     0.010 A 
ATOM     42  C   UNL     1      -0.057  -7.652   5.793  1.00  0.00     0.010 A 
ATOM     43  C   UNL     1      -0.833  -8.710   5.290  1.00  0.00    -0.014 A 
BRANCH  43  44
ATOM     44  C   UNL     1      -0.228 -10.052   5.144  1.00  0.00     0.031 A 
ATOM     45  C   UNL     1      -0.116 -10.915   6.370  1.00  0.00     0.074 A 
ATOM     46  C   UNL     1       0.219 -10.494   3.958  1.00  0.00     0.049 A 
ATOM     47  N   UNL     1       0.410 -12.105   6.504  1.00  0.00    -0.248 NA
ATOM     48  C   UNL     1      -0.669 -10.355   7.615  1.00  0.00     0.031 C 
ATOM     49  C   UNL     1       0.146  -9.760   2.697  1.00  0.00     0.029 A 
ATOM     50  N   UNL     1       0.839 -11.673   3.630  1.00  0.00    -0.354 N 
ATOM     51  C   UNL     1       0.249 -12.436   7.843  1.00  0.00     0.074 A 
ATOM     52  C   UNL     1      -0.395 -11.313   8.487  1.00  0.00     0.031 C 
ATOM     53  C   UNL     1       0.716 -10.502   1.730  1.00  0.00     0.029 A 
ATOM     54  C   UNL     1       1.210 -11.750   2.311  1.00  0.00     0.049 A 
ATOM     55  H   UNL     1       1.002 -12.396   4.278  1.00  0.00     0.167 HD
ATOM     56  C   UNL     1       0.599 -13.578   8.479  1.00  0.00     0.037 A 
ATOM     57  C   UNL     1       1.887 -12.713   1.657  1.00  0.00     0.037 A 
ATOM     58  C   UNL     1       1.253 -14.689   7.845  1.00  0.00     0.049 A 
ATOM     59  C   UNL     1       2.327 -13.947   2.400  1.00  0.00     0.074 A 
ATOM     60  C   UNL     1       1.638 -15.896   8.400  1.00  0.00     0.029 A 
ATOM     61  N   UNL     1       1.630 -14.720   6.512  1.00  0.00    -0.354 N 
ATOM     62  N   UNL     1       2.138 -14.267   3.657  1.00  0.00    -0.248 NA
ATOM     63  C   UNL     1       3.075 -14.953   1.631  1.00  0.00     0.031 C 
ATOM     64  C   UNL     1       2.283 -16.645   7.410  1.00  0.00     0.029 A 
ATOM     65  C   UNL     1       2.264 -15.918   6.229  1.00  0.00     0.049 A 
ATOM     66  H   UNL     1       1.471 -13.998   5.862  1.00  0.00     0.167 HD
ATOM     67  C   UNL     1       2.717 -15.519   3.824  1.00  0.00     0.074 A 
ATOM     68  C   UNL     1       3.260 -15.903   2.537  1.00  0.00     0.031 C 
ATOM     69  C   UNL     1       2.790 -16.285   4.940  1.00  0.00     0.037 A 
BRANCH  56  70
ATOM     70  C   UNL     1       0.296 -13.661   9.944  1.00  0.00     0.057 A 
ATOM     71  C   UNL     1      -1.010 -13.842  10.415  1.00  0.00     0.134 A 
ATOM     72  C   UNL     1       1.321 -13.561  10.892  1.00  0.00     0.134 A 
ATOM     73  F   UNL     1      -2.038 -13.923   9.556  1.00  0.00    -0.206 F 
ATOM     74  C   UNL     1      -1.290 -13.899  11.781  1.00  0.00     0.040 A 
ATOM     75  C   UNL     1       1.057 -13.638  12.260  1.00  0.00     0.040 A 
ATOM     76  F   UNL     1       2.593 -13.384  10.504  1.00  0.00    -0.206 F 
ATOM     77  C   UNL     1      -0.253 -13.801  12.708  1.00  0.00     0.006 A 
ENDBRANCH  56  70
BRANCH  57  78
ATOM     78  C   UNL     1       2.200 -12.552   0.216  1.00  0.00     0.057 A 
ATOM     79  C   UNL     1       1.554 -13.325  -0.755  1.00  0.00     0.134 A 
ATOM     80  C   UNL     1       3.165 -11.637  -0.222  1.00  0.00     0.134 A 
ATOM     81  F   UNL     1       0.638 -14.235  -0.393  1.00  0.00    -0.206 F 
ATOM     82  C   UNL     1       1.866 -13.204  -2.110  1.00  0.00     0.040 A 
ATOM     83  C   UNL     1       3.473 -11.493  -1.575  1.00  0.00     0.040 A 
ATOM     84  F   UNL     1       3.820 -10.870   0.661  1.00  0.00    -0.206 F 
ATOM     85  C   UNL     1       2.826 -12.282  -2.524  1.00  0.00     0.006 A 
ENDBRANCH  57  78
BRANCH  69  86
ATOM     86  C   UNL     1       3.451 -17.624   4.815  1.00  0.00     0.057 A 
ATOM     87  C   UNL     1       4.842 -17.755   4.725  1.00  0.00     0.134 A 
ATOM     88  C   UNL     1       2.689 -18.799   4.840  1.00  0.00     0.134 A 
ATOM     89  F   UNL     1       5.626 -16.667   4.685  1.00  0.00    -0.206 F 
ATOM     90  C   UNL     1       5.451 -19.008   4.648  1.00  0.00     0.040 A 
ATOM     91  C   UNL     1       3.288 -20.058   4.785  1.00  0.00     0.040 A 
ATOM     92  F   UNL     1       1.352 -18.741   4.934  1.00  0.00    -0.206 F 
ATOM     93  C   UNL     1       4.673 -20.165   4.685  1.00  0.00     0.006 A 
ENDBRANCH  69  86
ENDBRANCH  43  44
ENDBRANCH  36  38
ENDBRANCH  35  36
ENDBRANCH  34  35
ENDBRANCH  33  34
ENDBRANCH  32  33
ENDBRANCH  31  32
ENDBRANCH  30  31
ENDBRANCH  29  30
ENDBRANCH   1  29
TORSDOF 23
