REMARK SMILES CCS(=O)(=O)N[C@H]1C=C[C@@H](C(=O)OCCOCCOCCOCCOC(=O)c2ccc(-c3c4nc(c(-c5c(F)cccc5F)c5ccc([nH]5)c(-c5c(F)cccc5F)c5nc(c(-c6c(F)cccc6F)c6ccc3[nH]6)C=C5)C=C4)cc2)C1
REMARK SMILES IDX 18 1 17 2 16 3 15 4 14 5 13 6 11 7 12 8 10 9 7 10 8 11 82 12
REMARK SMILES IDX 9 13 6 14 3 16 4 17 5 18 2 19 1 20 19 21 20 22 21 23 22 24
REMARK SMILES IDX 23 25 24 26 25 27 26 28 27 29 28 30 29 31 81 32 30 33 80 34
REMARK SMILES IDX 31 35 32 36 33 37 74 38 34 39 79 40 73 41 75 42 35 43 78 44
REMARK SMILES IDX 72 45 71 46 36 48 62 49 45 50 61 51 46 52 49 53 60 54 76 55
REMARK SMILES IDX 47 56 48 57 59 59 77 60 50 61 37 62 38 63 43 64 39 65 40 66
REMARK SMILES IDX 42 67 44 68 41 69 63 70 64 71 69 72 65 73 66 74 68 75 70 76
REMARK SMILES IDX 67 77 51 78 52 79 57 80 53 81 54 82 56 83 58 84 55 85
REMARK H PARENT 6 15 75 47 49 58
REMARK Flexibility Score: inf
ROOT
ATOM      1  C   UNL     1       1.517  -3.198   0.406  1.00  0.00     0.188 C 
ENDROOT
BRANCH   1   2
ATOM      2  C   UNL     1       2.628  -3.973   1.125  1.00  0.00     0.188 C 
BRANCH   2   3
ATOM      3  O   UNL     1       2.418  -4.317   2.486  1.00  0.00    -0.376 OA
BRANCH   3   4
ATOM      4  C   UNL     1       2.422  -3.276   3.460  1.00  0.00     0.202 C 
BRANCH   4   5
ATOM      5  C   UNL     1       3.528  -2.211   3.411  1.00  0.00     0.261 C 
BRANCH   5   6
ATOM      6  O   UNL     1       3.502  -1.425   2.204  1.00  0.00    -0.463 OA
BRANCH   6   7
ATOM      7  C   UNL     1       4.697  -1.236   1.584  1.00  0.00     0.312 C 
ATOM      8  O   UNL     1       5.769  -1.642   2.023  1.00  0.00    -0.252 OA
BRANCH   7   9
ATOM      9  C   UNL     1       4.575  -0.578   0.209  1.00  0.00     0.123 C 
ATOM     10  C   UNL     1       3.670   1.509  -0.759  1.00  0.00     0.093 C 
ATOM     11  C   UNL     1       5.119   1.627  -0.417  1.00  0.00    -0.011 C 
ATOM     12  C   UNL     1       3.278   0.168  -0.126  1.00  0.00     0.043 C 
ATOM     13  C   UNL     1       5.616   0.494   0.085  1.00  0.00    -0.015 C 
BRANCH  10  14
ATOM     14  N   UNL     1       2.960   2.621  -0.132  1.00  0.00    -0.208 NA
ATOM     15  H   UNL     1       2.817   2.371   0.846  1.00  0.00     0.141 HD
BRANCH  14  16
ATOM     16  S   UNL     1       1.468   3.079  -0.746  1.00  0.00     0.211 S 
ATOM     17  O   UNL     1       1.446   2.785  -2.156  1.00  0.00    -0.212 OA
ATOM     18  O   UNL     1       1.279   4.435  -0.264  1.00  0.00    -0.212 OA
BRANCH  16  19
ATOM     19  C   UNL     1       0.304   2.036   0.131  1.00  0.00     0.150 C 
ATOM     20  C   UNL     1      -0.194   0.874  -0.698  1.00  0.00     0.022 C 
ENDBRANCH  16  19
ENDBRANCH  14  16
ENDBRANCH  10  14
ENDBRANCH   7   9
ENDBRANCH   6   7
ENDBRANCH   5   6
ENDBRANCH   4   5
ENDBRANCH   3   4
ENDBRANCH   2   3
ENDBRANCH   1   2
BRANCH   1  21
ATOM     21  O   UNL     1       1.081  -2.003   1.041  1.00  0.00    -0.377 OA
BRANCH  21  22
ATOM     22  C   UNL     1      -0.192  -1.975   1.692  1.00  0.00     0.188 C 
BRANCH  22  23
ATOM     23  C   UNL     1      -1.097  -3.209   1.627  1.00  0.00     0.188 C 
BRANCH  23  24
ATOM     24  O   UNL     1      -1.574  -3.630   0.346  1.00  0.00    -0.376 OA
BRANCH  24  25
ATOM     25  C   UNL     1      -1.667  -2.681  -0.712  1.00  0.00     0.202 C 
BRANCH  25  26
ATOM     26  C   UNL     1      -2.984  -1.911  -0.771  1.00  0.00     0.261 C 
BRANCH  26  27
ATOM     27  O   UNL     1      -3.120  -1.007   0.337  1.00  0.00    -0.460 OA
BRANCH  27  28
ATOM     28  C   UNL     1      -3.884  -1.467   1.349  1.00  0.00     0.338 C 
ATOM     29  O   UNL     1      -4.484  -2.532   1.401  1.00  0.00    -0.246 OA
BRANCH  28  30
ATOM     30  C   UNL     1      -3.804  -0.550   2.497  1.00  0.00     0.060 A 
ATOM     31  C   UNL     1      -3.688  -1.123   3.768  1.00  0.00     0.016 A 
ATOM     32  C   UNL     1      -3.947   0.834   2.350  1.00  0.00     0.016 A 
ATOM     33  C   UNL     1      -3.803  -0.327   4.900  1.00  0.00     0.010 A 
ATOM     34  C   UNL     1      -4.061   1.635   3.490  1.00  0.00     0.010 A 
ATOM     35  C   UNL     1      -4.047   1.046   4.766  1.00  0.00    -0.014 A 
BRANCH  35  36
ATOM     36  C   UNL     1      -4.465   1.804   5.968  1.00  0.00     0.031 A 
ATOM     37  C   UNL     1      -5.928   2.084   6.179  1.00  0.00     0.074 A 
ATOM     38  C   UNL     1      -3.562   2.144   6.902  1.00  0.00     0.049 A 
ATOM     39  N   UNL     1      -6.526   2.653   7.194  1.00  0.00    -0.248 NA
ATOM     40  C   UNL     1      -6.841   1.664   5.103  1.00  0.00     0.031 C 
ATOM     41  C   UNL     1      -2.124   1.890   6.817  1.00  0.00     0.029 A 
ATOM     42  N   UNL     1      -3.725   2.763   8.113  1.00  0.00    -0.354 N 
ATOM     43  C   UNL     1      -7.880   2.657   6.881  1.00  0.00     0.074 A 
ATOM     44  C   UNL     1      -8.013   2.073   5.565  1.00  0.00     0.031 C 
ATOM     45  C   UNL     1      -1.536   2.342   7.937  1.00  0.00     0.029 A 
ATOM     46  C   UNL     1      -2.551   2.938   8.802  1.00  0.00     0.049 A 
ATOM     47  H   UNL     1      -4.601   3.055   8.457  1.00  0.00     0.167 HD
ATOM     48  C   UNL     1      -8.921   3.094   7.630  1.00  0.00     0.037 A 
ATOM     49  C   UNL     1      -2.326   3.519   9.995  1.00  0.00     0.037 A 
ATOM     50  C   UNL     1      -8.780   3.676   8.940  1.00  0.00     0.049 A 
ATOM     51  C   UNL     1      -3.494   4.048  10.784  1.00  0.00     0.074 A 
ATOM     52  C   UNL     1      -9.768   4.143   9.789  1.00  0.00     0.029 A 
ATOM     53  N   UNL     1      -7.569   3.880   9.586  1.00  0.00    -0.354 N 
ATOM     54  N   UNL     1      -4.772   4.021  10.491  1.00  0.00    -0.248 NA
ATOM     55  C   UNL     1      -3.186   4.675  12.075  1.00  0.00     0.031 C 
ATOM     56  C   UNL     1      -9.152   4.678  10.925  1.00  0.00     0.029 A 
ATOM     57  C   UNL     1      -7.783   4.488  10.813  1.00  0.00     0.049 A 
ATOM     58  H   UNL     1      -6.688   3.628   9.227  1.00  0.00     0.167 HD
ATOM     59  C   UNL     1      -5.423   4.602  11.573  1.00  0.00     0.074 A 
ATOM     60  C   UNL     1      -4.398   4.949  12.536  1.00  0.00     0.031 C 
ATOM     61  C   UNL     1      -6.748   4.830  11.756  1.00  0.00     0.037 A 
BRANCH  48  62
ATOM     62  C   UNL     1     -10.297   2.985   7.037  1.00  0.00     0.057 A 
ATOM     63  C   UNL     1     -10.933   1.749   6.853  1.00  0.00     0.134 A 
ATOM     64  C   UNL     1     -11.006   4.134   6.666  1.00  0.00     0.134 A 
ATOM     65  F   UNL     1     -10.305   0.607   7.171  1.00  0.00    -0.206 F 
ATOM     66  C   UNL     1     -12.213   1.660   6.300  1.00  0.00     0.040 A 
ATOM     67  C   UNL     1     -12.297   4.060   6.140  1.00  0.00     0.040 A 
ATOM     68  F   UNL     1     -10.459   5.350   6.816  1.00  0.00    -0.206 F 
ATOM     69  C   UNL     1     -12.901   2.820   5.949  1.00  0.00     0.006 A 
ENDBRANCH  48  62
BRANCH  49  70
ATOM     70  C   UNL     1      -0.940   3.630  10.518  1.00  0.00     0.057 A 
ATOM     71  C   UNL     1      -0.528   2.922  11.652  1.00  0.00     0.134 A 
ATOM     72  C   UNL     1       0.001   4.465   9.902  1.00  0.00     0.134 A 
ATOM     73  F   UNL     1      -1.388   2.122  12.298  1.00  0.00    -0.206 F 
ATOM     74  C   UNL     1       0.762   3.056  12.168  1.00  0.00     0.040 A 
ATOM     75  C   UNL     1       1.303   4.586  10.390  1.00  0.00     0.040 A 
ATOM     76  F   UNL     1      -0.329   5.167   8.808  1.00  0.00    -0.206 F 
ATOM     77  C   UNL     1       1.684   3.886  11.533  1.00  0.00     0.006 A 
ENDBRANCH  49  70
BRANCH  61  78
ATOM     78  C   UNL     1      -7.157   5.453  13.061  1.00  0.00     0.057 A 
ATOM     79  C   UNL     1      -6.846   6.781  13.382  1.00  0.00     0.134 A 
ATOM     80  C   UNL     1      -7.874   4.712  14.010  1.00  0.00     0.134 A 
ATOM     81  F   UNL     1      -6.152   7.544  12.523  1.00  0.00    -0.206 F 
ATOM     82  C   UNL     1      -7.192   7.334  14.616  1.00  0.00     0.040 A 
ATOM     83  C   UNL     1      -8.256   5.265  15.233  1.00  0.00     0.040 A 
ATOM     84  F   UNL     1      -8.219   3.439  13.763  1.00  0.00    -0.206 F 
ATOM     85  C   UNL     1      -7.903   6.576  15.544  1.00  0.00     0.006 A 
ENDBRANCH  61  78
ENDBRANCH  35  36
ENDBRANCH  28  30
ENDBRANCH  27  28
ENDBRANCH  26  27
ENDBRANCH  25  26
ENDBRANCH  24  25
ENDBRANCH  23  24
ENDBRANCH  22  23
ENDBRANCH  21  22
ENDBRANCH   1  21
TORSDOF 23
