REMARK SMILES O=C(C[C@@H](NC(=O)C1CC=CC1)C1CC1)OCCOCCOCCOCCOC(=O)c1ccc(-c2c3nc(c(-c4c(F)cccc4F)c4ccc([nH]4)c(-c4c(F)cccc4F)c4nc(c(-c5c(F)cccc5F)c5ccc2[nH]5)C=C4)C=C3)cc1
REMARK SMILES IDX 21 1 20 2 19 3 18 4 17 5 16 6 2 7 1 8 3 9 4 10 5 11 6 12
REMARK SMILES IDX 7 14 8 15 9 16 12 17 10 18 11 19 13 20 14 21 15 22 22 23
REMARK SMILES IDX 23 24 24 25 25 26 26 27 27 28 28 29 29 30 30 31 31 32 32 33
REMARK SMILES IDX 84 34 33 35 83 36 34 37 35 38 36 39 77 40 37 41 82 42 76 43
REMARK SMILES IDX 78 44 38 45 81 46 75 47 74 48 39 50 65 51 48 52 64 53 49 54
REMARK SMILES IDX 52 55 63 56 79 57 50 58 51 59 62 61 80 62 53 63 40 64 41 65
REMARK SMILES IDX 46 66 42 67 43 68 45 69 47 70 44 71 66 72 67 73 72 74 68 75
REMARK SMILES IDX 69 76 71 77 73 78 70 79 54 80 55 81 60 82 56 83 57 84 59 85
REMARK SMILES IDX 61 86 58 87
REMARK H PARENT 5 13 78 49 52 60
REMARK Flexibility Score: inf
ROOT
ATOM      1  C   UNL     1       1.827   1.161   2.493  1.00  0.00     0.188 C 
ENDROOT
BRANCH   1   2
ATOM      2  C   UNL     1       2.396  -0.033   1.714  1.00  0.00     0.188 C 
BRANCH   2   3
ATOM      3  O   UNL     1       3.804  -0.116   1.644  1.00  0.00    -0.376 OA
BRANCH   3   4
ATOM      4  C   UNL     1       4.566   0.284   0.519  1.00  0.00     0.202 C 
BRANCH   4   5
ATOM      5  C   UNL     1       3.986   1.232  -0.516  1.00  0.00     0.261 C 
BRANCH   5   6
ATOM      6  O   UNL     1       2.862   0.821  -1.331  1.00  0.00    -0.463 OA
BRANCH   6   7
ATOM      7  C   UNL     1       2.332  -0.366  -1.661  1.00  0.00     0.307 C 
ATOM      8  O   UNL     1       1.283  -0.390  -2.304  1.00  0.00    -0.252 OA
BRANCH   7   9
ATOM      9  C   UNL     1       2.980  -1.654  -1.247  1.00  0.00     0.147 C 
BRANCH   9  10
ATOM     10  C   UNL     1       4.035  -2.145  -2.237  1.00  0.00     0.096 C 
BRANCH  10  11
ATOM     11  N   UNL     1       5.188  -1.236  -2.378  1.00  0.00    -0.352 N 
ATOM     12  C   UNL     1       6.424  -1.012  -1.882  1.00  0.00     0.223 C 
ATOM     13  H   UNL     1       4.989  -0.564  -3.070  1.00  0.00     0.163 HD
ATOM     14  O   UNL     1       6.810   0.159  -2.042  1.00  0.00    -0.275 OA
BRANCH  12  15
ATOM     15  C   UNL     1       7.418  -1.994  -1.272  1.00  0.00     0.086 C 
ATOM     16  C   UNL     1       7.088  -2.830  -0.037  1.00  0.00     0.040 C 
ATOM     17  C   UNL     1       7.980  -2.937  -2.340  1.00  0.00     0.040 C 
ATOM     18  C   UNL     1       7.364  -4.234  -0.482  1.00  0.00    -0.030 C 
ATOM     19  C   UNL     1       7.851  -4.287  -1.725  1.00  0.00    -0.030 C 
ENDBRANCH  12  15
ENDBRANCH  10  11
BRANCH  10  20
ATOM     20  C   UNL     1       4.400  -3.558  -1.930  1.00  0.00     0.012 C 
ATOM     21  C   UNL     1       3.412  -4.690  -2.091  1.00  0.00     0.006 C 
ATOM     22  C   UNL     1       4.568  -4.558  -3.039  1.00  0.00     0.006 C 
ENDBRANCH  10  20
ENDBRANCH   9  10
ENDBRANCH   7   9
ENDBRANCH   6   7
ENDBRANCH   5   6
ENDBRANCH   4   5
ENDBRANCH   3   4
ENDBRANCH   2   3
ENDBRANCH   1   2
BRANCH   1  23
ATOM     23  O   UNL     1       2.592   1.709   3.554  1.00  0.00    -0.377 OA
BRANCH  23  24
ATOM     24  C   UNL     1       3.946   2.006   3.268  1.00  0.00     0.188 C 
BRANCH  24  25
ATOM     25  C   UNL     1       4.971   1.036   3.910  1.00  0.00     0.188 C 
BRANCH  25  26
ATOM     26  O   UNL     1       4.573  -0.182   4.523  1.00  0.00    -0.376 OA
BRANCH  26  27
ATOM     27  C   UNL     1       3.397  -0.234   5.314  1.00  0.00     0.202 C 
BRANCH  27  28
ATOM     28  C   UNL     1       3.142   0.790   6.439  1.00  0.00     0.261 C 
BRANCH  28  29
ATOM     29  O   UNL     1       3.463   2.158   6.145  1.00  0.00    -0.460 OA
BRANCH  29  30
ATOM     30  C   UNL     1       4.630   2.620   6.651  1.00  0.00     0.338 C 
ATOM     31  O   UNL     1       5.402   2.031   7.390  1.00  0.00    -0.246 OA
BRANCH  30  32
ATOM     32  C   UNL     1       4.967   3.897   5.980  1.00  0.00     0.060 A 
ATOM     33  C   UNL     1       6.217   4.002   5.347  1.00  0.00     0.016 A 
ATOM     34  C   UNL     1       4.061   4.960   5.928  1.00  0.00     0.016 A 
ATOM     35  C   UNL     1       6.576   5.173   4.684  1.00  0.00     0.010 A 
ATOM     36  C   UNL     1       4.441   6.153   5.304  1.00  0.00     0.010 A 
ATOM     37  C   UNL     1       5.713   6.274   4.714  1.00  0.00    -0.014 A 
BRANCH  37  38
ATOM     38  C   UNL     1       6.259   7.616   4.405  1.00  0.00     0.031 A 
ATOM     39  C   UNL     1       6.817   8.413   5.553  1.00  0.00     0.074 A 
ATOM     40  C   UNL     1       6.297   8.107   3.155  1.00  0.00     0.049 A 
ATOM     41  N   UNL     1       7.302   9.626   5.570  1.00  0.00    -0.248 NA
ATOM     42  C   UNL     1       6.824   7.742   6.865  1.00  0.00     0.031 C 
ATOM     43  C   UNL     1       5.846   7.411   1.953  1.00  0.00     0.029 A 
ATOM     44  N   UNL     1       6.735   9.326   2.697  1.00  0.00    -0.354 N 
ATOM     45  C   UNL     1       7.662   9.865   6.890  1.00  0.00     0.074 A 
ATOM     46  C   UNL     1       7.316   8.686   7.651  1.00  0.00     0.031 C 
ATOM     47  C   UNL     1       6.013   8.224   0.893  1.00  0.00     0.029 A 
ATOM     48  C   UNL     1       6.552   9.505   1.349  1.00  0.00     0.049 A 
ATOM     49  H   UNL     1       7.141  10.006   3.281  1.00  0.00     0.167 HD
ATOM     50  C   UNL     1       8.237  10.967   7.423  1.00  0.00     0.037 A 
ATOM     51  C   UNL     1       6.771  10.592   0.582  1.00  0.00     0.037 A 
ATOM     52  C   UNL     1       8.572  12.143   6.669  1.00  0.00     0.049 A 
ATOM     53  C   UNL     1       7.328  11.844   1.215  1.00  0.00     0.074 A 
ATOM     54  C   UNL     1       9.161  13.313   7.113  1.00  0.00     0.029 A 
ATOM     55  N   UNL     1       8.335  12.301   5.312  1.00  0.00    -0.354 N 
ATOM     56  N   UNL     1       7.682  12.058   2.459  1.00  0.00    -0.248 NA
ATOM     57  C   UNL     1       7.515  13.006   0.333  1.00  0.00     0.031 C 
ATOM     58  C   UNL     1       9.229  14.201   6.035  1.00  0.00     0.029 A 
ATOM     59  C   UNL     1       8.740  13.561   4.907  1.00  0.00     0.049 A 
ATOM     60  H   UNL     1       7.937  11.619   4.724  1.00  0.00     0.167 HD
ATOM     61  C   UNL     1       8.163  13.362   2.503  1.00  0.00     0.074 A 
ATOM     62  C   UNL     1       8.065  13.887   1.157  1.00  0.00     0.031 C 
ATOM     63  C   UNL     1       8.645  14.063   3.559  1.00  0.00     0.037 A 
BRANCH  50  64
ATOM     64  C   UNL     1       8.500  10.958   8.900  1.00  0.00     0.057 A 
ATOM     65  C   UNL     1       9.492  10.152   9.474  1.00  0.00     0.134 A 
ATOM     66  C   UNL     1       7.752  11.773   9.759  1.00  0.00     0.134 A 
ATOM     67  F   UNL     1      10.229   9.332   8.710  1.00  0.00    -0.206 F 
ATOM     68  C   UNL     1       9.715  10.140  10.852  1.00  0.00     0.040 A 
ATOM     69  C   UNL     1       7.984  11.790  11.135  1.00  0.00     0.040 A 
ATOM     70  F   UNL     1       6.784  12.566   9.275  1.00  0.00    -0.206 F 
ATOM     71  C   UNL     1       8.964  10.967  11.685  1.00  0.00     0.006 A 
ENDBRANCH  50  64
BRANCH  51  72
ATOM     72  C   UNL     1       6.445  10.565  -0.868  1.00  0.00     0.057 A 
ATOM     73  C   UNL     1       7.448  10.639  -1.841  1.00  0.00     0.134 A 
ATOM     74  C   UNL     1       5.119  10.502  -1.315  1.00  0.00     0.134 A 
ATOM     75  F   UNL     1       8.736  10.731  -1.478  1.00  0.00    -0.206 F 
ATOM     76  C   UNL     1       7.146  10.672  -3.204  1.00  0.00     0.040 A 
ATOM     77  C   UNL     1       4.803  10.506  -2.675  1.00  0.00     0.040 A 
ATOM     78  F   UNL     1       4.109  10.433  -0.435  1.00  0.00    -0.206 F 
ATOM     79  C   UNL     1       5.819  10.599  -3.624  1.00  0.00     0.006 A 
ENDBRANCH  51  72
BRANCH  63  80
ATOM     80  C   UNL     1       9.146  15.455   3.300  1.00  0.00     0.057 A 
ATOM     81  C   UNL     1       8.280  16.517   3.014  1.00  0.00     0.134 A 
ATOM     82  C   UNL     1      10.515  15.745   3.390  1.00  0.00     0.134 A 
ATOM     83  F   UNL     1       6.959  16.306   2.905  1.00  0.00    -0.206 F 
ATOM     84  C   UNL     1       8.758  17.812   2.804  1.00  0.00     0.040 A 
ATOM     85  C   UNL     1      11.001  17.040   3.212  1.00  0.00     0.040 A 
ATOM     86  F   UNL     1      11.399  14.776   3.674  1.00  0.00    -0.206 F 
ATOM     87  C   UNL     1      10.122  18.077   2.912  1.00  0.00     0.006 A 
ENDBRANCH  63  80
ENDBRANCH  37  38
ENDBRANCH  30  32
ENDBRANCH  29  30
ENDBRANCH  28  29
ENDBRANCH  27  28
ENDBRANCH  26  27
ENDBRANCH  25  26
ENDBRANCH  24  25
ENDBRANCH  23  24
ENDBRANCH   1  23
TORSDOF 24
