REMARK SMILES CC[C@H]1CC[C@](C(=O)OCCOCCOCCOCCOC(=O)c2ccc(-c3c4nc(c(-c5c(F)cccc5F)c5ccc([nH]5)c(-c5c(F)cccc5F)c5nc(c(-c6c(F)cccc6F)c6ccc3[nH]6)C=C5)C=C4)cc2)([C@H]2CCC[C@@H](S(C)(=O)=O)C2)CC1
REMARK SMILES IDX 15 1 14 2 13 3 12 4 11 5 10 6 9 7 7 8 8 9 6 10 3 11 89 12
REMARK SMILES IDX 4 13 88 14 5 15 2 16 1 17 78 18 79 19 87 20 80 21 82 22
REMARK SMILES IDX 81 23 83 24 84 25 85 26 86 27 16 28 17 29 18 30 19 31 20 32
REMARK SMILES IDX 21 33 22 34 23 35 24 36 25 37 77 38 26 39 76 40 27 41 28 42
REMARK SMILES IDX 29 43 70 44 30 45 75 46 69 47 71 48 31 49 74 50 68 51 67 52
REMARK SMILES IDX 32 54 58 55 41 56 57 57 42 58 45 59 56 60 72 61 43 62 44 63
REMARK SMILES IDX 55 65 73 66 46 67 33 68 34 69 39 70 35 71 36 72 38 73 40 74
REMARK SMILES IDX 37 75 59 76 60 77 65 78 61 79 62 80 64 81 66 82 63 83 47 84
REMARK SMILES IDX 48 85 53 86 49 87 50 88 52 89 54 90 51 91
REMARK H PARENT 71 53 45 64
REMARK Flexibility Score: inf
ROOT
ATOM      1  O   UNL     1       5.865   9.783  -1.093  1.00  0.00    -0.377 OA
ENDROOT
BRANCH   1   2
ATOM      2  C   UNL     1       5.007   8.917  -1.799  1.00  0.00     0.188 C 
BRANCH   2   3
ATOM      3  C   UNL     1       3.732   9.470  -2.558  1.00  0.00     0.188 C 
BRANCH   3   4
ATOM      4  O   UNL     1       3.571   8.956  -3.899  1.00  0.00    -0.376 OA
BRANCH   4   5
ATOM      5  C   UNL     1       2.637   9.475  -4.878  1.00  0.00     0.202 C 
BRANCH   5   6
ATOM      6  C   UNL     1       1.330  10.005  -4.342  1.00  0.00     0.261 C 
BRANCH   6   7
ATOM      7  O   UNL     1       1.061   9.268  -3.162  1.00  0.00    -0.463 OA
BRANCH   7   8
ATOM      8  C   UNL     1       0.950   7.955  -3.453  1.00  0.00     0.312 C 
ATOM      9  O   UNL     1       0.502   7.569  -4.532  1.00  0.00    -0.252 OA
BRANCH   8  10
ATOM     10  C   UNL     1       1.287   7.003  -2.317  1.00  0.00     0.071 C 
ATOM     11  C   UNL     1       0.246   8.827   0.039  1.00  0.00    -0.011 C 
ATOM     12  C   UNL     1      -0.655   8.304  -1.119  1.00  0.00     0.005 C 
ATOM     13  C   UNL     1       1.685   8.360  -0.044  1.00  0.00     0.005 C 
ATOM     14  C   UNL     1      -0.222   6.917  -1.828  1.00  0.00     0.019 C 
ATOM     15  C   UNL     1       1.930   7.140  -0.898  1.00  0.00     0.019 C 
BRANCH  11  16
ATOM     16  C   UNL     1       0.263  10.382   0.215  1.00  0.00    -0.000 C 
ATOM     17  C   UNL     1       1.130  10.866   1.394  1.00  0.00     0.004 C 
ENDBRANCH  11  16
BRANCH  10  18
ATOM     18  C   UNL     1       2.304   5.903  -3.068  1.00  0.00     0.008 C 
ATOM     19  C   UNL     1       1.944   5.181  -4.386  1.00  0.00     0.005 C 
ATOM     20  C   UNL     1       3.898   6.272  -3.172  1.00  0.00     0.024 C 
ATOM     21  C   UNL     1       2.577   5.701  -5.689  1.00  0.00     0.002 C 
ATOM     22  C   UNL     1       4.655   6.655  -4.519  1.00  0.00     0.108 C 
ATOM     23  C   UNL     1       4.084   5.915  -5.715  1.00  0.00     0.020 C 
BRANCH  22  24
ATOM     24  S   UNL     1       5.833   8.119  -5.085  1.00  0.00     0.150 S 
ATOM     25  C   UNL     1       5.614   9.925  -4.781  1.00  0.00     0.158 C 
ATOM     26  O   UNL     1       7.098   7.816  -4.427  1.00  0.00    -0.229 OA
ATOM     27  O   UNL     1       5.832   8.114  -6.542  1.00  0.00    -0.229 OA
ENDBRANCH  22  24
ENDBRANCH  10  18
ENDBRANCH   8  10
ENDBRANCH   7   8
ENDBRANCH   6   7
ENDBRANCH   5   6
ENDBRANCH   4   5
ENDBRANCH   3   4
ENDBRANCH   2   3
ENDBRANCH   1   2
BRANCH   1  28
ATOM     28  C   UNL     1       6.733  10.687  -1.747  1.00  0.00     0.188 C 
BRANCH  28  29
ATOM     29  C   UNL     1       7.923  10.274  -2.667  1.00  0.00     0.188 C 
BRANCH  29  30
ATOM     30  O   UNL     1       9.052   9.542  -2.227  1.00  0.00    -0.376 OA
BRANCH  30  31
ATOM     31  C   UNL     1       8.821   8.340  -1.522  1.00  0.00     0.202 C 
BRANCH  31  32
ATOM     32  C   UNL     1       8.975   8.571  -0.015  1.00  0.00     0.261 C 
BRANCH  32  33
ATOM     33  O   UNL     1       8.742   9.937   0.384  1.00  0.00    -0.460 OA
BRANCH  33  34
ATOM     34  C   UNL     1       9.682  10.856   0.042  1.00  0.00     0.338 C 
ATOM     35  O   UNL     1      10.823  10.652  -0.365  1.00  0.00    -0.246 OA
BRANCH  34  36
ATOM     36  C   UNL     1       9.041  12.193   0.062  1.00  0.00     0.060 A 
ATOM     37  C   UNL     1       9.100  13.007  -1.083  1.00  0.00     0.016 A 
ATOM     38  C   UNL     1       8.265  12.585   1.159  1.00  0.00     0.016 A 
ATOM     39  C   UNL     1       8.419  14.225  -1.117  1.00  0.00     0.010 A 
ATOM     40  C   UNL     1       7.639  13.835   1.155  1.00  0.00     0.010 A 
ATOM     41  C   UNL     1       7.770  14.681   0.039  1.00  0.00    -0.014 A 
BRANCH  41  42
ATOM     42  C   UNL     1       7.672  16.151   0.218  1.00  0.00     0.031 A 
ATOM     43  C   UNL     1       8.887  16.823   0.810  1.00  0.00     0.074 A 
ATOM     44  C   UNL     1       6.623  16.878  -0.201  1.00  0.00     0.049 A 
ATOM     45  N   UNL     1       9.111  18.086   1.060  1.00  0.00    -0.248 NA
ATOM     46  C   UNL     1      10.014  15.938   1.159  1.00  0.00     0.031 C 
ATOM     47  C   UNL     1       5.426  16.352  -0.854  1.00  0.00     0.029 A 
ATOM     48  N   UNL     1       6.410  18.232  -0.144  1.00  0.00    -0.354 N 
ATOM     49  C   UNL     1      10.397  18.138   1.587  1.00  0.00     0.074 A 
ATOM     50  C   UNL     1      10.892  16.786   1.661  1.00  0.00     0.031 C 
ATOM     51  C   UNL     1       4.598  17.377  -1.132  1.00  0.00     0.029 A 
ATOM     52  C   UNL     1       5.195  18.623  -0.651  1.00  0.00     0.049 A 
ATOM     53  H   UNL     1       7.067  18.865   0.226  1.00  0.00     0.167 HD
ATOM     54  C   UNL     1      11.113  19.218   1.968  1.00  0.00     0.037 A 
ATOM     55  C   UNL     1       4.634  19.848  -0.700  1.00  0.00     0.037 A 
ATOM     56  C   UNL     1      10.613  20.562   1.907  1.00  0.00     0.049 A 
ATOM     57  C   UNL     1       5.410  21.031  -0.172  1.00  0.00     0.074 A 
ATOM     58  C   UNL     1      11.243  21.733   2.279  1.00  0.00     0.029 A 
ATOM     59  N   UNL     1       9.350  20.907   1.450  1.00  0.00    -0.354 N 
ATOM     60  N   UNL     1       6.627  21.073   0.321  1.00  0.00    -0.248 NA
ATOM     61  C   UNL     1       4.737  22.336  -0.211  1.00  0.00     0.031 C 
ATOM     62  C   UNL     1      10.337  22.783   2.107  1.00  0.00     0.029 A 
ATOM     63  C   UNL     1       9.169  22.273   1.560  1.00  0.00     0.049 A 
ATOM     64  H   UNL     1       8.683  20.274   1.100  1.00  0.00     0.167 HD
ATOM     65  C   UNL     1       6.873  22.409   0.621  1.00  0.00     0.074 A 
ATOM     66  C   UNL     1       5.687  23.145   0.234  1.00  0.00     0.031 C 
ATOM     67  C   UNL     1       7.976  22.981   1.167  1.00  0.00     0.037 A 
BRANCH  54  68
ATOM     68  C   UNL     1      12.484  18.972   2.527  1.00  0.00     0.057 A 
ATOM     69  C   UNL     1      13.546  18.518   1.732  1.00  0.00     0.134 A 
ATOM     70  C   UNL     1      12.742  19.183   3.887  1.00  0.00     0.134 A 
ATOM     71  F   UNL     1      13.359  18.265   0.427  1.00  0.00    -0.206 F 
ATOM     72  C   UNL     1      14.806  18.260   2.275  1.00  0.00     0.040 A 
ATOM     73  C   UNL     1      14.006  18.961   4.434  1.00  0.00     0.040 A 
ATOM     74  F   UNL     1      11.769  19.608   4.707  1.00  0.00    -0.206 F 
ATOM     75  C   UNL     1      15.041  18.491   3.629  1.00  0.00     0.006 A 
ENDBRANCH  54  68
BRANCH  55  76
ATOM     76  C   UNL     1       3.260  20.028  -1.243  1.00  0.00     0.057 A 
ATOM     77  C   UNL     1       3.022  20.771  -2.406  1.00  0.00     0.134 A 
ATOM     78  C   UNL     1       2.144  19.495  -0.585  1.00  0.00     0.134 A 
ATOM     79  F   UNL     1       4.043  21.332  -3.070  1.00  0.00    -0.206 F 
ATOM     80  C   UNL     1       1.727  20.997  -2.881  1.00  0.00     0.040 A 
ATOM     81  C   UNL     1       0.846  19.688  -1.065  1.00  0.00     0.040 A 
ATOM     82  F   UNL     1       2.297  18.776   0.537  1.00  0.00    -0.206 F 
ATOM     83  C   UNL     1       0.635  20.449  -2.212  1.00  0.00     0.006 A 
ENDBRANCH  55  76
BRANCH  67  84
ATOM     84  C   UNL     1       7.963  24.473   1.343  1.00  0.00     0.057 A 
ATOM     85  C   UNL     1       7.138  25.103   2.283  1.00  0.00     0.134 A 
ATOM     86  C   UNL     1       8.814  25.286   0.583  1.00  0.00     0.134 A 
ATOM     87  F   UNL     1       6.295  24.384   3.040  1.00  0.00    -0.206 F 
ATOM     88  C   UNL     1       7.129  26.491   2.431  1.00  0.00     0.040 A 
ATOM     89  C   UNL     1       8.841  26.671   0.748  1.00  0.00     0.040 A 
ATOM     90  F   UNL     1       9.645  24.747  -0.322  1.00  0.00    -0.206 F 
ATOM     91  C   UNL     1       7.988  27.278   1.666  1.00  0.00     0.006 A 
ENDBRANCH  67  84
ENDBRANCH  41  42
ENDBRANCH  34  36
ENDBRANCH  33  34
ENDBRANCH  32  33
ENDBRANCH  31  32
ENDBRANCH  30  31
ENDBRANCH  29  30
ENDBRANCH  28  29
ENDBRANCH   1  28
TORSDOF 23
