REMARK SMILES O=C(OCCOCCOCCOCCOC(=O)c1nccnc1C(=O)Nc1ccc2c(c1)OCO2)c1ccc(-c2c3nc(c(-c4c(F)cccc4F)c4ccc([nH]4)c(-c4c(F)cccc4F)c4nc(c(-c5c(F)cccc5F)c5ccc2[nH]5)C=C4)C=C3)cc1
REMARK SMILES IDX 9 1 8 2 7 3 6 4 5 5 4 6 3 7 2 8 1 9 36 10 37 11 89 12 38 13
REMARK SMILES IDX 88 14 39 15 40 16 41 17 82 18 42 19 87 20 81 21 83 22 43 23
REMARK SMILES IDX 86 24 80 25 79 26 44 28 70 29 53 30 69 31 54 32 57 33 68 34
REMARK SMILES IDX 84 35 55 36 56 37 67 39 85 40 58 41 45 42 46 43 51 44 47 45
REMARK SMILES IDX 48 46 50 47 52 48 49 49 71 50 72 51 77 52 73 53 74 54 76 55
REMARK SMILES IDX 78 56 75 57 59 58 60 59 65 60 61 61 62 62 64 63 66 64 63 65
REMARK SMILES IDX 10 66 11 67 12 68 13 69 14 70 15 71 16 72 17 73 18 74 19 75
REMARK SMILES IDX 23 76 20 77 22 78 21 79 24 80 25 81 26 82 27 84 28 85 32 86
REMARK SMILES IDX 29 87 31 88 30 89 33 90 35 91 34 92
REMARK H PARENT 83 27 57 38 26 83
REMARK Flexibility Score: inf
ROOT
ATOM      1  O   UNL     1       3.337   2.912  -1.832  1.00  0.00    -0.377 OA
ENDROOT
BRANCH   1   2
ATOM      2  C   UNL     1       2.212   2.403  -1.141  1.00  0.00     0.188 C 
BRANCH   2   3
ATOM      3  C   UNL     1       2.074   0.893  -1.111  1.00  0.00     0.188 C 
BRANCH   3   4
ATOM      4  O   UNL     1       3.323   0.363  -0.732  1.00  0.00    -0.376 OA
BRANCH   4   5
ATOM      5  C   UNL     1       3.945  -0.557  -1.606  1.00  0.00     0.202 C 
BRANCH   5   6
ATOM      6  C   UNL     1       3.655  -1.988  -1.173  1.00  0.00     0.261 C 
BRANCH   6   7
ATOM      7  O   UNL     1       2.292  -2.134  -0.732  1.00  0.00    -0.460 OA
BRANCH   7   8
ATOM      8  C   UNL     1       1.806  -1.903   0.514  1.00  0.00     0.338 C 
ATOM      9  O   UNL     1       0.589  -1.869   0.689  1.00  0.00    -0.246 OA
BRANCH   8  10
ATOM     10  C   UNL     1       2.666  -1.756   1.722  1.00  0.00     0.060 A 
ATOM     11  C   UNL     1       3.716  -0.849   1.831  1.00  0.00     0.016 A 
ATOM     12  C   UNL     1       2.299  -2.462   2.870  1.00  0.00     0.016 A 
ATOM     13  C   UNL     1       4.435  -0.665   2.998  1.00  0.00     0.010 A 
ATOM     14  C   UNL     1       3.004  -2.282   4.067  1.00  0.00     0.010 A 
ATOM     15  C   UNL     1       4.094  -1.399   4.121  1.00  0.00    -0.014 A 
BRANCH  15  16
ATOM     16  C   UNL     1       5.048  -1.403   5.242  1.00  0.00     0.031 A 
ATOM     17  C   UNL     1       5.858  -2.649   5.428  1.00  0.00     0.074 A 
ATOM     18  C   UNL     1       5.289  -0.290   5.956  1.00  0.00     0.049 A 
ATOM     19  N   UNL     1       6.615  -3.009   6.424  1.00  0.00    -0.248 NA
ATOM     20  C   UNL     1       5.796  -3.632   4.330  1.00  0.00     0.031 C 
ATOM     21  C   UNL     1       4.689   1.025   5.713  1.00  0.00     0.029 A 
ATOM     22  N   UNL     1       6.122  -0.081   7.022  1.00  0.00    -0.354 N 
ATOM     23  C   UNL     1       7.069  -4.281   6.100  1.00  0.00     0.074 A 
ATOM     24  C   UNL     1       6.497  -4.637   4.824  1.00  0.00     0.031 C 
ATOM     25  C   UNL     1       5.175   1.903   6.607  1.00  0.00     0.029 A 
ATOM     26  C   UNL     1       6.041   1.191   7.537  1.00  0.00     0.049 A 
ATOM     27  H   UNL     1       6.720  -0.774   7.385  1.00  0.00     0.167 HD
ATOM     28  C   UNL     1       7.889  -5.075   6.823  1.00  0.00     0.037 A 
ATOM     29  C   UNL     1       6.564   1.686   8.674  1.00  0.00     0.037 A 
ATOM     30  C   UNL     1       8.447  -4.662   8.080  1.00  0.00     0.049 A 
ATOM     31  C   UNL     1       7.368   0.743   9.531  1.00  0.00     0.074 A 
ATOM     32  C   UNL     1       9.220  -5.381   8.968  1.00  0.00     0.029 A 
ATOM     33  N   UNL     1       8.289  -3.388   8.615  1.00  0.00    -0.354 N 
ATOM     34  N   UNL     1       7.699  -0.508   9.300  1.00  0.00    -0.248 NA
ATOM     35  C   UNL     1       7.853   1.266  10.813  1.00  0.00     0.031 C 
ATOM     36  C   UNL     1       9.493  -4.553  10.064  1.00  0.00     0.029 A 
ATOM     37  C   UNL     1       8.942  -3.300   9.828  1.00  0.00     0.049 A 
ATOM     38  H   UNL     1       7.785  -2.656   8.191  1.00  0.00     0.167 HD
ATOM     39  C   UNL     1       8.452  -0.914  10.392  1.00  0.00     0.074 A 
ATOM     40  C   UNL     1       8.545   0.234  11.275  1.00  0.00     0.031 C 
ATOM     41  C   UNL     1       9.016  -2.120  10.654  1.00  0.00     0.037 A 
BRANCH  28  42
ATOM     42  C   UNL     1       8.138  -6.457   6.298  1.00  0.00     0.057 A 
ATOM     43  C   UNL     1       8.888  -6.697   5.138  1.00  0.00     0.134 A 
ATOM     44  C   UNL     1       7.558  -7.565   6.929  1.00  0.00     0.134 A 
ATOM     45  F   UNL     1       9.437  -5.678   4.460  1.00  0.00    -0.206 F 
ATOM     46  C   UNL     1       9.025  -7.983   4.609  1.00  0.00     0.040 A 
ATOM     47  C   UNL     1       7.713  -8.858   6.427  1.00  0.00     0.040 A 
ATOM     48  F   UNL     1       6.814  -7.408   8.034  1.00  0.00    -0.206 F 
ATOM     49  C   UNL     1       8.439  -9.069   5.257  1.00  0.00     0.006 A 
ENDBRANCH  28  42
BRANCH  29  50
ATOM     50  C   UNL     1       6.278   3.081   9.109  1.00  0.00     0.057 A 
ATOM     51  C   UNL     1       7.302   4.021   9.276  1.00  0.00     0.134 A 
ATOM     52  C   UNL     1       4.975   3.500   9.414  1.00  0.00     0.134 A 
ATOM     53  F   UNL     1       8.575   3.685   9.020  1.00  0.00    -0.206 F 
ATOM     54  C   UNL     1       7.047   5.309   9.757  1.00  0.00     0.040 A 
ATOM     55  C   UNL     1       4.701   4.794   9.864  1.00  0.00     0.040 A 
ATOM     56  F   UNL     1       3.940   2.657   9.278  1.00  0.00    -0.206 F 
ATOM     57  C   UNL     1       5.742   5.699  10.050  1.00  0.00     0.006 A 
ENDBRANCH  29  50
BRANCH  41  58
ATOM     58  C   UNL     1       9.823  -2.224  11.912  1.00  0.00     0.057 A 
ATOM     59  C   UNL     1       9.227  -2.240  13.178  1.00  0.00     0.134 A 
ATOM     60  C   UNL     1      11.215  -2.360  11.843  1.00  0.00     0.134 A 
ATOM     61  F   UNL     1       7.899  -2.100  13.307  1.00  0.00    -0.206 F 
ATOM     62  C   UNL     1       9.993  -2.360  14.337  1.00  0.00     0.040 A 
ATOM     63  C   UNL     1      11.987  -2.516  12.992  1.00  0.00     0.040 A 
ATOM     64  F   UNL     1      11.842  -2.365  10.656  1.00  0.00    -0.206 F 
ATOM     65  C   UNL     1      11.376  -2.507  14.244  1.00  0.00     0.006 A 
ENDBRANCH  41  58
ENDBRANCH  15  16
ENDBRANCH   8  10
ENDBRANCH   7   8
ENDBRANCH   6   7
ENDBRANCH   5   6
ENDBRANCH   4   5
ENDBRANCH   3   4
ENDBRANCH   2   3
ENDBRANCH   1   2
BRANCH   1  66
ATOM     66  C   UNL     1       4.673   2.662  -1.390  1.00  0.00     0.188 C 
BRANCH  66  67
ATOM     67  C   UNL     1       5.113   2.388   0.078  1.00  0.00     0.188 C 
BRANCH  67  68
ATOM     68  O   UNL     1       5.082   3.327   1.141  1.00  0.00    -0.376 OA
BRANCH  68  69
ATOM     69  C   UNL     1       3.886   3.871   1.665  1.00  0.00     0.202 C 
BRANCH  69  70
ATOM     70  C   UNL     1       3.226   5.293   1.087  1.00  0.00     0.261 C 
BRANCH  70  71
ATOM     71  O   UNL     1       4.104   6.973   0.351  1.00  0.00    -0.458 OA
BRANCH  71  72
ATOM     72  C   UNL     1       4.904   7.812  -0.557  1.00  0.00     0.359 C 
ATOM     73  O   UNL     1       5.255   8.932  -0.185  1.00  0.00    -0.244 OA
BRANCH  72  74
ATOM     74  C   UNL     1       5.302   7.369  -1.994  1.00  0.00     0.179 A 
ATOM     75  N   UNL     1       4.541   7.971  -2.969  1.00  0.00    -0.245 NA
ATOM     76  C   UNL     1       6.209   6.351  -2.353  1.00  0.00     0.161 A 
ATOM     77  C   UNL     1       4.701   7.515  -4.240  1.00  0.00     0.132 A 
ATOM     78  N   UNL     1       6.351   5.912  -3.650  1.00  0.00    -0.247 NA
ATOM     79  C   UNL     1       5.580   6.504  -4.574  1.00  0.00     0.132 A 
BRANCH  76  80
ATOM     80  C   UNL     1       7.010   5.508  -1.423  1.00  0.00     0.276 C 
ATOM     81  O   UNL     1       8.120   5.080  -1.730  1.00  0.00    -0.267 OA
ATOM     82  N   UNL     1       6.485   5.184  -0.215  1.00  0.00    -0.320 N 
ATOM     83  H   UNL     1       7.064   4.703   0.420  1.00  0.00     0.170 HD
BRANCH  82  84
ATOM     84  C   UNL     1       5.195   5.478   0.192  1.00  0.00     0.045 A 
ATOM     85  C   UNL     1       3.757   5.623  -0.952  1.00  0.00     0.030 A 
ATOM     86  C   UNL     1       5.133   6.252   1.829  1.00  0.00     0.076 A 
ATOM     87  C   UNL     1       2.353   6.671  -0.462  1.00  0.00     0.053 A 
ATOM     88  C   UNL     1       3.722   7.215   2.241  1.00  0.00     0.167 A 
ATOM     89  C   UNL     1       2.386   7.426   1.137  1.00  0.00     0.165 A 
ATOM     90  O   UNL     1       3.364   7.760   3.428  1.00  0.00    -0.454 OA
ATOM     91  O   UNL     1       1.405   8.066   1.823  1.00  0.00    -0.454 OA
ATOM     92  C   UNL     1       1.966   8.143   3.185  1.00  0.00     0.468 C 
ENDBRANCH  82  84
ENDBRANCH  76  80
ENDBRANCH  72  74
ENDBRANCH  71  72
ENDBRANCH  70  71
ENDBRANCH  69  70
ENDBRANCH  68  69
ENDBRANCH  67  68
ENDBRANCH  66  67
ENDBRANCH   1  66
TORSDOF 22
