REMARK SMILES O=C(N/N=C/c1ccc(C(=O)OCCOCCOCCOCCOC(=O)c2ccc(-c3c4nc(c(-c5c(F)cccc5F)c5ccc([nH]5)c(-c5c(F)cccc5F)c5nc(c(-c6c(F)cccc6F)c6ccc3[nH]6)C=C5)C=C4)cc2)cc1)C(=O)Nc1ccc2c(c1)OCO2
REMARK SMILES IDX 17 1 16 2 15 3 14 4 13 5 12 6 10 7 11 8 9 9 6 10 7 11 82 12
REMARK SMILES IDX 8 13 81 14 5 15 4 16 3 17 1 18 2 19 83 21 84 22 85 23 86 25
REMARK SMILES IDX 87 26 91 27 88 28 90 29 89 30 92 31 94 32 93 33 18 34 19 35
REMARK SMILES IDX 20 36 21 37 22 38 23 39 24 40 25 41 26 42 27 43 28 44 80 45
REMARK SMILES IDX 29 46 79 47 30 48 31 49 32 50 73 51 33 52 78 53 72 54 74 55
REMARK SMILES IDX 34 56 77 57 71 58 70 59 35 61 61 62 44 63 60 64 45 65 48 66
REMARK SMILES IDX 59 67 75 68 46 69 47 70 58 72 76 73 49 74 36 75 37 76 42 77
REMARK SMILES IDX 38 78 39 79 41 80 43 81 40 82 62 83 63 84 68 85 64 86 65 87
REMARK SMILES IDX 67 88 69 89 66 90 50 91 51 92 56 93 52 94 53 95 55 96 57 97
REMARK SMILES IDX 54 98
REMARK H PARENT 3 20 85 24 74 60 48 71
REMARK Flexibility Score: inf
ROOT
ATOM      1  C   UNL     1      10.924   2.520   0.092  1.00  0.00     0.188 C 
ENDROOT
BRANCH   1   2
ATOM      2  C   UNL     1      11.820   1.827   1.138  1.00  0.00     0.188 C 
BRANCH   2   3
ATOM      3  O   UNL     1      13.193   1.815   0.773  1.00  0.00    -0.376 OA
BRANCH   3   4
ATOM      4  C   UNL     1      13.813   0.580   0.468  1.00  0.00     0.202 C 
BRANCH   4   5
ATOM      5  C   UNL     1      13.335  -0.201  -0.767  1.00  0.00     0.261 C 
BRANCH   5   6
ATOM      6  O   UNL     1      11.921  -0.242  -0.969  1.00  0.00    -0.460 OA
BRANCH   6   7
ATOM      7  C   UNL     1      11.210  -1.026  -0.134  1.00  0.00     0.338 C 
ATOM      8  O   UNL     1      11.650  -1.757   0.736  1.00  0.00    -0.246 OA
BRANCH   7   9
ATOM      9  C   UNL     1       9.776  -0.707  -0.305  1.00  0.00     0.060 A 
ATOM     10  C   UNL     1       6.735  -0.400  -0.586  1.00  0.00    -0.005 A 
ATOM     11  C   UNL     1       7.575  -0.338   0.664  1.00  0.00     0.010 A 
ATOM     12  C   UNL     1       7.813  -0.225  -1.639  1.00  0.00     0.010 A 
ATOM     13  C   UNL     1       8.972  -0.566   0.804  1.00  0.00     0.016 A 
ATOM     14  C   UNL     1       9.219  -0.405  -1.523  1.00  0.00     0.016 A 
BRANCH  10  15
ATOM     15  C   UNL     1       4.644  -0.833  -0.782  1.00  0.00     0.141 C 
ATOM     16  N   UNL     1       3.535  -0.227  -1.329  1.00  0.00    -0.180 NA
BRANCH  16  17
ATOM     17  N   UNL     1       2.381  -0.588  -0.727  1.00  0.00    -0.239 N 
ATOM     18  O   UNL     1       0.923  -0.507   1.000  1.00  0.00    -0.262 OA
ATOM     19  C   UNL     1       1.986  -0.115   0.516  1.00  0.00     0.329 C 
ATOM     20  H   UNL     1       1.790  -1.221  -1.195  1.00  0.00     0.194 HD
BRANCH  19  21
ATOM     21  C   UNL     1       2.785   0.980   1.281  1.00  0.00     0.315 C 
ATOM     22  O   UNL     1       2.151   1.924   1.757  1.00  0.00    -0.263 OA
ATOM     23  N   UNL     1       4.147   0.893   1.589  1.00  0.00    -0.318 N 
ATOM     24  H   UNL     1       4.441   1.220   2.470  1.00  0.00     0.170 HD
BRANCH  23  25
ATOM     25  C   UNL     1       5.122   0.370   0.725  1.00  0.00     0.045 A 
ATOM     26  C   UNL     1       5.500  -1.423   0.943  1.00  0.00     0.030 A 
ATOM     27  C   UNL     1       5.254   1.154  -0.926  1.00  0.00     0.076 A 
ATOM     28  C   UNL     1       5.945  -2.433  -0.525  1.00  0.00     0.053 A 
ATOM     29  C   UNL     1       5.536   0.082  -2.362  1.00  0.00     0.167 A 
ATOM     30  C   UNL     1       5.863  -1.673  -2.154  1.00  0.00     0.165 A 
ATOM     31  O   UNL     1       5.366   0.281  -3.693  1.00  0.00    -0.454 OA
ATOM     32  O   UNL     1       5.886  -2.207  -3.396  1.00  0.00    -0.454 OA
ATOM     33  C   UNL     1       5.309  -1.107  -4.199  1.00  0.00     0.468 C 
ENDBRANCH  23  25
ENDBRANCH  19  21
ENDBRANCH  16  17
ENDBRANCH  10  15
ENDBRANCH   7   9
ENDBRANCH   6   7
ENDBRANCH   5   6
ENDBRANCH   4   5
ENDBRANCH   3   4
ENDBRANCH   2   3
ENDBRANCH   1   2
BRANCH   1  34
ATOM     34  O   UNL     1      11.477   2.682  -1.203  1.00  0.00    -0.377 OA
BRANCH  34  35
ATOM     35  C   UNL     1      12.649   3.483  -1.360  1.00  0.00     0.188 C 
BRANCH  35  36
ATOM     36  C   UNL     1      13.236   4.352  -0.216  1.00  0.00     0.188 C 
BRANCH  36  37
ATOM     37  O   UNL     1      12.336   4.659   0.836  1.00  0.00    -0.376 OA
BRANCH  37  38
ATOM     38  C   UNL     1      11.889   6.000   0.943  1.00  0.00     0.202 C 
BRANCH  38  39
ATOM     39  C   UNL     1      10.939   6.461  -0.169  1.00  0.00     0.261 C 
BRANCH  39  40
ATOM     40  O   UNL     1      11.461   6.364  -1.502  1.00  0.00    -0.460 OA
BRANCH  40  41
ATOM     41  C   UNL     1      12.546   7.116  -1.791  1.00  0.00     0.338 C 
ATOM     42  O   UNL     1      13.124   7.896  -1.058  1.00  0.00    -0.246 OA
BRANCH  41  43
ATOM     43  C   UNL     1      13.042   6.688  -3.114  1.00  0.00     0.060 A 
ATOM     44  C   UNL     1      14.347   6.190  -3.225  1.00  0.00     0.016 A 
ATOM     45  C   UNL     1      12.215   6.777  -4.234  1.00  0.00     0.016 A 
ATOM     46  C   UNL     1      14.845   5.820  -4.473  1.00  0.00     0.010 A 
ATOM     47  C   UNL     1      12.721   6.428  -5.486  1.00  0.00     0.010 A 
ATOM     48  C   UNL     1      14.050   5.987  -5.615  1.00  0.00    -0.014 A 
BRANCH  48  49
ATOM     49  C   UNL     1      14.676   5.933  -6.956  1.00  0.00     0.031 A 
ATOM     50  C   UNL     1      15.098   7.231  -7.587  1.00  0.00     0.074 A 
ATOM     51  C   UNL     1      14.882   4.769  -7.593  1.00  0.00     0.049 A 
ATOM     52  N   UNL     1      15.619   7.455  -8.765  1.00  0.00    -0.248 NA
ATOM     53  C   UNL     1      14.897   8.444  -6.776  1.00  0.00     0.031 C 
ATOM     54  C   UNL     1      14.558   3.445  -7.066  1.00  0.00     0.029 A 
ATOM     55  N   UNL     1      15.411   4.521  -8.834  1.00  0.00    -0.354 N 
ATOM     56  C   UNL     1      15.802   8.830  -8.838  1.00  0.00     0.074 A 
ATOM     57  C   UNL     1      15.303   9.393  -7.603  1.00  0.00     0.031 C 
ATOM     58  C   UNL     1      14.889   2.521  -7.986  1.00  0.00     0.029 A 
ATOM     59  C   UNL     1      15.415   3.192  -9.175  1.00  0.00     0.049 A 
ATOM     60  H   UNL     1      15.755   5.230  -9.425  1.00  0.00     0.167 HD
ATOM     61  C   UNL     1      16.347   9.559  -9.840  1.00  0.00     0.037 A 
ATOM     62  C   UNL     1      15.784   2.593 -10.324  1.00  0.00     0.037 A 
ATOM     63  C   UNL     1      16.832   8.998 -11.072  1.00  0.00     0.049 A 
ATOM     64  C   UNL     1      16.310   3.433 -11.460  1.00  0.00     0.074 A 
ATOM     65  C   UNL     1      17.407   9.647 -12.149  1.00  0.00     0.029 A 
ATOM     66  N   UNL     1      16.786   7.649 -11.394  1.00  0.00    -0.354 N 
ATOM     67  N   UNL     1      16.500   4.729 -11.515  1.00  0.00    -0.248 NA
ATOM     68  C   UNL     1      16.676   2.722 -12.694  1.00  0.00     0.031 C 
ATOM     69  C   UNL     1      17.659   8.699 -13.146  1.00  0.00     0.029 A 
ATOM     70  C   UNL     1      17.300   7.450 -12.664  1.00  0.00     0.049 A 
ATOM     71  H   UNL     1      16.440   6.939 -10.806  1.00  0.00     0.167 HD
ATOM     72  C   UNL     1      17.041   4.984 -12.770  1.00  0.00     0.074 A 
ATOM     73  C   UNL     1      17.155   3.707 -13.441  1.00  0.00     0.031 C 
ATOM     74  C   UNL     1      17.417   6.168 -13.315  1.00  0.00     0.037 A 
BRANCH  61  75
ATOM     75  C   UNL     1      16.408  11.047  -9.649  1.00  0.00     0.057 A 
ATOM     76  C   UNL     1      17.263  11.643  -8.711  1.00  0.00     0.134 A 
ATOM     77  C   UNL     1      15.598  11.896 -10.414  1.00  0.00     0.134 A 
ATOM     78  F   UNL     1      18.051  10.886  -7.933  1.00  0.00    -0.206 F 
ATOM     79  C   UNL     1      17.287  13.025  -8.519  1.00  0.00     0.040 A 
ATOM     80  C   UNL     1      15.635  13.282 -10.252  1.00  0.00     0.040 A 
ATOM     81  F   UNL     1      14.757  11.394 -11.330  1.00  0.00    -0.206 F 
ATOM     82  C   UNL     1      16.475  13.849  -9.296  1.00  0.00     0.006 A 
ENDBRANCH  61  75
BRANCH  62  83
ATOM     83  C   UNL     1      15.669   1.119 -10.464  1.00  0.00     0.057 A 
ATOM     84  C   UNL     1      16.807   0.309 -10.555  1.00  0.00     0.134 A 
ATOM     85  C   UNL     1      14.422   0.486 -10.531  1.00  0.00     0.134 A 
ATOM     86  F   UNL     1      18.030   0.858 -10.523  1.00  0.00    -0.206 F 
ATOM     87  C   UNL     1      16.710  -1.074 -10.724  1.00  0.00     0.040 A 
ATOM     88  C   UNL     1      14.310  -0.898 -10.673  1.00  0.00     0.040 A 
ATOM     89  F   UNL     1      13.292   1.205 -10.452  1.00  0.00    -0.206 F 
ATOM     90  C   UNL     1      15.457  -1.681 -10.777  1.00  0.00     0.006 A 
ENDBRANCH  62  83
BRANCH  74  91
ATOM     91  C   UNL     1      18.035   6.136 -14.684  1.00  0.00     0.057 A 
ATOM     92  C   UNL     1      17.288   5.855 -15.835  1.00  0.00     0.134 A 
ATOM     93  C   UNL     1      19.394   6.435 -14.855  1.00  0.00     0.134 A 
ATOM     94  F   UNL     1      15.985   5.551 -15.742  1.00  0.00    -0.206 F 
ATOM     95  C   UNL     1      17.875   5.847 -17.102  1.00  0.00     0.040 A 
ATOM     96  C   UNL     1      19.985   6.460 -16.118  1.00  0.00     0.040 A 
ATOM     97  F   UNL     1      20.166   6.725 -13.796  1.00  0.00    -0.206 F 
ATOM     98  C   UNL     1      19.227   6.157 -17.246  1.00  0.00     0.006 A 
ENDBRANCH  74  91
ENDBRANCH  48  49
ENDBRANCH  41  43
ENDBRANCH  40  41
ENDBRANCH  39  40
ENDBRANCH  38  39
ENDBRANCH  37  38
ENDBRANCH  36  37
ENDBRANCH  35  36
ENDBRANCH  34  35
ENDBRANCH   1  34
TORSDOF 24
