REMARK SMILES Cc1cc(C(=O)OCCOCCOCCOCCOC(=O)c2ccc(-c3c4nc(c(-c5c(F)cccc5F)c5ccc([nH]5)c(-c5c(F)cccc5F)c5nc(c(-c6c(F)cccc6F)c6ccc3[nH]6)C=C5)C=C4)cc2)ccc1NS(=O)(=O)c1c(F)cccc1F
REMARK SMILES IDX 12 1 11 2 10 3 9 4 8 5 7 6 5 7 6 8 4 9 1 10 2 11 3 12 78 13
REMARK SMILES IDX 77 14 76 15 79 16 80 18 81 19 82 20 83 21 84 22 89 23 85 24
REMARK SMILES IDX 86 25 88 26 90 27 87 28 13 29 14 30 15 31 16 32 17 33 18 34
REMARK SMILES IDX 19 35 20 36 21 37 22 38 23 39 75 40 24 41 74 42 25 43 26 44
REMARK SMILES IDX 27 45 68 46 28 47 73 48 67 49 69 50 29 51 72 52 66 53 65 54
REMARK SMILES IDX 30 56 56 57 39 58 55 59 40 60 43 61 54 62 70 63 41 64 42 65
REMARK SMILES IDX 53 67 71 68 44 69 31 70 32 71 37 72 33 73 34 74 36 75 38 76
REMARK SMILES IDX 35 77 57 78 58 79 63 80 59 81 60 82 62 83 64 84 61 85 45 86
REMARK SMILES IDX 46 87 51 88 47 89 48 90 50 91 52 92 49 93
REMARK H PARENT 79 17 69 55 43 66
REMARK Flexibility Score: inf
ROOT
ATOM      1  C   UNL     1      -0.657  -1.381  -2.785  1.00  0.00     0.188 C 
ENDROOT
BRANCH   1   2
ATOM      2  C   UNL     1       0.260  -2.336  -2.004  1.00  0.00     0.188 C 
BRANCH   2   3
ATOM      3  O   UNL     1      -0.033  -3.722  -1.962  1.00  0.00    -0.376 OA
BRANCH   3   4
ATOM      4  C   UNL     1      -0.960  -4.113  -0.962  1.00  0.00     0.202 C 
BRANCH   4   5
ATOM      5  C   UNL     1      -0.532  -3.998   0.488  1.00  0.00     0.261 C 
BRANCH   5   6
ATOM      6  O   UNL     1      -0.601  -2.647   0.928  1.00  0.00    -0.460 OA
BRANCH   6   7
ATOM      7  C   UNL     1       0.452  -2.257   1.655  1.00  0.00     0.338 C 
ATOM      8  O   UNL     1       1.354  -2.957   2.123  1.00  0.00    -0.246 OA
BRANCH   7   9
ATOM      9  C   UNL     1       0.581  -0.823   1.433  1.00  0.00     0.060 A 
ATOM     10  C   UNL     1       3.274   1.070  -0.352  1.00  0.00     0.046 C 
ATOM     11  C   UNL     1       1.957   0.836   0.328  1.00  0.00    -0.026 A 
ATOM     12  C   UNL     1       1.792  -0.440   0.867  1.00  0.00     0.021 A 
ATOM     13  C   UNL     1       0.887   1.750   0.390  1.00  0.00     0.052 A 
ATOM     14  C   UNL     1      -0.287   1.377   1.068  1.00  0.00     0.028 A 
ATOM     15  C   UNL     1      -0.468   0.079   1.548  1.00  0.00     0.018 A 
BRANCH  13  16
ATOM     16  N   UNL     1       0.931   2.903  -0.451  1.00  0.00    -0.279 N 
ATOM     17  H   UNL     1       1.486   2.843  -1.261  1.00  0.00     0.180 HD
BRANCH  16  18
ATOM     18  S   UNL     1       0.128   4.346  -0.191  1.00  0.00     0.267 S 
ATOM     19  O   UNL     1       0.355   4.698   1.195  1.00  0.00    -0.201 OA
ATOM     20  O   UNL     1       0.564   5.216  -1.265  1.00  0.00    -0.201 OA
BRANCH  18  21
ATOM     21  C   UNL     1      -1.590   4.102  -0.416  1.00  0.00     0.158 A 
ATOM     22  C   UNL     1      -2.445   4.988   0.232  1.00  0.00     0.146 A 
ATOM     23  C   UNL     1      -2.122   2.987  -1.047  1.00  0.00     0.146 A 
ATOM     24  F   UNL     1      -1.982   6.120   0.779  1.00  0.00    -0.205 F 
ATOM     25  C   UNL     1      -3.807   4.718   0.338  1.00  0.00     0.041 A 
ATOM     26  C   UNL     1      -3.480   2.686  -0.916  1.00  0.00     0.041 A 
ATOM     27  F   UNL     1      -1.354   2.139  -1.741  1.00  0.00    -0.205 F 
ATOM     28  C   UNL     1      -4.322   3.543  -0.205  1.00  0.00     0.006 A 
ENDBRANCH  18  21
ENDBRANCH  16  18
ENDBRANCH  13  16
ENDBRANCH   7   9
ENDBRANCH   6   7
ENDBRANCH   5   6
ENDBRANCH   4   5
ENDBRANCH   3   4
ENDBRANCH   2   3
ENDBRANCH   1   2
BRANCH   1  29
ATOM     29  O   UNL     1      -2.005  -1.228  -2.372  1.00  0.00    -0.377 OA
BRANCH  29  30
ATOM     30  C   UNL     1      -3.002  -2.027  -2.997  1.00  0.00     0.188 C 
BRANCH  30  31
ATOM     31  C   UNL     1      -2.796  -2.550  -4.409  1.00  0.00     0.188 C 
BRANCH  31  32
ATOM     32  O   UNL     1      -1.816  -3.584  -4.381  1.00  0.00    -0.376 OA
BRANCH  32  33
ATOM     33  C   UNL     1      -1.124  -3.794  -5.608  1.00  0.00     0.202 C 
BRANCH  33  34
ATOM     34  C   UNL     1      -2.050  -4.129  -6.787  1.00  0.00     0.261 C 
BRANCH  34  35
ATOM     35  O   UNL     1      -2.751  -5.361  -6.514  1.00  0.00    -0.460 OA
BRANCH  35  36
ATOM     36  C   UNL     1      -4.064  -5.240  -6.171  1.00  0.00     0.338 C 
ATOM     37  O   UNL     1      -4.884  -4.535  -6.737  1.00  0.00    -0.246 OA
BRANCH  36  38
ATOM     38  C   UNL     1      -4.286  -5.825  -4.814  1.00  0.00     0.060 A 
ATOM     39  C   UNL     1      -5.502  -5.621  -4.138  1.00  0.00     0.016 A 
ATOM     40  C   UNL     1      -3.176  -6.232  -4.093  1.00  0.00     0.016 A 
ATOM     41  C   UNL     1      -5.537  -5.604  -2.730  1.00  0.00     0.010 A 
ATOM     42  C   UNL     1      -3.207  -6.119  -2.718  1.00  0.00     0.010 A 
ATOM     43  C   UNL     1      -4.353  -5.730  -2.010  1.00  0.00    -0.014 A 
BRANCH  43  44
ATOM     44  C   UNL     1      -4.148  -5.345  -0.588  1.00  0.00     0.031 A 
ATOM     45  C   UNL     1      -3.387  -6.283   0.314  1.00  0.00     0.074 A 
ATOM     46  C   UNL     1      -4.313  -4.038  -0.233  1.00  0.00     0.049 A 
ATOM     47  N   UNL     1      -3.050  -6.037   1.534  1.00  0.00    -0.248 NA
ATOM     48  C   UNL     1      -2.882  -7.591  -0.108  1.00  0.00     0.031 C 
ATOM     49  C   UNL     1      -3.656  -3.302   0.855  1.00  0.00     0.029 A 
ATOM     50  N   UNL     1      -5.044  -3.023  -0.824  1.00  0.00    -0.354 N 
ATOM     51  C   UNL     1      -2.007  -6.882   1.890  1.00  0.00     0.074 A 
ATOM     52  C   UNL     1      -2.025  -7.901   0.874  1.00  0.00     0.031 C 
ATOM     53  C   UNL     1      -4.052  -2.019   0.900  1.00  0.00     0.029 A 
ATOM     54  C   UNL     1      -5.206  -1.937   0.045  1.00  0.00     0.049 A 
ATOM     55  H   UNL     1      -5.405  -3.060  -1.739  1.00  0.00     0.167 HD
ATOM     56  C   UNL     1      -1.170  -6.516   2.915  1.00  0.00     0.037 A 
ATOM     57  C   UNL     1      -6.449  -1.653   0.544  1.00  0.00     0.037 A 
ATOM     58  C   UNL     1      -1.673  -5.300   3.594  1.00  0.00     0.049 A 
ATOM     59  C   UNL     1      -6.505  -2.107   2.010  1.00  0.00     0.074 A 
ATOM     60  C   UNL     1      -1.129  -4.076   3.942  1.00  0.00     0.029 A 
ATOM     61  N   UNL     1      -3.037  -5.187   3.874  1.00  0.00    -0.354 N 
ATOM     62  N   UNL     1      -5.816  -3.127   2.482  1.00  0.00    -0.248 NA
ATOM     63  C   UNL     1      -7.056  -1.280   3.086  1.00  0.00     0.031 C 
ATOM     64  C   UNL     1      -2.204  -3.178   4.227  1.00  0.00     0.029 A 
ATOM     65  C   UNL     1      -3.398  -3.889   4.171  1.00  0.00     0.049 A 
ATOM     66  H   UNL     1      -3.666  -5.944   3.862  1.00  0.00     0.167 HD
ATOM     67  C   UNL     1      -5.666  -2.986   3.839  1.00  0.00     0.074 A 
ATOM     68  C   UNL     1      -6.518  -1.855   4.178  1.00  0.00     0.031 C 
ATOM     69  C   UNL     1      -4.744  -3.604   4.643  1.00  0.00     0.037 A 
BRANCH  56  70
ATOM     70  C   UNL     1       0.218  -7.104   3.227  1.00  0.00     0.057 A 
ATOM     71  C   UNL     1       0.911  -6.725   4.402  1.00  0.00     0.134 A 
ATOM     72  C   UNL     1       0.972  -7.960   2.395  1.00  0.00     0.134 A 
ATOM     73  F   UNL     1       0.338  -5.943   5.328  1.00  0.00    -0.206 F 
ATOM     74  C   UNL     1       2.225  -7.131   4.705  1.00  0.00     0.040 A 
ATOM     75  C   UNL     1       2.267  -8.421   2.716  1.00  0.00     0.040 A 
ATOM     76  F   UNL     1       0.526  -8.371   1.204  1.00  0.00    -0.206 F 
ATOM     77  C   UNL     1       2.908  -7.995   3.867  1.00  0.00     0.006 A 
ENDBRANCH  56  70
BRANCH  57  78
ATOM     78  C   UNL     1      -7.437  -1.655  -0.590  1.00  0.00     0.057 A 
ATOM     79  C   UNL     1      -7.216  -0.620  -1.533  1.00  0.00     0.134 A 
ATOM     80  C   UNL     1      -7.942  -2.857  -1.107  1.00  0.00     0.134 A 
ATOM     81  F   UNL     1      -6.772   0.578  -1.117  1.00  0.00    -0.206 F 
ATOM     82  C   UNL     1      -7.211  -0.858  -2.915  1.00  0.00     0.040 A 
ATOM     83  C   UNL     1      -7.977  -3.088  -2.497  1.00  0.00     0.040 A 
ATOM     84  F   UNL     1      -8.183  -3.899  -0.300  1.00  0.00    -0.206 F 
ATOM     85  C   UNL     1      -7.532  -2.119  -3.398  1.00  0.00     0.006 A 
ENDBRANCH  57  78
BRANCH  69  86
ATOM     86  C   UNL     1      -5.093  -4.076   6.038  1.00  0.00     0.057 A 
ATOM     87  C   UNL     1      -6.415  -4.201   6.483  1.00  0.00     0.134 A 
ATOM     88  C   UNL     1      -4.116  -4.660   6.883  1.00  0.00     0.134 A 
ATOM     89  F   UNL     1      -7.451  -3.782   5.744  1.00  0.00    -0.206 F 
ATOM     90  C   UNL     1      -6.740  -4.822   7.691  1.00  0.00     0.040 A 
ATOM     91  C   UNL     1      -4.437  -5.335   8.059  1.00  0.00     0.040 A 
ATOM     92  F   UNL     1      -2.808  -4.650   6.590  1.00  0.00    -0.206 F 
ATOM     93  C   UNL     1      -5.754  -5.406   8.475  1.00  0.00     0.006 A 
ENDBRANCH  69  86
ENDBRANCH  43  44
ENDBRANCH  36  38
ENDBRANCH  35  36
ENDBRANCH  34  35
ENDBRANCH  33  34
ENDBRANCH  32  33
ENDBRANCH  31  32
ENDBRANCH  30  31
ENDBRANCH  29  30
ENDBRANCH   1  29
TORSDOF 23
