REMARK SMILES O=C(OCCOCCOCCOCCOC(=O)[C@H]1CCC[C@@H]1C[NH2+][C@@H]1CCOC2(CCC2)C1)c1ccc(-c2c3nc(c(-c4c(F)cccc4F)c4ccc([nH]4)c(-c4c(F)cccc4F)c4nc(c(-c5c(F)cccc5F)c5ccc2[nH]5)C=C4)C=C3)cc1
REMARK SMILES IDX 10 1 9 2 8 3 7 4 6 5 5 6 4 7 3 8 2 9 1 10 34 11 35 12 87 13
REMARK SMILES IDX 36 14 86 15 37 16 38 17 39 18 80 19 40 20 85 21 79 22 81 23
REMARK SMILES IDX 41 24 84 25 78 26 77 27 42 29 68 30 51 31 67 32 52 33 55 34
REMARK SMILES IDX 66 35 82 36 53 37 54 38 65 40 83 41 56 42 43 43 44 44 49 45
REMARK SMILES IDX 45 46 46 47 48 48 50 49 47 50 69 51 70 52 75 53 71 54 72 55
REMARK SMILES IDX 74 56 76 57 73 58 57 59 58 60 63 61 59 62 60 63 62 64 64 65
REMARK SMILES IDX 61 66 11 67 12 68 13 69 14 70 15 71 16 72 17 73 18 74 19 75
REMARK SMILES IDX 22 76 20 77 21 78 23 79 24 80 25 83 26 84 33 85 27 86 29 87
REMARK SMILES IDX 28 88 30 89 32 90 31 91
REMARK H PARENT 81 28 55 39 24 81 24 82
REMARK Flexibility Score: inf
ROOT
ATOM      1  C   UNL     1       6.890   0.680   7.445  1.00  0.00     0.188 C 
ENDROOT
BRANCH   1   2
ATOM      2  O   UNL     1       7.127  -0.686   7.746  1.00  0.00    -0.377 OA
BRANCH   2   3
ATOM      3  C   UNL     1       8.302  -0.979   8.488  1.00  0.00     0.188 C 
BRANCH   3   4
ATOM      4  C   UNL     1       9.557  -0.463   7.801  1.00  0.00     0.188 C 
BRANCH   4   5
ATOM      5  O   UNL     1       9.587   0.956   7.977  1.00  0.00    -0.376 OA
BRANCH   5   6
ATOM      6  C   UNL     1      10.316   1.669   6.984  1.00  0.00     0.202 C 
BRANCH   6   7
ATOM      7  C   UNL     1      11.794   1.836   7.339  1.00  0.00     0.261 C 
BRANCH   7   8
ATOM      8  O   UNL     1      12.322   0.702   8.049  1.00  0.00    -0.460 OA
BRANCH   8   9
ATOM      9  C   UNL     1      12.334   0.476   9.384  1.00  0.00     0.338 C 
ATOM     10  O   UNL     1      12.859  -0.571   9.787  1.00  0.00    -0.246 OA
BRANCH   9  11
ATOM     11  C   UNL     1      11.769   1.399  10.421  1.00  0.00     0.060 A 
ATOM     12  C   UNL     1      10.802   2.381  10.200  1.00  0.00     0.016 A 
ATOM     13  C   UNL     1      12.214   1.218  11.745  1.00  0.00     0.016 A 
ATOM     14  C   UNL     1      10.319   3.182  11.224  1.00  0.00     0.010 A 
ATOM     15  C   UNL     1      11.738   2.020  12.788  1.00  0.00     0.010 A 
ATOM     16  C   UNL     1      10.804   3.023  12.516  1.00  0.00    -0.014 A 
BRANCH  16  17
ATOM     17  C   UNL     1      10.465   4.070  13.492  1.00  0.00     0.031 A 
ATOM     18  C   UNL     1      11.480   5.147  13.726  1.00  0.00     0.074 A 
ATOM     19  C   UNL     1       9.225   4.141  14.004  1.00  0.00     0.049 A 
ATOM     20  N   UNL     1      11.454   6.144  14.565  1.00  0.00    -0.248 NA
ATOM     21  C   UNL     1      12.683   5.108  12.873  1.00  0.00     0.031 C 
ATOM     22  C   UNL     1       8.125   3.228  13.684  1.00  0.00     0.029 A 
ATOM     23  N   UNL     1       8.669   5.043  14.870  1.00  0.00    -0.354 N 
ATOM     24  C   UNL     1      12.649   6.824  14.371  1.00  0.00     0.074 A 
ATOM     25  C   UNL     1      13.373   6.143  13.323  1.00  0.00     0.031 C 
ATOM     26  C   UNL     1       7.023   3.623  14.342  1.00  0.00     0.029 A 
ATOM     27  C   UNL     1       7.359   4.769  15.180  1.00  0.00     0.049 A 
ATOM     28  H   UNL     1       9.161   5.813  15.236  1.00  0.00     0.167 HD
ATOM     29  C   UNL     1      13.101   7.913  15.031  1.00  0.00     0.037 A 
ATOM     30  C   UNL     1       6.552   5.359  16.081  1.00  0.00     0.037 A 
ATOM     31  C   UNL     1      12.348   8.567  16.064  1.00  0.00     0.049 A 
ATOM     32  C   UNL     1       7.120   6.501  16.883  1.00  0.00     0.074 A 
ATOM     33  C   UNL     1      12.717   9.622  16.874  1.00  0.00     0.029 A 
ATOM     34  N   UNL     1      11.053   8.213  16.420  1.00  0.00    -0.354 N 
ATOM     35  N   UNL     1       8.292   7.084  16.775  1.00  0.00    -0.248 NA
ATOM     36  C   UNL     1       6.272   7.050  17.948  1.00  0.00     0.031 C 
ATOM     37  C   UNL     1      11.656   9.882  17.749  1.00  0.00     0.029 A 
ATOM     38  C   UNL     1      10.612   9.017  17.453  1.00  0.00     0.049 A 
ATOM     39  H   UNL     1      10.527   7.495  15.999  1.00  0.00     0.167 HD
ATOM     40  C   UNL     1       8.320   8.072  17.748  1.00  0.00     0.074 A 
ATOM     41  C   UNL     1       7.035   8.025  18.420  1.00  0.00     0.031 C 
ATOM     42  C   UNL     1       9.315   8.934  18.075  1.00  0.00     0.037 A 
BRANCH  29  43
ATOM     43  C   UNL     1      14.487   8.379  14.709  1.00  0.00     0.057 A 
ATOM     44  C   UNL     1      14.795   9.059  13.524  1.00  0.00     0.134 A 
ATOM     45  C   UNL     1      15.542   8.100  15.587  1.00  0.00     0.134 A 
ATOM     46  F   UNL     1      13.837   9.323  12.623  1.00  0.00    -0.206 F 
ATOM     47  C   UNL     1      16.107   9.428  13.216  1.00  0.00     0.040 A 
ATOM     48  C   UNL     1      16.854   8.480  15.299  1.00  0.00     0.040 A 
ATOM     49  F   UNL     1      15.317   7.438  16.732  1.00  0.00    -0.206 F 
ATOM     50  C   UNL     1      17.140   9.141  14.107  1.00  0.00     0.006 A 
ENDBRANCH  29  43
BRANCH  30  51
ATOM     51  C   UNL     1       5.183   4.838  16.337  1.00  0.00     0.057 A 
ATOM     52  C   UNL     1       4.043   5.615  16.104  1.00  0.00     0.134 A 
ATOM     53  C   UNL     1       4.982   3.554  16.866  1.00  0.00     0.134 A 
ATOM     54  F   UNL     1       4.163   6.862  15.623  1.00  0.00    -0.206 F 
ATOM     55  C   UNL     1       2.761   5.147  16.404  1.00  0.00     0.040 A 
ATOM     56  C   UNL     1       3.705   3.062  17.142  1.00  0.00     0.040 A 
ATOM     57  F   UNL     1       6.028   2.755  17.122  1.00  0.00    -0.206 F 
ATOM     58  C   UNL     1       2.589   3.864  16.921  1.00  0.00     0.006 A 
ENDBRANCH  30  51
BRANCH  42  59
ATOM     59  C   UNL     1       9.030   9.900  19.181  1.00  0.00     0.057 A 
ATOM     60  C   UNL     1       9.023   9.498  20.521  1.00  0.00     0.134 A 
ATOM     61  C   UNL     1       8.819  11.255  18.902  1.00  0.00     0.134 A 
ATOM     62  F   UNL     1       9.207   8.209  20.846  1.00  0.00    -0.206 F 
ATOM     63  C   UNL     1       8.798  10.412  21.549  1.00  0.00     0.040 A 
ATOM     64  C   UNL     1       8.618  12.182  19.922  1.00  0.00     0.040 A 
ATOM     65  F   UNL     1       8.825  11.699  17.636  1.00  0.00    -0.206 F 
ATOM     66  C   UNL     1       8.603  11.759  21.251  1.00  0.00     0.006 A 
ENDBRANCH  42  59
ENDBRANCH  16  17
ENDBRANCH   9  11
ENDBRANCH   8   9
ENDBRANCH   7   8
ENDBRANCH   6   7
ENDBRANCH   5   6
ENDBRANCH   4   5
ENDBRANCH   3   4
ENDBRANCH   2   3
ENDBRANCH   1   2
BRANCH   1  67
ATOM     67  C   UNL     1       6.576   1.685   8.559  1.00  0.00     0.188 C 
BRANCH  67  68
ATOM     68  O   UNL     1       5.630   1.387   9.578  1.00  0.00    -0.376 OA
BRANCH  68  69
ATOM     69  C   UNL     1       5.050   0.098   9.641  1.00  0.00     0.202 C 
BRANCH  69  70
ATOM     70  C   UNL     1       3.826  -0.142   8.739  1.00  0.00     0.261 C 
BRANCH  70  71
ATOM     71  O   UNL     1       4.010   0.020   7.313  1.00  0.00    -0.463 OA
BRANCH  71  72
ATOM     72  C   UNL     1       3.700   1.246   6.819  1.00  0.00     0.309 C 
ATOM     73  O   UNL     1       3.323   2.184   7.539  1.00  0.00    -0.252 OA
BRANCH  72  74
ATOM     74  C   UNL     1       3.798   1.344   5.281  1.00  0.00     0.108 C 
ATOM     75  C   UNL     1       3.065   2.642   4.897  1.00  0.00     0.016 C 
ATOM     76  C   UNL     1       5.191   1.577   4.607  1.00  0.00     0.058 C 
ATOM     77  C   UNL     1       4.123   3.738   5.056  1.00  0.00     0.001 C 
ATOM     78  C   UNL     1       5.479   3.046   4.954  1.00  0.00     0.010 C 
BRANCH  76  79
ATOM     79  C   UNL     1       5.193   1.244   3.082  1.00  0.00     0.265 C 
BRANCH  79  80
ATOM     80  N   UNL     1       6.168   2.014   2.289  1.00  0.00    -0.343 N 
ATOM     81  H   UNL     1       7.101   1.799   2.640  1.00  0.00     0.346 HD
ATOM     82  H   UNL     1       5.908   2.995   2.396  1.00  0.00     0.346 HD
BRANCH  80  83
ATOM     83  C   UNL     1       6.153   1.741   0.836  1.00  0.00     0.187 C 
ATOM     84  C   UNL     1       7.108   2.703   0.086  1.00  0.00     0.093 C 
ATOM     85  C   UNL     1       4.769   1.820   0.173  1.00  0.00     0.100 C 
ATOM     86  C   UNL     1       6.527   4.101  -0.128  1.00  0.00     0.167 C 
ATOM     87  C   UNL     1       4.265   3.265   0.112  1.00  0.00     0.074 C 
ATOM     88  O   UNL     1       5.208   4.032  -0.677  1.00  0.00    -0.375 OA
ATOM     89  C   UNL     1       2.779   3.313  -0.342  1.00  0.00     0.036 C 
ATOM     90  C   UNL     1       3.802   3.985   1.411  1.00  0.00     0.036 C 
ATOM     91  C   UNL     1       2.509   4.395   0.712  1.00  0.00     0.006 C 
ENDBRANCH  80  83
ENDBRANCH  79  80
ENDBRANCH  76  79
ENDBRANCH  72  74
ENDBRANCH  71  72
ENDBRANCH  70  71
ENDBRANCH  69  70
ENDBRANCH  68  69
ENDBRANCH  67  68
ENDBRANCH   1  67
TORSDOF 23
