REMARK SMILES O=C(Cn1nc(C(=O)OCCOCCOCCOCCOC(=O)c2ccc(-c3c4nc(c(-c5c(F)cccc5F)c5ccc([nH]5)c(-c5c(F)cccc5F)c5nc(c(-c6c(F)cccc6F)c6ccc3[nH]6)C=C5)C=C4)cc2)c2ccccc2c1=O)Nc1ccc2c(c1)C(=O)c1ccccc1C2=O
REMARK SMILES IDX 14 1 13 2 12 3 11 4 10 5 9 6 7 7 8 8 6 9 4 10 5 11 84 12
REMARK SMILES IDX 83 13 85 14 78 15 82 16 79 17 81 18 80 19 3 20 2 21 1 22
REMARK SMILES IDX 86 23 87 25 88 26 92 27 89 28 91 29 90 30 93 31 101 32 94 33
REMARK SMILES IDX 95 34 100 35 102 36 96 37 99 38 97 39 98 40 15 41 16 42
REMARK SMILES IDX 17 43 18 44 19 45 20 46 21 47 22 48 23 49 24 50 25 51 77 52
REMARK SMILES IDX 26 53 76 54 27 55 28 56 29 57 70 58 30 59 75 60 69 61 71 62
REMARK SMILES IDX 31 63 74 64 68 65 67 66 32 68 58 69 41 70 57 71 42 72 45 73
REMARK SMILES IDX 56 74 72 75 43 76 44 77 55 79 73 80 46 81 33 82 34 83 39 84
REMARK SMILES IDX 35 85 36 86 38 87 40 88 37 89 59 90 60 91 65 92 61 93 62 94
REMARK SMILES IDX 64 95 66 96 63 97 47 98 48 99 53 100 49 101 50 102 52 103
REMARK SMILES IDX 54 104 51 105
REMARK H PARENT 86 24 71 67 45 78
REMARK Flexibility Score: inf
ROOT
ATOM      1  C   UNL     1       5.879   0.965  -5.799  1.00  0.00     0.188 C 
ENDROOT
BRANCH   1   2
ATOM      2  C   UNL     1       7.251   1.650  -5.873  1.00  0.00     0.188 C 
BRANCH   2   3
ATOM      3  O   UNL     1       8.355   0.755  -5.997  1.00  0.00    -0.376 OA
BRANCH   3   4
ATOM      4  C   UNL     1       9.134   0.572  -4.817  1.00  0.00     0.202 C 
BRANCH   4   5
ATOM      5  C   UNL     1       8.569  -0.518  -3.907  1.00  0.00     0.261 C 
BRANCH   5   6
ATOM      6  O   UNL     1       7.321  -0.131  -3.321  1.00  0.00    -0.458 OA
BRANCH   6   7
ATOM      7  C   UNL     1       7.361   0.728  -2.286  1.00  0.00     0.359 C 
ATOM      8  O   UNL     1       8.333   1.221  -1.748  1.00  0.00    -0.244 OA
BRANCH   7   9
ATOM      9  C   UNL     1       5.925   1.127  -1.981  1.00  0.00     0.176 A 
ATOM     10  N   UNL     1       3.774   0.435  -1.505  1.00  0.00    -0.219 N 
ATOM     11  N   UNL     1       5.121   0.175  -1.600  1.00  0.00    -0.161 NA
ATOM     12  C   UNL     1       3.204   1.670  -1.819  1.00  0.00     0.275 A 
ATOM     13  C   UNL     1       4.135   2.772  -2.131  1.00  0.00     0.051 A 
ATOM     14  O   UNL     1       1.997   1.883  -1.792  1.00  0.00    -0.267 OA
ATOM     15  C   UNL     1       5.498   2.514  -2.224  1.00  0.00     0.022 A 
ATOM     16  C   UNL     1       3.647   4.069  -2.341  1.00  0.00     0.014 A 
ATOM     17  C   UNL     1       6.382   3.552  -2.555  1.00  0.00     0.011 A 
ATOM     18  C   UNL     1       4.527   5.101  -2.671  1.00  0.00     0.001 A 
ATOM     19  C   UNL     1       5.891   4.841  -2.785  1.00  0.00     0.001 A 
BRANCH  10  20
ATOM     20  C   UNL     1       2.895  -0.735  -1.270  1.00  0.00     0.248 C 
BRANCH  20  21
ATOM     21  C   UNL     1       2.130  -0.694   0.065  1.00  0.00     0.246 C 
ATOM     22  O   UNL     1       1.216  -1.467   0.334  1.00  0.00    -0.273 OA
ATOM     23  N   UNL     1       2.632   0.254   0.926  1.00  0.00    -0.324 N 
ATOM     24  H   UNL     1       3.570   0.528   0.804  1.00  0.00     0.169 HD
BRANCH  23  25
ATOM     25  C   UNL     1       1.913   0.857   1.962  1.00  0.00     0.042 A 
ATOM     26  C   UNL     1       2.049   0.352   3.258  1.00  0.00     0.027 A 
ATOM     27  C   UNL     1       1.589   2.195   1.744  1.00  0.00     0.039 A 
ATOM     28  C   UNL     1       2.065   1.241   4.339  1.00  0.00     0.015 A 
ATOM     29  C   UNL     1       1.655   3.077   2.809  1.00  0.00     0.036 A 
ATOM     30  C   UNL     1       1.984   2.614   4.083  1.00  0.00     0.034 A 
ATOM     31  C   UNL     1       1.789   4.507   2.489  1.00  0.00     0.194 C 
ATOM     32  C   UNL     1       2.618   3.568   5.022  1.00  0.00     0.194 C 
ATOM     33  O   UNL     1       1.129   5.047   1.616  1.00  0.00    -0.289 OA
ATOM     34  C   UNL     1       2.920   5.174   3.148  1.00  0.00     0.034 A 
ATOM     35  C   UNL     1       3.351   4.694   4.386  1.00  0.00     0.034 A 
ATOM     36  O   UNL     1       2.675   3.358   6.223  1.00  0.00    -0.289 OA
ATOM     37  C   UNL     1       3.663   6.119   2.439  1.00  0.00     0.013 A 
ATOM     38  C   UNL     1       4.556   5.149   4.921  1.00  0.00     0.013 A 
ATOM     39  C   UNL     1       4.881   6.548   2.960  1.00  0.00     0.001 A 
ATOM     40  C   UNL     1       5.328   6.061   4.193  1.00  0.00     0.001 A 
ENDBRANCH  23  25
ENDBRANCH  20  21
ENDBRANCH  10  20
ENDBRANCH   7   9
ENDBRANCH   6   7
ENDBRANCH   5   6
ENDBRANCH   4   5
ENDBRANCH   3   4
ENDBRANCH   2   3
ENDBRANCH   1   2
BRANCH   1  41
ATOM     41  O   UNL     1       5.781  -0.378  -6.234  1.00  0.00    -0.377 OA
BRANCH  41  42
ATOM     42  C   UNL     1       6.331  -0.761  -7.486  1.00  0.00     0.188 C 
BRANCH  42  43
ATOM     43  C   UNL     1       6.555   0.271  -8.604  1.00  0.00     0.188 C 
BRANCH  43  44
ATOM     44  O   UNL     1       5.624   1.349  -8.596  1.00  0.00    -0.376 OA
BRANCH  44  45
ATOM     45  C   UNL     1       4.753   1.412  -9.722  1.00  0.00     0.202 C 
BRANCH  45  46
ATOM     46  C   UNL     1       3.449   0.652  -9.469  1.00  0.00     0.261 C 
BRANCH  46  47
ATOM     47  O   UNL     1       3.632  -0.760  -9.293  1.00  0.00    -0.460 OA
BRANCH  47  48
ATOM     48  C   UNL     1       4.085  -1.444 -10.367  1.00  0.00     0.338 C 
ATOM     49  O   UNL     1       4.333  -1.000 -11.473  1.00  0.00    -0.246 OA
BRANCH  48  50
ATOM     50  C   UNL     1       4.393  -2.821  -9.935  1.00  0.00     0.060 A 
ATOM     51  C   UNL     1       3.506  -3.533  -9.122  1.00  0.00     0.016 A 
ATOM     52  C   UNL     1       5.600  -3.396 -10.348  1.00  0.00     0.016 A 
ATOM     53  C   UNL     1       3.809  -4.843  -8.755  1.00  0.00     0.010 A 
ATOM     54  C   UNL     1       5.908  -4.703  -9.971  1.00  0.00     0.010 A 
ATOM     55  C   UNL     1       5.000  -5.441  -9.197  1.00  0.00    -0.014 A 
BRANCH  55  56
ATOM     56  C   UNL     1       5.190  -6.895  -9.013  1.00  0.00     0.031 A 
ATOM     57  C   UNL     1       5.922  -7.457  -7.839  1.00  0.00     0.074 A 
ATOM     58  C   UNL     1       4.661  -7.710  -9.944  1.00  0.00     0.049 A 
ATOM     59  N   UNL     1       6.056  -8.709  -7.483  1.00  0.00    -0.248 NA
ATOM     60  C   UNL     1       6.597  -6.498  -6.954  1.00  0.00     0.031 C 
ATOM     61  C   UNL     1       3.949  -7.263 -11.144  1.00  0.00     0.029 A 
ATOM     62  N   UNL     1       4.634  -9.076 -10.026  1.00  0.00    -0.354 N 
ATOM     63  C   UNL     1       6.806  -8.693  -6.316  1.00  0.00     0.074 A 
ATOM     64  C   UNL     1       7.136  -7.307  -6.049  1.00  0.00     0.031 C 
ATOM     65  C   UNL     1       3.546  -8.338 -11.838  1.00  0.00     0.029 A 
ATOM     66  C   UNL     1       3.970  -9.542 -11.132  1.00  0.00     0.049 A 
ATOM     67  H   UNL     1       5.050  -9.666  -9.356  1.00  0.00     0.167 HD
ATOM     68  C   UNL     1       7.165  -9.741  -5.536  1.00  0.00     0.037 A 
ATOM     69  C   UNL     1       3.714 -10.801 -11.524  1.00  0.00     0.037 A 
ATOM     70  C   UNL     1       6.843 -11.117  -5.819  1.00  0.00     0.049 A 
ATOM     71  C   UNL     1       4.152 -11.942 -10.657  1.00  0.00     0.074 A 
ATOM     72  C   UNL     1       7.105 -12.242  -5.055  1.00  0.00     0.029 A 
ATOM     73  N   UNL     1       6.202 -11.558  -6.968  1.00  0.00    -0.354 N 
ATOM     74  N   UNL     1       4.775 -11.909  -9.505  1.00  0.00    -0.248 NA
ATOM     75  C   UNL     1       3.837 -13.293 -11.139  1.00  0.00     0.031 C 
ATOM     76  C   UNL     1       6.657 -13.367  -5.760  1.00  0.00     0.029 A 
ATOM     77  C   UNL     1       6.089 -12.940  -6.948  1.00  0.00     0.049 A 
ATOM     78  H   UNL     1       5.876 -10.975  -7.691  1.00  0.00     0.167 HD
ATOM     79  C   UNL     1       4.912 -13.232  -9.112  1.00  0.00     0.074 A 
ATOM     80  C   UNL     1       4.297 -14.041 -10.146  1.00  0.00     0.031 C 
ATOM     81  C   UNL     1       5.490 -13.730  -7.993  1.00  0.00     0.037 A 
BRANCH  68  82
ATOM     82  C   UNL     1       7.939  -9.440  -4.289  1.00  0.00     0.057 A 
ATOM     83  C   UNL     1       9.301  -9.748  -4.195  1.00  0.00     0.134 A 
ATOM     84  C   UNL     1       7.317  -8.896  -3.158  1.00  0.00     0.134 A 
ATOM     85  F   UNL     1       9.954 -10.276  -5.241  1.00  0.00    -0.206 F 
ATOM     86  C   UNL     1      10.018  -9.529  -3.017  1.00  0.00     0.040 A 
ATOM     87  C   UNL     1       8.027  -8.658  -1.979  1.00  0.00     0.040 A 
ATOM     88  F   UNL     1       6.016  -8.574  -3.187  1.00  0.00    -0.206 F 
ATOM     89  C   UNL     1       9.380  -8.981  -1.905  1.00  0.00     0.006 A 
ENDBRANCH  68  82
BRANCH  69  90
ATOM     90  C   UNL     1       2.963 -11.036 -12.777  1.00  0.00     0.057 A 
ATOM     91  C   UNL     1       3.564 -10.856 -14.028  1.00  0.00     0.134 A 
ATOM     92  C   UNL     1       1.620 -11.421 -12.748  1.00  0.00     0.134 A 
ATOM     93  F   UNL     1       4.848 -10.479 -14.114  1.00  0.00    -0.206 F 
ATOM     94  C   UNL     1       2.850 -11.045 -15.211  1.00  0.00     0.040 A 
ATOM     95  C   UNL     1       0.898 -11.628 -13.923  1.00  0.00     0.040 A 
ATOM     96  F   UNL     1       0.999 -11.618 -11.576  1.00  0.00    -0.206 F 
ATOM     97  C   UNL     1       1.513 -11.435 -15.159  1.00  0.00     0.006 A 
ENDBRANCH  69  90
BRANCH  81  98
ATOM     98  C   UNL     1       5.476 -15.220  -7.840  1.00  0.00     0.057 A 
ATOM     99  C   UNL     1       4.588 -15.841  -6.954  1.00  0.00     0.134 A 
ATOM    100  C   UNL     1       6.340 -16.038  -8.577  1.00  0.00     0.134 A 
ATOM    101  F   UNL     1       3.735 -15.111  -6.220  1.00  0.00    -0.206 F 
ATOM    102  C   UNL     1       4.557 -17.229  -6.810  1.00  0.00     0.040 A 
ATOM    103  C   UNL     1       6.306 -17.428  -8.455  1.00  0.00     0.040 A 
ATOM    104  F   UNL     1       7.200 -15.502  -9.456  1.00  0.00    -0.206 F 
ATOM    105  C   UNL     1       5.414 -18.026  -7.567  1.00  0.00     0.006 A 
ENDBRANCH  81  98
ENDBRANCH  55  56
ENDBRANCH  48  50
ENDBRANCH  47  48
ENDBRANCH  46  47
ENDBRANCH  45  46
ENDBRANCH  44  45
ENDBRANCH  43  44
ENDBRANCH  42  43
ENDBRANCH  41  42
ENDBRANCH   1  41
TORSDOF 23
