REMARK SMILES CC(C)(C)OC(=O)N1CC(Cc2ccc(C(=O)OCCOCCOCCOCCOC(=O)c3ccc(-c4c5nc(c(-c6c(F)cccc6F)c6ccc([nH]6)c(-c6c(F)cccc6F)c6nc(c(-c7c(F)cccc7F)c7ccc4[nH]7)C=C6)C=C5)cc3)cc2)C1
REMARK SMILES IDX 23 1 22 2 21 3 20 4 19 5 18 6 16 7 17 8 15 9 12 10 13 11
REMARK SMILES IDX 88 12 14 13 87 14 11 15 10 16 6 17 7 18 8 19 9 20 89 21 5 22
REMARK SMILES IDX 2 23 1 24 3 25 4 26 24 27 25 28 26 29 27 30 28 31 29 32
REMARK SMILES IDX 30 33 31 34 32 35 33 36 34 37 86 38 35 39 85 40 36 41 37 42
REMARK SMILES IDX 38 43 79 44 39 45 84 46 78 47 80 48 40 49 83 50 77 51 76 52
REMARK SMILES IDX 41 54 67 55 50 56 66 57 51 58 54 59 65 60 81 61 52 62 53 63
REMARK SMILES IDX 64 65 82 66 55 67 42 68 43 69 48 70 44 71 45 72 47 73 49 74
REMARK SMILES IDX 46 75 68 76 69 77 74 78 70 79 71 80 73 81 75 82 72 83 56 84
REMARK SMILES IDX 57 85 62 86 58 87 59 88 61 89 63 90 60 91
REMARK H PARENT 80 53 54 64
REMARK Flexibility Score: inf
ROOT
ATOM      1  C   UNL     1       7.810   7.312  -8.211  1.00  0.00     0.188 C 
ENDROOT
BRANCH   1   2
ATOM      2  C   UNL     1       8.924   7.396  -7.147  1.00  0.00     0.188 C 
BRANCH   2   3
ATOM      3  O   UNL     1      10.166   6.838  -7.551  1.00  0.00    -0.376 OA
BRANCH   3   4
ATOM      4  C   UNL     1      10.614   5.673  -6.879  1.00  0.00     0.202 C 
BRANCH   4   5
ATOM      5  C   UNL     1       9.847   4.385  -7.201  1.00  0.00     0.261 C 
BRANCH   5   6
ATOM      6  O   UNL     1       8.428   4.471  -7.023  1.00  0.00    -0.460 OA
BRANCH   6   7
ATOM      7  C   UNL     1       7.992   4.616  -5.753  1.00  0.00     0.338 C 
ATOM      8  O   UNL     1       8.677   4.631  -4.745  1.00  0.00    -0.246 OA
BRANCH   7   9
ATOM      9  C   UNL     1       6.547   4.931  -5.782  1.00  0.00     0.060 A 
ATOM     10  C   UNL     1       3.809   5.474  -5.690  1.00  0.00    -0.048 A 
ATOM     11  C   UNL     1       4.679   6.112  -4.798  1.00  0.00     0.004 A 
ATOM     12  C   UNL     1       4.333   4.646  -6.694  1.00  0.00     0.004 A 
ATOM     13  C   UNL     1       6.045   5.837  -4.840  1.00  0.00     0.016 A 
ATOM     14  C   UNL     1       5.697   4.366  -6.737  1.00  0.00     0.016 A 
BRANCH  10  15
ATOM     15  C   UNL     1       2.316   5.574  -5.500  1.00  0.00     0.042 C 
BRANCH  15  16
ATOM     16  C   UNL     1       1.808   4.210  -5.046  1.00  0.00     0.033 C 
ATOM     17  C   UNL     1       0.281   1.996  -3.258  1.00  0.00     0.410 C 
ATOM     18  O   UNL     1      -0.665   1.487  -3.843  1.00  0.00    -0.224 OA
ATOM     19  N   UNL     1       0.786   3.215  -3.599  1.00  0.00    -0.307 N 
ATOM     20  C   UNL     1       0.334   4.136  -4.625  1.00  0.00     0.128 C 
ATOM     21  C   UNL     1       2.151   3.711  -3.614  1.00  0.00     0.128 C 
BRANCH  17  22
ATOM     22  O   UNL     1       0.920   1.466  -2.182  1.00  0.00    -0.444 OA
BRANCH  22  23
ATOM     23  C   UNL     1       0.451   0.223  -1.590  1.00  0.00     0.106 C 
ATOM     24  C   UNL     1       1.114   0.154  -0.205  1.00  0.00     0.056 C 
ATOM     25  C   UNL     1       0.933  -0.960  -2.434  1.00  0.00     0.056 C 
ATOM     26  C   UNL     1      -1.071   0.183  -1.376  1.00  0.00     0.056 C 
ENDBRANCH  22  23
ENDBRANCH  17  22
ENDBRANCH  15  16
ENDBRANCH  10  15
ENDBRANCH   7   9
ENDBRANCH   6   7
ENDBRANCH   5   6
ENDBRANCH   4   5
ENDBRANCH   3   4
ENDBRANCH   2   3
ENDBRANCH   1   2
BRANCH   1  27
ATOM     27  O   UNL     1       8.044   6.586  -9.410  1.00  0.00    -0.377 OA
BRANCH  27  28
ATOM     28  C   UNL     1       9.276   6.745 -10.105  1.00  0.00     0.188 C 
BRANCH  28  29
ATOM     29  C   UNL     1      10.068   8.072 -10.038  1.00  0.00     0.188 C 
BRANCH  29  30
ATOM     30  O   UNL     1       9.363   9.149  -9.442  1.00  0.00    -0.376 OA
BRANCH  30  31
ATOM     31  C   UNL     1       8.930  10.183 -10.310  1.00  0.00     0.202 C 
BRANCH  31  32
ATOM     32  C   UNL     1       7.838   9.791 -11.313  1.00  0.00     0.261 C 
BRANCH  32  33
ATOM     33  O   UNL     1       8.163   8.710 -12.204  1.00  0.00    -0.460 OA
BRANCH  33  34
ATOM     34  C   UNL     1       9.177   8.891 -13.079  1.00  0.00     0.338 C 
ATOM     35  O   UNL     1       9.864   9.887 -13.222  1.00  0.00    -0.246 OA
BRANCH  34  36
ATOM     36  C   UNL     1       9.432   7.585 -13.722  1.00  0.00     0.060 A 
ATOM     37  C   UNL     1      10.664   6.946 -13.529  1.00  0.00     0.016 A 
ATOM     38  C   UNL     1       8.428   6.973 -14.475  1.00  0.00     0.016 A 
ATOM     39  C   UNL     1      10.893   5.686 -14.090  1.00  0.00     0.010 A 
ATOM     40  C   UNL     1       8.669   5.728 -15.057  1.00  0.00     0.010 A 
ATOM     41  C   UNL     1       9.906   5.082 -14.880  1.00  0.00    -0.014 A 
BRANCH  41  42
ATOM     42  C   UNL     1      10.194   3.848 -15.649  1.00  0.00     0.031 A 
ATOM     43  C   UNL     1      10.580   3.981 -17.096  1.00  0.00     0.074 A 
ATOM     44  C   UNL     1      10.074   2.630 -15.089  1.00  0.00     0.049 A 
ATOM     45  N   UNL     1      10.737   3.052 -18.003  1.00  0.00    -0.248 NA
ATOM     46  C   UNL     1      10.813   5.350 -17.587  1.00  0.00     0.031 C 
ATOM     47  C   UNL     1       9.747   2.368 -13.689  1.00  0.00     0.029 A 
ATOM     48  N   UNL     1      10.189   1.380 -15.648  1.00  0.00    -0.354 N 
ATOM     49  C   UNL     1      11.068   3.723 -19.173  1.00  0.00     0.074 A 
ATOM     50  C   UNL     1      11.082   5.136 -18.866  1.00  0.00     0.031 C 
ATOM     51  C   UNL     1       9.659   1.038 -13.505  1.00  0.00     0.029 A 
ATOM     52  C   UNL     1       9.879   0.359 -14.781  1.00  0.00     0.049 A 
ATOM     53  H   UNL     1      10.466   1.230 -16.581  1.00  0.00     0.167 HD
ATOM     54  C   UNL     1      11.332   3.204 -20.394  1.00  0.00     0.037 A 
ATOM     55  C   UNL     1       9.748  -0.964 -15.006  1.00  0.00     0.037 A 
ATOM     56  C   UNL     1      11.325   1.797 -20.696  1.00  0.00     0.049 A 
ATOM     57  C   UNL     1       9.970  -1.504 -16.398  1.00  0.00     0.074 A 
ATOM     58  C   UNL     1      11.623   1.174 -21.896  1.00  0.00     0.029 A 
ATOM     59  N   UNL     1      10.991   0.798 -19.797  1.00  0.00    -0.354 N 
ATOM     60  N   UNL     1      10.325  -0.869 -17.488  1.00  0.00    -0.248 NA
ATOM     61  C   UNL     1       9.763  -2.948 -16.591  1.00  0.00     0.031 C 
ATOM     62  C   UNL     1      11.410  -0.198 -21.739  1.00  0.00     0.029 A 
ATOM     63  C   UNL     1      11.037  -0.435 -20.426  1.00  0.00     0.049 A 
ATOM     64  H   UNL     1      10.755   0.943 -18.852  1.00  0.00     0.167 HD
ATOM     65  C   UNL     1      10.416  -1.837 -18.483  1.00  0.00     0.074 A 
ATOM     66  C   UNL     1      10.095  -3.104 -17.864  1.00  0.00     0.031 C 
ATOM     67  C   UNL     1      10.732  -1.691 -19.793  1.00  0.00     0.037 A 
BRANCH  54  68
ATOM     68  C   UNL     1      11.623   4.157 -21.514  1.00  0.00     0.057 A 
ATOM     69  C   UNL     1      12.841   4.839 -21.610  1.00  0.00     0.134 A 
ATOM     70  C   UNL     1      10.699   4.330 -22.552  1.00  0.00     0.134 A 
ATOM     71  F   UNL     1      13.762   4.727 -20.641  1.00  0.00    -0.206 F 
ATOM     72  C   UNL     1      13.129   5.664 -22.699  1.00  0.00     0.040 A 
ATOM     73  C   UNL     1      10.984   5.132 -23.657  1.00  0.00     0.040 A 
ATOM     74  F   UNL     1       9.514   3.701 -22.520  1.00  0.00    -0.206 F 
ATOM     75  C   UNL     1      12.203   5.803 -23.732  1.00  0.00     0.006 A 
ENDBRANCH  54  68
BRANCH  55  76
ATOM     76  C   UNL     1       9.337  -1.884 -13.912  1.00  0.00     0.057 A 
ATOM     77  C   UNL     1      10.193  -2.890 -13.448  1.00  0.00     0.134 A 
ATOM     78  C   UNL     1       8.050  -1.833 -13.361  1.00  0.00     0.134 A 
ATOM     79  F   UNL     1      11.428  -3.013 -13.957  1.00  0.00    -0.206 F 
ATOM     80  C   UNL     1       9.775  -3.832 -12.505  1.00  0.00     0.040 A 
ATOM     81  C   UNL     1       7.630  -2.748 -12.394  1.00  0.00     0.040 A 
ATOM     82  F   UNL     1       7.177  -0.898 -13.763  1.00  0.00    -0.206 F 
ATOM     83  C   UNL     1       8.489  -3.760 -11.973  1.00  0.00     0.006 A 
ENDBRANCH  55  76
BRANCH  67  84
ATOM     84  C   UNL     1      10.792  -2.933 -20.636  1.00  0.00     0.057 A 
ATOM     85  C   UNL     1       9.637  -3.632 -21.008  1.00  0.00     0.134 A 
ATOM     86  C   UNL     1      12.018  -3.407 -21.120  1.00  0.00     0.134 A 
ATOM     87  F   UNL     1       8.432  -3.238 -20.569  1.00  0.00    -0.206 F 
ATOM     88  C   UNL     1       9.702  -4.773 -21.811  1.00  0.00     0.040 A 
ATOM     89  C   UNL     1      12.094  -4.527 -21.948  1.00  0.00     0.040 A 
ATOM     90  F   UNL     1      13.162  -2.777 -20.812  1.00  0.00    -0.206 F 
ATOM     91  C   UNL     1      10.933  -5.218 -22.290  1.00  0.00     0.006 A 
ENDBRANCH  67  84
ENDBRANCH  41  42
ENDBRANCH  34  36
ENDBRANCH  33  34
ENDBRANCH  32  33
ENDBRANCH  31  32
ENDBRANCH  30  31
ENDBRANCH  29  30
ENDBRANCH  28  29
ENDBRANCH  27  28
ENDBRANCH   1  27
TORSDOF 24
