REMARK SMILES O=C(N[C@@H](Cc1ccc(O)cc1)C(=O)N[C@@H](Cc1c[nH]c2ccccc12)C(=O)N[C@@H](CO)C(=O)OCCOCCOCCOCCOC(=O)c1ccc(-c2c3nc(c(-c4c(F)cccc4F)c4ccc([nH]4)c(-c4c(F)cccc4F)c4nc(c(-c5c(F)cccc5F)c5ccc2[nH]5)C=C4)C=C3)cc1)c1ccc(F)cc1
REMARK SMILES IDX 39 1 38 2 37 3 36 4 35 5 33 6 34 7 30 8 29 9 27 10 28 11
REMARK SMILES IDX 16 13 15 14 13 15 14 16 4 18 3 19 1 20 2 21 104 23 105 24
REMARK SMILES IDX 110 25 106 26 109 27 107 28 108 29 5 30 6 31 7 32 12 33 8 34
REMARK SMILES IDX 11 35 9 36 10 37 17 39 18 40 19 41 26 42 20 43 21 44 25 45
REMARK SMILES IDX 22 47 24 48 23 49 31 50 32 51 40 53 41 54 42 55 43 56 44 57
REMARK SMILES IDX 45 58 46 59 47 60 48 61 49 62 50 63 51 64 103 65 52 66
REMARK SMILES IDX 102 67 53 68 54 69 55 70 96 71 56 72 101 73 95 74 97 75
REMARK SMILES IDX 57 76 100 77 94 78 93 79 58 81 84 82 67 83 83 84 68 85 71 86
REMARK SMILES IDX 82 87 98 88 69 89 70 90 81 92 99 93 72 94 59 95 60 96 65 97
REMARK SMILES IDX 61 98 62 99 64 100 66 101 63 102 85 103 86 104 91 105 87 106
REMARK SMILES IDX 88 107 90 108 92 109 89 110 73 111 74 112 79 113 75 114
REMARK SMILES IDX 76 115 78 116 80 117 77 118
REMARK H PARENT 29 12 15 17 3 22 10 38 20 46 32 52 97 80 71 91
REMARK Flexibility Score: inf
ROOT
ATOM      1  C   UNL     1       1.956   7.251  -4.373  1.00  0.00     0.188 C 
ENDROOT
BRANCH   1   2
ATOM      2  O   UNL     1       1.571   8.351  -5.181  1.00  0.00    -0.376 OA
BRANCH   2   3
ATOM      3  C   UNL     1       2.360   9.530  -5.099  1.00  0.00     0.202 C 
BRANCH   3   4
ATOM      4  C   UNL     1       3.859   9.425  -5.432  1.00  0.00     0.261 C 
BRANCH   4   5
ATOM      5  O   UNL     1       4.493   8.245  -4.909  1.00  0.00    -0.462 OA
BRANCH   5   6
ATOM      6  C   UNL     1       5.179   8.391  -3.752  1.00  0.00     0.331 C 
ATOM      7  O   UNL     1       5.333   9.473  -3.191  1.00  0.00    -0.250 OA
BRANCH   6   8
ATOM      8  C   UNL     1       5.829   7.086  -3.256  1.00  0.00     0.218 C 
BRANCH   8   9
ATOM      9  N   UNL     1       5.228   5.761  -3.558  1.00  0.00    -0.339 N 
ATOM     10  C   UNL     1       5.461   4.687  -2.715  1.00  0.00     0.243 C 
ATOM     11  O   UNL     1       6.628   4.333  -2.522  1.00  0.00    -0.273 OA
ATOM     12  H   UNL     1       4.665   5.647  -4.357  1.00  0.00     0.164 HD
BRANCH  10  13
ATOM     13  C   UNL     1       4.246   3.854  -2.102  1.00  0.00     0.175 C 
BRANCH  13  14
ATOM     14  N   UNL     1       4.753   3.032  -0.971  1.00  0.00    -0.342 N 
ATOM     15  C   UNL     1       5.244   1.769  -0.888  1.00  0.00     0.243 C 
ATOM     16  O   UNL     1       6.305   1.635  -0.266  1.00  0.00    -0.273 OA
ATOM     17  H   UNL     1       4.728   3.500  -0.105  1.00  0.00     0.164 HD
BRANCH  15  18
ATOM     18  C   UNL     1       4.508   0.518  -1.401  1.00  0.00     0.176 C 
BRANCH  18  19
ATOM     19  N   UNL     1       3.066   0.584  -1.155  1.00  0.00    -0.340 N 
ATOM     20  O   UNL     1       1.160   0.195   0.010  1.00  0.00    -0.269 OA
ATOM     21  C   UNL     1       2.373   0.040  -0.090  1.00  0.00     0.251 C 
ATOM     22  H   UNL     1       2.530   1.070  -1.823  1.00  0.00     0.164 HD
BRANCH  21  23
ATOM     23  C   UNL     1       3.082  -0.812   0.900  1.00  0.00     0.040 A 
ATOM     24  C   UNL     1       4.121  -0.308   1.695  1.00  0.00     0.017 A 
ATOM     25  C   UNL     1       2.728  -2.166   0.986  1.00  0.00     0.017 A 
ATOM     26  C   UNL     1       4.870  -1.178   2.493  1.00  0.00     0.040 A 
ATOM     27  C   UNL     1       3.467  -3.027   1.801  1.00  0.00     0.040 A 
ATOM     28  C   UNL     1       4.544  -2.530   2.529  1.00  0.00     0.123 A 
ATOM     29  F   UNL     1       5.283  -3.367   3.268  1.00  0.00    -0.207 F 
ENDBRANCH  21  23
ENDBRANCH  18  19
BRANCH  18  30
ATOM     30  C   UNL     1       4.949  -0.108  -2.729  1.00  0.00     0.070 C 
BRANCH  30  31
ATOM     31  C   UNL     1       4.605   0.594  -4.012  1.00  0.00    -0.045 A 
ATOM     32  C   UNL     1       5.329   1.724  -4.410  1.00  0.00     0.007 A 
ATOM     33  C   UNL     1       3.621   0.082  -4.870  1.00  0.00     0.007 A 
ATOM     34  C   UNL     1       5.003   2.401  -5.585  1.00  0.00     0.046 A 
ATOM     35  C   UNL     1       3.331   0.728  -6.073  1.00  0.00     0.046 A 
ATOM     36  C   UNL     1       4.000   1.900  -6.403  1.00  0.00     0.115 A 
BRANCH  36  37
ATOM     37  O   UNL     1       3.655   2.532  -7.559  1.00  0.00    -0.508 OA
ATOM     38  H   UNL     1       4.089   3.324  -7.807  1.00  0.00     0.293 HD
ENDBRANCH  36  37
ENDBRANCH  30  31
ENDBRANCH  18  30
ENDBRANCH  15  18
ENDBRANCH  13  14
BRANCH  13  39
ATOM     39  C   UNL     1       3.036   4.668  -1.619  1.00  0.00     0.072 C 
BRANCH  39  40
ATOM     40  C   UNL     1       3.220   6.000  -0.934  1.00  0.00    -0.020 A 
ATOM     41  C   UNL     1       2.216   6.959  -0.935  1.00  0.00     0.087 A 
ATOM     42  C   UNL     1       4.353   6.616  -0.285  1.00  0.00     0.003 A 
ATOM     43  N   UNL     1       2.744   8.149  -0.526  1.00  0.00    -0.361 N 
ATOM     44  C   UNL     1       4.070   7.986  -0.219  1.00  0.00     0.046 A 
ATOM     45  C   UNL     1       5.659   6.218   0.091  1.00  0.00     0.010 A 
ATOM     46  H   UNL     1       2.247   8.996  -0.462  1.00  0.00     0.166 HD
ATOM     47  C   UNL     1       5.045   8.957   0.053  1.00  0.00     0.026 A 
ATOM     48  C   UNL     1       6.649   7.176   0.347  1.00  0.00     0.001 A 
ATOM     49  C   UNL     1       6.351   8.529   0.291  1.00  0.00     0.002 A 
ENDBRANCH  39  40
ENDBRANCH  13  39
ENDBRANCH  10  13
ENDBRANCH   8   9
BRANCH   8  50
ATOM     50  C   UNL     1       7.324   7.175  -3.557  1.00  0.00     0.193 C 
BRANCH  50  51
ATOM     51  O   UNL     1       7.569   6.947  -4.942  1.00  0.00    -0.394 OA
ATOM     52  H   UNL     1       7.258   6.061  -5.185  1.00  0.00     0.210 HD
ENDBRANCH  50  51
ENDBRANCH   8  50
ENDBRANCH   6   8
ENDBRANCH   5   6
ENDBRANCH   4   5
ENDBRANCH   3   4
ENDBRANCH   2   3
ENDBRANCH   1   2
BRANCH   1  53
ATOM     53  C   UNL     1       2.462   6.040  -5.173  1.00  0.00     0.188 C 
BRANCH  53  54
ATOM     54  O   UNL     1       3.117   6.276  -6.407  1.00  0.00    -0.377 OA
BRANCH  54  55
ATOM     55  C   UNL     1       2.389   6.951  -7.435  1.00  0.00     0.188 C 
BRANCH  55  56
ATOM     56  C   UNL     1       0.840   6.944  -7.470  1.00  0.00     0.188 C 
BRANCH  56  57
ATOM     57  O   UNL     1       0.241   5.976  -6.630  1.00  0.00    -0.376 OA
BRANCH  57  58
ATOM     58  C   UNL     1      -0.289   4.807  -7.228  1.00  0.00     0.202 C 
BRANCH  58  59
ATOM     59  C   UNL     1       0.647   3.895  -8.035  1.00  0.00     0.261 C 
BRANCH  59  60
ATOM     60  O   UNL     1       1.556   4.532  -8.945  1.00  0.00    -0.460 OA
BRANCH  60  61
ATOM     61  C   UNL     1       1.025   5.069 -10.075  1.00  0.00     0.338 C 
ATOM     62  O   UNL     1      -0.133   5.086 -10.400  1.00  0.00    -0.246 OA
BRANCH  61  63
ATOM     63  C   UNL     1       2.109   5.836 -10.747  1.00  0.00     0.060 A 
ATOM     64  C   UNL     1       1.945   7.217 -10.931  1.00  0.00     0.016 A 
ATOM     65  C   UNL     1       3.288   5.206 -11.152  1.00  0.00     0.016 A 
ATOM     66  C   UNL     1       2.945   7.967 -11.554  1.00  0.00     0.010 A 
ATOM     67  C   UNL     1       4.273   5.951 -11.809  1.00  0.00     0.010 A 
ATOM     68  C   UNL     1       4.090   7.326 -12.045  1.00  0.00    -0.014 A 
BRANCH  68  69
ATOM     69  C   UNL     1       4.956   8.018 -13.032  1.00  0.00     0.031 A 
ATOM     70  C   UNL     1       4.649   7.803 -14.491  1.00  0.00     0.074 A 
ATOM     71  C   UNL     1       5.983   8.803 -12.665  1.00  0.00     0.049 A 
ATOM     72  N   UNL     1       5.312   8.191 -15.548  1.00  0.00    -0.248 NA
ATOM     73  C   UNL     1       3.427   7.037 -14.793  1.00  0.00     0.031 C 
ATOM     74  C   UNL     1       6.352   9.135 -11.291  1.00  0.00     0.029 A 
ATOM     75  N   UNL     1       6.922   9.450 -13.432  1.00  0.00    -0.354 N 
ATOM     76  C   UNL     1       4.598   7.703 -16.636  1.00  0.00     0.074 A 
ATOM     77  C   UNL     1       3.462   6.978 -16.114  1.00  0.00     0.031 C 
ATOM     78  C   UNL     1       7.459   9.900 -11.311  1.00  0.00     0.029 A 
ATOM     79  C   UNL     1       7.897  10.079 -12.695  1.00  0.00     0.049 A 
ATOM     80  H   UNL     1       6.899   9.462 -14.416  1.00  0.00     0.167 HD
ATOM     81  C   UNL     1       4.867   7.846 -17.954  1.00  0.00     0.037 A 
ATOM     82  C   UNL     1       9.029  10.693 -13.097  1.00  0.00     0.037 A 
ATOM     83  C   UNL     1       5.997   8.566 -18.473  1.00  0.00     0.049 A 
ATOM     84  C   UNL     1       9.348  10.771 -14.570  1.00  0.00     0.074 A 
ATOM     85  C   UNL     1       6.345   8.783 -19.794  1.00  0.00     0.029 A 
ATOM     86  N   UNL     1       6.967   9.175 -17.693  1.00  0.00    -0.354 N 
ATOM     87  N   UNL     1       8.656  10.330 -15.594  1.00  0.00    -0.248 NA
ATOM     88  C   UNL     1      10.609  11.430 -14.946  1.00  0.00     0.031 C 
ATOM     89  C   UNL     1       7.558   9.477 -19.814  1.00  0.00     0.029 A 
ATOM     90  C   UNL     1       7.930   9.746 -18.506  1.00  0.00     0.049 A 
ATOM     91  H   UNL     1       6.970   9.199 -16.709  1.00  0.00     0.167 HD
ATOM     92  C   UNL     1       9.375  10.691 -16.728  1.00  0.00     0.074 A 
ATOM     93  C   UNL     1      10.554  11.393 -16.270  1.00  0.00     0.031 C 
ATOM     94  C   UNL     1       9.085  10.464 -18.033  1.00  0.00     0.037 A 
BRANCH  81  95
ATOM     95  C   UNL     1       3.941   7.180 -18.928  1.00  0.00     0.057 A 
ATOM     96  C   UNL     1       2.645   7.655 -19.165  1.00  0.00     0.134 A 
ATOM     97  C   UNL     1       4.370   6.071 -19.669  1.00  0.00     0.134 A 
ATOM     98  F   UNL     1       2.167   8.701 -18.474  1.00  0.00    -0.206 F 
ATOM     99  C   UNL     1       1.804   7.043 -20.096  1.00  0.00     0.040 A 
ATOM    100  C   UNL     1       3.549   5.468 -20.621  1.00  0.00     0.040 A 
ATOM    101  F   UNL     1       5.600   5.566 -19.488  1.00  0.00    -0.206 F 
ATOM    102  C   UNL     1       2.260   5.952 -20.834  1.00  0.00     0.006 A 
ENDBRANCH  81  95
BRANCH  82 103
ATOM    103  C   UNL     1       9.978  11.252 -12.097  1.00  0.00     0.057 A 
ATOM    104  C   UNL     1      10.219  12.629 -12.010  1.00  0.00     0.134 A 
ATOM    105  C   UNL     1      10.712  10.418 -11.245  1.00  0.00     0.134 A 
ATOM    106  F   UNL     1       9.570  13.480 -12.819  1.00  0.00    -0.206 F 
ATOM    107  C   UNL     1      11.171  13.153 -11.133  1.00  0.00     0.040 A 
ATOM    108  C   UNL     1      11.646  10.930 -10.342  1.00  0.00     0.040 A 
ATOM    109  F   UNL     1      10.535   9.089 -11.279  1.00  0.00    -0.206 F 
ATOM    110  C   UNL     1      11.886  12.302 -10.293  1.00  0.00     0.006 A 
ENDBRANCH  82 103
BRANCH  94 111
ATOM    111  C   UNL     1      10.019  11.025 -19.066  1.00  0.00     0.057 A 
ATOM    112  C   UNL     1      11.288  10.481 -19.297  1.00  0.00     0.134 A 
ATOM    113  C   UNL     1       9.608  12.081 -19.892  1.00  0.00     0.134 A 
ATOM    114  F   UNL     1      11.745   9.475 -18.537  1.00  0.00    -0.206 F 
ATOM    115  C   UNL     1      12.121  10.976 -20.303  1.00  0.00     0.040 A 
ATOM    116  C   UNL     1      10.419  12.565 -20.918  1.00  0.00     0.040 A 
ATOM    117  F   UNL     1       8.398  12.639 -19.732  1.00  0.00    -0.206 F 
ATOM    118  C   UNL     1      11.683  12.015 -21.123  1.00  0.00     0.006 A 
ENDBRANCH  94 111
ENDBRANCH  68  69
ENDBRANCH  61  63
ENDBRANCH  60  61
ENDBRANCH  59  60
ENDBRANCH  58  59
ENDBRANCH  57  58
ENDBRANCH  56  57
ENDBRANCH  55  56
ENDBRANCH  54  55
ENDBRANCH  53  54
ENDBRANCH   1  53
TORSDOF 33
