REMARK SMILES C[C@@]1(C(=O)OCCOCCOCCOCCOC(=O)c2ccc(-c3c4nc(c(-c5c(F)cccc5F)c5ccc([nH]5)c(-c5c(F)cccc5F)c5nc(c(-c6c(F)cccc6F)c6ccc3[nH]6)C=C5)C=C4)cc2)CCCN(C(=O)[C@@H]2CCCCC[C@@H]2[NH3+])C1
REMARK SMILES IDX 9 1 8 2 7 3 6 4 5 5 3 6 4 7 2 8 1 9 74 10 88 11 75 12 77 13
REMARK SMILES IDX 76 14 78 15 79 16 80 17 81 18 82 19 86 21 85 22 84 23 83 24
REMARK SMILES IDX 87 26 10 30 11 31 12 32 13 33 14 34 15 35 16 36 17 37 18 38
REMARK SMILES IDX 19 39 20 40 21 41 73 42 22 43 72 44 23 45 24 46 25 47 66 48
REMARK SMILES IDX 26 49 71 50 65 51 67 52 27 53 70 54 64 55 63 56 28 58 54 59
REMARK SMILES IDX 37 60 53 61 38 62 41 63 52 64 68 65 39 66 40 67 51 69 69 70
REMARK SMILES IDX 42 71 29 72 30 73 35 74 31 75 32 76 34 77 36 78 33 79 55 80
REMARK SMILES IDX 56 81 61 82 57 83 58 84 60 85 62 86 59 87 43 88 44 89 49 90
REMARK SMILES IDX 45 91 46 92 48 93 50 94 47 95
REMARK H PARENT 87 27 87 28 87 29 67 57 41 68
REMARK Flexibility Score: 90.00
ROOT
ATOM      1  C   UNL     1      -2.067   1.172  -1.267  1.00  0.00     0.188 C 
ENDROOT
BRANCH   1   2
ATOM      2  O   UNL     1      -2.256   1.809  -2.522  1.00  0.00    -0.376 OA
BRANCH   2   3
ATOM      3  C   UNL     1      -2.237   1.055  -3.722  1.00  0.00     0.202 C 
BRANCH   3   4
ATOM      4  C   UNL     1      -1.038   0.147  -4.070  1.00  0.00     0.261 C 
BRANCH   4   5
ATOM      5  O   UNL     1      -0.481  -0.687  -3.026  1.00  0.00    -0.463 OA
BRANCH   5   6
ATOM      6  C   UNL     1       0.682  -0.242  -2.492  1.00  0.00     0.313 C 
ATOM      7  O   UNL     1       1.221   0.803  -2.854  1.00  0.00    -0.252 OA
BRANCH   6   8
ATOM      8  C   UNL     1       1.342  -1.165  -1.446  1.00  0.00     0.083 C 
ATOM      9  C   UNL     1       1.939  -0.193  -0.402  1.00  0.00     0.025 C 
ATOM     10  C   UNL     1       2.466  -1.898  -2.215  1.00  0.00     0.022 C 
ATOM     11  C   UNL     1       0.486  -2.248  -0.721  1.00  0.00     0.138 C 
ATOM     12  C   UNL     1       3.285  -2.809  -1.308  1.00  0.00     0.023 C 
ATOM     13  N   UNL     1       1.306  -3.118   0.143  1.00  0.00    -0.341 N 
ATOM     14  C   UNL     1       2.391  -3.800  -0.569  1.00  0.00     0.119 C 
BRANCH  13  15
ATOM     15  C   UNL     1       1.210  -3.291   1.519  1.00  0.00     0.231 C 
ATOM     16  O   UNL     1       2.098  -3.926   2.113  1.00  0.00    -0.274 OA
BRANCH  15  17
ATOM     17  C   UNL     1       0.029  -2.792   2.400  1.00  0.00     0.136 C 
BRANCH  17  18
ATOM     18  C   UNL     1      -1.336  -3.421   2.075  1.00  0.00     0.020 C 
BRANCH  18  19
ATOM     19  C   UNL     1      -2.154  -3.705   3.349  1.00  0.00     0.001 CG0
ATOM     20  G   UNL     1      -2.958  -2.545   3.931  1.00  0.00     0.000 G0
ENDBRANCH  18  19
ENDBRANCH  17  18
BRANCH  17  21
ATOM     21  C   UNL     1       0.023  -1.302   2.800  1.00  0.00     0.193 C 
BRANCH  21  22
ATOM     22  C   UNL     1      -0.869  -1.018   4.036  1.00  0.00     0.066 C 
BRANCH  22  23
ATOM     23  C   UNL     1      -2.381  -1.139   3.817  1.00  0.00     0.006 C 
BRANCH  23  24
ATOM     24  C   UNL     1      -2.958  -2.545   3.931  1.00  0.00     0.000 CG0
ATOM     25  G   UNL     1      -2.154  -3.705   3.349  1.00  0.00     0.000 G0
ENDBRANCH  23  24
ENDBRANCH  22  23
ENDBRANCH  21  22
BRANCH  21  26
ATOM     26  N   UNL     1      -0.364  -0.371   1.740  1.00  0.00    -0.354 N 
ATOM     27  H   UNL     1      -1.344  -0.519   1.499  1.00  0.00     0.344 HD
ATOM     28  H   UNL     1       0.216  -0.532   0.917  1.00  0.00     0.344 HD
ATOM     29  H   UNL     1      -0.235   0.587   2.065  1.00  0.00     0.344 HD
ENDBRANCH  21  26
ENDBRANCH  17  21
ENDBRANCH  15  17
ENDBRANCH  13  15
ENDBRANCH   6   8
ENDBRANCH   5   6
ENDBRANCH   4   5
ENDBRANCH   3   4
ENDBRANCH   2   3
ENDBRANCH   1   2
BRANCH   1  30
ATOM     30  C   UNL     1      -2.478  -0.292  -1.059  1.00  0.00     0.188 C 
BRANCH  30  31
ATOM     31  O   UNL     1      -3.096  -0.932  -2.154  1.00  0.00    -0.377 OA
BRANCH  31  32
ATOM     32  C   UNL     1      -4.504  -1.052  -2.107  1.00  0.00     0.188 C 
BRANCH  32  33
ATOM     33  C   UNL     1      -5.286   0.158  -1.574  1.00  0.00     0.188 C 
BRANCH  33  34
ATOM     34  O   UNL     1      -4.906   0.544  -0.254  1.00  0.00    -0.376 OA
BRANCH  34  35
ATOM     35  C   UNL     1      -5.696   0.067   0.829  1.00  0.00     0.202 C 
BRANCH  35  36
ATOM     36  C   UNL     1      -5.511  -1.413   1.196  1.00  0.00     0.261 C 
BRANCH  36  37
ATOM     37  O   UNL     1      -5.939  -2.378   0.225  1.00  0.00    -0.460 OA
BRANCH  37  38
ATOM     38  C   UNL     1      -7.182  -2.282  -0.288  1.00  0.00     0.338 C 
ATOM     39  O   UNL     1      -8.064  -1.507   0.027  1.00  0.00    -0.246 OA
BRANCH  38  40
ATOM     40  C   UNL     1      -7.218  -3.169  -1.466  1.00  0.00     0.060 A 
ATOM     41  C   UNL     1      -7.508  -2.625  -2.724  1.00  0.00     0.016 A 
ATOM     42  C   UNL     1      -6.922  -4.526  -1.324  1.00  0.00     0.016 A 
ATOM     43  C   UNL     1      -7.530  -3.449  -3.849  1.00  0.00     0.010 A 
ATOM     44  C   UNL     1      -6.971  -5.353  -2.442  1.00  0.00     0.010 A 
ATOM     45  C   UNL     1      -7.307  -4.823  -3.700  1.00  0.00    -0.014 A 
BRANCH  45  46
ATOM     46  C   UNL     1      -7.674  -5.766  -4.779  1.00  0.00     0.031 A 
ATOM     47  C   UNL     1      -9.041  -6.385  -4.714  1.00  0.00     0.074 A 
ATOM     48  C   UNL     1      -6.806  -6.109  -5.745  1.00  0.00     0.049 A 
ATOM     49  N   UNL     1      -9.543  -7.370  -5.408  1.00  0.00    -0.248 NA
ATOM     50  C   UNL     1      -9.960  -5.822  -3.709  1.00  0.00     0.031 C 
ATOM     51  C   UNL     1      -5.475  -5.537  -5.934  1.00  0.00     0.029 A 
ATOM     52  N   UNL     1      -6.914  -7.053  -6.734  1.00  0.00    -0.354 N 
ATOM     53  C   UNL     1     -10.826  -7.558  -4.912  1.00  0.00     0.074 A 
ATOM     54  C   UNL     1     -11.020  -6.601  -3.846  1.00  0.00     0.031 C 
ATOM     55  C   UNL     1      -4.875  -6.165  -6.961  1.00  0.00     0.029 A 
ATOM     56  C   UNL     1      -5.763  -7.211  -7.468  1.00  0.00     0.049 A 
ATOM     57  H   UNL     1      -7.736  -7.569  -6.902  1.00  0.00     0.167 HD
ATOM     58  C   UNL     1     -11.759  -8.453  -5.309  1.00  0.00     0.037 A 
ATOM     59  C   UNL     1      -5.457  -8.125  -8.410  1.00  0.00     0.037 A 
ATOM     60  C   UNL     1     -11.549  -9.407  -6.362  1.00  0.00     0.049 A 
ATOM     61  C   UNL     1      -6.483  -9.165  -8.784  1.00  0.00     0.074 A 
ATOM     62  C   UNL     1     -12.425 -10.358  -6.851  1.00  0.00     0.029 A 
ATOM     63  N   UNL     1     -10.371  -9.533  -7.083  1.00  0.00    -0.354 N 
ATOM     64  N   UNL     1      -7.699  -9.334  -8.321  1.00  0.00    -0.248 NA
ATOM     65  C   UNL     1      -6.095 -10.147  -9.808  1.00  0.00     0.031 C 
ATOM     66  C   UNL     1     -11.759 -11.094  -7.834  1.00  0.00     0.029 A 
ATOM     67  C   UNL     1     -10.491 -10.560  -8.001  1.00  0.00     0.049 A 
ATOM     68  H   UNL     1      -9.569  -8.975  -6.960  1.00  0.00     0.167 HD
ATOM     69  C   UNL     1      -8.234 -10.406  -9.026  1.00  0.00     0.074 A 
ATOM     70  C   UNL     1      -7.208 -10.855  -9.943  1.00  0.00     0.031 C 
ATOM     71  C   UNL     1      -9.465 -10.965  -8.928  1.00  0.00     0.037 A 
BRANCH  58  72
ATOM     72  C   UNL     1     -13.066  -8.460  -4.575  1.00  0.00     0.057 A 
ATOM     73  C   UNL     1     -13.995  -7.420  -4.703  1.00  0.00     0.134 A 
ATOM     74  C   UNL     1     -13.403  -9.530  -3.736  1.00  0.00     0.134 A 
ATOM     75  F   UNL     1     -13.723  -6.356  -5.474  1.00  0.00    -0.206 F 
ATOM     76  C   UNL     1     -15.204  -7.432  -4.005  1.00  0.00     0.040 A 
ATOM     77  C   UNL     1     -14.621  -9.567  -3.055  1.00  0.00     0.040 A 
ATOM     78  F   UNL     1     -12.557 -10.557  -3.567  1.00  0.00    -0.206 F 
ATOM     79  C   UNL     1     -15.522  -8.512  -3.184  1.00  0.00     0.006 A 
ENDBRANCH  58  72
BRANCH  59  80
ATOM     80  C   UNL     1      -4.118  -8.117  -9.053  1.00  0.00     0.057 A 
ATOM     81  C   UNL     1      -3.966  -7.791 -10.406  1.00  0.00     0.134 A 
ATOM     82  C   UNL     1      -2.961  -8.458  -8.341  1.00  0.00     0.134 A 
ATOM     83  F   UNL     1      -5.039  -7.479 -11.148  1.00  0.00    -0.206 F 
ATOM     84  C   UNL     1      -2.718  -7.820 -11.031  1.00  0.00     0.040 A 
ATOM     85  C   UNL     1      -1.703  -8.466  -8.947  1.00  0.00     0.040 A 
ATOM     86  F   UNL     1      -3.036  -8.780  -7.041  1.00  0.00    -0.206 F 
ATOM     87  C   UNL     1      -1.581  -8.154 -10.299  1.00  0.00     0.006 A 
ENDBRANCH  59  80
BRANCH  71  88
ATOM     88  C   UNL     1      -9.811 -12.071  -9.882  1.00  0.00     0.057 A 
ATOM     89  C   UNL     1      -9.303 -13.366  -9.736  1.00  0.00     0.134 A 
ATOM     90  C   UNL     1     -10.748 -11.851 -10.901  1.00  0.00     0.134 A 
ATOM     91  F   UNL     1      -8.397 -13.640  -8.785  1.00  0.00    -0.206 F 
ATOM     92  C   UNL     1      -9.712 -14.405 -10.575  1.00  0.00     0.040 A 
ATOM     93  C   UNL     1     -11.183 -12.885 -11.728  1.00  0.00     0.040 A 
ATOM     94  F   UNL     1     -11.281 -10.633 -11.084  1.00  0.00    -0.206 F 
ATOM     95  C   UNL     1     -10.663 -14.168 -11.567  1.00  0.00     0.006 A 
ENDBRANCH  71  88
ENDBRANCH  45  46
ENDBRANCH  38  40
ENDBRANCH  37  38
ENDBRANCH  36  37
ENDBRANCH  35  36
ENDBRANCH  34  35
ENDBRANCH  33  34
ENDBRANCH  32  33
ENDBRANCH  31  32
ENDBRANCH  30  31
ENDBRANCH   1  30
TORSDOF 23
