REMARK SMILES Cc1cc(CC(=O)C(=O)OCCOCCOCCOCCOC(=O)c2ccc(-c3c4nc(c(-c5c(F)cccc5F)c5ccc([nH]5)c(-c5c(F)cccc5F)c5nc(c(-c6c(F)cccc6F)c6ccc3[nH]6)C=C5)C=C4)cc2)cc2cn[nH]c12
REMARK SMILES IDX 16 1 15 2 14 3 13 4 12 5 11 6 10 7 8 8 9 9 6 10 7 11 5 12
REMARK SMILES IDX 4 13 1 14 2 15 3 16 84 17 80 18 83 19 79 20 81 21 82 22
REMARK SMILES IDX 17 24 18 25 19 26 20 27 21 28 22 29 23 30 24 31 25 32 26 33
REMARK SMILES IDX 78 34 27 35 77 36 28 37 29 38 30 39 71 40 31 41 76 42 70 43
REMARK SMILES IDX 72 44 32 45 75 46 69 47 68 48 33 50 59 51 42 52 58 53 43 54
REMARK SMILES IDX 46 55 57 56 73 57 44 58 45 59 56 61 74 62 47 63 34 64 35 65
REMARK SMILES IDX 40 66 36 67 37 68 39 69 41 70 38 71 60 72 61 73 66 74 62 75
REMARK SMILES IDX 63 76 65 77 67 78 64 79 48 80 49 81 54 82 50 83 51 84 53 85
REMARK SMILES IDX 55 86 52 87
REMARK H PARENT 83 23 72 49 46 60
REMARK Flexibility Score: inf
ROOT
ATOM      1  O   UNL     1      -2.691   7.333   0.455  1.00  0.00    -0.377 OA
ENDROOT
BRANCH   1   2
ATOM      2  C   UNL     1      -1.602   6.441   0.300  1.00  0.00     0.188 C 
BRANCH   2   3
ATOM      3  C   UNL     1      -1.859   4.995  -0.193  1.00  0.00     0.188 C 
BRANCH   3   4
ATOM      4  O   UNL     1      -3.146   4.782  -0.734  1.00  0.00    -0.376 OA
BRANCH   4   5
ATOM      5  C   UNL     1      -4.168   4.185   0.033  1.00  0.00     0.202 C 
BRANCH   5   6
ATOM      6  C   UNL     1      -4.372   4.532   1.515  1.00  0.00     0.261 C 
BRANCH   6   7
ATOM      7  O   UNL     1      -3.207   4.974   2.218  1.00  0.00    -0.457 OA
BRANCH   7   8
ATOM      8  C   UNL     1      -2.460   4.033   2.817  1.00  0.00     0.375 C 
ATOM      9  O   UNL     1      -2.702   2.836   2.862  1.00  0.00    -0.243 OA
BRANCH   8  10
ATOM     10  C   UNL     1      -1.171   4.684   3.351  1.00  0.00     0.244 C 
ATOM     11  O   UNL     1      -1.253   5.629   4.132  1.00  0.00    -0.286 OA
BRANCH  10  12
ATOM     12  C   UNL     1       0.158   4.215   2.773  1.00  0.00     0.124 C 
BRANCH  12  13
ATOM     13  C   UNL     1       0.285   2.717   2.695  1.00  0.00    -0.039 A 
ATOM     14  C   UNL     1       0.893   0.000   0.067  1.00  0.00     0.047 C 
ATOM     15  C   UNL     1       0.536   0.662   1.366  1.00  0.00    -0.025 A 
ATOM     16  C   UNL     1       0.603   2.065   1.493  1.00  0.00     0.009 A 
ATOM     17  C   UNL     1       0.113  -0.033   2.512  1.00  0.00     0.068 A 
ATOM     18  C   UNL     1      -0.152   0.584   3.727  1.00  0.00     0.020 A 
ATOM     19  N   UNL     1      -0.149  -1.361   2.738  1.00  0.00    -0.278 N 
ATOM     20  C   UNL     1      -0.008   1.969   3.846  1.00  0.00     0.016 A 
ATOM     21  C   UNL     1      -0.576  -0.453   4.583  1.00  0.00     0.143 A 
ATOM     22  N   UNL     1      -0.568  -1.645   3.985  1.00  0.00    -0.183 NA
ATOM     23  H   UNL     1      -0.040  -2.051   2.044  1.00  0.00     0.190 HD
ENDBRANCH  12  13
ENDBRANCH  10  12
ENDBRANCH   8  10
ENDBRANCH   7   8
ENDBRANCH   6   7
ENDBRANCH   5   6
ENDBRANCH   4   5
ENDBRANCH   3   4
ENDBRANCH   2   3
ENDBRANCH   1   2
BRANCH   1  24
ATOM     24  C   UNL     1      -3.624   7.524  -0.601  1.00  0.00     0.188 C 
BRANCH  24  25
ATOM     25  C   UNL     1      -3.316   7.151  -2.078  1.00  0.00     0.188 C 
BRANCH  25  26
ATOM     26  O   UNL     1      -2.028   6.604  -2.323  1.00  0.00    -0.376 OA
BRANCH  26  27
ATOM     27  C   UNL     1      -1.032   7.309  -3.037  1.00  0.00     0.202 C 
BRANCH  27  28
ATOM     28  C   UNL     1      -0.472   8.573  -2.390  1.00  0.00     0.261 C 
BRANCH  28  29
ATOM     29  O   UNL     1      -1.474   9.379  -1.803  1.00  0.00    -0.460 OA
BRANCH  29  30
ATOM     30  C   UNL     1      -2.329   9.902  -2.692  1.00  0.00     0.338 C 
ATOM     31  O   UNL     1      -2.360   9.706  -3.905  1.00  0.00    -0.246 OA
BRANCH  30  32
ATOM     32  C   UNL     1      -3.203  10.842  -1.998  1.00  0.00     0.060 A 
ATOM     33  C   UNL     1      -4.274  11.304  -2.764  1.00  0.00     0.016 A 
ATOM     34  C   UNL     1      -2.565  11.611  -1.018  1.00  0.00     0.016 A 
ATOM     35  C   UNL     1      -4.436  12.660  -2.833  1.00  0.00     0.010 A 
ATOM     36  C   UNL     1      -2.685  12.964  -1.132  1.00  0.00     0.010 A 
ATOM     37  C   UNL     1      -3.541  13.458  -2.113  1.00  0.00    -0.014 A 
BRANCH  37  38
ATOM     38  C   UNL     1      -3.563  14.872  -2.362  1.00  0.00     0.031 A 
ATOM     39  C   UNL     1      -4.621  15.534  -1.586  1.00  0.00     0.074 A 
ATOM     40  C   UNL     1      -2.656  15.473  -3.149  1.00  0.00     0.049 A 
ATOM     41  N   UNL     1      -5.753  15.967  -2.026  1.00  0.00    -0.248 NA
ATOM     42  C   UNL     1      -4.517  15.482  -0.119  1.00  0.00     0.031 C 
ATOM     43  C   UNL     1      -1.424  14.924  -3.721  1.00  0.00     0.029 A 
ATOM     44  N   UNL     1      -2.623  16.772  -3.532  1.00  0.00    -0.354 N 
ATOM     45  C   UNL     1      -6.404  16.459  -0.904  1.00  0.00     0.074 A 
ATOM     46  C   UNL     1      -5.729  15.904   0.236  1.00  0.00     0.031 C 
ATOM     47  C   UNL     1      -0.663  15.942  -4.189  1.00  0.00     0.029 A 
ATOM     48  C   UNL     1      -1.409  17.183  -4.061  1.00  0.00     0.049 A 
ATOM     49  H   UNL     1      -3.396  17.375  -3.442  1.00  0.00     0.167 HD
ATOM     50  C   UNL     1      -7.226  17.535  -1.002  1.00  0.00     0.037 A 
ATOM     51  C   UNL     1      -1.052  18.473  -4.277  1.00  0.00     0.037 A 
ATOM     52  C   UNL     1      -7.629  17.753  -2.371  1.00  0.00     0.049 A 
ATOM     53  C   UNL     1      -2.302  19.283  -4.290  1.00  0.00     0.074 A 
ATOM     54  C   UNL     1      -8.317  17.016  -3.314  1.00  0.00     0.029 A 
ATOM     55  N   UNL     1      -6.977  18.743  -3.067  1.00  0.00    -0.354 N 
ATOM     56  N   UNL     1      -3.202  19.206  -5.232  1.00  0.00    -0.248 NA
ATOM     57  C   UNL     1      -2.780  19.816  -3.021  1.00  0.00     0.031 C 
ATOM     58  C   UNL     1      -7.693  17.324  -4.559  1.00  0.00     0.029 A 
ATOM     59  C   UNL     1      -6.692  18.267  -4.320  1.00  0.00     0.049 A 
ATOM     60  H   UNL     1      -6.753  19.639  -2.725  1.00  0.00     0.167 HD
ATOM     61  C   UNL     1      -4.421  19.270  -4.570  1.00  0.00     0.074 A 
ATOM     62  C   UNL     1      -4.098  19.732  -3.222  1.00  0.00     0.031 C 
ATOM     63  C   UNL     1      -5.532  18.662  -5.084  1.00  0.00     0.037 A 
BRANCH  50  64
ATOM     64  C   UNL     1      -7.286  18.625   0.040  1.00  0.00     0.057 A 
ATOM     65  C   UNL     1      -6.288  18.884   1.006  1.00  0.00     0.134 A 
ATOM     66  C   UNL     1      -8.229  19.652  -0.128  1.00  0.00     0.134 A 
ATOM     67  F   UNL     1      -5.278  18.045   1.261  1.00  0.00    -0.206 F 
ATOM     68  C   UNL     1      -6.205  20.086   1.708  1.00  0.00     0.040 A 
ATOM     69  C   UNL     1      -8.123  20.881   0.532  1.00  0.00     0.040 A 
ATOM     70  F   UNL     1      -9.232  19.526  -1.010  1.00  0.00    -0.206 F 
ATOM     71  C   UNL     1      -7.100  21.106   1.443  1.00  0.00     0.006 A 
ENDBRANCH  50  64
BRANCH  51  72
ATOM     72  C   UNL     1       0.289  19.084  -4.144  1.00  0.00     0.057 A 
ATOM     73  C   UNL     1       1.240  18.577  -3.240  1.00  0.00     0.134 A 
ATOM     74  C   UNL     1       0.579  20.335  -4.704  1.00  0.00     0.134 A 
ATOM     75  F   UNL     1       1.026  17.430  -2.579  1.00  0.00    -0.206 F 
ATOM     76  C   UNL     1       2.408  19.272  -2.910  1.00  0.00     0.040 A 
ATOM     77  C   UNL     1       1.742  21.046  -4.377  1.00  0.00     0.040 A 
ATOM     78  F   UNL     1      -0.289  20.924  -5.538  1.00  0.00    -0.206 F 
ATOM     79  C   UNL     1       2.657  20.517  -3.471  1.00  0.00     0.006 A 
ENDBRANCH  51  72
BRANCH  63  80
ATOM     80  C   UNL     1      -5.448  18.152  -6.497  1.00  0.00     0.057 A 
ATOM     81  C   UNL     1      -6.353  18.640  -7.444  1.00  0.00     0.134 A 
ATOM     82  C   UNL     1      -4.605  17.106  -6.903  1.00  0.00     0.134 A 
ATOM     83  F   UNL     1      -7.230  19.599  -7.109  1.00  0.00    -0.206 F 
ATOM     84  C   UNL     1      -6.412  18.124  -8.740  1.00  0.00     0.040 A 
ATOM     85  C   UNL     1      -4.630  16.603  -8.207  1.00  0.00     0.040 A 
ATOM     86  F   UNL     1      -3.776  16.509  -6.037  1.00  0.00    -0.206 F 
ATOM     87  C   UNL     1      -5.541  17.109  -9.129  1.00  0.00     0.006 A 
ENDBRANCH  63  80
ENDBRANCH  37  38
ENDBRANCH  30  32
ENDBRANCH  29  30
ENDBRANCH  28  29
ENDBRANCH  27  28
ENDBRANCH  26  27
ENDBRANCH  25  26
ENDBRANCH  24  25
ENDBRANCH   1  24
TORSDOF 22
