REMARK SMILES O=C(OCCOCCOCCOCCOC(=O)c1cc([N+](=O)[O-])c(NCCC2=CCCCC2)c([N+](=O)[O-])c1)c1ccc(-c2c3nc(c(-c4c(F)cccc4F)c4ccc([nH]4)c(-c4c(F)cccc4F)c4nc(c(-c5c(F)cccc5F)c5ccc2[nH]5)C=C4)C=C3)cc1
REMARK SMILES IDX 10 1 9 2 8 3 7 4 6 5 5 6 4 7 3 8 2 9 1 10 39 11 40 12 92 13
REMARK SMILES IDX 41 14 91 15 42 16 43 17 44 18 85 19 45 20 90 21 84 22 86 23
REMARK SMILES IDX 46 24 89 25 83 26 82 27 47 29 73 30 56 31 72 32 57 33 60 34
REMARK SMILES IDX 71 35 87 36 58 37 59 38 70 40 88 41 61 42 48 43 49 44 54 45
REMARK SMILES IDX 50 46 51 47 53 48 55 49 52 50 74 51 75 52 80 53 76 54 77 55
REMARK SMILES IDX 79 56 81 57 78 58 62 59 63 60 68 61 64 62 65 63 67 64 69 65
REMARK SMILES IDX 66 66 11 67 12 68 13 69 14 70 15 71 16 72 17 73 18 74 19 75
REMARK SMILES IDX 38 76 20 77 34 78 24 79 21 80 22 81 23 82 35 83 36 84 37 85
REMARK SMILES IDX 25 86 26 88 27 89 28 90 29 91 33 92 30 93 32 94 31 95
REMARK H PARENT 86 28 60 39 25 87
REMARK Flexibility Score: inf
ROOT
ATOM      1  C   UNL     1       4.011  -3.687  -1.209  1.00  0.00     0.188 C 
ENDROOT
BRANCH   1   2
ATOM      2  O   UNL     1       2.592  -3.787  -1.204  1.00  0.00    -0.377 OA
BRANCH   2   3
ATOM      3  C   UNL     1       1.865  -2.561  -1.132  1.00  0.00     0.188 C 
BRANCH   3   4
ATOM      4  C   UNL     1       2.365  -1.530  -0.117  1.00  0.00     0.188 C 
BRANCH   4   5
ATOM      5  O   UNL     1       3.683  -1.070  -0.406  1.00  0.00    -0.376 OA
BRANCH   5   6
ATOM      6  C   UNL     1       4.599  -0.970   0.683  1.00  0.00     0.202 C 
BRANCH   6   7
ATOM      7  C   UNL     1       4.303   0.119   1.713  1.00  0.00     0.261 C 
BRANCH   7   8
ATOM      8  O   UNL     1       2.935   0.542   1.751  1.00  0.00    -0.460 OA
BRANCH   8   9
ATOM      9  C   UNL     1       2.282   1.426   0.963  1.00  0.00     0.338 C 
ATOM     10  O   UNL     1       1.090   1.631   1.197  1.00  0.00    -0.246 OA
BRANCH   9  11
ATOM     11  C   UNL     1       2.887   2.166  -0.186  1.00  0.00     0.060 A 
ATOM     12  C   UNL     1       3.981   1.756  -0.950  1.00  0.00     0.016 A 
ATOM     13  C   UNL     1       2.223   3.341  -0.578  1.00  0.00     0.016 A 
ATOM     14  C   UNL     1       4.430   2.479  -2.043  1.00  0.00     0.010 A 
ATOM     15  C   UNL     1       2.671   4.091  -1.665  1.00  0.00     0.010 A 
ATOM     16  C   UNL     1       3.799   3.667  -2.374  1.00  0.00    -0.014 A 
BRANCH  16  17
ATOM     17  C   UNL     1       4.506   4.579  -3.277  1.00  0.00     0.031 A 
ATOM     18  C   UNL     1       5.258   5.699  -2.636  1.00  0.00     0.074 A 
ATOM     19  C   UNL     1       4.558   4.334  -4.593  1.00  0.00     0.049 A 
ATOM     20  N   UNL     1       5.806   6.749  -3.174  1.00  0.00    -0.248 NA
ATOM     21  C   UNL     1       5.407   5.621  -1.170  1.00  0.00     0.031 C 
ATOM     22  C   UNL     1       4.000   3.154  -5.256  1.00  0.00     0.029 A 
ATOM     23  N   UNL     1       5.107   5.067  -5.606  1.00  0.00    -0.354 N 
ATOM     24  C   UNL     1       6.309   7.486  -2.110  1.00  0.00     0.074 A 
ATOM     25  C   UNL     1       6.012   6.763  -0.897  1.00  0.00     0.031 C 
ATOM     26  C   UNL     1       4.213   3.259  -6.578  1.00  0.00     0.029 A 
ATOM     27  C   UNL     1       4.842   4.547  -6.848  1.00  0.00     0.049 A 
ATOM     28  H   UNL     1       5.638   5.883  -5.461  1.00  0.00     0.167 HD
ATOM     29  C   UNL     1       6.941   8.679  -2.162  1.00  0.00     0.037 A 
ATOM     30  C   UNL     1       5.028   5.104  -8.058  1.00  0.00     0.037 A 
ATOM     31  C   UNL     1       7.199   9.350  -3.405  1.00  0.00     0.049 A 
ATOM     32  C   UNL     1       5.632   6.481  -8.100  1.00  0.00     0.074 A 
ATOM     33  C   UNL     1       7.774  10.585  -3.626  1.00  0.00     0.029 A 
ATOM     34  N   UNL     1       6.880   8.820  -4.652  1.00  0.00    -0.354 N 
ATOM     35  N   UNL     1       6.029   7.237  -7.100  1.00  0.00    -0.248 NA
ATOM     36  C   UNL     1       5.802   7.093  -9.421  1.00  0.00     0.031 C 
ATOM     37  C   UNL     1       7.745  10.826  -5.004  1.00  0.00     0.029 A 
ATOM     38  C   UNL     1       7.224   9.711  -5.648  1.00  0.00     0.049 A 
ATOM     39  H   UNL     1       6.469   7.938  -4.801  1.00  0.00     0.167 HD
ATOM     40  C   UNL     1       6.525   8.400  -7.668  1.00  0.00     0.074 A 
ATOM     41  C   UNL     1       6.373   8.249  -9.104  1.00  0.00     0.031 C 
ATOM     42  C   UNL     1       7.064   9.491  -7.067  1.00  0.00     0.037 A 
BRANCH  29  43
ATOM     43  C   UNL     1       7.257   9.336  -0.850  1.00  0.00     0.057 A 
ATOM     44  C   UNL     1       8.195   8.814   0.053  1.00  0.00     0.134 A 
ATOM     45  C   UNL     1       6.531  10.462  -0.440  1.00  0.00     0.134 A 
ATOM     46  F   UNL     1       8.901   7.716  -0.258  1.00  0.00    -0.206 F 
ATOM     47  C   UNL     1       8.360   9.355   1.331  1.00  0.00     0.040 A 
ATOM     48  C   UNL     1       6.711  11.032   0.822  1.00  0.00     0.040 A 
ATOM     49  F   UNL     1       5.611  11.010  -1.247  1.00  0.00    -0.206 F 
ATOM     50  C   UNL     1       7.616  10.468   1.718  1.00  0.00     0.006 A 
ENDBRANCH  29  43
BRANCH  30  51
ATOM     51  C   UNL     1       4.576   4.388  -9.277  1.00  0.00     0.057 A 
ATOM     52  C   UNL     1       5.487   3.886 -10.210  1.00  0.00     0.134 A 
ATOM     53  C   UNL     1       3.215   4.140  -9.512  1.00  0.00     0.134 A 
ATOM     54  F   UNL     1       6.802   4.098 -10.051  1.00  0.00    -0.206 F 
ATOM     55  C   UNL     1       5.065   3.166 -11.331  1.00  0.00     0.040 A 
ATOM     56  C   UNL     1       2.781   3.400 -10.613  1.00  0.00     0.040 A 
ATOM     57  F   UNL     1       2.287   4.585  -8.652  1.00  0.00    -0.206 F 
ATOM     58  C   UNL     1       3.709   2.913 -11.530  1.00  0.00     0.006 A 
ENDBRANCH  30  51
BRANCH  42  59
ATOM     59  C   UNL     1       7.590  10.571  -7.962  1.00  0.00     0.057 A 
ATOM     60  C   UNL     1       6.743  11.458  -8.632  1.00  0.00     0.134 A 
ATOM     61  C   UNL     1       8.972  10.785  -8.056  1.00  0.00     0.134 A 
ATOM     62  F   UNL     1       5.412  11.296  -8.587  1.00  0.00    -0.206 F 
ATOM     63  C   UNL     1       7.253  12.525  -9.370  1.00  0.00     0.040 A 
ATOM     64  C   UNL     1       9.492  11.864  -8.765  1.00  0.00     0.040 A 
ATOM     65  F   UNL     1       9.831   9.971  -7.423  1.00  0.00    -0.206 F 
ATOM     66  C   UNL     1       8.631  12.738  -9.425  1.00  0.00     0.006 A 
ENDBRANCH  42  59
ENDBRANCH  16  17
ENDBRANCH   9  11
ENDBRANCH   8   9
ENDBRANCH   7   8
ENDBRANCH   6   7
ENDBRANCH   5   6
ENDBRANCH   4   5
ENDBRANCH   3   4
ENDBRANCH   2   3
ENDBRANCH   1   2
BRANCH   1  67
ATOM     67  C   UNL     1       4.699  -2.865  -2.325  1.00  0.00     0.188 C 
BRANCH  67  68
ATOM     68  O   UNL     1       3.815  -2.059  -3.083  1.00  0.00    -0.376 OA
BRANCH  68  69
ATOM     69  C   UNL     1       3.485  -2.528  -4.384  1.00  0.00     0.202 C 
BRANCH  69  70
ATOM     70  C   UNL     1       2.844  -3.924  -4.536  1.00  0.00     0.261 C 
BRANCH  70  71
ATOM     71  O   UNL     1       3.426  -5.001  -3.771  1.00  0.00    -0.460 OA
BRANCH  71  72
ATOM     72  C   UNL     1       4.580  -5.547  -4.203  1.00  0.00     0.338 C 
ATOM     73  O   UNL     1       5.202  -5.250  -5.212  1.00  0.00    -0.246 OA
BRANCH  72  74
ATOM     74  C   UNL     1       5.138  -6.383  -3.109  1.00  0.00     0.073 A 
ATOM     75  C   UNL     1       6.371  -6.021  -2.573  1.00  0.00     0.104 A 
ATOM     76  C   UNL     1       4.436  -7.435  -2.530  1.00  0.00     0.104 A 
ATOM     77  C   UNL     1       6.862  -6.670  -1.419  1.00  0.00     0.300 A 
ATOM     78  C   UNL     1       4.990  -8.133  -1.421  1.00  0.00     0.300 A 
ATOM     79  C   UNL     1       6.220  -7.758  -0.790  1.00  0.00     0.192 A 
BRANCH  77  80
ATOM     80  N   UNL     1       8.065  -6.070  -0.889  1.00  0.00     0.065 N 
ATOM     81  O   UNL     1       7.924  -5.017  -0.251  1.00  0.00    -0.258 OA
ATOM     82  O   UNL     1       9.139  -6.615  -1.167  1.00  0.00    -0.258 OA
ENDBRANCH  77  80
BRANCH  78  83
ATOM     83  N   UNL     1       4.235  -9.318  -0.962  1.00  0.00     0.065 N 
ATOM     84  O   UNL     1       4.851 -10.200  -0.346  1.00  0.00    -0.258 OA
ATOM     85  O   UNL     1       3.034  -9.384  -1.260  1.00  0.00    -0.258 OA
ENDBRANCH  78  83
BRANCH  79  86
ATOM     86  N   UNL     1       6.618  -8.371   0.393  1.00  0.00    -0.374 N 
ATOM     87  H   UNL     1       5.969  -9.011   0.766  1.00  0.00     0.161 HD
BRANCH  86  88
ATOM     88  C   UNL     1       7.847  -8.215   1.173  1.00  0.00     0.118 C 
BRANCH  88  89
ATOM     89  C   UNL     1       7.691  -8.758   2.607  1.00  0.00     0.052 C 
BRANCH  89  90
ATOM     90  C   UNL     1       7.234 -10.195   2.737  1.00  0.00    -0.072 C 
ATOM     91  C   UNL     1       6.071 -10.500   3.343  1.00  0.00    -0.028 C 
ATOM     92  C   UNL     1       8.157 -11.267   2.206  1.00  0.00     0.031 C 
ATOM     93  C   UNL     1       5.588 -11.902   3.572  1.00  0.00     0.027 C 
ATOM     94  C   UNL     1       7.503 -12.650   2.127  1.00  0.00     0.005 C 
ATOM     95  C   UNL     1       6.684 -12.949   3.376  1.00  0.00     0.004 C 
ENDBRANCH  89  90
ENDBRANCH  88  89
ENDBRANCH  86  88
ENDBRANCH  79  86
ENDBRANCH  72  74
ENDBRANCH  71  72
ENDBRANCH  70  71
ENDBRANCH  69  70
ENDBRANCH  68  69
ENDBRANCH  67  68
ENDBRANCH   1  67
TORSDOF 26
