REMARK SMILES Cc1ccccc1/[NH+]=C1\S[C@@H](CC(=O)Nc2ccc(C(=O)OCCOCCOCCOCCOC(=O)c3ccc(-c4c5nc(c(-c6c(F)cccc6F)c6ccc([nH]6)c(-c6c(F)cccc6F)c6nc(c(-c7c(F)cccc7F)c7ccc4[nH]7)C=C6)C=C5)cc3)cc2)C(=O)N1C
REMARK SMILES IDX 27 1 26 2 25 3 24 4 23 5 22 6 20 7 21 8 19 9 16 10 17 11
REMARK SMILES IDX 92 12 18 13 91 14 15 15 13 16 14 17 12 19 11 20 8 21 9 22
REMARK SMILES IDX 10 24 95 25 93 26 96 27 94 28 7 29 1 30 2 31 3 32 4 33 6 34
REMARK SMILES IDX 5 35 28 36 29 37 30 38 31 39 32 40 33 41 34 42 35 43 36 44
REMARK SMILES IDX 37 45 38 46 90 47 39 48 89 49 40 50 41 51 42 52 83 53 43 54
REMARK SMILES IDX 88 55 82 56 84 57 44 58 87 59 81 60 80 61 45 63 71 64 54 65
REMARK SMILES IDX 70 66 55 67 58 68 69 69 85 70 56 71 57 72 68 74 86 75 59 76
REMARK SMILES IDX 46 77 47 78 52 79 48 80 49 81 51 82 53 83 50 84 72 85 73 86
REMARK SMILES IDX 78 87 74 88 75 89 77 90 79 91 76 92 60 93 61 94 66 95 62 96
REMARK SMILES IDX 63 97 65 98 67 99 64 100
REMARK H PARENT 15 18 8 23 84 62 58 73
REMARK Flexibility Score: inf
ROOT
ATOM      1  C   UNL     1       6.543   8.337  -0.471  1.00  0.00     0.188 C 
ENDROOT
BRANCH   1   2
ATOM      2  C   UNL     1       6.562   7.759  -1.909  1.00  0.00     0.188 C 
BRANCH   2   3
ATOM      3  O   UNL     1       6.211   6.374  -1.825  1.00  0.00    -0.376 OA
BRANCH   3   4
ATOM      4  C   UNL     1       5.310   5.904  -2.800  1.00  0.00     0.202 C 
BRANCH   4   5
ATOM      5  C   UNL     1       5.839   5.157  -3.949  1.00  0.00     0.261 C 
BRANCH   5   6
ATOM      6  O   UNL     1       6.697   4.133  -3.584  1.00  0.00    -0.460 OA
BRANCH   6   7
ATOM      7  C   UNL     1       7.911   4.598  -3.272  1.00  0.00     0.338 C 
ATOM      8  O   UNL     1       8.565   5.491  -3.812  1.00  0.00    -0.246 OA
BRANCH   7   9
ATOM      9  C   UNL     1       8.125   4.043  -1.952  1.00  0.00     0.060 A 
ATOM     10  C   UNL     1       8.165   3.288   0.662  1.00  0.00     0.041 A 
ATOM     11  C   UNL     1       7.022   3.274  -0.068  1.00  0.00     0.027 A 
ATOM     12  C   UNL     1       9.239   4.020   0.165  1.00  0.00     0.027 A 
ATOM     13  C   UNL     1       7.072   3.329  -1.406  1.00  0.00     0.018 A 
ATOM     14  C   UNL     1       9.174   4.483  -1.153  1.00  0.00     0.018 A 
BRANCH  10  15
ATOM     15  N   UNL     1       8.131   2.541   1.841  1.00  0.00    -0.326 N 
ATOM     16  C   UNL     1       7.262   1.492   2.140  1.00  0.00     0.226 C 
ATOM     17  O   UNL     1       7.234   1.067   3.299  1.00  0.00    -0.275 OA
ATOM     18  H   UNL     1       8.789   2.780   2.533  1.00  0.00     0.169 HD
BRANCH  16  19
ATOM     19  C   UNL     1       6.438   0.742   1.050  1.00  0.00     0.128 C 
BRANCH  19  20
ATOM     20  C   UNL     1       4.906   0.830   1.177  1.00  0.00     0.183 C 
ATOM     21  N   UNL     1       1.512   1.294  -0.146  1.00  0.00    -0.234 N 
ATOM     22  C   UNL     1       2.794   1.269  -0.167  1.00  0.00     0.319 C 
ATOM     23  H   UNL     1       1.139   2.205  -0.115  1.00  0.00     0.313 HD
ATOM     24  S   UNL     1       4.045   0.078  -0.303  1.00  0.00    -0.022 SA
ATOM     25  N   UNL     1       3.442   2.406   0.149  1.00  0.00    -0.193 N 
ATOM     26  C   UNL     1       4.304   2.238   1.198  1.00  0.00     0.324 C 
ATOM     27  C   UNL     1       3.482   3.510  -0.769  1.00  0.00     0.301 C 
ATOM     28  O   UNL     1       4.570   3.093   2.034  1.00  0.00    -0.245 OA
BRANCH  21  29
ATOM     29  C   UNL     1       0.535   0.295  -0.159  1.00  0.00     0.128 A 
ATOM     30  C   UNL     1       1.853  -1.657   0.873  1.00  0.00     0.049 C 
ATOM     31  C   UNL     1       0.635  -1.040   0.264  1.00  0.00    -0.004 A 
ATOM     32  C   UNL     1      -0.494  -1.881   0.194  1.00  0.00     0.008 A 
ATOM     33  C   UNL     1      -1.751  -1.383  -0.127  1.00  0.00     0.001 A 
ATOM     34  C   UNL     1      -0.760   0.781  -0.443  1.00  0.00     0.052 A 
ATOM     35  C   UNL     1      -1.894  -0.035  -0.407  1.00  0.00     0.004 A 
ENDBRANCH  21  29
ENDBRANCH  19  20
ENDBRANCH  16  19
ENDBRANCH  10  15
ENDBRANCH   7   9
ENDBRANCH   6   7
ENDBRANCH   5   6
ENDBRANCH   4   5
ENDBRANCH   3   4
ENDBRANCH   2   3
ENDBRANCH   1   2
BRANCH   1  36
ATOM     36  O   UNL     1       5.288   8.194   0.213  1.00  0.00    -0.377 OA
BRANCH  36  37
ATOM     37  C   UNL     1       4.381   9.272   0.476  1.00  0.00     0.188 C 
BRANCH  37  38
ATOM     38  C   UNL     1       4.044  10.326  -0.586  1.00  0.00     0.188 C 
BRANCH  38  39
ATOM     39  O   UNL     1       5.181  10.888  -1.209  1.00  0.00    -0.376 OA
BRANCH  39  40
ATOM     40  C   UNL     1       5.836  11.897  -0.453  1.00  0.00     0.202 C 
BRANCH  40  41
ATOM     41  C   UNL     1       4.965  13.136  -0.175  1.00  0.00     0.261 C 
BRANCH  41  42
ATOM     42  O   UNL     1       4.528  13.723  -1.418  1.00  0.00    -0.460 OA
BRANCH  42  43
ATOM     43  C   UNL     1       3.250  13.442  -1.800  1.00  0.00     0.338 C 
ATOM     44  O   UNL     1       2.266  13.495  -1.080  1.00  0.00    -0.246 OA
BRANCH  43  45
ATOM     45  C   UNL     1       3.278  12.721  -3.111  1.00  0.00     0.060 A 
ATOM     46  C   UNL     1       2.148  11.982  -3.477  1.00  0.00     0.016 A 
ATOM     47  C   UNL     1       4.521  12.393  -3.649  1.00  0.00     0.016 A 
ATOM     48  C   UNL     1       2.322  10.771  -4.148  1.00  0.00     0.010 A 
ATOM     49  C   UNL     1       4.703  11.108  -4.141  1.00  0.00     0.010 A 
ATOM     50  C   UNL     1       3.618  10.252  -4.343  1.00  0.00    -0.014 A 
BRANCH  50  51
ATOM     51  C   UNL     1       3.790   8.788  -4.576  1.00  0.00     0.031 A 
ATOM     52  C   UNL     1       4.886   8.211  -5.553  1.00  0.00     0.074 A 
ATOM     53  C   UNL     1       3.131   8.042  -3.650  1.00  0.00     0.049 A 
ATOM     54  N   UNL     1       5.168   6.990  -5.966  1.00  0.00    -0.248 NA
ATOM     55  C   UNL     1       5.766   9.175  -6.218  1.00  0.00     0.031 C 
ATOM     56  C   UNL     1       3.384   7.817  -2.220  1.00  0.00     0.029 A 
ATOM     57  N   UNL     1       1.923   7.399  -3.788  1.00  0.00    -0.354 N 
ATOM     58  C   UNL     1       6.388   7.008  -6.731  1.00  0.00     0.074 A 
ATOM     59  C   UNL     1       6.612   8.416  -6.909  1.00  0.00     0.031 C 
ATOM     60  C   UNL     1       2.652   6.804  -1.742  1.00  0.00     0.029 A 
ATOM     61  C   UNL     1       1.900   6.344  -2.872  1.00  0.00     0.049 A 
ATOM     62  H   UNL     1       1.204   7.639  -4.418  1.00  0.00     0.167 HD
ATOM     63  C   UNL     1       7.182   5.914  -7.101  1.00  0.00     0.037 A 
ATOM     64  C   UNL     1       0.986   5.382  -2.746  1.00  0.00     0.037 A 
ATOM     65  C   UNL     1       6.613   4.579  -6.733  1.00  0.00     0.049 A 
ATOM     66  C   UNL     1       1.461   4.245  -3.637  1.00  0.00     0.074 A 
ATOM     67  C   UNL     1       7.161   3.458  -6.113  1.00  0.00     0.029 A 
ATOM     68  N   UNL     1       5.240   4.284  -6.836  1.00  0.00    -0.354 N 
ATOM     69  N   UNL     1       2.608   4.181  -4.310  1.00  0.00    -0.248 NA
ATOM     70  C   UNL     1       0.732   2.986  -3.671  1.00  0.00     0.031 C 
ATOM     71  C   UNL     1       6.115   2.592  -5.694  1.00  0.00     0.029 A 
ATOM     72  C   UNL     1       4.904   3.154  -6.082  1.00  0.00     0.049 A 
ATOM     73  H   UNL     1       4.598   4.806  -7.369  1.00  0.00     0.167 HD
ATOM     74  C   UNL     1       2.665   2.968  -5.010  1.00  0.00     0.074 A 
ATOM     75  C   UNL     1       1.525   2.242  -4.457  1.00  0.00     0.031 C 
ATOM     76  C   UNL     1       3.558   2.577  -6.003  1.00  0.00     0.037 A 
BRANCH  63  77
ATOM     77  C   UNL     1       8.715   5.981  -7.657  1.00  0.00     0.057 A 
ATOM     78  C   UNL     1       9.544   4.823  -7.777  1.00  0.00     0.134 A 
ATOM     79  C   UNL     1       9.441   7.126  -8.065  1.00  0.00     0.134 A 
ATOM     80  F   UNL     1       9.068   3.581  -7.664  1.00  0.00    -0.206 F 
ATOM     81  C   UNL     1      10.923   4.826  -8.118  1.00  0.00     0.040 A 
ATOM     82  C   UNL     1      10.808   7.139  -8.456  1.00  0.00     0.040 A 
ATOM     83  F   UNL     1       8.894   8.330  -8.196  1.00  0.00    -0.206 F 
ATOM     84  C   UNL     1      11.568   5.991  -8.460  1.00  0.00     0.006 A 
ENDBRANCH  63  77
BRANCH  64  85
ATOM     85  C   UNL     1      -0.292   5.978  -2.187  1.00  0.00     0.057 A 
ATOM     86  C   UNL     1      -0.247   6.326  -0.810  1.00  0.00     0.134 A 
ATOM     87  C   UNL     1      -0.941   6.924  -3.007  1.00  0.00     0.134 A 
ATOM     88  F   UNL     1       0.289   5.472   0.076  1.00  0.00    -0.206 F 
ATOM     89  C   UNL     1      -0.494   7.638  -0.357  1.00  0.00     0.040 A 
ATOM     90  C   UNL     1      -1.169   8.247  -2.568  1.00  0.00     0.040 A 
ATOM     91  F   UNL     1      -1.047   6.694  -4.323  1.00  0.00    -0.206 F 
ATOM     92  C   UNL     1      -0.879   8.623  -1.259  1.00  0.00     0.006 A 
ENDBRANCH  64  85
BRANCH  76  93
ATOM     93  C   UNL     1       3.329   1.449  -7.036  1.00  0.00     0.057 A 
ATOM     94  C   UNL     1       2.093   0.855  -7.317  1.00  0.00     0.134 A 
ATOM     95  C   UNL     1       4.359   1.060  -7.949  1.00  0.00     0.134 A 
ATOM     96  F   UNL     1       0.974   1.188  -6.667  1.00  0.00    -0.206 F 
ATOM     97  C   UNL     1       1.908  -0.067  -8.361  1.00  0.00     0.040 A 
ATOM     98  C   UNL     1       4.173   0.180  -9.017  1.00  0.00     0.040 A 
ATOM     99  F   UNL     1       5.603   1.551  -7.915  1.00  0.00    -0.206 F 
ATOM    100  C   UNL     1       2.941  -0.394  -9.225  1.00  0.00     0.006 A 
ENDBRANCH  76  93
ENDBRANCH  50  51
ENDBRANCH  43  45
ENDBRANCH  42  43
ENDBRANCH  41  42
ENDBRANCH  40  41
ENDBRANCH  39  40
ENDBRANCH  38  39
ENDBRANCH  37  38
ENDBRANCH  36  37
ENDBRANCH   1  36
TORSDOF 24
