REMARK SMILES Cc1cnn(C2(C(=O)OCCOCCOCCOCCOC(=O)c3ccc(-c4c5nc(c(-c6c(F)cccc6F)c6ccc([nH]6)c(-c6c(F)cccc6F)c6nc(c(-c7c(F)cccc7F)c7ccc4[nH]7)C=C6)C=C5)cc3)CCN(C(=O)c3cc4ccccc4[nH]3)CC2)c1
REMARK SMILES IDX 16 1 15 2 14 3 13 4 12 5 11 6 10 7 9 8 7 9 8 10 6 11 78 12
REMARK SMILES IDX 93 13 79 14 92 15 80 16 81 17 82 18 5 19 1 20 2 21 3 22
REMARK SMILES IDX 94 23 4 24 83 25 84 26 91 27 85 28 90 29 86 31 89 32 87 33
REMARK SMILES IDX 88 34 17 35 18 36 19 37 20 38 21 39 22 40 23 41 24 42 25 43
REMARK SMILES IDX 77 44 26 45 76 46 27 47 28 48 29 49 70 50 30 51 75 52 69 53
REMARK SMILES IDX 71 54 31 55 74 56 68 57 67 58 32 60 58 61 41 62 57 63 42 64
REMARK SMILES IDX 45 65 56 66 72 67 43 68 44 69 55 71 73 72 46 73 33 74 34 75
REMARK SMILES IDX 39 76 35 77 36 78 38 79 40 80 37 81 59 82 60 83 65 84 61 85
REMARK SMILES IDX 62 86 64 87 66 88 63 89 47 90 48 91 53 92 49 93 50 94 52 95
REMARK SMILES IDX 54 96 51 97
REMARK H PARENT 91 30 71 59 45 70
REMARK Flexibility Score: inf
ROOT
ATOM      1  C   UNL     1      -3.473  -7.420  -2.161  1.00  0.00     0.188 C 
ENDROOT
BRANCH   1   2
ATOM      2  O   UNL     1      -2.964  -6.454  -1.246  1.00  0.00    -0.377 OA
BRANCH   2   3
ATOM      3  C   UNL     1      -1.669  -5.943  -1.514  1.00  0.00     0.188 C 
BRANCH   3   4
ATOM      4  C   UNL     1      -0.515  -6.672  -0.808  1.00  0.00     0.188 C 
BRANCH   4   5
ATOM      5  O   UNL     1      -0.730  -7.977  -0.289  1.00  0.00    -0.376 OA
BRANCH   5   6
ATOM      6  C   UNL     1      -1.792  -8.194   0.633  1.00  0.00     0.202 C 
BRANCH   6   7
ATOM      7  C   UNL     1      -2.106  -7.167   1.732  1.00  0.00     0.261 C 
BRANCH   7   8
ATOM      8  O   UNL     1      -2.397  -5.838   1.256  1.00  0.00    -0.461 OA
BRANCH   8   9
ATOM      9  C   UNL     1      -1.657  -4.820   1.774  1.00  0.00     0.334 C 
ATOM     10  O   UNL     1      -0.842  -4.984   2.681  1.00  0.00    -0.249 OA
BRANCH   9  11
ATOM     11  C   UNL     1      -2.013  -3.422   1.189  1.00  0.00     0.163 C 
ATOM     12  C   UNL     1      -3.297  -3.432   0.320  1.00  0.00     0.064 C 
ATOM     13  C   UNL     1      -2.321  -2.625   2.476  1.00  0.00     0.064 C 
ATOM     14  C   UNL     1      -3.891  -2.060   0.068  1.00  0.00     0.123 C 
ATOM     15  C   UNL     1      -2.965  -1.273   2.257  1.00  0.00     0.123 C 
ATOM     16  N   UNL     1      -4.068  -1.307   1.296  1.00  0.00    -0.337 N 
ATOM     17  C   UNL     1      -5.212  -0.516   1.415  1.00  0.00     0.270 C 
ATOM     18  O   UNL     1      -6.174  -0.618   0.661  1.00  0.00    -0.267 OA
BRANCH  11  19
ATOM     19  N   UNL     1      -0.836  -2.853   0.491  1.00  0.00    -0.255 N 
ATOM     20  C   UNL     1       1.496  -0.164  -0.327  1.00  0.00     0.048 C 
ATOM     21  C   UNL     1       0.744  -1.418  -0.099  1.00  0.00    -0.013 A 
ATOM     22  C   UNL     1       1.226  -2.735  -0.015  1.00  0.00     0.138 A 
ATOM     23  C   UNL     1      -0.612  -1.555   0.101  1.00  0.00     0.113 A 
ATOM     24  N   UNL     1       0.258  -3.610   0.257  1.00  0.00    -0.180 NA
ENDBRANCH  11  19
BRANCH  17  25
ATOM     25  C   UNL     1      -5.213   0.402   2.520  1.00  0.00     0.105 A 
ATOM     26  C   UNL     1      -4.441   1.528   2.733  1.00  0.00     0.042 A 
ATOM     27  N   UNL     1      -6.009   0.233   3.623  1.00  0.00    -0.351 N 
ATOM     28  C   UNL     1      -4.709   1.992   4.047  1.00  0.00     0.000 A 
ATOM     29  C   UNL     1      -5.668   1.140   4.596  1.00  0.00     0.046 A 
ATOM     30  H   UNL     1      -6.723  -0.440   3.705  1.00  0.00     0.167 HD
ATOM     31  C   UNL     1      -4.207   3.045   4.831  1.00  0.00     0.010 A 
ATOM     32  C   UNL     1      -6.134   1.269   5.906  1.00  0.00     0.026 A 
ATOM     33  C   UNL     1      -4.677   3.201   6.139  1.00  0.00     0.001 A 
ATOM     34  C   UNL     1      -5.619   2.321   6.668  1.00  0.00     0.002 A 
ENDBRANCH  17  25
ENDBRANCH   9  11
ENDBRANCH   8   9
ENDBRANCH   7   8
ENDBRANCH   6   7
ENDBRANCH   5   6
ENDBRANCH   4   5
ENDBRANCH   3   4
ENDBRANCH   2   3
ENDBRANCH   1   2
BRANCH   1  35
ATOM     35  C   UNL     1      -2.492  -8.361  -2.904  1.00  0.00     0.188 C 
BRANCH  35  36
ATOM     36  O   UNL     1      -1.294  -7.753  -3.380  1.00  0.00    -0.376 OA
BRANCH  36  37
ATOM     37  C   UNL     1      -1.167  -7.307  -4.723  1.00  0.00     0.202 C 
BRANCH  37  38
ATOM     38  C   UNL     1      -2.040  -6.131  -5.172  1.00  0.00     0.261 C 
BRANCH  38  39
ATOM     39  O   UNL     1      -3.421  -6.312  -4.916  1.00  0.00    -0.460 OA
BRANCH  39  40
ATOM     40  C   UNL     1      -3.967  -7.420  -5.451  1.00  0.00     0.338 C 
ATOM     41  O   UNL     1      -3.418  -8.270  -6.124  1.00  0.00    -0.246 OA
BRANCH  40  42
ATOM     42  C   UNL     1      -5.405  -7.409  -5.165  1.00  0.00     0.060 A 
ATOM     43  C   UNL     1      -6.104  -8.496  -5.684  1.00  0.00     0.016 A 
ATOM     44  C   UNL     1      -6.014  -6.185  -4.847  1.00  0.00     0.016 A 
ATOM     45  C   UNL     1      -7.316  -8.227  -6.256  1.00  0.00     0.010 A 
ATOM     46  C   UNL     1      -7.223  -5.916  -5.423  1.00  0.00     0.010 A 
ATOM     47  C   UNL     1      -7.771  -6.905  -6.230  1.00  0.00    -0.014 A 
BRANCH  47  48
ATOM     48  C   UNL     1      -8.825  -6.566  -7.145  1.00  0.00     0.031 A 
ATOM     49  C   UNL     1     -10.145  -7.011  -6.684  1.00  0.00     0.074 A 
ATOM     50  C   UNL     1      -8.584  -5.876  -8.271  1.00  0.00     0.049 A 
ATOM     51  N   UNL     1     -10.868  -7.963  -7.166  1.00  0.00    -0.248 NA
ATOM     52  C   UNL     1     -10.626  -6.451  -5.413  1.00  0.00     0.031 C 
ATOM     53  C   UNL     1      -7.371  -5.159  -8.677  1.00  0.00     0.029 A 
ATOM     54  N   UNL     1      -9.453  -5.602  -9.273  1.00  0.00    -0.354 N 
ATOM     55  C   UNL     1     -12.006  -7.983  -6.373  1.00  0.00     0.074 A 
ATOM     56  C   UNL     1     -11.716  -7.187  -5.209  1.00  0.00     0.031 C 
ATOM     57  C   UNL     1      -7.667  -4.351  -9.722  1.00  0.00     0.029 A 
ATOM     58  C   UNL     1      -9.040  -4.597 -10.129  1.00  0.00     0.049 A 
ATOM     59  H   UNL     1     -10.308  -6.078  -9.383  1.00  0.00     0.167 HD
ATOM     60  C   UNL     1     -13.191  -8.426  -6.862  1.00  0.00     0.037 A 
ATOM     61  C   UNL     1      -9.837  -3.963 -11.022  1.00  0.00     0.037 A 
ATOM     62  C   UNL     1     -13.012  -9.245  -8.034  1.00  0.00     0.049 A 
ATOM     63  C   UNL     1     -11.026  -4.832 -11.251  1.00  0.00     0.074 A 
ATOM     64  C   UNL     1     -12.343 -10.426  -8.293  1.00  0.00     0.029 A 
ATOM     65  N   UNL     1     -13.256  -8.679  -9.262  1.00  0.00    -0.354 N 
ATOM     66  N   UNL     1     -10.973  -5.986 -11.859  1.00  0.00    -0.248 NA
ATOM     67  C   UNL     1     -12.183  -4.643 -10.384  1.00  0.00     0.031 C 
ATOM     68  C   UNL     1     -11.807 -10.271  -9.605  1.00  0.00     0.029 A 
ATOM     69  C   UNL     1     -12.211  -9.024 -10.083  1.00  0.00     0.049 A 
ATOM     70  H   UNL     1     -14.034  -8.129  -9.508  1.00  0.00     0.167 HD
ATOM     71  C   UNL     1     -11.847  -6.807 -11.157  1.00  0.00     0.074 A 
ATOM     72  C   UNL     1     -12.621  -5.903 -10.310  1.00  0.00     0.031 C 
ATOM     73  C   UNL     1     -11.669  -8.161 -11.108  1.00  0.00     0.037 A 
BRANCH  60  74
ATOM     74  C   UNL     1     -14.504  -7.800  -6.489  1.00  0.00     0.057 A 
ATOM     75  C   UNL     1     -15.697  -8.436  -6.862  1.00  0.00     0.134 A 
ATOM     76  C   UNL     1     -14.646  -6.475  -6.021  1.00  0.00     0.134 A 
ATOM     77  F   UNL     1     -15.685  -9.686  -7.349  1.00  0.00    -0.206 F 
ATOM     78  C   UNL     1     -16.933  -7.782  -6.824  1.00  0.00     0.040 A 
ATOM     79  C   UNL     1     -15.880  -5.834  -5.923  1.00  0.00     0.040 A 
ATOM     80  F   UNL     1     -13.597  -5.694  -5.734  1.00  0.00    -0.206 F 
ATOM     81  C   UNL     1     -17.027  -6.476  -6.355  1.00  0.00     0.006 A 
ENDBRANCH  60  74
BRANCH  61  82
ATOM     82  C   UNL     1      -9.799  -2.529 -11.385  1.00  0.00     0.057 A 
ATOM     83  C   UNL     1     -10.452  -2.048 -12.526  1.00  0.00     0.134 A 
ATOM     84  C   UNL     1      -9.326  -1.552 -10.488  1.00  0.00     0.134 A 
ATOM     85  F   UNL     1     -10.983  -2.901 -13.414  1.00  0.00    -0.206 F 
ATOM     86  C   UNL     1     -10.627  -0.677 -12.762  1.00  0.00     0.040 A 
ATOM     87  C   UNL     1      -9.485  -0.182 -10.714  1.00  0.00     0.040 A 
ATOM     88  F   UNL     1      -8.768  -1.893  -9.318  1.00  0.00    -0.206 F 
ATOM     89  C   UNL     1     -10.148   0.261 -11.851  1.00  0.00     0.006 A 
ENDBRANCH  61  82
BRANCH  73  90
ATOM     90  C   UNL     1     -10.621  -8.762 -12.005  1.00  0.00     0.057 A 
ATOM     91  C   UNL     1      -9.247  -8.512 -11.863  1.00  0.00     0.134 A 
ATOM     92  C   UNL     1     -10.990  -9.754 -12.918  1.00  0.00     0.134 A 
ATOM     93  F   UNL     1      -8.793  -7.657 -10.939  1.00  0.00    -0.206 F 
ATOM     94  C   UNL     1      -8.289  -9.188 -12.624  1.00  0.00     0.040 A 
ATOM     95  C   UNL     1     -10.041 -10.460 -13.663  1.00  0.00     0.040 A 
ATOM     96  F   UNL     1     -12.281 -10.094 -13.062  1.00  0.00    -0.206 F 
ATOM     97  C   UNL     1      -8.685 -10.173 -13.523  1.00  0.00     0.006 A 
ENDBRANCH  73  90
ENDBRANCH  47  48
ENDBRANCH  40  42
ENDBRANCH  39  40
ENDBRANCH  38  39
ENDBRANCH  37  38
ENDBRANCH  36  37
ENDBRANCH  35  36
ENDBRANCH   1  35
TORSDOF 22
