REMARK SMILES CCOc1cc(C=O)ccc1OCc1ccc(C(=O)OCCOCCOCCOCCOC(=O)c2ccc(-c3c4nc(c(-c5c(F)cccc5F)c5ccc([nH]5)c(-c5c(F)cccc5F)c5nc(c(-c6c(F)cccc6F)c6ccc3[nH]6)C=C5)C=C4)cc2)cc1
REMARK SMILES IDX 24 1 23 2 22 3 21 4 20 5 18 6 19 7 17 8 14 9 15 10 90 11
REMARK SMILES IDX 16 12 89 13 13 14 12 15 11 16 4 17 5 18 6 19 10 20 9 21 3 22
REMARK SMILES IDX 2 23 1 24 7 25 8 26 25 27 26 28 27 29 28 30 29 31 30 32
REMARK SMILES IDX 31 33 32 34 33 35 34 36 35 37 36 38 88 39 37 40 87 41 38 42
REMARK SMILES IDX 39 43 40 44 81 45 41 46 86 47 80 48 82 49 42 50 85 51 79 52
REMARK SMILES IDX 78 53 43 55 69 56 52 57 68 58 53 59 56 60 67 61 83 62 54 63
REMARK SMILES IDX 55 64 66 66 84 67 57 68 44 69 45 70 50 71 46 72 47 73 49 74
REMARK SMILES IDX 51 75 48 76 70 77 71 78 76 79 72 80 73 81 75 82 77 83 74 84
REMARK SMILES IDX 58 85 59 86 64 87 60 88 61 89 63 90 65 91 62 92
REMARK H PARENT 82 54 56 65
REMARK Flexibility Score: inf
ROOT
ATOM      1  C   UNL     1      -1.231  -5.961  -1.857  1.00  0.00     0.188 C 
ENDROOT
BRANCH   1   2
ATOM      2  O   UNL     1      -1.038  -7.289  -2.308  1.00  0.00    -0.376 OA
BRANCH   2   3
ATOM      3  C   UNL     1      -0.030  -7.571  -3.257  1.00  0.00     0.202 C 
BRANCH   3   4
ATOM      4  C   UNL     1       1.427  -7.218  -2.929  1.00  0.00     0.261 C 
BRANCH   4   5
ATOM      5  O   UNL     1       1.662  -5.920  -2.375  1.00  0.00    -0.460 OA
BRANCH   5   6
ATOM      6  C   UNL     1       1.472  -4.869  -3.201  1.00  0.00     0.338 C 
ATOM      7  O   UNL     1       1.083  -4.914  -4.354  1.00  0.00    -0.246 OA
BRANCH   6   8
ATOM      8  C   UNL     1       1.682  -3.615  -2.441  1.00  0.00     0.060 A 
ATOM      9  C   UNL     1       2.164  -1.145  -1.160  1.00  0.00    -0.011 A 
ATOM     10  C   UNL     1       1.115  -1.289  -2.088  1.00  0.00     0.008 A 
ATOM     11  C   UNL     1       2.942  -2.276  -0.870  1.00  0.00     0.008 A 
ATOM     12  C   UNL     1       0.881  -2.509  -2.731  1.00  0.00     0.016 A 
ATOM     13  C   UNL     1       2.687  -3.509  -1.479  1.00  0.00     0.016 A 
BRANCH   9  14
ATOM     14  C   UNL     1       2.409   0.241  -0.564  1.00  0.00     0.265 C 
BRANCH  14  15
ATOM     15  O   UNL     1       3.429   0.429   0.425  1.00  0.00    -0.485 OA
BRANCH  15  16
ATOM     16  C   UNL     1       3.397  -0.343   1.554  1.00  0.00     0.161 A 
ATOM     17  C   UNL     1       2.256  -0.861   2.184  1.00  0.00     0.161 A 
ATOM     18  C   UNL     1       2.406  -1.846   3.166  1.00  0.00     0.062 A 
ATOM     19  C   UNL     1       3.698  -2.244   3.554  1.00  0.00     0.018 A 
ATOM     20  C   UNL     1       4.674  -0.677   2.017  1.00  0.00     0.051 A 
ATOM     21  C   UNL     1       4.831  -1.629   3.015  1.00  0.00     0.015 A 
BRANCH  17  22
ATOM     22  O   UNL     1       1.063  -0.243   1.935  1.00  0.00    -0.490 OA
BRANCH  22  23
ATOM     23  C   UNL     1      -0.047  -1.070   1.587  1.00  0.00     0.226 C 
ATOM     24  C   UNL     1      -1.037  -0.163   0.861  1.00  0.00     0.049 C 
ENDBRANCH  22  23
ENDBRANCH  17  22
BRANCH  19  25
ATOM     25  C   UNL     1       3.908  -3.311   4.553  1.00  0.00     0.260 C 
ATOM     26  O   UNL     1       2.983  -3.962   5.020  1.00  0.00    -0.298 OA
ENDBRANCH  19  25
ENDBRANCH  15  16
ENDBRANCH  14  15
ENDBRANCH   9  14
ENDBRANCH   6   8
ENDBRANCH   5   6
ENDBRANCH   4   5
ENDBRANCH   3   4
ENDBRANCH   2   3
ENDBRANCH   1   2
BRANCH   1  27
ATOM     27  C   UNL     1      -0.754  -5.718  -0.410  1.00  0.00     0.188 C 
BRANCH  27  28
ATOM     28  O   UNL     1       0.085  -6.688   0.199  1.00  0.00    -0.377 OA
BRANCH  28  29
ATOM     29  C   UNL     1      -0.292  -8.064   0.216  1.00  0.00     0.188 C 
BRANCH  29  30
ATOM     30  C   UNL     1      -1.747  -8.537  -0.021  1.00  0.00     0.188 C 
BRANCH  30  31
ATOM     31  O   UNL     1      -2.713  -7.502   0.028  1.00  0.00    -0.376 OA
BRANCH  31  32
ATOM     32  C   UNL     1      -3.618  -7.505   1.115  1.00  0.00     0.202 C 
BRANCH  32  33
ATOM     33  C   UNL     1      -3.010  -7.260   2.501  1.00  0.00     0.261 C 
BRANCH  33  34
ATOM     34  O   UNL     1      -1.913  -8.113   2.866  1.00  0.00    -0.460 OA
BRANCH  34  35
ATOM     35  C   UNL     1      -2.192  -9.421   3.077  1.00  0.00     0.338 C 
ATOM     36  O   UNL     1      -3.269  -9.966   2.992  1.00  0.00    -0.246 OA
BRANCH  35  37
ATOM     37  C   UNL     1      -0.900 -10.125   3.247  1.00  0.00     0.060 A 
ATOM     38  C   UNL     1      -0.547 -11.131   2.337  1.00  0.00     0.016 A 
ATOM     39  C   UNL     1      -0.040  -9.783   4.292  1.00  0.00     0.016 A 
ATOM     40  C   UNL     1       0.656 -11.820   2.492  1.00  0.00     0.010 A 
ATOM     41  C   UNL     1       1.155 -10.487   4.458  1.00  0.00     0.010 A 
ATOM     42  C   UNL     1       1.494 -11.530   3.578  1.00  0.00    -0.014 A 
BRANCH  42  43
ATOM     43  C   UNL     1       2.631 -12.429   3.890  1.00  0.00     0.031 A 
ATOM     44  C   UNL     1       2.454 -13.469   4.961  1.00  0.00     0.074 A 
ATOM     45  C   UNL     1       3.796 -12.338   3.226  1.00  0.00     0.049 A 
ATOM     46  N   UNL     1       3.309 -14.344   5.423  1.00  0.00    -0.248 NA
ATOM     47  C   UNL     1       1.129 -13.524   5.600  1.00  0.00     0.031 C 
ATOM     48  C   UNL     1       4.084 -11.393   2.150  1.00  0.00     0.029 A 
ATOM     49  N   UNL     1       4.960 -13.051   3.372  1.00  0.00    -0.354 N 
ATOM     50  C   UNL     1       2.632 -15.045   6.413  1.00  0.00     0.074 A 
ATOM     51  C   UNL     1       1.306 -14.473   6.506  1.00  0.00     0.031 C 
ATOM     52  C   UNL     1       5.351 -11.576   1.740  1.00  0.00     0.029 A 
ATOM     53  C   UNL     1       5.971 -12.626   2.547  1.00  0.00     0.049 A 
ATOM     54  H   UNL     1       5.061 -13.796   4.008  1.00  0.00     0.167 HD
ATOM     55  C   UNL     1       3.073 -16.077   7.172  1.00  0.00     0.037 A 
ATOM     56  C   UNL     1       7.257 -13.022   2.470  1.00  0.00     0.037 A 
ATOM     57  C   UNL     1       4.396 -16.637   7.082  1.00  0.00     0.049 A 
ATOM     58  C   UNL     1       7.747 -14.128   3.368  1.00  0.00     0.074 A 
ATOM     59  C   UNL     1       4.928 -17.706   7.782  1.00  0.00     0.029 A 
ATOM     60  N   UNL     1       5.402 -16.160   6.255  1.00  0.00    -0.354 N 
ATOM     61  N   UNL     1       7.088 -14.817   4.270  1.00  0.00    -0.248 NA
ATOM     62  C   UNL     1       9.159 -14.514   3.235  1.00  0.00     0.031 C 
ATOM     63  C   UNL     1       6.276 -17.831   7.428  1.00  0.00     0.029 A 
ATOM     64  C   UNL     1       6.565 -16.888   6.455  1.00  0.00     0.049 A 
ATOM     65  H   UNL     1       5.305 -15.415   5.619  1.00  0.00     0.167 HD
ATOM     66  C   UNL     1       7.996 -15.731   4.792  1.00  0.00     0.074 A 
ATOM     67  C   UNL     1       9.247 -15.520   4.094  1.00  0.00     0.031 C 
ATOM     68  C   UNL     1       7.809 -16.663   5.760  1.00  0.00     0.037 A 
BRANCH  55  69
ATOM     69  C   UNL     1       2.124 -16.632   8.196  1.00  0.00     0.057 A 
ATOM     70  C   UNL     1       0.969 -17.342   7.840  1.00  0.00     0.134 A 
ATOM     71  C   UNL     1       2.377 -16.459   9.563  1.00  0.00     0.134 A 
ATOM     72  F   UNL     1       0.659 -17.532   6.549  1.00  0.00    -0.206 F 
ATOM     73  C   UNL     1       0.083 -17.826   8.804  1.00  0.00     0.040 A 
ATOM     74  C   UNL     1       1.515 -16.966  10.537  1.00  0.00     0.040 A 
ATOM     75  F   UNL     1       3.466 -15.794   9.977  1.00  0.00    -0.206 F 
ATOM     76  C   UNL     1       0.358 -17.644  10.158  1.00  0.00     0.006 A 
ENDBRANCH  55  69
BRANCH  56  77
ATOM     77  C   UNL     1       8.177 -12.357   1.512  1.00  0.00     0.057 A 
ATOM     78  C   UNL     1       8.681 -13.032   0.395  1.00  0.00     0.134 A 
ATOM     79  C   UNL     1       8.575 -11.026   1.694  1.00  0.00     0.134 A 
ATOM     80  F   UNL     1       8.359 -14.315   0.180  1.00  0.00    -0.206 F 
ATOM     81  C   UNL     1       9.554 -12.412  -0.502  1.00  0.00     0.040 A 
ATOM     82  C   UNL     1       9.424 -10.385   0.791  1.00  0.00     0.040 A 
ATOM     83  F   UNL     1       8.129 -10.323   2.745  1.00  0.00    -0.206 F 
ATOM     84  C   UNL     1       9.921 -11.081  -0.309  1.00  0.00     0.006 A 
ENDBRANCH  56  77
BRANCH  68  85
ATOM     85  C   UNL     1       8.976 -17.547   6.105  1.00  0.00     0.057 A 
ATOM     86  C   UNL     1      10.107 -17.060   6.773  1.00  0.00     0.134 A 
ATOM     87  C   UNL     1       8.951 -18.914   5.795  1.00  0.00     0.134 A 
ATOM     88  F   UNL     1      10.202 -15.760   7.092  1.00  0.00    -0.206 F 
ATOM     89  C   UNL     1      11.181 -17.893   7.094  1.00  0.00     0.040 A 
ATOM     90  C   UNL     1      10.005 -19.762   6.139  1.00  0.00     0.040 A 
ATOM     91  F   UNL     1       7.895 -19.451   5.165  1.00  0.00    -0.206 F 
ATOM     92  C   UNL     1      11.128 -19.250   6.783  1.00  0.00     0.006 A 
ENDBRANCH  68  85
ENDBRANCH  42  43
ENDBRANCH  35  37
ENDBRANCH  34  35
ENDBRANCH  33  34
ENDBRANCH  32  33
ENDBRANCH  31  32
ENDBRANCH  30  31
ENDBRANCH  29  30
ENDBRANCH  28  29
ENDBRANCH  27  28
ENDBRANCH   1  27
TORSDOF 26
