REMARK SMILES C[C@@H](Sc1nc2ccccc2c(=O)n1N)C(=O)OCCOCCOCCOCCOC(=O)c1ccc(-c2c3nc(c(-c4c(F)cccc4F)c4ccc([nH]4)c(-c4c(F)cccc4F)c4nc(c(-c5c(F)cccc5F)c5ccc2[nH]5)C=C4)C=C3)cc1
REMARK SMILES IDX 23 1 22 2 21 3 20 4 19 5 18 6 16 7 17 8 2 9 1 10 3 11 4 12
REMARK SMILES IDX 5 13 14 14 6 15 12 16 7 17 11 18 13 19 8 20 10 21 9 22 15 23
REMARK SMILES IDX 24 26 25 27 26 28 27 29 28 30 29 31 30 32 31 33 32 34 33 35
REMARK SMILES IDX 34 36 86 37 35 38 85 39 36 40 37 41 38 42 79 43 39 44 84 45
REMARK SMILES IDX 78 46 80 47 40 48 83 49 77 50 76 51 41 53 67 54 50 55 66 56
REMARK SMILES IDX 51 57 54 58 65 59 81 60 52 61 53 62 64 64 82 65 55 66 42 67
REMARK SMILES IDX 43 68 48 69 44 70 45 71 47 72 49 73 46 74 68 75 69 76 74 77
REMARK SMILES IDX 70 78 71 79 73 80 75 81 72 82 56 83 57 84 62 85 58 86 59 87
REMARK SMILES IDX 61 88 63 89 60 90
REMARK H PARENT 15 24 15 25 80 52 54 63
REMARK Flexibility Score: inf
ROOT
ATOM      1  C   UNL     1      -1.309   0.360  -1.322  1.00  0.00     0.188 C 
ENDROOT
BRANCH   1   2
ATOM      2  C   UNL     1      -1.985  -0.842  -2.001  1.00  0.00     0.188 C 
BRANCH   2   3
ATOM      3  O   UNL     1      -3.305  -1.239  -1.669  1.00  0.00    -0.376 OA
BRANCH   3   4
ATOM      4  C   UNL     1      -3.758  -1.373  -0.331  1.00  0.00     0.202 C 
BRANCH   4   5
ATOM      5  C   UNL     1      -2.935  -2.012   0.797  1.00  0.00     0.261 C 
BRANCH   5   6
ATOM      6  O   UNL     1      -1.562  -1.626   0.891  1.00  0.00    -0.462 OA
BRANCH   6   7
ATOM      7  C   UNL     1      -0.676  -2.506   0.371  1.00  0.00     0.319 C 
ATOM      8  O   UNL     1      -0.999  -3.559  -0.174  1.00  0.00    -0.251 OA
BRANCH   7   9
ATOM      9  C   UNL     1       0.780  -2.061   0.500  1.00  0.00     0.161 C 
ATOM     10  C   UNL     1       1.075  -0.663   1.051  1.00  0.00     0.032 C 
BRANCH   9  11
ATOM     11  S   UNL     1       1.577  -3.367   1.498  1.00  0.00    -0.071 SA
BRANCH  11  12
ATOM     12  C   UNL     1       3.248  -2.955   1.249  1.00  0.00     0.191 A 
ATOM     13  N   UNL     1       3.876  -2.489   2.276  1.00  0.00    -0.222 NA
ATOM     14  N   UNL     1       3.837  -3.201   0.014  1.00  0.00    -0.202 N 
ATOM     15  C   UNL     1       5.246  -2.256   2.157  1.00  0.00     0.079 A 
ATOM     16  C   UNL     1       5.212  -3.050  -0.171  1.00  0.00     0.280 A 
ATOM     17  C   UNL     1       5.925  -1.756   3.268  1.00  0.00     0.029 A 
ATOM     18  C   UNL     1       5.965  -2.565   1.002  1.00  0.00     0.068 A 
ATOM     19  O   UNL     1       5.789  -3.313  -1.226  1.00  0.00    -0.267 OA
ATOM     20  C   UNL     1       7.311  -1.607   3.239  1.00  0.00     0.002 A 
ATOM     21  C   UNL     1       7.354  -2.427   0.965  1.00  0.00     0.016 A 
ATOM     22  C   UNL     1       8.027  -1.957   2.093  1.00  0.00     0.001 A 
BRANCH  14  23
ATOM     23  N   UNL     1       3.071  -3.607  -1.130  1.00  0.00    -0.334 N 
ATOM     24  H   UNL     1       2.097  -3.728  -1.053  1.00  0.00     0.178 HD
ATOM     25  H   UNL     1       3.520  -3.765  -1.992  1.00  0.00     0.178 HD
ENDBRANCH  14  23
ENDBRANCH  11  12
ENDBRANCH   9  11
ENDBRANCH   7   9
ENDBRANCH   6   7
ENDBRANCH   5   6
ENDBRANCH   4   5
ENDBRANCH   3   4
ENDBRANCH   2   3
ENDBRANCH   1   2
BRANCH   1  26
ATOM     26  O   UNL     1      -1.909   0.774  -0.113  1.00  0.00    -0.377 OA
BRANCH  26  27
ATOM     27  C   UNL     1      -2.861   1.830  -0.180  1.00  0.00     0.188 C 
BRANCH  27  28
ATOM     28  C   UNL     1      -3.720   1.983  -1.453  1.00  0.00     0.188 C 
BRANCH  28  29
ATOM     29  O   UNL     1      -2.976   1.965  -2.664  1.00  0.00    -0.376 OA
BRANCH  29  30
ATOM     30  C   UNL     1      -2.628   3.206  -3.261  1.00  0.00     0.202 C 
BRANCH  30  31
ATOM     31  C   UNL     1      -1.647   4.104  -2.488  1.00  0.00     0.261 C 
BRANCH  31  32
ATOM     32  O   UNL     1      -2.087   4.555  -1.195  1.00  0.00    -0.460 OA
BRANCH  32  33
ATOM     33  C   UNL     1      -3.238   5.252  -1.134  1.00  0.00     0.338 C 
ATOM     34  O   UNL     1      -3.924   5.625  -2.075  1.00  0.00    -0.246 OA
BRANCH  33  35
ATOM     35  C   UNL     1      -3.664   5.326   0.278  1.00  0.00     0.060 A 
ATOM     36  C   UNL     1      -4.922   4.817   0.623  1.00  0.00     0.016 A 
ATOM     37  C   UNL     1      -2.849   5.914   1.249  1.00  0.00     0.016 A 
ATOM     38  C   UNL     1      -5.394   4.948   1.927  1.00  0.00     0.010 A 
ATOM     39  C   UNL     1      -3.332   6.061   2.555  1.00  0.00     0.010 A 
ATOM     40  C   UNL     1      -4.625   5.619   2.887  1.00  0.00    -0.014 A 
BRANCH  40  41
ATOM     41  C   UNL     1      -5.269   6.027   4.161  1.00  0.00     0.031 A 
ATOM     42  C   UNL     1      -5.778   7.438   4.291  1.00  0.00     0.074 A 
ATOM     43  C   UNL     1      -5.474   5.143   5.154  1.00  0.00     0.049 A 
ATOM     44  N   UNL     1      -6.400   8.011   5.289  1.00  0.00    -0.248 NA
ATOM     45  C   UNL     1      -5.556   8.322   3.134  1.00  0.00     0.031 C 
ATOM     46  C   UNL     1      -5.065   3.740   5.137  1.00  0.00     0.029 A 
ATOM     47  N   UNL     1      -6.087   5.301   6.373  1.00  0.00    -0.354 N 
ATOM     48  C   UNL     1      -6.655   9.314   4.877  1.00  0.00     0.074 A 
ATOM     49  C   UNL     1      -6.075   9.463   3.560  1.00  0.00     0.031 C 
ATOM     50  C   UNL     1      -5.431   3.166   6.296  1.00  0.00     0.029 A 
ATOM     51  C   UNL     1      -6.077   4.166   7.145  1.00  0.00     0.049 A 
ATOM     52  H   UNL     1      -6.495   6.148   6.665  1.00  0.00     0.167 HD
ATOM     53  C   UNL     1      -7.329  10.293   5.526  1.00  0.00     0.037 A 
ATOM     54  C   UNL     1      -6.522   3.964   8.401  1.00  0.00     0.037 A 
ATOM     55  C   UNL     1      -7.894  10.150   6.841  1.00  0.00     0.049 A 
ATOM     56  C   UNL     1      -7.197   5.095   9.136  1.00  0.00     0.074 A 
ATOM     57  C   UNL     1      -8.584  11.088   7.591  1.00  0.00     0.029 A 
ATOM     58  N   UNL     1      -7.831   8.996   7.607  1.00  0.00    -0.354 N 
ATOM     59  N   UNL     1      -7.449   6.317   8.729  1.00  0.00    -0.248 NA
ATOM     60  C   UNL     1      -7.660   4.814  10.502  1.00  0.00     0.031 C 
ATOM     61  C   UNL     1      -8.893  10.516   8.830  1.00  0.00     0.029 A 
ATOM     62  C   UNL     1      -8.452   9.203   8.828  1.00  0.00     0.049 A 
ATOM     63  H   UNL     1      -7.407   8.153   7.325  1.00  0.00     0.167 HD
ATOM     64  C   UNL     1      -8.124   6.936   9.775  1.00  0.00     0.074 A 
ATOM     65  C   UNL     1      -8.263   5.949  10.824  1.00  0.00     0.031 C 
ATOM     66  C   UNL     1      -8.587   8.209   9.862  1.00  0.00     0.037 A 
BRANCH  53  67
ATOM     67  C   UNL     1      -7.477  11.612   4.823  1.00  0.00     0.057 A 
ATOM     68  C   UNL     1      -8.305  11.763   3.702  1.00  0.00     0.134 A 
ATOM     69  C   UNL     1      -6.811  12.752   5.290  1.00  0.00     0.134 A 
ATOM     70  F   UNL     1      -8.959  10.708   3.193  1.00  0.00    -0.206 F 
ATOM     71  C   UNL     1      -8.447  12.994   3.058  1.00  0.00     0.040 A 
ATOM     72  C   UNL     1      -6.968  13.994   4.672  1.00  0.00     0.040 A 
ATOM     73  F   UNL     1      -6.005  12.680   6.359  1.00  0.00    -0.206 F 
ATOM     74  C   UNL     1      -7.783  14.116   3.549  1.00  0.00     0.006 A 
ENDBRANCH  53  67
BRANCH  54  75
ATOM     75  C   UNL     1      -6.329   2.647   9.063  1.00  0.00     0.057 A 
ATOM     76  C   UNL     1      -7.413   1.833   9.412  1.00  0.00     0.134 A 
ATOM     77  C   UNL     1      -5.049   2.193   9.408  1.00  0.00     0.134 A 
ATOM     78  F   UNL     1      -8.666   2.221   9.133  1.00  0.00    -0.206 F 
ATOM     79  C   UNL     1      -7.236   0.634  10.105  1.00  0.00     0.040 A 
ATOM     80  C   UNL     1      -4.854   0.981  10.072  1.00  0.00     0.040 A 
ATOM     81  F   UNL     1      -3.966   2.924   9.102  1.00  0.00    -0.206 F 
ATOM     82  C   UNL     1      -5.952   0.203  10.433  1.00  0.00     0.006 A 
ENDBRANCH  54  75
BRANCH  66  83
ATOM     83  C   UNL     1      -9.324   8.589  11.116  1.00  0.00     0.057 A 
ATOM     84  C   UNL     1      -8.676   8.710  12.353  1.00  0.00     0.134 A 
ATOM     85  C   UNL     1     -10.700   8.853  11.082  1.00  0.00     0.134 A 
ATOM     86  F   UNL     1      -7.362   8.463  12.460  1.00  0.00    -0.206 F 
ATOM     87  C   UNL     1      -9.377   9.041  13.515  1.00  0.00     0.040 A 
ATOM     88  C   UNL     1     -11.404   9.218  12.230  1.00  0.00     0.040 A 
ATOM     89  F   UNL     1     -11.382   8.770   9.929  1.00  0.00    -0.206 F 
ATOM     90  C   UNL     1     -10.744   9.301  13.454  1.00  0.00     0.006 A 
ENDBRANCH  66  83
ENDBRANCH  40  41
ENDBRANCH  33  35
ENDBRANCH  32  33
ENDBRANCH  31  32
ENDBRANCH  30  31
ENDBRANCH  29  30
ENDBRANCH  28  29
ENDBRANCH  27  28
ENDBRANCH  26  27
ENDBRANCH   1  26
TORSDOF 23
