REMARK SMILES Cc1cc2c(c(C)c1Cl)C=C(C(=O)OCCOCCOCCOCCOC(=O)c1ccc(-c3c4nc(c(-c5c(F)cccc5F)c5ccc([nH]5)c(-c5c(F)cccc5F)c5nc(c(-c6c(F)cccc6F)c6ccc3[nH]6)C=C5)C=C4)cc1)[C@@H](C(F)(F)F)O2
REMARK SMILES IDX 21 1 20 2 19 3 18 4 17 5 16 6 15 7 14 8 12 9 13 10 11 11
REMARK SMILES IDX 1 12 2 13 3 14 8 15 4 16 6 17 9 18 5 19 88 20 7 21 10 22
REMARK SMILES IDX 83 23 84 24 85 25 86 26 87 27 22 28 23 29 24 30 25 31 26 32
REMARK SMILES IDX 27 33 28 34 29 35 30 36 82 37 31 38 81 39 32 40 33 41 34 42
REMARK SMILES IDX 75 43 35 44 80 45 74 46 76 47 36 48 79 49 73 50 72 51 37 53
REMARK SMILES IDX 63 54 46 55 62 56 47 57 50 58 61 59 77 60 48 61 49 62 60 64
REMARK SMILES IDX 78 65 51 66 38 67 39 68 44 69 40 70 41 71 43 72 45 73 42 74
REMARK SMILES IDX 64 75 65 76 70 77 66 78 67 79 69 80 71 81 68 82 52 83 53 84
REMARK SMILES IDX 58 85 54 86 55 87 57 88 59 89 56 90
REMARK H PARENT 76 52 50 63
REMARK Flexibility Score: inf
ROOT
ATOM      1  C   UNL     1      -0.789   7.272   7.325  1.00  0.00     0.188 C 
ENDROOT
BRANCH   1   2
ATOM      2  O   UNL     1      -1.068   6.470   6.174  1.00  0.00    -0.377 OA
BRANCH   2   3
ATOM      3  C   UNL     1      -0.130   6.477   5.110  1.00  0.00     0.188 C 
BRANCH   3   4
ATOM      4  C   UNL     1      -0.219   7.733   4.221  1.00  0.00     0.188 C 
BRANCH   4   5
ATOM      5  O   UNL     1      -0.920   8.798   4.844  1.00  0.00    -0.376 OA
BRANCH   5   6
ATOM      6  C   UNL     1      -2.291   9.014   4.552  1.00  0.00     0.202 C 
BRANCH   6   7
ATOM      7  C   UNL     1      -3.325   7.875   4.599  1.00  0.00     0.261 C 
BRANCH   7   8
ATOM      8  O   UNL     1      -2.904   6.599   4.107  1.00  0.00    -0.460 OA
BRANCH   8   9
ATOM      9  C   UNL     1      -2.809   6.441   2.775  1.00  0.00     0.338 C 
ATOM     10  O   UNL     1      -3.086   7.264   1.920  1.00  0.00    -0.246 OA
BRANCH   9  11
ATOM     11  C   UNL     1      -2.136   5.146   2.525  1.00  0.00     0.087 C 
ATOM     12  C   UNL     1       0.964   0.001   0.138  1.00  0.00     0.046 C 
ATOM     13  C   UNL     1       0.571   1.375   0.610  1.00  0.00    -0.028 A 
ATOM     14  C   UNL     1      -0.407   1.490   1.605  1.00  0.00     0.052 A 
ATOM     15  C   UNL     1       1.113   2.547   0.049  1.00  0.00     0.047 A 
ATOM     16  C   UNL     1      -0.904   2.737   1.975  1.00  0.00     0.128 A 
ATOM     17  C   UNL     1       0.646   3.824   0.440  1.00  0.00    -0.021 A 
ATOM     18  Cl  UNL     1       2.345   2.390  -1.167  1.00  0.00    -0.084 Cl
ATOM     19  C   UNL     1      -0.426   3.901   1.364  1.00  0.00     0.022 A 
ATOM     20  O   UNL     1      -1.878   2.706   2.931  1.00  0.00    -0.475 OA
ATOM     21  C   UNL     1       1.267   5.096  -0.092  1.00  0.00     0.047 C 
ATOM     22  C   UNL     1      -1.120   5.154   1.653  1.00  0.00     0.027 C 
ATOM     23  C   UNL     1      -2.555   3.933   3.307  1.00  0.00     0.316 C 
BRANCH  23  24
ATOM     24  C   UNL     1      -4.067   3.678   3.228  1.00  0.00     0.430 C 
ATOM     25  F   UNL     1      -4.409   2.540   3.881  1.00  0.00    -0.167 F 
ATOM     26  F   UNL     1      -4.785   4.677   3.792  1.00  0.00    -0.167 F 
ATOM     27  F   UNL     1      -4.487   3.552   1.948  1.00  0.00    -0.167 F 
ENDBRANCH  23  24
ENDBRANCH   9  11
ENDBRANCH   8   9
ENDBRANCH   7   8
ENDBRANCH   6   7
ENDBRANCH   5   6
ENDBRANCH   4   5
ENDBRANCH   3   4
ENDBRANCH   2   3
ENDBRANCH   1   2
BRANCH   1  28
ATOM     28  C   UNL     1       0.279   8.396   7.319  1.00  0.00     0.188 C 
BRANCH  28  29
ATOM     29  O   UNL     1       1.442   8.097   6.560  1.00  0.00    -0.376 OA
BRANCH  29  30
ATOM     30  C   UNL     1       2.637   7.806   7.265  1.00  0.00     0.202 C 
BRANCH  30  31
ATOM     31  C   UNL     1       2.657   6.463   8.006  1.00  0.00     0.261 C 
BRANCH  31  32
ATOM     32  O   UNL     1       1.619   6.278   8.981  1.00  0.00    -0.460 OA
BRANCH  32  33
ATOM     33  C   UNL     1       1.601   7.117  10.038  1.00  0.00     0.338 C 
ATOM     34  O   UNL     1       2.395   8.007  10.290  1.00  0.00    -0.246 OA
BRANCH  33  35
ATOM     35  C   UNL     1       0.326   6.900  10.751  1.00  0.00     0.060 A 
ATOM     36  C   UNL     1      -0.577   7.964  10.874  1.00  0.00     0.016 A 
ATOM     37  C   UNL     1       0.018   5.642  11.275  1.00  0.00     0.016 A 
ATOM     38  C   UNL     1      -1.783   7.778  11.550  1.00  0.00     0.010 A 
ATOM     39  C   UNL     1      -1.178   5.465  11.973  1.00  0.00     0.010 A 
ATOM     40  C   UNL     1      -2.067   6.540  12.141  1.00  0.00    -0.014 A 
BRANCH  40  41
ATOM     41  C   UNL     1      -3.177   6.434  13.117  1.00  0.00     0.031 A 
ATOM     42  C   UNL     1      -2.851   6.601  14.576  1.00  0.00     0.074 A 
ATOM     43  C   UNL     1      -4.447   6.229  12.725  1.00  0.00     0.049 A 
ATOM     44  N   UNL     1      -3.637   6.520  15.618  1.00  0.00    -0.248 NA
ATOM     45  C   UNL     1      -1.447   6.904  14.902  1.00  0.00     0.031 C 
ATOM     46  C   UNL     1      -4.896   6.106  11.341  1.00  0.00     0.029 A 
ATOM     47  N   UNL     1      -5.593   6.088  13.468  1.00  0.00    -0.354 N 
ATOM     48  C   UNL     1      -2.825   6.769  16.718  1.00  0.00     0.074 A 
ATOM     49  C   UNL     1      -1.481   6.963  16.224  1.00  0.00     0.031 C 
ATOM     50  C   UNL     1      -6.226   5.905  11.333  1.00  0.00     0.029 A 
ATOM     51  C   UNL     1      -6.715   5.854  12.711  1.00  0.00     0.049 A 
ATOM     52  H   UNL     1      -5.610   6.149  14.450  1.00  0.00     0.167 HD
ATOM     53  C   UNL     1      -3.173   6.844  18.023  1.00  0.00     0.037 A 
ATOM     54  C   UNL     1      -7.985   5.610  13.092  1.00  0.00     0.037 A 
ATOM     55  C   UNL     1      -4.509   6.643  18.514  1.00  0.00     0.049 A 
ATOM     56  C   UNL     1      -8.328   5.593  14.560  1.00  0.00     0.074 A 
ATOM     57  C   UNL     1      -4.960   6.693  19.821  1.00  0.00     0.029 A 
ATOM     58  N   UNL     1      -5.606   6.346  17.721  1.00  0.00    -0.354 N 
ATOM     59  N   UNL     1      -7.558   5.840  15.593  1.00  0.00    -0.248 NA
ATOM     60  C   UNL     1      -9.716   5.262  14.917  1.00  0.00     0.031 C 
ATOM     61  C   UNL     1      -6.320   6.375  19.824  1.00  0.00     0.029 A 
ATOM     62  C   UNL     1      -6.729   6.185  18.513  1.00  0.00     0.049 A 
ATOM     63  H   UNL     1      -5.589   6.264  16.740  1.00  0.00     0.167 HD
ATOM     64  C   UNL     1      -8.371   5.720  16.715  1.00  0.00     0.074 A 
ATOM     65  C   UNL     1      -9.697   5.393  16.236  1.00  0.00     0.031 C 
ATOM     66  C   UNL     1      -8.047   5.868  18.023  1.00  0.00     0.037 A 
BRANCH  53  67
ATOM     67  C   UNL     1      -2.091   7.148  19.014  1.00  0.00     0.057 A 
ATOM     68  C   UNL     1      -1.518   8.423  19.111  1.00  0.00     0.134 A 
ATOM     69  C   UNL     1      -1.656   6.173  19.921  1.00  0.00     0.134 A 
ATOM     70  F   UNL     1      -1.877   9.396  18.260  1.00  0.00    -0.206 F 
ATOM     71  C   UNL     1      -0.544   8.714  20.067  1.00  0.00     0.040 A 
ATOM     72  C   UNL     1      -0.703   6.459  20.899  1.00  0.00     0.040 A 
ATOM     73  F   UNL     1      -2.165   4.932  19.882  1.00  0.00    -0.206 F 
ATOM     74  C   UNL     1      -0.143   7.733  20.972  1.00  0.00     0.006 A 
ENDBRANCH  53  67
BRANCH  54  75
ATOM     75  C   UNL     1      -9.034   5.361  12.069  1.00  0.00     0.057 A 
ATOM     76  C   UNL     1     -10.076   6.274  11.864  1.00  0.00     0.134 A 
ATOM     77  C   UNL     1      -9.030   4.203  11.282  1.00  0.00     0.134 A 
ATOM     78  F   UNL     1     -10.152   7.389  12.605  1.00  0.00    -0.206 F 
ATOM     79  C   UNL     1     -11.079   6.041  10.921  1.00  0.00     0.040 A 
ATOM     80  C   UNL     1     -10.012   3.970  10.316  1.00  0.00     0.040 A 
ATOM     81  F   UNL     1      -8.064   3.285  11.432  1.00  0.00    -0.206 F 
ATOM     82  C   UNL     1     -11.043   4.889  10.138  1.00  0.00     0.006 A 
ENDBRANCH  54  75
BRANCH  66  83
ATOM     83  C   UNL     1      -9.139   5.705  19.041  1.00  0.00     0.057 A 
ATOM     84  C   UNL     1      -9.674   4.449  19.353  1.00  0.00     0.134 A 
ATOM     85  C   UNL     1      -9.593   6.803  19.783  1.00  0.00     0.134 A 
ATOM     86  F   UNL     1      -9.287   3.357  18.675  1.00  0.00    -0.206 F 
ATOM     87  C   UNL     1     -10.629   4.293  20.359  1.00  0.00     0.040 A 
ATOM     88  C   UNL     1     -10.527   6.656  20.810  1.00  0.00     0.040 A 
ATOM     89  F   UNL     1      -9.111   8.033  19.545  1.00  0.00    -0.206 F 
ATOM     90  C   UNL     1     -11.049   5.397  21.099  1.00  0.00     0.006 A 
ENDBRANCH  66  83
ENDBRANCH  40  41
ENDBRANCH  33  35
ENDBRANCH  32  33
ENDBRANCH  31  32
ENDBRANCH  30  31
ENDBRANCH  29  30
ENDBRANCH  28  29
ENDBRANCH   1  28
TORSDOF 21
