REMARK SMILES CC[C@@H]1CCC[C@@H]([NH+]2CC(n3cc(C(=O)OCCOCCOCCOCCOC(=O)c4ccc(-c5c6nc(c(-c7c(F)cccc7F)c7ccc([nH]7)c(-c7c(F)cccc7F)c7nc(c(-c8c(F)cccc8F)c8ccc5[nH]8)C=C7)C=C6)cc4)nn3)C2)C1
REMARK SMILES IDX 21 1 20 2 19 3 18 4 17 5 16 6 14 7 15 8 13 9 11 10 12 11
REMARK SMILES IDX 86 12 85 13 10 14 8 15 9 16 87 17 7 19 3 20 4 21 88 22 5 23
REMARK SMILES IDX 6 24 2 25 1 26 22 27 23 28 24 29 25 30 26 31 27 32 28 33
REMARK SMILES IDX 29 34 30 35 31 36 32 37 84 38 33 39 83 40 34 41 35 42 36 43
REMARK SMILES IDX 77 44 37 45 82 46 76 47 78 48 38 49 81 50 75 51 74 52 39 54
REMARK SMILES IDX 65 55 48 56 64 57 49 58 52 59 63 60 79 61 50 62 51 63 62 65
REMARK SMILES IDX 80 66 53 67 40 68 41 69 46 70 42 71 43 72 45 73 47 74 44 75
REMARK SMILES IDX 66 76 67 77 72 78 68 79 69 80 71 81 73 82 70 83 54 84 55 85
REMARK SMILES IDX 60 86 56 87 57 88 59 89 61 90 58 91
REMARK H PARENT 8 18 78 53 52 64
REMARK Flexibility Score: inf
ROOT
ATOM      1  C   UNL     1       3.332  -4.051   9.501  1.00  0.00     0.188 C 
ENDROOT
BRANCH   1   2
ATOM      2  C   UNL     1       4.813  -4.348   9.818  1.00  0.00     0.188 C 
BRANCH   2   3
ATOM      3  O   UNL     1       5.069  -4.463  11.204  1.00  0.00    -0.376 OA
BRANCH   3   4
ATOM      4  C   UNL     1       5.869  -3.523  11.878  1.00  0.00     0.202 C 
BRANCH   4   5
ATOM      5  C   UNL     1       5.434  -2.053  11.864  1.00  0.00     0.261 C 
BRANCH   5   6
ATOM      6  O   UNL     1       5.030  -1.528  10.597  1.00  0.00    -0.458 OA
BRANCH   6   7
ATOM      7  C   UNL     1       6.013  -1.371   9.660  1.00  0.00     0.360 C 
ATOM      8  O   UNL     1       7.190  -1.600   9.857  1.00  0.00    -0.244 OA
BRANCH   7   9
ATOM      9  C   UNL     1       5.439  -1.018   8.369  1.00  0.00     0.190 A 
ATOM     10  N   UNL     1       4.140  -0.406   6.748  1.00  0.00    -0.237 N 
ATOM     11  C   UNL     1       4.194  -0.482   8.109  1.00  0.00     0.147 A 
ATOM     12  N   UNL     1       5.254  -0.911   6.192  1.00  0.00    -0.066 NA
ATOM     13  N   UNL     1       6.067  -1.274   7.175  1.00  0.00    -0.123 NA
BRANCH  10  14
ATOM     14  C   UNL     1       2.952  -0.089   6.026  1.00  0.00     0.218 C 
ATOM     15  N   UNL     1       2.335   1.136   4.411  1.00  0.00    -0.329 N 
ATOM     16  C   UNL     1       3.065  -0.144   4.496  1.00  0.00     0.296 C 
ATOM     17  C   UNL     1       2.716   1.421   5.820  1.00  0.00     0.296 C 
ATOM     18  H   UNL     1       2.548   1.775   3.645  1.00  0.00     0.348 HD
BRANCH  15  19
ATOM     19  C   UNL     1       0.875   1.090   4.178  1.00  0.00     0.184 C 
ATOM     20  C   UNL     1       0.618  -0.611   2.234  1.00  0.00    -0.006 C 
ATOM     21  C   UNL     1      -0.217  -1.518   3.158  1.00  0.00     0.004 C 
ATOM     22  C   UNL     1       0.558   0.861   2.680  1.00  0.00     0.068 C 
ATOM     23  C   UNL     1      -0.014  -1.282   4.651  1.00  0.00     0.006 C 
ATOM     24  C   UNL     1      -0.054   0.196   5.020  1.00  0.00     0.065 C 
BRANCH  20  25
ATOM     25  C   UNL     1       0.150  -0.822   0.779  1.00  0.00     0.000 C 
ATOM     26  C   UNL     1       0.865   0.049  -0.243  1.00  0.00     0.004 C 
ENDBRANCH  20  25
ENDBRANCH  15  19
ENDBRANCH  10  14
ENDBRANCH   7   9
ENDBRANCH   6   7
ENDBRANCH   5   6
ENDBRANCH   4   5
ENDBRANCH   3   4
ENDBRANCH   2   3
ENDBRANCH   1   2
BRANCH   1  27
ATOM     27  O   UNL     1       2.474  -3.612  10.546  1.00  0.00    -0.377 OA
BRANCH  27  28
ATOM     28  C   UNL     1       2.407  -4.333  11.778  1.00  0.00     0.188 C 
BRANCH  28  29
ATOM     29  C   UNL     1       2.857  -5.815  11.943  1.00  0.00     0.188 C 
BRANCH  29  30
ATOM     30  O   UNL     1       3.413  -6.420  10.791  1.00  0.00    -0.376 OA
BRANCH  30  31
ATOM     31  C   UNL     1       2.789  -7.447  10.054  1.00  0.00     0.202 C 
BRANCH  31  32
ATOM     32  C   UNL     1       1.395  -7.219   9.488  1.00  0.00     0.261 C 
BRANCH  32  33
ATOM     33  O   UNL     1       0.603  -6.360  10.277  1.00  0.00    -0.460 OA
BRANCH  33  34
ATOM     34  C   UNL     1       0.133  -6.925  11.403  1.00  0.00     0.338 C 
ATOM     35  O   UNL     1       0.417  -8.018  11.859  1.00  0.00    -0.246 OA
BRANCH  34  36
ATOM     36  C   UNL     1      -0.887  -6.028  11.950  1.00  0.00     0.060 A 
ATOM     37  C   UNL     1      -1.486  -6.463  13.130  1.00  0.00     0.016 A 
ATOM     38  C   UNL     1      -1.501  -5.127  11.066  1.00  0.00     0.016 A 
ATOM     39  C   UNL     1      -2.839  -6.290  13.236  1.00  0.00     0.010 A 
ATOM     40  C   UNL     1      -2.855  -4.981  11.156  1.00  0.00     0.010 A 
ATOM     41  C   UNL     1      -3.504  -5.672  12.172  1.00  0.00    -0.014 A 
BRANCH  41  42
ATOM     42  C   UNL     1      -4.938  -5.761  12.147  1.00  0.00     0.031 A 
ATOM     43  C   UNL     1      -5.571  -4.823  13.084  1.00  0.00     0.074 A 
ATOM     44  C   UNL     1      -5.580  -6.565  11.283  1.00  0.00     0.049 A 
ATOM     45  N   UNL     1      -6.189  -5.108  14.178  1.00  0.00    -0.248 NA
ATOM     46  C   UNL     1      -5.300  -3.390  12.889  1.00  0.00     0.031 C 
ATOM     47  C   UNL     1      -5.042  -7.316  10.145  1.00  0.00     0.029 A 
ATOM     48  N   UNL     1      -6.914  -6.783  11.191  1.00  0.00    -0.354 N 
ATOM     49  C   UNL     1      -6.581  -3.883  14.698  1.00  0.00     0.074 A 
ATOM     50  C   UNL     1      -5.830  -2.877  13.997  1.00  0.00     0.031 C 
ATOM     51  C   UNL     1      -6.066  -7.700   9.348  1.00  0.00     0.029 A 
ATOM     52  C   UNL     1      -7.319  -7.330   9.982  1.00  0.00     0.049 A 
ATOM     53  H   UNL     1      -7.542  -6.572  11.920  1.00  0.00     0.167 HD
ATOM     54  C   UNL     1      -7.701  -3.778  15.458  1.00  0.00     0.037 A 
ATOM     55  C   UNL     1      -8.600  -7.330   9.536  1.00  0.00     0.037 A 
ATOM     56  C   UNL     1      -8.107  -5.058  15.982  1.00  0.00     0.049 A 
ATOM     57  C   UNL     1      -9.477  -7.112  10.725  1.00  0.00     0.074 A 
ATOM     58  C   UNL     1      -7.490  -6.016  16.766  1.00  0.00     0.029 A 
ATOM     59  N   UNL     1      -9.168  -5.695  15.382  1.00  0.00    -0.354 N 
ATOM     60  N   UNL     1      -9.631  -7.991  11.679  1.00  0.00    -0.248 NA
ATOM     61  C   UNL     1      -9.778  -5.734  11.098  1.00  0.00     0.031 C 
ATOM     62  C   UNL     1      -7.899  -7.264  16.213  1.00  0.00     0.029 A 
ATOM     63  C   UNL     1      -8.786  -6.996  15.171  1.00  0.00     0.049 A 
ATOM     64  H   UNL     1     -10.036  -5.294  15.149  1.00  0.00     0.167 HD
ATOM     65  C   UNL     1      -9.639  -7.249  12.853  1.00  0.00     0.074 A 
ATOM     66  C   UNL     1      -9.792  -5.859  12.428  1.00  0.00     0.031 C 
ATOM     67  C   UNL     1      -9.220  -7.782  14.039  1.00  0.00     0.037 A 
BRANCH  54  68
ATOM     68  C   UNL     1      -8.628  -2.596  15.380  1.00  0.00     0.057 A 
ATOM     69  C   UNL     1      -9.657  -2.478  16.325  1.00  0.00     0.134 A 
ATOM     70  C   UNL     1      -8.730  -1.737  14.263  1.00  0.00     0.134 A 
ATOM     71  F   UNL     1      -9.680  -3.257  17.417  1.00  0.00    -0.206 F 
ATOM     72  C   UNL     1     -10.744  -1.618  16.138  1.00  0.00     0.040 A 
ATOM     73  C   UNL     1      -9.779  -0.834  14.097  1.00  0.00     0.040 A 
ATOM     74  F   UNL     1      -7.888  -1.794  13.225  1.00  0.00    -0.206 F 
ATOM     75  C   UNL     1     -10.810  -0.796  15.019  1.00  0.00     0.006 A 
ENDBRANCH  54  68
BRANCH  55  76
ATOM     76  C   UNL     1      -9.075  -7.143   8.144  1.00  0.00     0.057 A 
ATOM     77  C   UNL     1     -10.409  -7.393   7.798  1.00  0.00     0.134 A 
ATOM     78  C   UNL     1      -8.306  -6.472   7.175  1.00  0.00     0.134 A 
ATOM     79  F   UNL     1     -11.238  -7.987   8.668  1.00  0.00    -0.206 F 
ATOM     80  C   UNL     1     -10.952  -6.985   6.571  1.00  0.00     0.040 A 
ATOM     81  C   UNL     1      -8.831  -6.068   5.943  1.00  0.00     0.040 A 
ATOM     82  F   UNL     1      -7.040  -6.103   7.420  1.00  0.00    -0.206 F 
ATOM     83  C   UNL     1     -10.163  -6.312   5.642  1.00  0.00     0.006 A 
ENDBRANCH  55  76
BRANCH  67  84
ATOM     84  C   UNL     1      -8.935  -9.258  14.098  1.00  0.00     0.057 A 
ATOM     85  C   UNL     1      -7.933  -9.890  13.346  1.00  0.00     0.134 A 
ATOM     86  C   UNL     1      -9.570 -10.030  15.077  1.00  0.00     0.134 A 
ATOM     87  F   UNL     1      -7.196  -9.206  12.463  1.00  0.00    -0.206 F 
ATOM     88  C   UNL     1      -7.609 -11.238  13.531  1.00  0.00     0.040 A 
ATOM     89  C   UNL     1      -9.231 -11.367  15.297  1.00  0.00     0.040 A 
ATOM     90  F   UNL     1     -10.495  -9.478  15.879  1.00  0.00    -0.206 F 
ATOM     91  C   UNL     1      -8.254 -11.979  14.516  1.00  0.00     0.006 A 
ENDBRANCH  67  84
ENDBRANCH  41  42
ENDBRANCH  34  36
ENDBRANCH  33  34
ENDBRANCH  32  33
ENDBRANCH  31  32
ENDBRANCH  30  31
ENDBRANCH  29  30
ENDBRANCH  28  29
ENDBRANCH  27  28
ENDBRANCH   1  27
TORSDOF 23
