REMARK SMILES Cn1ccc(NC(=O)[C@@H]2CCCC[C@@H]2C(=O)OCCOCCOCCOCCOC(=O)c2ccc(-c3c4nc(c(-c5c(F)cccc5F)c5ccc([nH]5)c(-c5c(F)cccc5F)c5nc(c(-c6c(F)cccc6F)c6ccc3[nH]6)C=C5)C=C4)cc2)n1
REMARK SMILES IDX 23 1 22 2 21 3 20 4 19 5 18 6 17 7 15 8 16 9 14 10 9 11
REMARK SMILES IDX 10 12 11 13 13 14 12 15 7 16 6 17 8 19 5 20 1 21 2 22 3 23
REMARK SMILES IDX 86 24 4 25 24 26 25 27 26 28 27 29 28 30 29 31 30 32 31 33
REMARK SMILES IDX 32 34 33 35 85 36 34 37 84 38 35 39 36 40 37 41 78 42 38 43
REMARK SMILES IDX 83 44 77 45 79 46 39 47 82 48 76 49 75 50 40 52 66 53 49 54
REMARK SMILES IDX 65 55 50 56 53 57 64 58 80 59 51 60 52 61 63 63 81 64 54 65
REMARK SMILES IDX 41 66 42 67 47 68 43 69 44 70 46 71 48 72 45 73 67 74 68 75
REMARK SMILES IDX 73 76 69 77 70 78 72 79 74 80 71 81 55 82 56 83 61 84 57 85
REMARK SMILES IDX 58 86 60 87 62 88 59 89
REMARK H PARENT 6 18 79 51 53 62
REMARK Flexibility Score: inf
ROOT
ATOM      1  O   UNL     1       2.632   4.200   2.865  1.00  0.00    -0.377 OA
ENDROOT
BRANCH   1   2
ATOM      2  C   UNL     1       1.377   4.686   3.288  1.00  0.00     0.188 C 
BRANCH   2   3
ATOM      3  C   UNL     1       0.772   4.093   4.559  1.00  0.00     0.188 C 
BRANCH   3   4
ATOM      4  O   UNL     1       1.588   3.302   5.399  1.00  0.00    -0.376 OA
BRANCH   4   5
ATOM      5  C   UNL     1       2.327   2.229   4.827  1.00  0.00     0.202 C 
BRANCH   5   6
ATOM      6  C   UNL     1       1.691   1.316   3.758  1.00  0.00     0.261 C 
BRANCH   6   7
ATOM      7  O   UNL     1       1.263   1.971   2.536  1.00  0.00    -0.463 OA
BRANCH   7   8
ATOM      8  C   UNL     1      -0.041   1.838   2.204  1.00  0.00     0.309 C 
ATOM      9  O   UNL     1      -0.832   1.165   2.865  1.00  0.00    -0.252 OA
BRANCH   8  10
ATOM     10  C   UNL     1      -0.525   2.598   0.956  1.00  0.00     0.111 C 
ATOM     11  C   UNL     1       0.395   3.225  -0.134  1.00  0.00     0.093 C 
ATOM     12  C   UNL     1       0.422   4.776  -0.123  1.00  0.00     0.014 C 
ATOM     13  C   UNL     1      -0.912   5.461   0.150  1.00  0.00     0.001 C 
ATOM     14  C   UNL     1      -1.812   3.397   1.243  1.00  0.00     0.016 C 
ATOM     15  C   UNL     1      -1.651   4.898   1.349  1.00  0.00     0.001 C 
BRANCH  11  16
ATOM     16  C   UNL     1       1.847   2.702  -0.263  1.00  0.00     0.229 C 
ATOM     17  N   UNL     1       2.140   1.376  -0.393  1.00  0.00    -0.309 N 
ATOM     18  H   UNL     1       3.097   1.145  -0.378  1.00  0.00     0.171 HD
ATOM     19  O   UNL     1       2.809   3.481  -0.280  1.00  0.00    -0.274 OA
BRANCH  17  20
ATOM     20  C   UNL     1       1.276   0.325  -0.541  1.00  0.00     0.154 A 
ATOM     21  C   UNL     1      -2.000  -0.729  -0.516  1.00  0.00     0.173 C 
ATOM     22  N   UNL     1      -0.560  -0.705  -0.631  1.00  0.00    -0.274 N 
ATOM     23  C   UNL     1       0.327  -1.643  -0.197  1.00  0.00     0.110 A 
ATOM     24  N   UNL     1       0.034   0.437  -1.002  1.00  0.00    -0.155 NA
ATOM     25  C   UNL     1       1.553  -1.011  -0.177  1.00  0.00     0.068 A 
ENDBRANCH  17  20
ENDBRANCH  11  16
ENDBRANCH   8  10
ENDBRANCH   7   8
ENDBRANCH   6   7
ENDBRANCH   5   6
ENDBRANCH   4   5
ENDBRANCH   3   4
ENDBRANCH   2   3
ENDBRANCH   1   2
BRANCH   1  26
ATOM     26  C   UNL     1       3.810   4.914   3.194  1.00  0.00     0.188 C 
BRANCH  26  27
ATOM     27  C   UNL     1       3.676   6.092   4.156  1.00  0.00     0.188 C 
BRANCH  27  28
ATOM     28  O   UNL     1       2.925   7.230   3.724  1.00  0.00    -0.376 OA
BRANCH  28  29
ATOM     29  C   UNL     1       2.831   7.520   2.327  1.00  0.00     0.202 C 
BRANCH  29  30
ATOM     30  C   UNL     1       3.973   8.364   1.778  1.00  0.00     0.261 C 
BRANCH  30  31
ATOM     31  O   UNL     1       5.133   7.548   1.562  1.00  0.00    -0.460 OA
BRANCH  31  32
ATOM     32  C   UNL     1       6.063   7.595   2.537  1.00  0.00     0.338 C 
ATOM     33  O   UNL     1       6.085   8.329   3.514  1.00  0.00    -0.246 OA
BRANCH  32  34
ATOM     34  C   UNL     1       7.004   6.480   2.347  1.00  0.00     0.060 A 
ATOM     35  C   UNL     1       7.384   5.740   3.474  1.00  0.00     0.016 A 
ATOM     36  C   UNL     1       7.543   6.196   1.089  1.00  0.00     0.016 A 
ATOM     37  C   UNL     1       8.359   4.756   3.361  1.00  0.00     0.010 A 
ATOM     38  C   UNL     1       8.531   5.220   0.978  1.00  0.00     0.010 A 
ATOM     39  C   UNL     1       8.974   4.537   2.123  1.00  0.00    -0.014 A 
BRANCH  39  40
ATOM     40  C   UNL     1      10.230   3.763   2.070  1.00  0.00     0.031 A 
ATOM     41  C   UNL     1      11.527   4.522   2.067  1.00  0.00     0.074 A 
ATOM     42  C   UNL     1      10.213   2.421   2.049  1.00  0.00     0.049 A 
ATOM     43  N   UNL     1      12.751   4.076   1.963  1.00  0.00    -0.248 NA
ATOM     44  C   UNL     1      11.428   5.986   2.195  1.00  0.00     0.031 C 
ATOM     45  C   UNL     1       9.011   1.591   2.100  1.00  0.00     0.029 A 
ATOM     46  N   UNL     1      11.244   1.524   1.968  1.00  0.00    -0.354 N 
ATOM     47  C   UNL     1      13.564   5.202   2.002  1.00  0.00     0.074 A 
ATOM     48  C   UNL     1      12.696   6.353   2.107  1.00  0.00     0.031 C 
ATOM     49  C   UNL     1       9.375   0.299   2.032  1.00  0.00     0.029 A 
ATOM     50  C   UNL     1      10.828   0.218   1.895  1.00  0.00     0.049 A 
ATOM     51  H   UNL     1      12.192   1.790   1.963  1.00  0.00     0.167 HD
ATOM     52  C   UNL     1      14.915   5.265   1.962  1.00  0.00     0.037 A 
ATOM     53  C   UNL     1      11.545  -0.905   1.709  1.00  0.00     0.037 A 
ATOM     54  C   UNL     1      15.764   4.110   1.849  1.00  0.00     0.049 A 
ATOM     55  C   UNL     1      13.043  -0.802   1.582  1.00  0.00     0.074 A 
ATOM     56  C   UNL     1      17.145   4.056   1.810  1.00  0.00     0.029 A 
ATOM     57  N   UNL     1      15.306   2.804   1.747  1.00  0.00    -0.354 N 
ATOM     58  N   UNL     1      13.809   0.262   1.641  1.00  0.00    -0.248 NA
ATOM     59  C   UNL     1      13.776  -2.056   1.364  1.00  0.00     0.031 C 
ATOM     60  C   UNL     1      17.521   2.722   1.622  1.00  0.00     0.029 A 
ATOM     61  C   UNL     1      16.378   1.938   1.613  1.00  0.00     0.049 A 
ATOM     62  H   UNL     1      14.360   2.534   1.766  1.00  0.00     0.167 HD
ATOM     63  C   UNL     1      15.114  -0.197   1.503  1.00  0.00     0.074 A 
ATOM     64  C   UNL     1      15.034  -1.637   1.369  1.00  0.00     0.031 C 
ATOM     65  C   UNL     1      16.274   0.505   1.490  1.00  0.00     0.037 A 
BRANCH  52  66
ATOM     66  C   UNL     1      15.547   6.626   2.001  1.00  0.00     0.057 A 
ATOM     67  C   UNL     1      15.525   7.425   3.153  1.00  0.00     0.134 A 
ATOM     68  C   UNL     1      16.204   7.138   0.875  1.00  0.00     0.134 A 
ATOM     69  F   UNL     1      14.897   7.004   4.261  1.00  0.00    -0.206 F 
ATOM     70  C   UNL     1      16.113   8.692   3.174  1.00  0.00     0.040 A 
ATOM     71  C   UNL     1      16.821   8.389   0.894  1.00  0.00     0.040 A 
ATOM     72  F   UNL     1      16.263   6.426  -0.261  1.00  0.00    -0.206 F 
ATOM     73  C   UNL     1      16.770   9.173   2.044  1.00  0.00     0.006 A 
ENDBRANCH  52  66
BRANCH  53  74
ATOM     74  C   UNL     1      10.861  -2.219   1.615  1.00  0.00     0.057 A 
ATOM     75  C   UNL     1      11.033  -3.201   2.597  1.00  0.00     0.134 A 
ATOM     76  C   UNL     1      10.033  -2.534   0.529  1.00  0.00     0.134 A 
ATOM     77  F   UNL     1      11.829  -2.968   3.651  1.00  0.00    -0.206 F 
ATOM     78  C   UNL     1      10.427  -4.454   2.493  1.00  0.00     0.040 A 
ATOM     79  C   UNL     1       9.397  -3.772   0.427  1.00  0.00     0.040 A 
ATOM     80  F   UNL     1       9.820  -1.636  -0.445  1.00  0.00    -0.206 F 
ATOM     81  C   UNL     1       9.602  -4.741   1.408  1.00  0.00     0.006 A 
ENDBRANCH  53  74
BRANCH  65  82
ATOM     82  C   UNL     1      17.551  -0.276   1.373  1.00  0.00     0.057 A 
ATOM     83  C   UNL     1      17.927  -0.915   0.186  1.00  0.00     0.134 A 
ATOM     84  C   UNL     1      18.439  -0.348   2.455  1.00  0.00     0.134 A 
ATOM     85  F   UNL     1      17.118  -0.894  -0.884  1.00  0.00    -0.206 F 
ATOM     86  C   UNL     1      19.128  -1.621   0.086  1.00  0.00     0.040 A 
ATOM     87  C   UNL     1      19.657  -1.022   2.358  1.00  0.00     0.040 A 
ATOM     88  F   UNL     1      18.147   0.253   3.619  1.00  0.00    -0.206 F 
ATOM     89  C   UNL     1      20.000  -1.668   1.173  1.00  0.00     0.006 A 
ENDBRANCH  65  82
ENDBRANCH  39  40
ENDBRANCH  32  34
ENDBRANCH  31  32
ENDBRANCH  30  31
ENDBRANCH  29  30
ENDBRANCH  28  29
ENDBRANCH  27  28
ENDBRANCH  26  27
ENDBRANCH   1  26
TORSDOF 22
