REMARK SMILES CC(C)Nc1cc2ccccc2cc1C(=O)OCCOCCOCCOCCOC(=O)c1ccc(-c2c3nc(c(-c4c(F)cccc4F)c4ccc([nH]4)c(-c4c(F)cccc4F)c4nc(c(-c5c(F)cccc5F)c5ccc2[nH]5)C=C4)C=C3)cc1
REMARK SMILES IDX 23 1 22 2 21 3 20 4 19 5 18 6 17 7 15 8 16 9 14 10 5 11 6 12
REMARK SMILES IDX 7 13 13 14 8 15 12 16 9 17 11 18 10 19 4 20 2 22 1 23 3 24
REMARK SMILES IDX 24 25 25 26 26 27 27 28 28 29 29 30 30 31 31 32 32 33 33 34
REMARK SMILES IDX 85 35 34 36 84 37 35 38 36 39 37 40 78 41 38 42 83 43 77 44
REMARK SMILES IDX 79 45 39 46 82 47 76 48 75 49 40 51 66 52 49 53 65 54 50 55
REMARK SMILES IDX 53 56 64 57 80 58 51 59 52 60 63 62 81 63 54 64 41 65 42 66
REMARK SMILES IDX 47 67 43 68 44 69 46 70 48 71 45 72 67 73 68 74 73 75 69 76
REMARK SMILES IDX 70 77 72 78 74 79 71 80 55 81 56 82 61 83 57 84 58 85 60 86
REMARK SMILES IDX 62 87 59 88
REMARK H PARENT 4 21 79 50 53 61
REMARK Flexibility Score: inf
ROOT
ATOM      1  O   UNL     1      -1.739   0.212   5.440  1.00  0.00    -0.377 OA
ENDROOT
BRANCH   1   2
ATOM      2  C   UNL     1      -1.615  -1.119   4.951  1.00  0.00     0.188 C 
BRANCH   2   3
ATOM      3  C   UNL     1      -0.714  -2.132   5.703  1.00  0.00     0.188 C 
BRANCH   3   4
ATOM      4  O   UNL     1       0.501  -1.582   6.182  1.00  0.00    -0.376 OA
BRANCH   4   5
ATOM      5  C   UNL     1       1.748  -1.825   5.565  1.00  0.00     0.202 C 
BRANCH   5   6
ATOM      6  C   UNL     1       1.927  -1.664   4.054  1.00  0.00     0.261 C 
BRANCH   6   7
ATOM      7  O   UNL     1       0.718  -1.743   3.304  1.00  0.00    -0.460 OA
BRANCH   7   8
ATOM      8  C   UNL     1       0.489  -2.873   2.606  1.00  0.00     0.340 C 
ATOM      9  O   UNL     1       1.198  -3.866   2.599  1.00  0.00    -0.246 OA
BRANCH   8  10
ATOM     10  C   UNL     1      -0.864  -2.825   2.001  1.00  0.00     0.083 A 
ATOM     11  C   UNL     1      -1.394  -1.784   1.214  1.00  0.00     0.050 A 
ATOM     12  C   UNL     1      -2.699  -1.994   0.703  1.00  0.00     0.035 A 
ATOM     13  C   UNL     1      -3.481  -3.125   1.005  1.00  0.00    -0.016 A 
ATOM     14  C   UNL     1      -1.664  -3.933   2.365  1.00  0.00     0.026 A 
ATOM     15  C   UNL     1      -4.753  -3.322   0.440  1.00  0.00     0.009 A 
ATOM     16  C   UNL     1      -2.973  -4.084   1.894  1.00  0.00    -0.017 A 
ATOM     17  C   UNL     1      -5.523  -4.434   0.784  1.00  0.00     0.001 A 
ATOM     18  C   UNL     1      -3.774  -5.175   2.271  1.00  0.00     0.009 A 
ATOM     19  C   UNL     1      -5.043  -5.348   1.717  1.00  0.00     0.001 A 
BRANCH  11  20
ATOM     20  N   UNL     1      -0.801  -0.598   0.820  1.00  0.00    -0.382 N 
ATOM     21  H   UNL     1      -1.425   0.099   0.511  1.00  0.00     0.160 HD
BRANCH  20  22
ATOM     22  C   UNL     1       0.602  -0.222   0.793  1.00  0.00     0.073 C 
ATOM     23  C   UNL     1       0.959   0.182  -0.636  1.00  0.00     0.030 C 
ATOM     24  C   UNL     1       0.833   0.957   1.741  1.00  0.00     0.030 C 
ENDBRANCH  20  22
ENDBRANCH  11  20
ENDBRANCH   8  10
ENDBRANCH   7   8
ENDBRANCH   6   7
ENDBRANCH   5   6
ENDBRANCH   4   5
ENDBRANCH   3   4
ENDBRANCH   2   3
ENDBRANCH   1   2
BRANCH   1  25
ATOM     25  C   UNL     1      -0.537   0.841   5.852  1.00  0.00     0.188 C 
BRANCH  25  26
ATOM     26  C   UNL     1      -0.320   0.755   7.375  1.00  0.00     0.188 C 
BRANCH  26  27
ATOM     27  O   UNL     1      -1.133  -0.099   8.159  1.00  0.00    -0.376 OA
BRANCH  27  28
ATOM     28  C   UNL     1      -2.549  -0.081   8.081  1.00  0.00     0.202 C 
BRANCH  28  29
ATOM     29  C   UNL     1      -3.418   1.123   7.657  1.00  0.00     0.261 C 
BRANCH  29  30
ATOM     30  O   UNL     1      -2.789   2.244   7.043  1.00  0.00    -0.460 OA
BRANCH  30  31
ATOM     31  C   UNL     1      -2.310   3.190   7.871  1.00  0.00     0.338 C 
ATOM     32  O   UNL     1      -2.328   3.199   9.092  1.00  0.00    -0.246 OA
BRANCH  31  33
ATOM     33  C   UNL     1      -1.607   4.178   7.037  1.00  0.00     0.060 A 
ATOM     34  C   UNL     1      -0.227   4.359   7.200  1.00  0.00     0.016 A 
ATOM     35  C   UNL     1      -2.322   4.930   6.103  1.00  0.00     0.016 A 
ATOM     36  C   UNL     1       0.442   5.324   6.453  1.00  0.00     0.010 A 
ATOM     37  C   UNL     1      -1.660   5.919   5.380  1.00  0.00     0.010 A 
ATOM     38  C   UNL     1      -0.286   6.144   5.585  1.00  0.00    -0.014 A 
BRANCH  38  39
ATOM     39  C   UNL     1       0.309   7.403   5.091  1.00  0.00     0.031 A 
ATOM     40  C   UNL     1      -0.005   8.662   5.847  1.00  0.00     0.074 A 
ATOM     41  C   UNL     1       1.083   7.434   3.996  1.00  0.00     0.049 A 
ATOM     42  N   UNL     1       0.265   9.904   5.546  1.00  0.00    -0.248 NA
ATOM     43  C   UNL     1      -0.737   8.490   7.113  1.00  0.00     0.031 C 
ATOM     44  C   UNL     1       1.508   6.269   3.224  1.00  0.00     0.029 A 
ATOM     45  N   UNL     1       1.633   8.502   3.336  1.00  0.00    -0.354 N 
ATOM     46  C   UNL     1      -0.283  10.662   6.573  1.00  0.00     0.074 A 
ATOM     47  C   UNL     1      -0.926   9.744   7.486  1.00  0.00     0.031 C 
ATOM     48  C   UNL     1       2.241   6.689   2.178  1.00  0.00     0.029 A 
ATOM     49  C   UNL     1       2.293   8.151   2.186  1.00  0.00     0.049 A 
ATOM     50  H   UNL     1       1.560   9.430   3.655  1.00  0.00     0.167 HD
ATOM     51  C   UNL     1      -0.252  12.005   6.739  1.00  0.00     0.037 A 
ATOM     52  C   UNL     1       2.846   8.931   1.237  1.00  0.00     0.037 A 
ATOM     53  C   UNL     1       0.377  12.908   5.813  1.00  0.00     0.049 A 
ATOM     54  C   UNL     1       2.782  10.429   1.385  1.00  0.00     0.074 A 
ATOM     55  C   UNL     1       0.470  14.286   5.879  1.00  0.00     0.029 A 
ATOM     56  N   UNL     1       1.010  12.517   4.641  1.00  0.00    -0.354 N 
ATOM     57  N   UNL     1       2.265  11.146   2.355  1.00  0.00    -0.248 NA
ATOM     58  C   UNL     1       3.376  11.228   0.303  1.00  0.00     0.031 C 
ATOM     59  C   UNL     1       1.106  14.734   4.717  1.00  0.00     0.029 A 
ATOM     60  C   UNL     1       1.474  13.630   3.962  1.00  0.00     0.049 A 
ATOM     61  H   UNL     1       1.114  11.586   4.338  1.00  0.00     0.167 HD
ATOM     62  C   UNL     1       2.513  12.474   2.025  1.00  0.00     0.074 A 
ATOM     63  C   UNL     1       3.219  12.463   0.761  1.00  0.00     0.031 C 
ATOM     64  C   UNL     1       2.195  13.598   2.713  1.00  0.00     0.037 A 
BRANCH  51  65
ATOM     65  C   UNL     1      -0.963  12.562   7.938  1.00  0.00     0.057 A 
ATOM     66  C   UNL     1      -0.516  12.331   9.246  1.00  0.00     0.134 A 
ATOM     67  C   UNL     1      -2.129  13.323   7.782  1.00  0.00     0.134 A 
ATOM     68  F   UNL     1       0.584  11.595   9.469  1.00  0.00    -0.206 F 
ATOM     69  C   UNL     1      -1.225  12.798  10.354  1.00  0.00     0.040 A 
ATOM     70  C   UNL     1      -2.827  13.826   8.881  1.00  0.00     0.040 A 
ATOM     71  F   UNL     1      -2.613  13.587   6.558  1.00  0.00    -0.206 F 
ATOM     72  C   UNL     1      -2.382  13.552  10.172  1.00  0.00     0.006 A 
ENDBRANCH  51  65
BRANCH  52  73
ATOM     73  C   UNL     1       3.509   8.309   0.064  1.00  0.00     0.057 A 
ATOM     74  C   UNL     1       4.897   8.384  -0.100  1.00  0.00     0.134 A 
ATOM     75  C   UNL     1       2.780   7.624  -0.916  1.00  0.00     0.134 A 
ATOM     76  F   UNL     1       5.646   9.045   0.795  1.00  0.00    -0.206 F 
ATOM     77  C   UNL     1       5.536   7.811  -1.200  1.00  0.00     0.040 A 
ATOM     78  C   UNL     1       3.409   7.024  -2.009  1.00  0.00     0.040 A 
ATOM     79  F   UNL     1       1.448   7.513  -0.817  1.00  0.00    -0.206 F 
ATOM     80  C   UNL     1       4.791   7.122  -2.155  1.00  0.00     0.006 A 
ENDBRANCH  52  73
BRANCH  64  81
ATOM     81  C   UNL     1       2.668  14.913   2.160  1.00  0.00     0.057 A 
ATOM     82  C   UNL     1       2.096  15.498   1.024  1.00  0.00     0.134 A 
ATOM     83  C   UNL     1       3.663  15.639   2.829  1.00  0.00     0.134 A 
ATOM     84  F   UNL     1       1.146  14.852   0.331  1.00  0.00    -0.206 F 
ATOM     85  C   UNL     1       2.508  16.751   0.565  1.00  0.00     0.040 A 
ATOM     86  C   UNL     1       4.061  16.905   2.398  1.00  0.00     0.040 A 
ATOM     87  F   UNL     1       4.245  15.142   3.931  1.00  0.00    -0.206 F 
ATOM     88  C   UNL     1       3.485  17.462   1.259  1.00  0.00     0.006 A 
ENDBRANCH  64  81
ENDBRANCH  38  39
ENDBRANCH  31  33
ENDBRANCH  30  31
ENDBRANCH  29  30
ENDBRANCH  28  29
ENDBRANCH  27  28
ENDBRANCH  26  27
ENDBRANCH  25  26
ENDBRANCH   1  25
TORSDOF 22
