REMARK SMILES C#CC[NH2+]CC(=O)N1CC[C@](CCC)(C(=O)OCCOCCOCCOCCOC(=O)c2ccc(-c3c4nc(c(-c5c(F)cccc5F)c5ccc([nH]5)c(-c5c(F)cccc5F)c5nc(c(-c6c(F)cccc6F)c6ccc3[nH]6)C=C5)C=C4)cc2)C1
REMARK SMILES IDX 21 1 20 2 19 3 18 4 17 5 15 6 16 7 11 8 8 9 9 10 86 11 10 12
REMARK SMILES IDX 6 13 7 14 5 15 4 16 3 19 2 20 1 21 12 22 13 23 14 24 22 25
REMARK SMILES IDX 23 26 24 27 25 28 26 29 27 30 28 31 29 32 30 33 31 34 32 35
REMARK SMILES IDX 33 36 85 37 34 38 84 39 35 40 36 41 37 42 78 43 38 44 83 45
REMARK SMILES IDX 77 46 79 47 39 48 82 49 76 50 75 51 40 53 66 54 49 55 65 56
REMARK SMILES IDX 50 57 53 58 64 59 80 60 51 61 52 62 63 64 81 65 54 66 41 67
REMARK SMILES IDX 42 68 47 69 43 70 44 71 46 72 48 73 45 74 67 75 68 76 73 77
REMARK SMILES IDX 69 78 70 79 72 80 74 81 71 82 55 83 56 84 61 85 57 86 58 87
REMARK SMILES IDX 60 88 62 89 59 90
REMARK H PARENT 4 17 4 18 79 52 53 63
REMARK Flexibility Score: inf
ROOT
ATOM      1  C   UNL     1      -7.028  -0.322   3.583  1.00  0.00     0.188 C 
ENDROOT
BRANCH   1   2
ATOM      2  O   UNL     1      -7.300  -1.333   4.543  1.00  0.00    -0.376 OA
BRANCH   2   3
ATOM      3  C   UNL     1      -6.851  -1.154   5.878  1.00  0.00     0.202 C 
BRANCH   3   4
ATOM      4  C   UNL     1      -5.415  -0.677   6.158  1.00  0.00     0.261 C 
BRANCH   4   5
ATOM      5  O   UNL     1      -4.952   0.415   5.344  1.00  0.00    -0.463 OA
BRANCH   5   6
ATOM      6  C   UNL     1      -3.908   0.208   4.503  1.00  0.00     0.314 C 
ATOM      7  O   UNL     1      -3.386  -0.884   4.327  1.00  0.00    -0.252 OA
BRANCH   6   8
ATOM      8  C   UNL     1      -3.526   1.480   3.729  1.00  0.00     0.087 C 
ATOM      9  N   UNL     1      -3.434   1.716   1.319  1.00  0.00    -0.337 N 
ATOM     10  C   UNL     1      -2.203   2.248   1.905  1.00  0.00     0.121 C 
ATOM     11  C   UNL     1      -4.365   1.533   2.398  1.00  0.00     0.138 C 
ATOM     12  C   UNL     1      -2.096   1.349   3.138  1.00  0.00     0.042 C 
BRANCH   9  13
ATOM     13  C   UNL     1      -3.879   1.774  -0.004  1.00  0.00     0.277 C 
ATOM     14  O   UNL     1      -4.363   2.804  -0.470  1.00  0.00    -0.268 OA
BRANCH  13  15
ATOM     15  C   UNL     1      -3.902   0.403  -0.815  1.00  0.00     0.362 C 
BRANCH  15  16
ATOM     16  N   UNL     1      -2.557  -0.166  -1.198  1.00  0.00    -0.328 N 
ATOM     17  H   UNL     1      -2.649  -1.142  -1.478  1.00  0.00     0.347 HD
ATOM     18  H   UNL     1      -2.147   0.332  -1.988  1.00  0.00     0.347 HD
BRANCH  16  19
ATOM     19  C   UNL     1      -1.742  -0.055  -0.017  1.00  0.00     0.352 C 
BRANCH  19  20
ATOM     20  C   UNL     1      -0.222  -0.055  -0.017  1.00  0.00    -0.047 C 
ATOM     21  C   UNL     1       1.082  -0.055  -0.017  1.00  0.00     0.010 C 
ENDBRANCH  19  20
ENDBRANCH  16  19
ENDBRANCH  15  16
ENDBRANCH  13  15
ENDBRANCH   9  13
BRANCH   8  22
ATOM     22  C   UNL     1      -3.534   2.855   4.487  1.00  0.00     0.020 C 
BRANCH  22  23
ATOM     23  C   UNL     1      -3.951   2.970   5.950  1.00  0.00    -0.002 C 
ATOM     24  C   UNL     1      -3.050   2.230   6.928  1.00  0.00     0.004 C 
ENDBRANCH  22  23
ENDBRANCH   8  22
ENDBRANCH   6   8
ENDBRANCH   5   6
ENDBRANCH   4   5
ENDBRANCH   3   4
ENDBRANCH   2   3
ENDBRANCH   1   2
BRANCH   1  25
ATOM     25  C   UNL     1      -7.219   1.175   3.942  1.00  0.00     0.188 C 
BRANCH  25  26
ATOM     26  O   UNL     1      -7.540   1.427   5.298  1.00  0.00    -0.377 OA
BRANCH  26  27
ATOM     27  C   UNL     1      -8.909   1.723   5.518  1.00  0.00     0.188 C 
BRANCH  27  28
ATOM     28  C   UNL     1      -9.899   0.690   4.947  1.00  0.00     0.188 C 
BRANCH  28  29
ATOM     29  O   UNL     1      -9.718   0.460   3.554  1.00  0.00    -0.376 OA
BRANCH  29  30
ATOM     30  C   UNL     1     -10.614   1.048   2.627  1.00  0.00     0.202 C 
BRANCH  30  31
ATOM     31  C   UNL     1     -10.536   2.571   2.427  1.00  0.00     0.261 C 
BRANCH  31  32
ATOM     32  O   UNL     1     -10.608   3.374   3.613  1.00  0.00    -0.460 OA
BRANCH  32  33
ATOM     33  C   UNL     1     -11.735   3.295   4.350  1.00  0.00     0.338 C 
ATOM     34  O   UNL     1     -12.740   2.653   4.090  1.00  0.00    -0.246 OA
BRANCH  33  35
ATOM     35  C   UNL     1     -11.465   3.936   5.655  1.00  0.00     0.060 A 
ATOM     36  C   UNL     1     -11.632   3.176   6.821  1.00  0.00     0.016 A 
ATOM     37  C   UNL     1     -11.017   5.258   5.731  1.00  0.00     0.016 A 
ATOM     38  C   UNL     1     -11.385   3.744   8.067  1.00  0.00     0.010 A 
ATOM     39  C   UNL     1     -10.808   5.840   6.984  1.00  0.00     0.010 A 
ATOM     40  C   UNL     1     -11.031   5.095   8.156  1.00  0.00    -0.014 A 
BRANCH  40  41
ATOM     41  C   UNL     1     -11.161   5.775   9.465  1.00  0.00     0.031 A 
ATOM     42  C   UNL     1     -12.459   6.476   9.760  1.00  0.00     0.074 A 
ATOM     43  C   UNL     1     -10.191   5.716  10.393  1.00  0.00     0.049 A 
ATOM     44  N   UNL     1     -12.825   7.139  10.826  1.00  0.00    -0.248 NA
ATOM     45  C   UNL     1     -13.486   6.417   8.706  1.00  0.00     0.031 C 
ATOM     46  C   UNL     1      -8.916   5.018  10.244  1.00  0.00     0.029 A 
ATOM     47  N   UNL     1     -10.136   6.258  11.652  1.00  0.00    -0.354 N 
ATOM     48  C   UNL     1     -14.118   7.576  10.569  1.00  0.00     0.074 A 
ATOM     49  C   UNL     1     -14.463   7.135   9.236  1.00  0.00     0.031 C 
ATOM     50  C   UNL     1      -8.198   5.183  11.369  1.00  0.00     0.029 A 
ATOM     51  C   UNL     1      -8.950   6.021  12.301  1.00  0.00     0.049 A 
ATOM     52  H   UNL     1     -10.877   6.768  12.052  1.00  0.00     0.167 HD
ATOM     53  C   UNL     1     -14.950   8.274  11.376  1.00  0.00     0.037 A 
ATOM     54  C   UNL     1      -8.520   6.454  13.503  1.00  0.00     0.037 A 
ATOM     55  C   UNL     1     -14.601   8.716  12.699  1.00  0.00     0.049 A 
ATOM     56  C   UNL     1      -9.433   7.305  14.349  1.00  0.00     0.074 A 
ATOM     57  C   UNL     1     -15.372   9.426  13.601  1.00  0.00     0.029 A 
ATOM     58  N   UNL     1     -13.372   8.499  13.303  1.00  0.00    -0.354 N 
ATOM     59  N   UNL     1     -10.661   7.698  14.108  1.00  0.00    -0.248 NA
ATOM     60  C   UNL     1      -8.899   7.769  15.638  1.00  0.00     0.031 C 
ATOM     61  C   UNL     1     -14.589   9.690  14.729  1.00  0.00     0.029 A 
ATOM     62  C   UNL     1     -13.353   9.087  14.557  1.00  0.00     0.049 A 
ATOM     63  H   UNL     1     -12.624   8.001  12.901  1.00  0.00     0.167 HD
ATOM     64  C   UNL     1     -11.057   8.425  15.225  1.00  0.00     0.074 A 
ATOM     65  C   UNL     1      -9.943   8.405  16.150  1.00  0.00     0.031 C 
ATOM     66  C   UNL     1     -12.236   9.051  15.467  1.00  0.00     0.037 A 
BRANCH  53  67
ATOM     67  C   UNL     1     -16.301   8.632  10.830  1.00  0.00     0.057 A 
ATOM     68  C   UNL     1     -17.298   7.670  10.619  1.00  0.00     0.134 A 
ATOM     69  C   UNL     1     -16.615   9.964  10.529  1.00  0.00     0.134 A 
ATOM     70  F   UNL     1     -17.056   6.374  10.866  1.00  0.00    -0.206 F 
ATOM     71  C   UNL     1     -18.550   8.017  10.106  1.00  0.00     0.040 A 
ATOM     72  C   UNL     1     -17.872  10.326  10.044  1.00  0.00     0.040 A 
ATOM     73  F   UNL     1     -15.706  10.934  10.706  1.00  0.00    -0.206 F 
ATOM     74  C   UNL     1     -18.842   9.350   9.825  1.00  0.00     0.006 A 
ENDBRANCH  53  67
BRANCH  54  75
ATOM     75  C   UNL     1      -7.155   6.109  13.977  1.00  0.00     0.057 A 
ATOM     76  C   UNL     1      -6.955   5.279  15.088  1.00  0.00     0.134 A 
ATOM     77  C   UNL     1      -6.015   6.631  13.353  1.00  0.00     0.134 A 
ATOM     78  F   UNL     1      -8.006   4.768  15.745  1.00  0.00    -0.206 F 
ATOM     79  C   UNL     1      -5.676   5.000  15.573  1.00  0.00     0.040 A 
ATOM     80  C   UNL     1      -4.729   6.337  13.809  1.00  0.00     0.040 A 
ATOM     81  F   UNL     1      -6.135   7.434  12.285  1.00  0.00    -0.206 F 
ATOM     82  C   UNL     1      -4.558   5.526  14.929  1.00  0.00     0.006 A 
ENDBRANCH  54  75
BRANCH  66  83
ATOM     83  C   UNL     1     -12.400   9.726  16.800  1.00  0.00     0.057 A 
ATOM     84  C   UNL     1     -11.704  10.895  17.133  1.00  0.00     0.134 A 
ATOM     85  C   UNL     1     -13.298   9.218  17.748  1.00  0.00     0.134 A 
ATOM     86  F   UNL     1     -10.822  11.430  16.275  1.00  0.00    -0.206 F 
ATOM     87  C   UNL     1     -11.871  11.516  18.372  1.00  0.00     0.040 A 
ATOM     88  C   UNL     1     -13.499   9.848  18.977  1.00  0.00     0.040 A 
ATOM     89  F   UNL     1     -14.008   8.110  17.489  1.00  0.00    -0.206 F 
ATOM     90  C   UNL     1     -12.777  10.996  19.296  1.00  0.00     0.006 A 
ENDBRANCH  66  83
ENDBRANCH  40  41
ENDBRANCH  33  35
ENDBRANCH  32  33
ENDBRANCH  31  32
ENDBRANCH  30  31
ENDBRANCH  29  30
ENDBRANCH  28  29
ENDBRANCH  27  28
ENDBRANCH  26  27
ENDBRANCH  25  26
ENDBRANCH   1  25
TORSDOF 27
