REMARK SMILES Cc1cc(Br)cnc1Sc1nc(CC(=O)OCCOCCOCCOCCOC(=O)c2ccc(-c3c4nc(c(-c5c(F)cccc5F)c5ccc([nH]5)c(-c5c(F)cccc5F)c5nc(c(-c6c(F)cccc6F)c6ccc3[nH]6)C=C5)C=C4)cc2)cs1
REMARK SMILES IDX 21 1 20 2 19 3 18 4 17 5 16 6 14 7 15 8 13 9 12 10 10 11
REMARK SMILES IDX 11 12 86 13 85 14 9 15 8 16 1 17 2 18 3 19 4 20 7 21 5 22
REMARK SMILES IDX 6 23 22 24 23 25 24 26 25 27 26 28 27 29 28 30 29 31 30 32
REMARK SMILES IDX 31 33 32 34 84 35 33 36 83 37 34 38 35 39 36 40 77 41 37 42
REMARK SMILES IDX 82 43 76 44 78 45 38 46 81 47 75 48 74 49 39 51 65 52 48 53
REMARK SMILES IDX 64 54 49 55 52 56 63 57 79 58 50 59 51 60 62 62 80 63 53 64
REMARK SMILES IDX 40 65 41 66 46 67 42 68 43 69 45 70 47 71 44 72 66 73 67 74
REMARK SMILES IDX 72 75 68 76 69 77 71 78 73 79 70 80 54 81 55 82 60 83 56 84
REMARK SMILES IDX 57 85 59 86 61 87 58 88
REMARK H PARENT 78 50 52 61
REMARK Flexibility Score: inf
ROOT
ATOM      1  C   UNL     1       9.020  -3.349  -1.006  1.00  0.00     0.188 C 
ENDROOT
BRANCH   1   2
ATOM      2  C   UNL     1       9.359  -4.747  -1.531  1.00  0.00     0.188 C 
BRANCH   2   3
ATOM      3  O   UNL     1      10.125  -4.901  -2.715  1.00  0.00    -0.376 OA
BRANCH   3   4
ATOM      4  C   UNL     1      10.053  -3.924  -3.744  1.00  0.00     0.202 C 
BRANCH   4   5
ATOM      5  C   UNL     1       8.688  -3.546  -4.360  1.00  0.00     0.261 C 
BRANCH   5   6
ATOM      6  O   UNL     1       7.647  -3.091  -3.460  1.00  0.00    -0.463 OA
BRANCH   6   7
ATOM      7  C   UNL     1       6.561  -3.889  -3.330  1.00  0.00     0.311 C 
ATOM      8  O   UNL     1       6.429  -4.951  -3.941  1.00  0.00    -0.252 OA
BRANCH   7   9
ATOM      9  C   UNL     1       5.466  -3.431  -2.389  1.00  0.00     0.179 C 
BRANCH   9  10
ATOM     10  C   UNL     1       5.671  -2.326  -1.389  1.00  0.00     0.064 A 
ATOM     11  C   UNL     1       5.144  -0.335  -0.557  1.00  0.00     0.156 A 
ATOM     12  N   UNL     1       5.091  -1.085  -1.638  1.00  0.00    -0.234 NA
ATOM     13  S   UNL     1       6.127  -0.941   0.713  1.00  0.00    -0.116 S 
ATOM     14  C   UNL     1       6.113  -2.460  -0.077  1.00  0.00     0.092 A 
BRANCH  11  15
ATOM     15  S   UNL     1       4.252   1.135  -0.383  1.00  0.00    -0.039 SA
BRANCH  15  16
ATOM     16  C   UNL     1       2.549   0.630  -0.189  1.00  0.00     0.106 A 
ATOM     17  C   UNL     1       2.691  -1.932   0.242  1.00  0.00     0.047 C 
ATOM     18  C   UNL     1       1.973  -0.632   0.047  1.00  0.00    -0.017 A 
ATOM     19  C   UNL     1       0.565  -0.727   0.102  1.00  0.00     0.023 A 
ATOM     20  C   UNL     1      -0.225   0.403  -0.001  1.00  0.00     0.036 A 
ATOM     21  N   UNL     1       1.753   1.737  -0.265  1.00  0.00    -0.248 NA
ATOM     22  Br  UNL     1      -2.099   0.278   0.095  1.00  0.00    -0.049 Br
ATOM     23  C   UNL     1       0.410   1.610  -0.164  1.00  0.00     0.128 A 
ENDBRANCH  15  16
ENDBRANCH  11  15
ENDBRANCH   9  10
ENDBRANCH   7   9
ENDBRANCH   6   7
ENDBRANCH   5   6
ENDBRANCH   4   5
ENDBRANCH   3   4
ENDBRANCH   2   3
ENDBRANCH   1   2
BRANCH   1  24
ATOM     24  O   UNL     1       9.555  -2.255  -1.713  1.00  0.00    -0.377 OA
BRANCH  24  25
ATOM     25  C   UNL     1      10.710  -1.635  -1.184  1.00  0.00     0.188 C 
BRANCH  25  26
ATOM     26  C   UNL     1      11.743  -2.551  -0.514  1.00  0.00     0.188 C 
BRANCH  26  27
ATOM     27  O   UNL     1      11.186  -3.370   0.508  1.00  0.00    -0.376 OA
BRANCH  27  28
ATOM     28  C   UNL     1      11.287  -2.943   1.858  1.00  0.00     0.202 C 
BRANCH  28  29
ATOM     29  C   UNL     1      10.491  -1.700   2.294  1.00  0.00     0.261 C 
BRANCH  29  30
ATOM     30  O   UNL     1      10.744  -0.475   1.593  1.00  0.00    -0.460 OA
BRANCH  30  31
ATOM     31  C   UNL     1      12.004   0.001   1.544  1.00  0.00     0.338 C 
ATOM     32  O   UNL     1      12.994  -0.471   2.076  1.00  0.00    -0.246 OA
BRANCH  31  33
ATOM     33  C   UNL     1      12.015   1.110   0.567  1.00  0.00     0.060 A 
ATOM     34  C   UNL     1      12.823   1.016  -0.575  1.00  0.00     0.016 A 
ATOM     35  C   UNL     1      11.205   2.229   0.770  1.00  0.00     0.016 A 
ATOM     36  C   UNL     1      12.844   2.058  -1.506  1.00  0.00     0.010 A 
ATOM     37  C   UNL     1      11.247   3.280  -0.147  1.00  0.00     0.010 A 
ATOM     38  C   UNL     1      12.090   3.214  -1.271  1.00  0.00    -0.014 A 
BRANCH  38  39
ATOM     39  C   UNL     1      12.331   4.447  -2.056  1.00  0.00     0.031 A 
ATOM     40  C   UNL     1      13.239   5.488  -1.463  1.00  0.00     0.074 A 
ATOM     41  C   UNL     1      11.728   4.666  -3.236  1.00  0.00     0.049 A 
ATOM     42  N   UNL     1      13.481   6.709  -1.860  1.00  0.00    -0.248 NA
ATOM     43  C   UNL     1      13.963   5.094  -0.243  1.00  0.00     0.031 C 
ATOM     44  C   UNL     1      10.865   3.718  -3.936  1.00  0.00     0.029 A 
ATOM     45  N   UNL     1      11.732   5.780  -4.040  1.00  0.00    -0.354 N 
ATOM     46  C   UNL     1      14.365   7.237  -0.927  1.00  0.00     0.074 A 
ATOM     47  C   UNL     1      14.600   6.212   0.066  1.00  0.00     0.031 C 
ATOM     48  C   UNL     1      10.396   4.302  -5.053  1.00  0.00     0.029 A 
ATOM     49  C   UNL     1      10.891   5.677  -5.121  1.00  0.00     0.049 A 
ATOM     50  H   UNL     1      12.284   6.574  -3.858  1.00  0.00     0.167 HD
ATOM     51  C   UNL     1      14.929   8.467  -0.901  1.00  0.00     0.037 A 
ATOM     52  C   UNL     1      10.533   6.603  -6.033  1.00  0.00     0.037 A 
ATOM     53  C   UNL     1      14.681   9.485  -1.887  1.00  0.00     0.049 A 
ATOM     54  C   UNL     1      11.108   7.994  -5.941  1.00  0.00     0.074 A 
ATOM     55  C   UNL     1      15.211  10.760  -1.962  1.00  0.00     0.029 A 
ATOM     56  N   UNL     1      13.816   9.345  -2.963  1.00  0.00    -0.354 N 
ATOM     57  N   UNL     1      11.956   8.485  -5.068  1.00  0.00    -0.248 NA
ATOM     58  C   UNL     1      10.677   8.961  -6.961  1.00  0.00     0.031 C 
ATOM     59  C   UNL     1      14.621  11.413  -3.048  1.00  0.00     0.029 A 
ATOM     60  C   UNL     1      13.779  10.521  -3.692  1.00  0.00     0.049 A 
ATOM     61  H   UNL     1      13.306   8.530  -3.176  1.00  0.00     0.167 HD
ATOM     62  C   UNL     1      12.190   9.799  -5.456  1.00  0.00     0.074 A 
ATOM     63  C   UNL     1      11.395  10.030  -6.644  1.00  0.00     0.031 C 
ATOM     64  C   UNL     1      12.997  10.728  -4.886  1.00  0.00     0.037 A 
BRANCH  51  65
ATOM     65  C   UNL     1      15.831   8.788   0.256  1.00  0.00     0.057 A 
ATOM     66  C   UNL     1      17.082   8.177   0.418  1.00  0.00     0.134 A 
ATOM     67  C   UNL     1      15.445   9.731   1.217  1.00  0.00     0.134 A 
ATOM     68  F   UNL     1      17.506   7.252  -0.456  1.00  0.00    -0.206 F 
ATOM     69  C   UNL     1      17.901   8.469   1.511  1.00  0.00     0.040 A 
ATOM     70  C   UNL     1      16.268  10.055   2.296  1.00  0.00     0.040 A 
ATOM     71  F   UNL     1      14.261  10.355   1.123  1.00  0.00    -0.206 F 
ATOM     72  C   UNL     1      17.497   9.416   2.450  1.00  0.00     0.006 A 
ENDBRANCH  51  65
BRANCH  52  73
ATOM     73  C   UNL     1       9.562   6.256  -7.104  1.00  0.00     0.057 A 
ATOM     74  C   UNL     1       9.957   6.188  -8.445  1.00  0.00     0.134 A 
ATOM     75  C   UNL     1       8.216   5.999  -6.815  1.00  0.00     0.134 A 
ATOM     76  F   UNL     1      11.226   6.449  -8.789  1.00  0.00    -0.206 F 
ATOM     77  C   UNL     1       9.047   5.892  -9.462  1.00  0.00     0.040 A 
ATOM     78  C   UNL     1       7.301   5.674  -7.819  1.00  0.00     0.040 A 
ATOM     79  F   UNL     1       7.772   6.051  -5.551  1.00  0.00    -0.206 F 
ATOM     80  C   UNL     1       7.715   5.627  -9.148  1.00  0.00     0.006 A 
ENDBRANCH  52  73
BRANCH  64  81
ATOM     81  C   UNL     1      13.122  12.061  -5.569  1.00  0.00     0.057 A 
ATOM     82  C   UNL     1      12.088  13.004  -5.566  1.00  0.00     0.134 A 
ATOM     83  C   UNL     1      14.329  12.428  -6.181  1.00  0.00     0.134 A 
ATOM     84  F   UNL     1      10.903  12.715  -5.006  1.00  0.00    -0.206 F 
ATOM     85  C   UNL     1      12.243  14.258  -6.162  1.00  0.00     0.040 A 
ATOM     86  C   UNL     1      14.506  13.688  -6.753  1.00  0.00     0.040 A 
ATOM     87  F   UNL     1      15.365  11.576  -6.209  1.00  0.00    -0.206 F 
ATOM     88  C   UNL     1      13.459  14.606  -6.748  1.00  0.00     0.006 A 
ENDBRANCH  64  81
ENDBRANCH  38  39
ENDBRANCH  31  33
ENDBRANCH  30  31
ENDBRANCH  29  30
ENDBRANCH  28  29
ENDBRANCH  27  28
ENDBRANCH  26  27
ENDBRANCH  25  26
ENDBRANCH  24  25
ENDBRANCH   1  24
TORSDOF 23
