REMARK SMILES C[C@@]1(CN2C(=O)c3ccc(C(=O)OCCOCCOCCOCCOC(=O)c4ccc(-c5c6nc(c(-c7c(F)cccc7F)c7ccc([nH]7)c(-c7c(F)cccc7F)c7nc(c(-c8c(F)cccc8F)c8ccc5[nH]8)C=C7)C=C6)cc4)cc3C2=O)CCCO1
REMARK SMILES IDX 19 1 18 2 17 3 16 4 15 5 14 6 13 7 11 8 12 9 10 10 4 11 5 12
REMARK SMILES IDX 84 13 6 14 7 15 83 16 85 17 8 18 82 19 9 20 3 21 2 22 1 23
REMARK SMILES IDX 86 24 89 25 87 26 88 27 20 28 21 29 22 30 23 31 24 32 25 33
REMARK SMILES IDX 26 34 27 35 28 36 29 37 81 38 30 39 80 40 31 41 32 42 33 43
REMARK SMILES IDX 74 44 34 45 79 46 73 47 75 48 35 49 78 50 72 51 71 52 36 54
REMARK SMILES IDX 62 55 45 56 61 57 46 58 49 59 60 60 76 61 47 62 48 63 59 65
REMARK SMILES IDX 77 66 50 67 37 68 38 69 43 70 39 71 40 72 42 73 44 74 41 75
REMARK SMILES IDX 63 76 64 77 69 78 65 79 66 80 68 81 70 82 67 83 51 84 52 85
REMARK SMILES IDX 57 86 53 87 54 88 56 89 58 90 55 91
REMARK H PARENT 75 53 49 64
REMARK Flexibility Score: inf
ROOT
ATOM      1  O   UNL     1      -7.848  -0.087  -3.752  1.00  0.00    -0.377 OA
ENDROOT
BRANCH   1   2
ATOM      2  C   UNL     1      -7.534   0.438  -2.470  1.00  0.00     0.188 C 
BRANCH   2   3
ATOM      3  C   UNL     1      -7.987   1.878  -2.154  1.00  0.00     0.188 C 
BRANCH   3   4
ATOM      4  O   UNL     1      -8.958   2.372  -3.059  1.00  0.00    -0.376 OA
BRANCH   4   5
ATOM      5  C   UNL     1      -8.591   3.333  -4.029  1.00  0.00     0.202 C 
BRANCH   5   6
ATOM      6  C   UNL     1      -7.425   3.061  -4.993  1.00  0.00     0.261 C 
BRANCH   6   7
ATOM      7  O   UNL     1      -6.284   2.392  -4.446  1.00  0.00    -0.460 OA
BRANCH   7   8
ATOM      8  C   UNL     1      -5.441   3.127  -3.691  1.00  0.00     0.338 C 
ATOM      9  O   UNL     1      -5.537   4.312  -3.434  1.00  0.00    -0.246 OA
BRANCH   8  10
ATOM     10  C   UNL     1      -4.479   2.199  -3.043  1.00  0.00     0.060 A 
ATOM     11  N   UNL     1      -1.816   0.484   0.274  1.00  0.00    -0.271 N 
ATOM     12  C   UNL     1      -1.851  -0.251  -0.881  1.00  0.00     0.261 C 
ATOM     13  C   UNL     1      -2.720   1.509   0.246  1.00  0.00     0.261 C 
ATOM     14  O   UNL     1      -1.265  -1.274  -1.162  1.00  0.00    -0.269 OA
ATOM     15  C   UNL     1      -2.761   0.448  -1.787  1.00  0.00     0.053 A 
ATOM     16  C   UNL     1      -3.283   1.530  -1.102  1.00  0.00     0.054 A 
ATOM     17  O   UNL     1      -3.072   2.263   1.138  1.00  0.00    -0.269 OA
ATOM     18  C   UNL     1      -3.081   0.188  -3.106  1.00  0.00     0.015 A 
ATOM     19  C   UNL     1      -4.150   2.426  -1.698  1.00  0.00     0.030 A 
ATOM     20  C   UNL     1      -3.956   1.079  -3.739  1.00  0.00     0.016 A 
BRANCH  11  21
ATOM     21  C   UNL     1      -0.918   0.216   1.387  1.00  0.00     0.164 C 
BRANCH  21  22
ATOM     22  C   UNL     1       0.509   0.809   1.182  1.00  0.00     0.084 C 
ATOM     23  C   UNL     1       1.215   0.235  -0.048  1.00  0.00     0.044 C 
ATOM     24  C   UNL     1       1.372   0.611   2.433  1.00  0.00     0.039 C 
ATOM     25  O   UNL     1       0.404   2.240   1.006  1.00  0.00    -0.373 OA
ATOM     26  C   UNL     1       1.085   1.848   3.247  1.00  0.00     0.031 C 
ATOM     27  C   UNL     1       0.889   2.903   2.182  1.00  0.00     0.161 C 
ENDBRANCH  21  22
ENDBRANCH  11  21
ENDBRANCH   8  10
ENDBRANCH   7   8
ENDBRANCH   6   7
ENDBRANCH   5   6
ENDBRANCH   4   5
ENDBRANCH   3   4
ENDBRANCH   2   3
ENDBRANCH   1   2
BRANCH   1  28
ATOM     28  C   UNL     1      -9.207  -0.123  -4.191  1.00  0.00     0.188 C 
BRANCH  28  29
ATOM     29  C   UNL     1     -10.407   0.069  -3.229  1.00  0.00     0.188 C 
BRANCH  29  30
ATOM     30  O   UNL     1     -10.083  -0.007  -1.853  1.00  0.00    -0.376 OA
BRANCH  30  31
ATOM     31  C   UNL     1     -10.500  -1.145  -1.125  1.00  0.00     0.202 C 
BRANCH  31  32
ATOM     32  C   UNL     1      -9.928  -2.502  -1.556  1.00  0.00     0.261 C 
BRANCH  32  33
ATOM     33  O   UNL     1     -10.035  -2.822  -2.950  1.00  0.00    -0.460 OA
BRANCH  33  34
ATOM     34  C   UNL     1     -11.273  -3.045  -3.445  1.00  0.00     0.338 C 
ATOM     35  O   UNL     1     -12.329  -2.994  -2.845  1.00  0.00    -0.246 OA
BRANCH  34  36
ATOM     36  C   UNL     1     -11.133  -3.194  -4.908  1.00  0.00     0.060 A 
ATOM     37  C   UNL     1     -11.750  -2.268  -5.761  1.00  0.00     0.016 A 
ATOM     38  C   UNL     1     -10.366  -4.237  -5.430  1.00  0.00     0.016 A 
ATOM     39  C   UNL     1     -11.618  -2.398  -7.144  1.00  0.00     0.010 A 
ATOM     40  C   UNL     1     -10.253  -4.379  -6.813  1.00  0.00     0.010 A 
ATOM     41  C   UNL     1     -10.901  -3.477  -7.677  1.00  0.00    -0.014 A 
BRANCH  41  42
ATOM     42  C   UNL     1     -10.972  -3.786  -9.125  1.00  0.00     0.031 A 
ATOM     43  C   UNL     1     -11.920  -4.862  -9.576  1.00  0.00     0.074 A 
ATOM     44  C   UNL     1     -10.199  -3.146 -10.020  1.00  0.00     0.049 A 
ATOM     45  N   UNL     1     -12.078  -5.390 -10.761  1.00  0.00    -0.248 NA
ATOM     46  C   UNL     1     -12.803  -5.425  -8.540  1.00  0.00     0.031 C 
ATOM     47  C   UNL     1      -9.271  -2.060  -9.714  1.00  0.00     0.029 A 
ATOM     48  N   UNL     1     -10.060  -3.340 -11.372  1.00  0.00    -0.354 N 
ATOM     49  C   UNL     1     -13.065  -6.357 -10.612  1.00  0.00     0.074 A 
ATOM     50  C   UNL     1     -13.448  -6.361  -9.217  1.00  0.00     0.031 C 
ATOM     51  C   UNL     1      -8.640  -1.697 -10.845  1.00  0.00     0.029 A 
ATOM     52  C   UNL     1      -9.090  -2.553 -11.942  1.00  0.00     0.049 A 
ATOM     53  H   UNL     1     -10.603  -3.982 -11.883  1.00  0.00     0.167 HD
ATOM     54  C   UNL     1     -13.604  -7.165 -11.554  1.00  0.00     0.037 A 
ATOM     55  C   UNL     1      -8.601  -2.550 -13.198  1.00  0.00     0.037 A 
ATOM     56  C   UNL     1     -13.214  -7.160 -12.939  1.00  0.00     0.049 A 
ATOM     57  C   UNL     1      -9.162  -3.513 -14.214  1.00  0.00     0.074 A 
ATOM     58  C   UNL     1     -13.715  -7.924 -13.977  1.00  0.00     0.029 A 
ATOM     59  N   UNL     1     -12.217  -6.359 -13.475  1.00  0.00    -0.354 N 
ATOM     60  N   UNL     1     -10.113  -4.405 -14.073  1.00  0.00    -0.248 NA
ATOM     61  C   UNL     1      -8.582  -3.467 -15.564  1.00  0.00     0.031 C 
ATOM     62  C   UNL     1     -12.977  -7.632 -15.128  1.00  0.00     0.029 A 
ATOM     63  C   UNL     1     -12.066  -6.634 -14.824  1.00  0.00     0.049 A 
ATOM     64  H   UNL     1     -11.694  -5.694 -12.972  1.00  0.00     0.167 HD
ATOM     65  C   UNL     1     -10.270  -4.998 -15.321  1.00  0.00     0.074 A 
ATOM     66  C   UNL     1      -9.321  -4.359 -16.208  1.00  0.00     0.031 C 
ATOM     67  C   UNL     1     -11.126  -5.980 -15.700  1.00  0.00     0.037 A 
BRANCH  54  68
ATOM     68  C   UNL     1     -14.648  -8.148 -11.107  1.00  0.00     0.057 A 
ATOM     69  C   UNL     1     -15.924  -7.745 -10.692  1.00  0.00     0.134 A 
ATOM     70  C   UNL     1     -14.377  -9.523 -11.118  1.00  0.00     0.134 A 
ATOM     71  F   UNL     1     -16.243  -6.443 -10.643  1.00  0.00    -0.206 F 
ATOM     72  C   UNL     1     -16.883  -8.671 -10.278  1.00  0.00     0.040 A 
ATOM     73  C   UNL     1     -15.339 -10.460 -10.736  1.00  0.00     0.040 A 
ATOM     74  F   UNL     1     -13.177  -9.979 -11.507  1.00  0.00    -0.206 F 
ATOM     75  C   UNL     1     -16.594 -10.034 -10.308  1.00  0.00     0.006 A 
ENDBRANCH  54  68
BRANCH  55  76
ATOM     76  C   UNL     1      -7.502  -1.619 -13.568  1.00  0.00     0.057 A 
ATOM     77  C   UNL     1      -7.710  -0.575 -14.477  1.00  0.00     0.134 A 
ATOM     78  C   UNL     1      -6.212  -1.767 -13.044  1.00  0.00     0.134 A 
ATOM     79  F   UNL     1      -8.916  -0.395 -15.034  1.00  0.00    -0.206 F 
ATOM     80  C   UNL     1      -6.672   0.275 -14.867  1.00  0.00     0.040 A 
ATOM     81  C   UNL     1      -5.172  -0.907 -13.402  1.00  0.00     0.040 A 
ATOM     82  F   UNL     1      -5.945  -2.748 -12.169  1.00  0.00    -0.206 F 
ATOM     83  C   UNL     1      -5.400   0.113 -14.323  1.00  0.00     0.006 A 
ENDBRANCH  55  76
BRANCH  67  84
ATOM     84  C   UNL     1     -11.121  -6.389 -17.146  1.00  0.00     0.057 A 
ATOM     85  C   UNL     1     -10.062  -7.106 -17.717  1.00  0.00     0.134 A 
ATOM     86  C   UNL     1     -12.223  -6.107 -17.965  1.00  0.00     0.134 A 
ATOM     87  F   UNL     1      -8.972  -7.402 -16.993  1.00  0.00    -0.206 F 
ATOM     88  C   UNL     1     -10.089  -7.506 -19.055  1.00  0.00     0.040 A 
ATOM     89  C   UNL     1     -12.275  -6.529 -19.294  1.00  0.00     0.040 A 
ATOM     90  F   UNL     1     -13.278  -5.434 -17.480  1.00  0.00    -0.206 F 
ATOM     91  C   UNL     1     -11.202  -7.225 -19.845  1.00  0.00     0.006 A 
ENDBRANCH  67  84
ENDBRANCH  41  42
ENDBRANCH  34  36
ENDBRANCH  33  34
ENDBRANCH  32  33
ENDBRANCH  31  32
ENDBRANCH  30  31
ENDBRANCH  29  30
ENDBRANCH  28  29
ENDBRANCH   1  28
TORSDOF 22
