REMARK SMILES CCC1C[NH+]([C@@H](Cc2c[nH]c3ccccc23)C(=O)OCCOCCOCCOCCOC(=O)c2ccc(-c3c4nc(c(-c5c(F)cccc5F)c5ccc([nH]5)c(-c5c(F)cccc5F)c5nc(c(-c6c(F)cccc6F)c6ccc3[nH]6)C=C5)C=C4)cc2)C1
REMARK SMILES IDX 25 1 24 2 23 3 22 4 21 5 20 6 19 7 17 8 18 9 6 10 5 11 3 12
REMARK SMILES IDX 4 13 88 14 2 16 1 17 7 18 8 19 9 20 16 21 10 22 11 23 15 24
REMARK SMILES IDX 12 26 14 27 13 28 26 29 27 30 28 31 29 32 30 33 31 34 32 35
REMARK SMILES IDX 33 36 34 37 35 38 87 39 36 40 86 41 37 42 38 43 39 44 80 45
REMARK SMILES IDX 40 46 85 47 79 48 81 49 41 50 84 51 78 52 77 53 42 55 68 56
REMARK SMILES IDX 51 57 67 58 52 59 55 60 66 61 82 62 53 63 54 64 65 66 83 67
REMARK SMILES IDX 56 68 43 69 44 70 49 71 45 72 46 73 48 74 50 75 47 76 69 77
REMARK SMILES IDX 70 78 75 79 71 80 72 81 74 82 76 83 73 84 57 85 58 86 63 87
REMARK SMILES IDX 59 88 60 89 62 90 64 91 61 92
REMARK H PARENT 5 15 10 25 81 54 55 65
REMARK Flexibility Score: inf
ROOT
ATOM      1  O   UNL     1       1.610   6.772  -0.981  1.00  0.00    -0.377 OA
ENDROOT
BRANCH   1   2
ATOM      2  C   UNL     1       2.642   6.574  -1.955  1.00  0.00     0.188 C 
BRANCH   2   3
ATOM      3  C   UNL     1       2.127   6.321  -3.359  1.00  0.00     0.188 C 
BRANCH   3   4
ATOM      4  O   UNL     1       1.644   7.428  -4.113  1.00  0.00    -0.376 OA
BRANCH   4   5
ATOM      5  C   UNL     1       0.415   7.200  -4.820  1.00  0.00     0.202 C 
BRANCH   5   6
ATOM      6  C   UNL     1       0.251   5.921  -5.673  1.00  0.00     0.261 C 
BRANCH   6   7
ATOM      7  O   UNL     1       0.321   4.692  -4.914  1.00  0.00    -0.459 OA
BRANCH   7   8
ATOM      8  C   UNL     1       1.486   3.987  -4.920  1.00  0.00     0.365 C 
ATOM      9  O   UNL     1       2.433   4.258  -5.652  1.00  0.00    -0.245 OA
BRANCH   8  10
ATOM     10  C   UNL     1       1.505   2.828  -3.890  1.00  0.00     0.299 C 
BRANCH  10  11
ATOM     11  N   UNL     1       2.129   3.185  -2.565  1.00  0.00    -0.322 N 
ATOM     12  C   UNL     1       1.346   1.799  -1.140  1.00  0.00     0.099 C 
ATOM     13  C   UNL     1       1.229   3.317  -1.386  1.00  0.00     0.272 C 
ATOM     14  C   UNL     1       2.708   1.981  -1.857  1.00  0.00     0.272 C 
ATOM     15  H   UNL     1       2.670   3.987  -2.888  1.00  0.00     0.348 HD
BRANCH  12  16
ATOM     16  C   UNL     1       1.123   1.327   0.287  1.00  0.00     0.012 C 
ATOM     17  C   UNL     1       1.298  -0.182   0.379  1.00  0.00     0.004 C 
ENDBRANCH  12  16
ENDBRANCH  10  11
BRANCH  10  18
ATOM     18  C   UNL     1       0.297   1.917  -4.146  1.00  0.00     0.115 C 
BRANCH  18  19
ATOM     19  C   UNL     1      -1.016   1.998  -3.407  1.00  0.00    -0.016 A 
ATOM     20  C   UNL     1      -1.730   0.837  -3.145  1.00  0.00     0.087 A 
ATOM     21  C   UNL     1      -1.815   3.078  -2.874  1.00  0.00     0.003 A 
ATOM     22  N   UNL     1      -2.878   1.152  -2.488  1.00  0.00    -0.361 N 
ATOM     23  C   UNL     1      -2.970   2.509  -2.327  1.00  0.00     0.046 A 
ATOM     24  C   UNL     1      -1.692   4.481  -2.741  1.00  0.00     0.010 A 
ATOM     25  H   UNL     1      -3.545   0.500  -2.174  1.00  0.00     0.166 HD
ATOM     26  C   UNL     1      -3.988   3.258  -1.724  1.00  0.00     0.026 A 
ATOM     27  C   UNL     1      -2.684   5.250  -2.129  1.00  0.00     0.001 A 
ATOM     28  C   UNL     1      -3.829   4.640  -1.650  1.00  0.00     0.002 A 
ENDBRANCH  18  19
ENDBRANCH  10  18
ENDBRANCH   8  10
ENDBRANCH   7   8
ENDBRANCH   6   7
ENDBRANCH   5   6
ENDBRANCH   4   5
ENDBRANCH   3   4
ENDBRANCH   2   3
ENDBRANCH   1   2
BRANCH   1  29
ATOM     29  C   UNL     1       0.593   7.708  -1.316  1.00  0.00     0.188 C 
BRANCH  29  30
ATOM     30  C   UNL     1       1.042   9.147  -1.624  1.00  0.00     0.188 C 
BRANCH  30  31
ATOM     31  O   UNL     1       2.441   9.311  -1.763  1.00  0.00    -0.376 OA
BRANCH  31  32
ATOM     32  C   UNL     1       3.177   9.670  -0.595  1.00  0.00     0.202 C 
BRANCH  32  33
ATOM     33  C   UNL     1       3.078   8.796   0.675  1.00  0.00     0.261 C 
BRANCH  33  34
ATOM     34  O   UNL     1       1.761   8.573   1.213  1.00  0.00    -0.460 OA
BRANCH  34  35
ATOM     35  C   UNL     1       1.054   9.645   1.609  1.00  0.00     0.338 C 
ATOM     36  O   UNL     1       1.419  10.812   1.614  1.00  0.00    -0.246 OA
BRANCH  35  37
ATOM     37  C   UNL     1      -0.334   9.213   1.872  1.00  0.00     0.060 A 
ATOM     38  C   UNL     1      -1.369   9.770   1.109  1.00  0.00     0.016 A 
ATOM     39  C   UNL     1      -0.619   8.289   2.880  1.00  0.00     0.016 A 
ATOM     40  C   UNL     1      -2.697   9.449   1.388  1.00  0.00     0.010 A 
ATOM     41  C   UNL     1      -1.953   7.988   3.176  1.00  0.00     0.010 A 
ATOM     42  C   UNL     1      -2.998   8.603   2.462  1.00  0.00    -0.014 A 
BRANCH  42  43
ATOM     43  C   UNL     1      -4.390   8.542   2.970  1.00  0.00     0.031 A 
ATOM     44  C   UNL     1      -4.756   9.390   4.155  1.00  0.00     0.074 A 
ATOM     45  C   UNL     1      -5.327   7.779   2.383  1.00  0.00     0.049 A 
ATOM     46  N   UNL     1      -5.891   9.477   4.799  1.00  0.00    -0.248 NA
ATOM     47  C   UNL     1      -3.690  10.252   4.689  1.00  0.00     0.031 C 
ATOM     48  C   UNL     1      -5.112   6.946   1.206  1.00  0.00     0.029 A 
ATOM     49  N   UNL     1      -6.645   7.577   2.709  1.00  0.00    -0.354 N 
ATOM     50  C   UNL     1      -5.673  10.393   5.820  1.00  0.00     0.074 A 
ATOM     51  C   UNL     1      -4.289  10.805   5.731  1.00  0.00     0.031 C 
ATOM     52  C   UNL     1      -6.256   6.302   0.920  1.00  0.00     0.029 A 
ATOM     53  C   UNL     1      -7.269   6.650   1.913  1.00  0.00     0.049 A 
ATOM     54  H   UNL     1      -7.099   8.050   3.443  1.00  0.00     0.167 HD
ATOM     55  C   UNL     1      -6.549  10.853   6.745  1.00  0.00     0.037 A 
ATOM     56  C   UNL     1      -8.502   6.114   1.988  1.00  0.00     0.037 A 
ATOM     57  C   UNL     1      -7.922  10.429   6.837  1.00  0.00     0.049 A 
ATOM     58  C   UNL     1      -9.443   6.582   3.064  1.00  0.00     0.074 A 
ATOM     59  C   UNL     1      -8.898  10.854   7.721  1.00  0.00     0.029 A 
ATOM     60  N   UNL     1      -8.509   9.467   6.027  1.00  0.00    -0.354 N 
ATOM     61  N   UNL     1      -9.241   7.471   4.006  1.00  0.00    -0.248 NA
ATOM     62  C   UNL     1     -10.782   5.979   3.084  1.00  0.00     0.031 C 
ATOM     63  C   UNL     1     -10.053  10.099   7.492  1.00  0.00     0.029 A 
ATOM     64  C   UNL     1      -9.822   9.255   6.417  1.00  0.00     0.049 A 
ATOM     65  H   UNL     1      -8.058   9.003   5.285  1.00  0.00     0.167 HD
ATOM     66  C   UNL     1     -10.431   7.552   4.718  1.00  0.00     0.074 A 
ATOM     67  C   UNL     1     -11.354   6.630   4.088  1.00  0.00     0.031 C 
ATOM     68  C   UNL     1     -10.732   8.326   5.791  1.00  0.00     0.037 A 
BRANCH  55  69
ATOM     69  C   UNL     1      -6.017  11.824   7.761  1.00  0.00     0.057 A 
ATOM     70  C   UNL     1      -5.608  13.120   7.418  1.00  0.00     0.134 A 
ATOM     71  C   UNL     1      -5.890  11.445   9.104  1.00  0.00     0.134 A 
ATOM     72  F   UNL     1      -5.687  13.544   6.147  1.00  0.00    -0.206 F 
ATOM     73  C   UNL     1      -5.047  13.984   8.361  1.00  0.00     0.040 A 
ATOM     74  C   UNL     1      -5.365  12.312  10.063  1.00  0.00     0.040 A 
ATOM     75  F   UNL     1      -6.268  10.222   9.507  1.00  0.00    -0.206 F 
ATOM     76  C   UNL     1      -4.928  13.581   9.689  1.00  0.00     0.006 A 
ENDBRANCH  55  69
BRANCH  56  77
ATOM     77  C   UNL     1      -8.902   5.058   1.022  1.00  0.00     0.057 A 
ATOM     78  C   UNL     1      -9.850   5.301   0.024  1.00  0.00     0.134 A 
ATOM     79  C   UNL     1      -8.317   3.785   1.060  1.00  0.00     0.134 A 
ATOM     80  F   UNL     1     -10.462   6.492  -0.052  1.00  0.00    -0.206 F 
ATOM     81  C   UNL     1     -10.206   4.316  -0.901  1.00  0.00     0.040 A 
ATOM     82  C   UNL     1      -8.644   2.800   0.127  1.00  0.00     0.040 A 
ATOM     83  F   UNL     1      -7.397   3.489   1.990  1.00  0.00    -0.206 F 
ATOM     84  C   UNL     1      -9.594   3.064  -0.857  1.00  0.00     0.006 A 
ENDBRANCH  56  77
BRANCH  68  85
ATOM     85  C   UNL     1     -12.127   8.230   6.342  1.00  0.00     0.057 A 
ATOM     86  C   UNL     1     -12.582   7.096   7.027  1.00  0.00     0.134 A 
ATOM     87  C   UNL     1     -13.014   9.309   6.223  1.00  0.00     0.134 A 
ATOM     88  F   UNL     1     -11.789   6.022   7.167  1.00  0.00    -0.206 F 
ATOM     89  C   UNL     1     -13.874   7.029   7.552  1.00  0.00     0.040 A 
ATOM     90  C   UNL     1     -14.296   9.266   6.771  1.00  0.00     0.040 A 
ATOM     91  F   UNL     1     -12.641  10.431   5.588  1.00  0.00    -0.206 F 
ATOM     92  C   UNL     1     -14.733   8.120   7.431  1.00  0.00     0.006 A 
ENDBRANCH  68  85
ENDBRANCH  42  43
ENDBRANCH  35  37
ENDBRANCH  34  35
ENDBRANCH  33  34
ENDBRANCH  32  33
ENDBRANCH  31  32
ENDBRANCH  30  31
ENDBRANCH  29  30
ENDBRANCH   1  29
TORSDOF 24
