REMARK SMILES O=C(OCCOCCOCCOCCOC(=O)c1ccc(-n2cc(CSc3nc4ccccc4c(=O)n3-c3ccc(Br)cc3)nn2)cc1)c1ccc(-c2c3nc(c(-c4c(F)cccc4F)c4ccc([nH]4)c(-c4c(F)cccc4F)c4nc(c(-c5c(F)cccc5F)c5ccc2[nH]5)C=C4)C=C3)cc1
REMARK SMILES IDX 10 1 9 2 8 3 7 4 6 5 5 6 4 7 3 8 2 9 1 10 49 11 50 12 102 13
REMARK SMILES IDX 51 14 101 15 52 16 53 17 54 18 95 19 55 20 100 21 94 22
REMARK SMILES IDX 96 23 56 24 99 25 93 26 92 27 57 29 83 30 66 31 82 32 67 33
REMARK SMILES IDX 70 34 81 35 97 36 68 37 69 38 80 40 98 41 71 42 58 43 59 44
REMARK SMILES IDX 64 45 60 46 61 47 63 48 65 49 62 50 84 51 85 52 90 53 86 54
REMARK SMILES IDX 87 55 89 56 91 57 88 58 72 59 73 60 78 61 74 62 75 63 77 64
REMARK SMILES IDX 79 65 76 66 11 67 12 68 13 69 14 70 15 71 16 72 17 73 18 74
REMARK SMILES IDX 19 75 48 76 20 77 47 78 21 79 22 80 23 81 46 82 24 83 45 84
REMARK SMILES IDX 25 85 26 86 27 87 28 88 37 89 29 90 35 91 30 92 34 93 36 94
REMARK SMILES IDX 31 95 33 96 32 97 38 98 39 99 44 100 40 101 43 102 41 103
REMARK SMILES IDX 42 104
REMARK H PARENT 96 28 70 39
REMARK Flexibility Score: inf
ROOT
ATOM      1  C   UNL     1       4.069   1.897  -2.883  1.00  0.00     0.188 C 
ENDROOT
BRANCH   1   2
ATOM      2  O   UNL     1       2.756   2.184  -2.454  1.00  0.00    -0.377 OA
BRANCH   2   3
ATOM      3  C   UNL     1       2.311   1.458  -1.318  1.00  0.00     0.188 C 
BRANCH   3   4
ATOM      4  C   UNL     1       3.050   1.765  -0.004  1.00  0.00     0.188 C 
BRANCH   4   5
ATOM      5  O   UNL     1       3.909   0.790   0.592  1.00  0.00    -0.376 OA
BRANCH   5   6
ATOM      6  C   UNL     1       4.951   0.165  -0.124  1.00  0.00     0.202 C 
BRANCH   6   7
ATOM      7  C   UNL     1       4.645  -1.272  -0.560  1.00  0.00     0.261 C 
BRANCH   7   8
ATOM      8  O   UNL     1       3.294  -1.544  -0.962  1.00  0.00    -0.460 OA
BRANCH   8   9
ATOM      9  C   UNL     1       2.162  -1.584  -0.221  1.00  0.00     0.338 C 
ATOM     10  O   UNL     1       1.093  -1.823  -0.781  1.00  0.00    -0.246 OA
BRANCH   9  11
ATOM     11  C   UNL     1       2.107  -1.266   1.228  1.00  0.00     0.060 A 
ATOM     12  C   UNL     1       3.137  -1.535   2.129  1.00  0.00     0.016 A 
ATOM     13  C   UNL     1       0.885  -0.748   1.707  1.00  0.00     0.016 A 
ATOM     14  C   UNL     1       2.924  -1.399   3.485  1.00  0.00     0.010 A 
ATOM     15  C   UNL     1       0.657  -0.630   3.069  1.00  0.00     0.010 A 
ATOM     16  C   UNL     1       1.656  -1.048   3.941  1.00  0.00    -0.014 A 
BRANCH  16  17
ATOM     17  C   UNL     1       1.395  -1.355   5.335  1.00  0.00     0.031 A 
ATOM     18  C   UNL     1       2.133  -0.563   6.347  1.00  0.00     0.074 A 
ATOM     19  C   UNL     1       0.581  -2.380   5.650  1.00  0.00     0.049 A 
ATOM     20  N   UNL     1       2.998  -0.979   7.216  1.00  0.00    -0.248 NA
ATOM     21  C   UNL     1       1.941   0.893   6.332  1.00  0.00     0.031 C 
ATOM     22  C   UNL     1      -0.355  -3.096   4.774  1.00  0.00     0.029 A 
ATOM     23  N   UNL     1       0.360  -2.946   6.865  1.00  0.00    -0.354 N 
ATOM     24  C   UNL     1       3.327   0.135   7.985  1.00  0.00     0.074 A 
ATOM     25  C   UNL     1       2.745   1.275   7.325  1.00  0.00     0.031 C 
ATOM     26  C   UNL     1      -1.200  -3.825   5.533  1.00  0.00     0.029 A 
ATOM     27  C   UNL     1      -0.778  -3.731   6.919  1.00  0.00     0.049 A 
ATOM     28  H   UNL     1       0.955  -2.810   7.637  1.00  0.00     0.167 HD
ATOM     29  C   UNL     1       3.871   0.012   9.226  1.00  0.00     0.037 A 
ATOM     30  C   UNL     1      -1.383  -4.187   8.039  1.00  0.00     0.037 A 
ATOM     31  C   UNL     1       4.527  -1.256   9.404  1.00  0.00     0.049 A 
ATOM     32  C   UNL     1      -0.389  -4.150   9.139  1.00  0.00     0.074 A 
ATOM     33  C   UNL     1       5.580  -1.903   8.786  1.00  0.00     0.029 A 
ATOM     34  N   UNL     1       3.910  -2.213  10.170  1.00  0.00    -0.354 N 
ATOM     35  N   UNL     1       0.647  -4.939   9.214  1.00  0.00    -0.248 NA
ATOM     36  C   UNL     1      -0.307  -2.939   9.942  1.00  0.00     0.031 C 
ATOM     37  C   UNL     1       5.242  -3.288   8.827  1.00  0.00     0.029 A 
ATOM     38  C   UNL     1       4.018  -3.396   9.488  1.00  0.00     0.049 A 
ATOM     39  H   UNL     1       3.474  -2.076  11.042  1.00  0.00     0.167 HD
ATOM     40  C   UNL     1       1.663  -4.145   9.729  1.00  0.00     0.074 A 
ATOM     41  C   UNL     1       0.992  -2.958  10.250  1.00  0.00     0.031 C 
ATOM     42  C   UNL     1       2.974  -4.392   9.437  1.00  0.00     0.037 A 
BRANCH  29  43
ATOM     43  C   UNL     1       3.492   0.898  10.389  1.00  0.00     0.057 A 
ATOM     44  C   UNL     1       4.188   0.781  11.606  1.00  0.00     0.134 A 
ATOM     45  C   UNL     1       2.288   1.630  10.457  1.00  0.00     0.134 A 
ATOM     46  F   UNL     1       5.341   0.099  11.677  1.00  0.00    -0.206 F 
ATOM     47  C   UNL     1       3.682   1.283  12.811  1.00  0.00     0.040 A 
ATOM     48  C   UNL     1       1.799   2.177  11.646  1.00  0.00     0.040 A 
ATOM     49  F   UNL     1       1.471   1.768   9.406  1.00  0.00    -0.206 F 
ATOM     50  C   UNL     1       2.478   1.975  12.836  1.00  0.00     0.006 A 
ENDBRANCH  29  43
BRANCH  30  51
ATOM     51  C   UNL     1      -2.840  -4.313   8.259  1.00  0.00     0.057 A 
ATOM     52  C   UNL     1      -3.353  -5.088   9.304  1.00  0.00     0.134 A 
ATOM     53  C   UNL     1      -3.761  -3.481   7.594  1.00  0.00     0.134 A 
ATOM     54  F   UNL     1      -2.544  -5.873  10.029  1.00  0.00    -0.206 F 
ATOM     55  C   UNL     1      -4.705  -5.036   9.670  1.00  0.00     0.040 A 
ATOM     56  C   UNL     1      -5.113  -3.429   7.939  1.00  0.00     0.040 A 
ATOM     57  F   UNL     1      -3.366  -2.624   6.641  1.00  0.00    -0.206 F 
ATOM     58  C   UNL     1      -5.588  -4.201   8.990  1.00  0.00     0.006 A 
ENDBRANCH  30  51
BRANCH  42  59
ATOM     59  C   UNL     1       3.305  -5.683   8.745  1.00  0.00     0.057 A 
ATOM     60  C   UNL     1       2.878  -5.990   7.444  1.00  0.00     0.134 A 
ATOM     61  C   UNL     1       4.204  -6.571   9.343  1.00  0.00     0.134 A 
ATOM     62  F   UNL     1       2.106  -5.143   6.752  1.00  0.00    -0.206 F 
ATOM     63  C   UNL     1       3.286  -7.156   6.790  1.00  0.00     0.040 A 
ATOM     64  C   UNL     1       4.645  -7.724   8.688  1.00  0.00     0.040 A 
ATOM     65  F   UNL     1       4.708  -6.307  10.559  1.00  0.00    -0.206 F 
ATOM     66  C   UNL     1       4.176  -8.026   7.412  1.00  0.00     0.006 A 
ENDBRANCH  42  59
ENDBRANCH  16  17
ENDBRANCH   9  11
ENDBRANCH   8   9
ENDBRANCH   7   8
ENDBRANCH   6   7
ENDBRANCH   5   6
ENDBRANCH   4   5
ENDBRANCH   3   4
ENDBRANCH   2   3
ENDBRANCH   1   2
BRANCH   1  67
ATOM     67  C   UNL     1       5.121   2.945  -2.453  1.00  0.00     0.188 C 
BRANCH  67  68
ATOM     68  O   UNL     1       4.731   4.154  -1.816  1.00  0.00    -0.376 OA
BRANCH  68  69
ATOM     69  C   UNL     1       3.544   4.823  -2.219  1.00  0.00     0.202 C 
BRANCH  69  70
ATOM     70  C   UNL     1       3.372   5.235  -3.689  1.00  0.00     0.261 C 
BRANCH  70  71
ATOM     71  O   UNL     1       3.645   4.206  -4.653  1.00  0.00    -0.460 OA
BRANCH  71  72
ATOM     72  C   UNL     1       4.807   4.332  -5.355  1.00  0.00     0.338 C 
ATOM     73  O   UNL     1       5.613   5.227  -5.289  1.00  0.00    -0.246 OA
BRANCH  72  74
ATOM     74  C   UNL     1       5.055   3.054  -6.074  1.00  0.00     0.060 A 
ATOM     75  C   UNL     1       6.293   2.415  -5.892  1.00  0.00     0.018 A 
ATOM     76  C   UNL     1       4.059   2.447  -6.840  1.00  0.00     0.018 A 
ATOM     77  C   UNL     1       6.540   1.167  -6.472  1.00  0.00     0.029 A 
ATOM     78  C   UNL     1       4.295   1.192  -7.407  1.00  0.00     0.029 A 
ATOM     79  C   UNL     1       5.538   0.556  -7.232  1.00  0.00     0.066 A 
BRANCH  79  80
ATOM     80  N   UNL     1       5.782  -0.662  -7.911  1.00  0.00    -0.220 N 
ATOM     81  C   UNL     1       6.972  -1.094  -8.476  1.00  0.00     0.141 A 
ATOM     82  N   UNL     1       4.780  -1.475  -8.298  1.00  0.00    -0.062 NA
ATOM     83  C   UNL     1       6.577  -1.977  -9.458  1.00  0.00     0.093 A 
ATOM     84  N   UNL     1       5.254  -2.291  -9.221  1.00  0.00    -0.134 NA
BRANCH  83  85
ATOM     85  C   UNL     1       7.101  -2.453 -10.762  1.00  0.00     0.138 C 
BRANCH  85  86
ATOM     86  S   UNL     1       8.757  -2.539 -11.386  1.00  0.00    -0.081 SA
BRANCH  86  87
ATOM     87  C   UNL     1       9.953  -1.699 -10.461  1.00  0.00     0.176 A 
ATOM     88  N   UNL     1      11.033  -2.416 -10.359  1.00  0.00    -0.223 NA
ATOM     89  N   UNL     1       9.852  -0.427  -9.912  1.00  0.00    -0.255 N 
ATOM     90  C   UNL     1      12.097  -1.939  -9.596  1.00  0.00     0.079 A 
ATOM     91  C   UNL     1      10.584  -0.268  -8.722  1.00  0.00     0.266 A 
ATOM     92  C   UNL     1      13.360  -2.522  -9.688  1.00  0.00     0.029 A 
ATOM     93  C   UNL     1      11.882  -0.950  -8.653  1.00  0.00     0.066 A 
ATOM     94  O   UNL     1      10.207   0.335  -7.716  1.00  0.00    -0.268 OA
ATOM     95  C   UNL     1      14.371  -2.152  -8.795  1.00  0.00     0.002 A 
ATOM     96  C   UNL     1      12.862  -0.605  -7.720  1.00  0.00     0.016 A 
ATOM     97  C   UNL     1      14.112  -1.218  -7.790  1.00  0.00     0.001 A 
BRANCH  89  98
ATOM     98  C   UNL     1       9.015   0.680 -10.358  1.00  0.00     0.051 A 
ATOM     99  C   UNL     1       9.099   1.935  -9.715  1.00  0.00     0.028 A 
ATOM    100  C   UNL     1       8.113   0.620 -11.428  1.00  0.00     0.028 A 
ATOM    101  C   UNL     1       8.199   2.976  -9.969  1.00  0.00     0.018 A 
ATOM    102  C   UNL     1       7.173   1.637 -11.664  1.00  0.00     0.018 A 
ATOM    103  C   UNL     1       7.197   2.797 -10.905  1.00  0.00     0.018 A 
ATOM    104  Br  UNL     1       5.887   4.130 -11.155  1.00  0.00    -0.051 Br
ENDBRANCH  89  98
ENDBRANCH  86  87
ENDBRANCH  85  86
ENDBRANCH  83  85
ENDBRANCH  79  80
ENDBRANCH  72  74
ENDBRANCH  71  72
ENDBRANCH  70  71
ENDBRANCH  69  70
ENDBRANCH  68  69
ENDBRANCH  67  68
ENDBRANCH   1  67
TORSDOF 25
