REMARK SMILES O=C(OCCOCCOCCOCCOC(=O)c1ccc(-c2c3nc(c(-c4c(F)cccc4F)c4ccc([nH]4)c(-c4c(F)cccc4F)c4nc(c(-c5c(F)cccc5F)c5ccc2[nH]5)C=C4)C=C3)cc1)C1=Cc2c(ccc(Cl)c2Cl)O[C@H]1C(F)(F)F
REMARK SMILES IDX 10 1 9 2 8 3 7 4 6 5 5 6 4 7 3 8 2 9 1 10 72 11 73 12 83 13
REMARK SMILES IDX 74 14 82 15 75 16 80 17 76 18 78 19 81 20 77 21 79 22 84 23
REMARK SMILES IDX 85 24 86 25 87 26 11 27 12 28 13 29 14 30 15 31 16 32 17 33
REMARK SMILES IDX 18 34 19 35 71 36 20 37 70 38 21 39 22 40 23 41 64 42 24 43
REMARK SMILES IDX 69 44 63 45 65 46 25 47 68 48 62 49 61 50 26 52 52 53 35 54
REMARK SMILES IDX 51 55 36 56 39 57 50 58 66 59 37 60 38 61 49 63 67 64 40 65
REMARK SMILES IDX 27 66 28 67 33 68 29 69 30 70 32 71 34 72 31 73 53 74 54 75
REMARK SMILES IDX 59 76 55 77 56 78 58 79 60 80 57 81 41 82 42 83 47 84 43 85
REMARK SMILES IDX 44 86 46 87 48 88 45 89
REMARK H PARENT 65 51 39 62
REMARK Flexibility Score: inf
ROOT
ATOM      1  C   UNL     1       2.837   2.969  -2.994  1.00  0.00     0.188 C 
ENDROOT
BRANCH   1   2
ATOM      2  O   UNL     1       1.671   3.553  -2.423  1.00  0.00    -0.377 OA
BRANCH   2   3
ATOM      3  C   UNL     1       0.632   2.681  -2.003  1.00  0.00     0.188 C 
BRANCH   3   4
ATOM      4  C   UNL     1       0.925   1.885  -0.726  1.00  0.00     0.188 C 
BRANCH   4   5
ATOM      5  O   UNL     1       2.196   1.249  -0.740  1.00  0.00    -0.376 OA
BRANCH   5   6
ATOM      6  C   UNL     1       2.284   0.117  -1.596  1.00  0.00     0.202 C 
BRANCH   6   7
ATOM      7  C   UNL     1       2.168  -1.200  -0.847  1.00  0.00     0.261 C 
BRANCH   7   8
ATOM      8  O   UNL     1       1.734  -1.012   0.511  1.00  0.00    -0.460 OA
BRANCH   8   9
ATOM      9  C   UNL     1       2.504  -0.629   1.559  1.00  0.00     0.338 C 
ATOM     10  O   UNL     1       1.993  -0.510   2.669  1.00  0.00    -0.246 OA
BRANCH   9  11
ATOM     11  C   UNL     1       3.983  -0.607   1.438  1.00  0.00     0.087 C 
ATOM     12  C   UNL     1       4.734  -0.136   0.435  1.00  0.00     0.029 C 
ATOM     13  C   UNL     1       4.700  -0.779   2.762  1.00  0.00     0.316 C 
ATOM     14  C   UNL     1       6.032  -0.782   0.260  1.00  0.00     0.037 A 
ATOM     15  O   UNL     1       6.097  -1.188   2.657  1.00  0.00    -0.475 OA
ATOM     16  C   UNL     1       6.636  -1.307   1.405  1.00  0.00     0.129 A 
ATOM     17  C   UNL     1       6.600  -1.047  -1.010  1.00  0.00     0.070 A 
ATOM     18  C   UNL     1       7.817  -2.040   1.303  1.00  0.00     0.049 A 
ATOM     19  C   UNL     1       7.756  -1.836  -1.106  1.00  0.00     0.060 A 
ATOM     20  Cl  UNL     1       5.837  -0.483  -2.469  1.00  0.00    -0.082 Cl
ATOM     21  C   UNL     1       8.366  -2.320   0.051  1.00  0.00     0.026 A 
ATOM     22  Cl  UNL     1       8.454  -2.291  -2.624  1.00  0.00    -0.083 Cl
BRANCH  13  23
ATOM     23  C   UNL     1       4.580   0.554   3.568  1.00  0.00     0.430 C 
ATOM     24  F   UNL     1       3.792   1.479   2.964  1.00  0.00    -0.167 F 
ATOM     25  F   UNL     1       4.073   0.342   4.804  1.00  0.00    -0.167 F 
ATOM     26  F   UNL     1       5.787   1.153   3.731  1.00  0.00    -0.167 F 
ENDBRANCH  13  23
ENDBRANCH   9  11
ENDBRANCH   8   9
ENDBRANCH   7   8
ENDBRANCH   6   7
ENDBRANCH   5   6
ENDBRANCH   4   5
ENDBRANCH   3   4
ENDBRANCH   2   3
ENDBRANCH   1   2
BRANCH   1  27
ATOM     27  C   UNL     1       4.116   3.205  -2.159  1.00  0.00     0.188 C 
BRANCH  27  28
ATOM     28  O   UNL     1       4.477   4.511  -1.705  1.00  0.00    -0.376 OA
BRANCH  28  29
ATOM     29  C   UNL     1       3.455   5.487  -1.590  1.00  0.00     0.202 C 
BRANCH  29  30
ATOM     30  C   UNL     1       3.243   6.286  -2.890  1.00  0.00     0.261 C 
BRANCH  30  31
ATOM     31  O   UNL     1       3.537   5.557  -4.100  1.00  0.00    -0.460 OA
BRANCH  31  32
ATOM     32  C   UNL     1       4.855   5.489  -4.449  1.00  0.00     0.338 C 
ATOM     33  O   UNL     1       5.763   6.123  -3.977  1.00  0.00    -0.246 OA
BRANCH  32  34
ATOM     34  C   UNL     1       5.053   4.378  -5.434  1.00  0.00     0.060 A 
ATOM     35  C   UNL     1       6.170   3.546  -5.272  1.00  0.00     0.016 A 
ATOM     36  C   UNL     1       4.171   4.143  -6.493  1.00  0.00     0.016 A 
ATOM     37  C   UNL     1       6.426   2.505  -6.177  1.00  0.00     0.010 A 
ATOM     38  C   UNL     1       4.436   3.111  -7.409  1.00  0.00     0.010 A 
ATOM     39  C   UNL     1       5.582   2.303  -7.277  1.00  0.00    -0.014 A 
BRANCH  39  40
ATOM     40  C   UNL     1       5.993   1.407  -8.396  1.00  0.00     0.031 A 
ATOM     41  C   UNL     1       6.652   2.032  -9.600  1.00  0.00     0.074 A 
ATOM     42  C   UNL     1       5.789   0.075  -8.377  1.00  0.00     0.049 A 
ATOM     43  N   UNL     1       6.978   1.494 -10.748  1.00  0.00    -0.248 NA
ATOM     44  C   UNL     1       6.981   3.462  -9.491  1.00  0.00     0.031 C 
ATOM     45  C   UNL     1       5.223  -0.684  -7.266  1.00  0.00     0.029 A 
ATOM     46  N   UNL     1       6.023  -0.876  -9.347  1.00  0.00    -0.354 N 
ATOM     47  C   UNL     1       7.523   2.524 -11.505  1.00  0.00     0.074 A 
ATOM     48  C   UNL     1       7.481   3.719 -10.690  1.00  0.00     0.031 C 
ATOM     49  C   UNL     1       5.124  -1.977  -7.626  1.00  0.00     0.029 A 
ATOM     50  C   UNL     1       5.581  -2.134  -9.008  1.00  0.00     0.049 A 
ATOM     51  H   UNL     1       6.465  -0.674 -10.203  1.00  0.00     0.167 HD
ATOM     52  C   UNL     1       8.011   2.484 -12.768  1.00  0.00     0.037 A 
ATOM     53  C   UNL     1       5.513  -3.268  -9.739  1.00  0.00     0.037 A 
ATOM     54  C   UNL     1       8.076   1.299 -13.580  1.00  0.00     0.049 A 
ATOM     55  C   UNL     1       5.991  -3.268 -11.174  1.00  0.00     0.074 A 
ATOM     56  C   UNL     1       8.600   1.160 -14.854  1.00  0.00     0.029 A 
ATOM     57  N   UNL     1       7.592   0.057 -13.207  1.00  0.00    -0.354 N 
ATOM     58  N   UNL     1       6.536  -2.298 -11.867  1.00  0.00    -0.248 NA
ATOM     59  C   UNL     1       5.831  -4.521 -11.933  1.00  0.00     0.031 C 
ATOM     60  C   UNL     1       8.371  -0.152 -15.279  1.00  0.00     0.029 A 
ATOM     61  C   UNL     1       7.761  -0.844 -14.246  1.00  0.00     0.049 A 
ATOM     62  H   UNL     1       7.188  -0.155 -12.335  1.00  0.00     0.167 HD
ATOM     63  C   UNL     1       6.803  -2.828 -13.126  1.00  0.00     0.074 A 
ATOM     64  C   UNL     1       6.378  -4.210 -13.099  1.00  0.00     0.031 C 
ATOM     65  C   UNL     1       7.346  -2.221 -14.210  1.00  0.00     0.037 A 
BRANCH  52  66
ATOM     66  C   UNL     1       8.476   3.772 -13.379  1.00  0.00     0.057 A 
ATOM     67  C   UNL     1       9.673   4.390 -12.998  1.00  0.00     0.134 A 
ATOM     68  C   UNL     1       7.741   4.364 -14.414  1.00  0.00     0.134 A 
ATOM     69  F   UNL     1      10.416   3.879 -12.005  1.00  0.00    -0.206 F 
ATOM     70  C   UNL     1      10.116   5.560 -13.618  1.00  0.00     0.040 A 
ATOM     71  C   UNL     1       8.186   5.518 -15.059  1.00  0.00     0.040 A 
ATOM     72  F   UNL     1       6.587   3.818 -14.829  1.00  0.00    -0.206 F 
ATOM     73  C   UNL     1       9.377   6.121 -14.658  1.00  0.00     0.006 A 
ENDBRANCH  52  66
BRANCH  53  74
ATOM     74  C   UNL     1       4.907  -4.503  -9.167  1.00  0.00     0.057 A 
ATOM     75  C   UNL     1       5.661  -5.668  -8.974  1.00  0.00     0.134 A 
ATOM     76  C   UNL     1       3.539  -4.572  -8.874  1.00  0.00     0.134 A 
ATOM     77  F   UNL     1       6.969  -5.681  -9.270  1.00  0.00    -0.206 F 
ATOM     78  C   UNL     1       5.074  -6.859  -8.539  1.00  0.00     0.040 A 
ATOM     79  C   UNL     1       2.945  -5.747  -8.409  1.00  0.00     0.040 A 
ATOM     80  F   UNL     1       2.754  -3.498  -9.044  1.00  0.00    -0.206 F 
ATOM     81  C   UNL     1       3.712  -6.899  -8.252  1.00  0.00     0.006 A 
ENDBRANCH  53  74
BRANCH  65  82
ATOM     82  C   UNL     1       7.542  -3.042 -15.453  1.00  0.00     0.057 A 
ATOM     83  C   UNL     1       6.464  -3.431 -16.259  1.00  0.00     0.134 A 
ATOM     84  C   UNL     1       8.829  -3.380 -15.891  1.00  0.00     0.134 A 
ATOM     85  F   UNL     1       5.205  -3.148 -15.893  1.00  0.00    -0.206 F 
ATOM     86  C   UNL     1       6.659  -4.139 -17.447  1.00  0.00     0.040 A 
ATOM     87  C   UNL     1       9.039  -4.063 -17.091  1.00  0.00     0.040 A 
ATOM     88  F   UNL     1       9.907  -3.028 -15.175  1.00  0.00    -0.206 F 
ATOM     89  C   UNL     1       7.950  -4.447 -17.871  1.00  0.00     0.006 A 
ENDBRANCH  65  82
ENDBRANCH  39  40
ENDBRANCH  32  34
ENDBRANCH  31  32
ENDBRANCH  30  31
ENDBRANCH  29  30
ENDBRANCH  28  29
ENDBRANCH  27  28
ENDBRANCH   1  27
TORSDOF 21
