REMARK SMILES CCC[C@H]1CC[C@H](C(=O)OCCOCCOCCOCCOC(=O)c2ccc(-c3c4nc(c(-c5c(F)cccc5F)c5ccc([nH]5)c(-c5c(F)cccc5F)c5nc(c(-c6c(F)cccc6F)c6ccc3[nH]6)C=C5)C=C4)cc2)[C@H](Sc2ccncc2)C1
REMARK SMILES IDX 16 1 15 2 14 3 13 4 12 5 11 6 10 7 8 8 9 9 7 10 4 11 5 12
REMARK SMILES IDX 87 13 6 14 79 15 3 16 2 17 1 18 80 19 81 20 82 21 86 22
REMARK SMILES IDX 83 23 85 24 84 25 17 26 18 27 19 28 20 29 21 30 22 31 23 32
REMARK SMILES IDX 24 33 25 34 26 35 78 36 27 37 77 38 28 39 29 40 30 41 71 42
REMARK SMILES IDX 31 43 76 44 70 45 72 46 32 47 75 48 69 49 68 50 33 52 59 53
REMARK SMILES IDX 42 54 58 55 43 56 46 57 57 58 73 59 44 60 45 61 56 63 74 64
REMARK SMILES IDX 47 65 34 66 35 67 40 68 36 69 37 70 39 71 41 72 38 73 60 74
REMARK SMILES IDX 61 75 66 76 62 77 63 78 65 79 67 80 64 81 48 82 49 83 54 84
REMARK SMILES IDX 50 85 51 86 53 87 55 88 52 89
REMARK H PARENT 72 51 46 62
REMARK Flexibility Score: inf
ROOT
ATOM      1  O   UNL     1      -1.358  -2.102   1.335  1.00  0.00    -0.377 OA
ENDROOT
BRANCH   1   2
ATOM      2  C   UNL     1      -1.662  -3.490   1.429  1.00  0.00     0.188 C 
BRANCH   2   3
ATOM      3  C   UNL     1      -0.810  -4.337   2.383  1.00  0.00     0.188 C 
BRANCH   3   4
ATOM      4  O   UNL     1       0.209  -3.604   3.050  1.00  0.00    -0.376 OA
BRANCH   4   5
ATOM      5  C   UNL     1       1.511  -3.664   2.498  1.00  0.00     0.202 C 
BRANCH   5   6
ATOM      6  C   UNL     1       1.838  -2.670   1.380  1.00  0.00     0.261 C 
BRANCH   6   7
ATOM      7  O   UNL     1       1.242  -2.757   0.076  1.00  0.00    -0.463 OA
BRANCH   7   8
ATOM      8  C   UNL     1       0.778  -3.883  -0.490  1.00  0.00     0.310 C 
ATOM      9  O   UNL     1       0.705  -4.985   0.034  1.00  0.00    -0.252 OA
BRANCH   8  10
ATOM     10  C   UNL     1       0.342  -3.649  -1.913  1.00  0.00     0.112 C 
ATOM     11  C   UNL     1       0.859  -0.907  -3.070  1.00  0.00    -0.010 C 
ATOM     12  C   UNL     1      -0.179  -1.126  -1.980  1.00  0.00     0.004 C 
ATOM     13  C   UNL     1       2.001  -1.958  -2.929  1.00  0.00     0.019 C 
ATOM     14  C   UNL     1      -0.733  -2.549  -1.979  1.00  0.00     0.017 C 
ATOM     15  C   UNL     1       1.513  -3.412  -2.878  1.00  0.00     0.066 C 
BRANCH  11  16
ATOM     16  C   UNL     1       0.304  -0.713  -4.513  1.00  0.00     0.003 C 
BRANCH  16  17
ATOM     17  C   UNL     1      -1.055  -1.271  -4.976  1.00  0.00    -0.003 C 
ATOM     18  C   UNL     1      -2.310  -0.606  -4.412  1.00  0.00     0.004 C 
ENDBRANCH  16  17
ENDBRANCH  11  16
BRANCH  15  19
ATOM     19  S   UNL     1       2.912  -4.678  -2.868  1.00  0.00    -0.122 SA
BRANCH  19  20
ATOM     20  C   UNL     1       3.654  -4.691  -1.234  1.00  0.00     0.011 A 
ATOM     21  C   UNL     1       3.330  -5.698  -0.319  1.00  0.00     0.035 A 
ATOM     22  C   UNL     1       4.668  -3.803  -0.886  1.00  0.00     0.035 A 
ATOM     23  C   UNL     1       3.915  -5.687   0.940  1.00  0.00     0.112 A 
ATOM     24  C   UNL     1       5.236  -3.901   0.380  1.00  0.00     0.112 A 
ATOM     25  N   UNL     1       4.852  -4.795   1.316  1.00  0.00    -0.265 NA
ENDBRANCH  19  20
ENDBRANCH  15  19
ENDBRANCH   8  10
ENDBRANCH   7   8
ENDBRANCH   6   7
ENDBRANCH   5   6
ENDBRANCH   4   5
ENDBRANCH   3   4
ENDBRANCH   2   3
ENDBRANCH   1   2
BRANCH   1  26
ATOM     26  C   UNL     1      -1.258  -1.329   2.532  1.00  0.00     0.188 C 
BRANCH  26  27
ATOM     27  C   UNL     1      -1.879  -1.847   3.846  1.00  0.00     0.188 C 
BRANCH  27  28
ATOM     28  O   UNL     1      -2.912  -2.797   3.676  1.00  0.00    -0.376 OA
BRANCH  28  29
ATOM     29  C   UNL     1      -4.253  -2.349   3.605  1.00  0.00     0.202 C 
BRANCH  29  30
ATOM     30  C   UNL     1      -4.611  -1.237   2.607  1.00  0.00     0.261 C 
BRANCH  30  31
ATOM     31  O   UNL     1      -3.904   0.010   2.730  1.00  0.00    -0.460 OA
BRANCH  31  32
ATOM     32  C   UNL     1      -3.886   0.636   3.923  1.00  0.00     0.338 C 
ATOM     33  O   UNL     1      -4.475   0.312   4.942  1.00  0.00    -0.246 OA
BRANCH  32  34
ATOM     34  C   UNL     1      -2.853   1.691   3.852  1.00  0.00     0.060 A 
ATOM     35  C   UNL     1      -1.745   1.636   4.710  1.00  0.00     0.016 A 
ATOM     36  C   UNL     1      -2.987   2.737   2.937  1.00  0.00     0.016 A 
ATOM     37  C   UNL     1      -0.791   2.651   4.689  1.00  0.00     0.010 A 
ATOM     38  C   UNL     1      -2.050   3.771   2.938  1.00  0.00     0.010 A 
ATOM     39  C   UNL     1      -0.975   3.753   3.845  1.00  0.00    -0.014 A 
BRANCH  39  40
ATOM     40  C   UNL     1      -0.208   4.995   4.098  1.00  0.00     0.031 A 
ATOM     41  C   UNL     1      -0.861   6.059   4.938  1.00  0.00     0.074 A 
ATOM     42  C   UNL     1       1.037   5.168   3.627  1.00  0.00     0.049 A 
ATOM     43  N   UNL     1      -0.437   7.257   5.245  1.00  0.00    -0.248 NA
ATOM     44  C   UNL     1      -2.178   5.722   5.505  1.00  0.00     0.031 C 
ATOM     45  C   UNL     1       1.798   4.187   2.857  1.00  0.00     0.029 A 
ATOM     46  N   UNL     1       1.878   6.249   3.724  1.00  0.00    -0.354 N 
ATOM     47  C   UNL     1      -1.438   7.819   6.029  1.00  0.00     0.074 A 
ATOM     48  C   UNL     1      -2.503   6.846   6.123  1.00  0.00     0.031 C 
ATOM     49  C   UNL     1       2.992   4.717   2.538  1.00  0.00     0.029 A 
ATOM     50  C   UNL     1       3.061   6.086   3.048  1.00  0.00     0.049 A 
ATOM     51  H   UNL     1       1.653   7.063   4.231  1.00  0.00     0.167 HD
ATOM     52  C   UNL     1      -1.464   9.034   6.623  1.00  0.00     0.037 A 
ATOM     53  C   UNL     1       4.069   6.957   2.846  1.00  0.00     0.037 A 
ATOM     54  C   UNL     1      -0.403  10.000   6.519  1.00  0.00     0.049 A 
ATOM     55  C   UNL     1       3.979   8.340   3.439  1.00  0.00     0.074 A 
ATOM     56  C   UNL     1      -0.326  11.260   7.085  1.00  0.00     0.029 A 
ATOM     57  N   UNL     1       0.763   9.814   5.792  1.00  0.00    -0.354 N 
ATOM     58  N   UNL     1       3.035   8.863   4.186  1.00  0.00    -0.248 NA
ATOM     59  C   UNL     1       5.096   9.255   3.162  1.00  0.00     0.031 C 
ATOM     60  C   UNL     1       0.860  11.860   6.649  1.00  0.00     0.029 A 
ATOM     61  C   UNL     1       1.554  10.947   5.870  1.00  0.00     0.049 A 
ATOM     62  H   UNL     1       0.994   8.996   5.294  1.00  0.00     0.167 HD
ATOM     63  C   UNL     1       3.461  10.150   4.498  1.00  0.00     0.074 A 
ATOM     64  C   UNL     1       4.753  10.324   3.866  1.00  0.00     0.031 C 
ATOM     65  C   UNL     1       2.843  11.100   5.243  1.00  0.00     0.037 A 
BRANCH  52  66
ATOM     66  C   UNL     1      -2.697   9.395   7.401  1.00  0.00     0.057 A 
ATOM     67  C   UNL     1      -3.028   8.766   8.608  1.00  0.00     0.134 A 
ATOM     68  C   UNL     1      -3.563  10.393   6.936  1.00  0.00     0.134 A 
ATOM     69  F   UNL     1      -2.252   7.788   9.101  1.00  0.00    -0.206 F 
ATOM     70  C   UNL     1      -4.190   9.095   9.309  1.00  0.00     0.040 A 
ATOM     71  C   UNL     1      -4.711  10.753   7.643  1.00  0.00     0.040 A 
ATOM     72  F   UNL     1      -3.307  11.037   5.787  1.00  0.00    -0.206 F 
ATOM     73  C   UNL     1      -5.032  10.097   8.829  1.00  0.00     0.006 A 
ENDBRANCH  52  66
BRANCH  53  74
ATOM     74  C   UNL     1       5.248   6.559   2.033  1.00  0.00     0.057 A 
ATOM     75  C   UNL     1       6.516   6.423   2.610  1.00  0.00     0.134 A 
ATOM     76  C   UNL     1       5.141   6.328   0.656  1.00  0.00     0.134 A 
ATOM     77  F   UNL     1       6.689   6.654   3.920  1.00  0.00    -0.206 F 
ATOM     78  C   UNL     1       7.637   6.092   1.846  1.00  0.00     0.040 A 
ATOM     79  C   UNL     1       6.248   5.969  -0.115  1.00  0.00     0.040 A 
ATOM     80  F   UNL     1       3.955   6.442   0.040  1.00  0.00    -0.206 F 
ATOM     81  C   UNL     1       7.503   5.858   0.479  1.00  0.00     0.006 A 
ENDBRANCH  53  74
BRANCH  65  82
ATOM     82  C   UNL     1       3.575  12.394   5.462  1.00  0.00     0.057 A 
ATOM     83  C   UNL     1       3.766  13.327   4.436  1.00  0.00     0.134 A 
ATOM     84  C   UNL     1       4.055  12.729   6.736  1.00  0.00     0.134 A 
ATOM     85  F   UNL     1       3.340  13.066   3.191  1.00  0.00    -0.206 F 
ATOM     86  C   UNL     1       4.432  14.534   4.662  1.00  0.00     0.040 A 
ATOM     87  C   UNL     1       4.693  13.946   6.981  1.00  0.00     0.040 A 
ATOM     88  F   UNL     1       3.895  11.887   7.768  1.00  0.00    -0.206 F 
ATOM     89  C   UNL     1       4.890  14.849   5.940  1.00  0.00     0.006 A 
ENDBRANCH  65  82
ENDBRANCH  39  40
ENDBRANCH  32  34
ENDBRANCH  31  32
ENDBRANCH  30  31
ENDBRANCH  29  30
ENDBRANCH  28  29
ENDBRANCH  27  28
ENDBRANCH  26  27
ENDBRANCH   1  26
TORSDOF 24
