REMARK SMILES C[C@@H](C(=O)OCCOCCOCCOCCOC(=O)c1ccc(-c2c3nc(c(-c4c(F)cccc4F)c4ccc([nH]4)c(-c4c(F)cccc4F)c4nc(c(-c5c(F)cccc5F)c5ccc2[nH]5)C=C4)C=C3)cc1)c1ccc(C[C@H]2CCCC2=O)c(Br)c1
REMARK SMILES IDX 10 1 9 2 8 3 7 4 6 5 5 6 3 7 4 8 2 9 1 10 74 11 75 12 87 13
REMARK SMILES IDX 76 14 85 15 77 16 86 17 78 18 79 19 80 20 83 21 81 22 82 23
REMARK SMILES IDX 84 24 11 25 12 26 13 27 14 28 15 29 16 30 17 31 18 32 19 33
REMARK SMILES IDX 20 34 21 35 73 36 22 37 72 38 23 39 24 40 25 41 66 42 26 43
REMARK SMILES IDX 71 44 65 45 67 46 27 47 70 48 64 49 63 50 28 52 54 53 37 54
REMARK SMILES IDX 53 55 38 56 41 57 52 58 68 59 39 60 40 61 51 63 69 64 42 65
REMARK SMILES IDX 29 66 30 67 35 68 31 69 32 70 34 71 36 72 33 73 55 74 56 75
REMARK SMILES IDX 61 76 57 77 58 78 60 79 62 80 59 81 43 82 44 83 49 84 45 85
REMARK SMILES IDX 46 86 48 87 50 88 47 89
REMARK H PARENT 67 51 41 62
REMARK Flexibility Score: inf
ROOT
ATOM      1  C   UNL     1       0.863  -1.543   2.208  1.00  0.00     0.188 C 
ENDROOT
BRANCH   1   2
ATOM      2  C   UNL     1       0.221  -2.933   2.087  1.00  0.00     0.188 C 
BRANCH   2   3
ATOM      3  O   UNL     1       0.990  -4.016   2.563  1.00  0.00    -0.376 OA
BRANCH   3   4
ATOM      4  C   UNL     1       2.015  -4.593   1.767  1.00  0.00     0.202 C 
BRANCH   4   5
ATOM      5  C   UNL     1       2.542  -4.044   0.422  1.00  0.00     0.261 C 
BRANCH   5   6
ATOM      6  O   UNL     1       1.966  -2.825  -0.053  1.00  0.00    -0.463 OA
BRANCH   6   7
ATOM      7  C   UNL     1       1.315  -2.838  -1.241  1.00  0.00     0.313 C 
ATOM      8  O   UNL     1       1.201  -3.831  -1.951  1.00  0.00    -0.252 OA
BRANCH   7   9
ATOM      9  C   UNL     1       0.638  -1.495  -1.556  1.00  0.00     0.126 C 
ATOM     10  C   UNL     1       1.500  -0.289  -1.126  1.00  0.00     0.025 C 
BRANCH   9  11
ATOM     11  C   UNL     1      -0.843  -1.425  -1.149  1.00  0.00    -0.033 A 
ATOM     12  C   UNL     1      -1.517  -0.202  -1.039  1.00  0.00     0.005 A 
ATOM     13  C   UNL     1      -1.612  -2.588  -0.966  1.00  0.00     0.020 A 
ATOM     14  C   UNL     1      -2.894  -0.150  -0.765  1.00  0.00     0.005 A 
ATOM     15  C   UNL     1      -2.982  -2.540  -0.652  1.00  0.00     0.021 A 
ATOM     16  C   UNL     1      -3.655  -1.315  -0.565  1.00  0.00    -0.033 A 
ATOM     17  Br  UNL     1      -3.842  -4.216  -0.385  1.00  0.00    -0.051 Br
BRANCH  16  18
ATOM     18  C   UNL     1      -5.156  -1.192  -0.383  1.00  0.00     0.048 C 
BRANCH  18  19
ATOM     19  C   UNL     1      -5.702  -0.657   0.945  1.00  0.00     0.060 C 
ATOM     20  C   UNL     1      -5.242  -1.356   2.225  1.00  0.00     0.012 C 
ATOM     21  C   UNL     1      -5.304   0.776   1.199  1.00  0.00     0.136 C 
ATOM     22  C   UNL     1      -4.117  -0.503   2.796  1.00  0.00     0.009 C 
ATOM     23  C   UNL     1      -4.460   0.935   2.433  1.00  0.00     0.076 C 
ATOM     24  O   UNL     1      -5.639   1.713   0.483  1.00  0.00    -0.299 OA
ENDBRANCH  18  19
ENDBRANCH  16  18
ENDBRANCH   9  11
ENDBRANCH   7   9
ENDBRANCH   6   7
ENDBRANCH   5   6
ENDBRANCH   4   5
ENDBRANCH   3   4
ENDBRANCH   2   3
ENDBRANCH   1   2
BRANCH   1  25
ATOM     25  O   UNL     1       2.280  -1.535   2.243  1.00  0.00    -0.377 OA
BRANCH  25  26
ATOM     26  C   UNL     1       2.935  -1.830   3.472  1.00  0.00     0.188 C 
BRANCH  26  27
ATOM     27  C   UNL     1       2.171  -2.411   4.683  1.00  0.00     0.188 C 
BRANCH  27  28
ATOM     28  O   UNL     1       0.849  -1.924   4.851  1.00  0.00    -0.376 OA
BRANCH  28  29
ATOM     29  C   UNL     1       0.623  -0.882   5.787  1.00  0.00     0.202 C 
BRANCH  29  30
ATOM     30  C   UNL     1       1.286   0.475   5.505  1.00  0.00     0.261 C 
BRANCH  30  31
ATOM     31  O   UNL     1       2.720   0.474   5.418  1.00  0.00    -0.460 OA
BRANCH  31  32
ATOM     32  C   UNL     1       3.416   0.041   6.489  1.00  0.00     0.338 C 
ATOM     33  O   UNL     1       2.970  -0.302   7.571  1.00  0.00    -0.246 OA
BRANCH  32  34
ATOM     34  C   UNL     1       4.821  -0.138   6.070  1.00  0.00     0.060 A 
ATOM     35  C   UNL     1       5.400  -1.411   6.161  1.00  0.00     0.016 A 
ATOM     36  C   UNL     1       5.562   0.943   5.589  1.00  0.00     0.016 A 
ATOM     37  C   UNL     1       6.737  -1.598   5.809  1.00  0.00     0.010 A 
ATOM     38  C   UNL     1       6.908   0.760   5.259  1.00  0.00     0.010 A 
ATOM     39  C   UNL     1       7.510  -0.503   5.403  1.00  0.00    -0.014 A 
BRANCH  39  40
ATOM     40  C   UNL     1       8.986  -0.632   5.334  1.00  0.00     0.031 A 
ATOM     41  C   UNL     1       9.798  -0.148   6.505  1.00  0.00     0.074 A 
ATOM     42  C   UNL     1       9.597  -1.184   4.272  1.00  0.00     0.049 A 
ATOM     43  N   UNL     1      11.097  -0.097   6.655  1.00  0.00    -0.248 NA
ATOM     44  C   UNL     1       9.038   0.351   7.662  1.00  0.00     0.031 C 
ATOM     45  C   UNL     1       8.923  -1.732   3.098  1.00  0.00     0.029 A 
ATOM     46  N   UNL     1      10.933  -1.363   4.010  1.00  0.00    -0.354 N 
ATOM     47  C   UNL     1      11.307   0.443   7.917  1.00  0.00     0.074 A 
ATOM     48  C   UNL     1      10.007   0.738   8.476  1.00  0.00     0.031 C 
ATOM     49  C   UNL     1       9.851  -2.172   2.230  1.00  0.00     0.029 A 
ATOM     50  C   UNL     1      11.183  -1.904   2.772  1.00  0.00     0.049 A 
ATOM     51  H   UNL     1      11.644  -1.126   4.648  1.00  0.00     0.167 HD
ATOM     52  C   UNL     1      12.479   0.665   8.559  1.00  0.00     0.037 A 
ATOM     53  C   UNL     1      12.352  -2.128   2.142  1.00  0.00     0.037 A 
ATOM     54  C   UNL     1      13.773   0.380   7.996  1.00  0.00     0.049 A 
ATOM     55  C   UNL     1      13.646  -1.793   2.840  1.00  0.00     0.074 A 
ATOM     56  C   UNL     1      15.020   0.561   8.568  1.00  0.00     0.029 A 
ATOM     57  N   UNL     1      13.985  -0.138   6.727  1.00  0.00    -0.354 N 
ATOM     58  N   UNL     1      13.838  -1.300   4.040  1.00  0.00    -0.248 NA
ATOM     59  C   UNL     1      14.888  -2.048   2.094  1.00  0.00     0.031 C 
ATOM     60  C   UNL     1      15.988   0.210   7.622  1.00  0.00     0.029 A 
ATOM     61  C   UNL     1      15.344  -0.255   6.487  1.00  0.00     0.049 A 
ATOM     62  H   UNL     1      13.275  -0.386   6.092  1.00  0.00     0.167 HD
ATOM     63  C   UNL     1      15.217  -1.218   4.205  1.00  0.00     0.074 A 
ATOM     64  C   UNL     1      15.813  -1.723   2.987  1.00  0.00     0.031 C 
ATOM     65  C   UNL     1      15.925  -0.767   5.271  1.00  0.00     0.037 A 
BRANCH  52  66
ATOM     66  C   UNL     1      12.411   1.277   9.928  1.00  0.00     0.057 A 
ATOM     67  C   UNL     1      11.911   0.574  11.033  1.00  0.00     0.134 A 
ATOM     68  C   UNL     1      12.870   2.582  10.149  1.00  0.00     0.134 A 
ATOM     69  F   UNL     1      11.440  -0.674  10.889  1.00  0.00    -0.206 F 
ATOM     70  C   UNL     1      11.843   1.157  12.300  1.00  0.00     0.040 A 
ATOM     71  C   UNL     1      12.836   3.164  11.417  1.00  0.00     0.040 A 
ATOM     72  F   UNL     1      13.364   3.311   9.137  1.00  0.00    -0.206 F 
ATOM     73  C   UNL     1      12.313   2.454  12.496  1.00  0.00     0.006 A 
ENDBRANCH  52  66
BRANCH  53  74
ATOM     74  C   UNL     1      12.361  -2.681   0.762  1.00  0.00     0.057 A 
ATOM     75  C   UNL     1      12.864  -3.958   0.491  1.00  0.00     0.134 A 
ATOM     76  C   UNL     1      11.890  -1.932  -0.324  1.00  0.00     0.134 A 
ATOM     77  F   UNL     1      13.354  -4.715   1.483  1.00  0.00    -0.206 F 
ATOM     78  C   UNL     1      12.917  -4.464  -0.810  1.00  0.00     0.040 A 
ATOM     79  C   UNL     1      11.909  -2.436  -1.625  1.00  0.00     0.040 A 
ATOM     80  F   UNL     1      11.395  -0.700  -0.134  1.00  0.00    -0.206 F 
ATOM     81  C   UNL     1      12.432  -3.703  -1.872  1.00  0.00     0.006 A 
ENDBRANCH  53  74
BRANCH  65  82
ATOM     82  C   UNL     1      17.424  -0.841   5.189  1.00  0.00     0.057 A 
ATOM     83  C   UNL     1      18.168  -0.008   4.344  1.00  0.00     0.134 A 
ATOM     84  C   UNL     1      18.137  -1.731   6.006  1.00  0.00     0.134 A 
ATOM     85  F   UNL     1      17.549   0.860   3.529  1.00  0.00    -0.206 F 
ATOM     86  C   UNL     1      19.562  -0.074   4.294  1.00  0.00     0.040 A 
ATOM     87  C   UNL     1      19.531  -1.784   5.988  1.00  0.00     0.040 A 
ATOM     88  F   UNL     1      17.490  -2.550   6.849  1.00  0.00    -0.206 F 
ATOM     89  C   UNL     1      20.248  -0.959   5.124  1.00  0.00     0.006 A 
ENDBRANCH  65  82
ENDBRANCH  39  40
ENDBRANCH  32  34
ENDBRANCH  31  32
ENDBRANCH  30  31
ENDBRANCH  29  30
ENDBRANCH  28  29
ENDBRANCH  27  28
ENDBRANCH  26  27
ENDBRANCH  25  26
ENDBRANCH   1  25
TORSDOF 23
