REMARK SMILES O=C(OCCOCCOCCOCCOC(=O)c1ccc([C@@H]2CC(O)=Nc3c2ncn3-c2cccc(Cl)c2)cc1)c1ccc(-c2c3nc(c(-c4c(F)cccc4F)c4ccc([nH]4)c(-c4c(F)cccc4F)c4nc(c(-c5c(F)cccc5F)c5ccc2[nH]5)C=C4)C=C3)cc1
REMARK SMILES IDX 9 1 8 2 7 3 6 4 5 5 4 6 3 7 2 8 1 9 41 10 42 11 94 12 43 13
REMARK SMILES IDX 93 14 44 15 45 16 46 17 87 18 47 19 92 20 86 21 88 22 48 23
REMARK SMILES IDX 91 24 85 25 84 26 49 28 75 29 58 30 74 31 59 32 62 33 73 34
REMARK SMILES IDX 89 35 60 36 61 37 72 39 90 40 63 41 50 42 51 43 56 44 52 45
REMARK SMILES IDX 53 46 55 47 57 48 54 49 76 50 77 51 82 52 78 53 79 54 81 55
REMARK SMILES IDX 83 56 80 57 64 58 65 59 70 60 66 61 67 62 69 63 71 64 68 65
REMARK SMILES IDX 10 66 11 67 12 68 13 69 14 70 15 71 16 72 17 73 18 74 19 75
REMARK SMILES IDX 40 76 20 77 39 78 21 79 22 80 23 81 28 82 24 83 27 84 29 85
REMARK SMILES IDX 26 86 31 87 30 88 25 89 32 91 33 92 38 93 34 94 36 95 35 96
REMARK SMILES IDX 37 97
REMARK H PARENT 88 27 62 38 25 90
REMARK Flexibility Score: inf
ROOT
ATOM      1  O   UNL     1       2.620  -3.197   0.609  1.00  0.00    -0.377 OA
ENDROOT
BRANCH   1   2
ATOM      2  C   UNL     1       2.171  -1.919   0.197  1.00  0.00     0.188 C 
BRANCH   2   3
ATOM      3  C   UNL     1       2.865  -1.301  -1.031  1.00  0.00     0.188 C 
BRANCH   3   4
ATOM      4  O   UNL     1       4.125  -0.641  -1.054  1.00  0.00    -0.376 OA
BRANCH   4   5
ATOM      5  C   UNL     1       4.892  -0.188   0.037  1.00  0.00     0.202 C 
BRANCH   5   6
ATOM      6  C   UNL     1       4.372   0.853   1.026  1.00  0.00     0.261 C 
BRANCH   6   7
ATOM      7  O   UNL     1       2.991   0.775   1.359  1.00  0.00    -0.460 OA
BRANCH   7   8
ATOM      8  C   UNL     1       1.907   1.221   0.696  1.00  0.00     0.338 C 
ATOM      9  O   UNL     1       0.800   0.977   1.177  1.00  0.00    -0.246 OA
BRANCH   8  10
ATOM     10  C   UNL     1       1.940   1.946  -0.603  1.00  0.00     0.060 A 
ATOM     11  C   UNL     1       3.053   2.553  -1.180  1.00  0.00     0.016 A 
ATOM     12  C   UNL     1       0.692   2.071  -1.250  1.00  0.00     0.016 A 
ATOM     13  C   UNL     1       2.895   3.408  -2.255  1.00  0.00     0.010 A 
ATOM     14  C   UNL     1       0.530   2.905  -2.344  1.00  0.00     0.010 A 
ATOM     15  C   UNL     1       1.624   3.633  -2.783  1.00  0.00    -0.014 A 
BRANCH  15  16
ATOM     16  C   UNL     1       1.517   4.666  -3.794  1.00  0.00     0.031 A 
ATOM     17  C   UNL     1       2.288   4.417  -5.033  1.00  0.00     0.074 A 
ATOM     18  C   UNL     1       0.810   5.794  -3.603  1.00  0.00     0.049 A 
ATOM     19  N   UNL     1       3.346   5.038  -5.438  1.00  0.00    -0.248 NA
ATOM     20  C   UNL     1       1.908   3.264  -5.859  1.00  0.00     0.031 C 
ATOM     21  C   UNL     1      -0.178   6.091  -2.564  1.00  0.00     0.029 A 
ATOM     22  N   UNL     1       0.793   6.913  -4.376  1.00  0.00    -0.354 N 
ATOM     23  C   UNL     1       3.668   4.479  -6.669  1.00  0.00     0.074 A 
ATOM     24  C   UNL     1       2.836   3.312  -6.816  1.00  0.00     0.031 C 
ATOM     25  C   UNL     1      -0.853   7.213  -2.904  1.00  0.00     0.029 A 
ATOM     26  C   UNL     1      -0.247   7.785  -4.095  1.00  0.00     0.049 A 
ATOM     27  H   UNL     1       1.462   7.089  -5.077  1.00  0.00     0.167 HD
ATOM     28  C   UNL     1       4.446   5.146  -7.564  1.00  0.00     0.037 A 
ATOM     29  C   UNL     1      -0.611   8.862  -4.832  1.00  0.00     0.037 A 
ATOM     30  C   UNL     1       5.218   6.182  -6.926  1.00  0.00     0.049 A 
ATOM     31  C   UNL     1       0.548   9.252  -5.672  1.00  0.00     0.074 A 
ATOM     32  C   UNL     1       6.161   6.207  -5.915  1.00  0.00     0.029 A 
ATOM     33  N   UNL     1       4.815   7.484  -7.084  1.00  0.00    -0.354 N 
ATOM     34  N   UNL     1       1.634   9.801  -5.207  1.00  0.00    -0.248 NA
ATOM     35  C   UNL     1       0.676   8.634  -6.984  1.00  0.00     0.031 C 
ATOM     36  C   UNL     1       5.900   7.410  -5.196  1.00  0.00     0.029 A 
ATOM     37  C   UNL     1       4.855   8.068  -5.844  1.00  0.00     0.049 A 
ATOM     38  H   UNL     1       4.548   7.917  -7.927  1.00  0.00     0.167 HD
ATOM     39  C   UNL     1       2.661   9.219  -5.934  1.00  0.00     0.074 A 
ATOM     40  C   UNL     1       2.008   8.588  -7.078  1.00  0.00     0.031 C 
ATOM     41  C   UNL     1       3.906   9.059  -5.397  1.00  0.00     0.037 A 
BRANCH  28  42
ATOM     42  C   UNL     1       4.224   5.111  -9.055  1.00  0.00     0.057 A 
ATOM     43  C   UNL     1       5.154   5.736  -9.905  1.00  0.00     0.134 A 
ATOM     44  C   UNL     1       2.998   4.766  -9.658  1.00  0.00     0.134 A 
ATOM     45  F   UNL     1       6.354   6.124  -9.447  1.00  0.00    -0.206 F 
ATOM     46  C   UNL     1       4.851   6.072 -11.230  1.00  0.00     0.040 A 
ATOM     47  C   UNL     1       2.704   5.051 -10.994  1.00  0.00     0.040 A 
ATOM     48  F   UNL     1       1.982   4.235  -8.968  1.00  0.00    -0.206 F 
ATOM     49  C   UNL     1       3.619   5.738 -11.775  1.00  0.00     0.006 A 
ENDBRANCH  28  42
BRANCH  29  50
ATOM     50  C   UNL     1      -1.970   9.393  -5.070  1.00  0.00     0.057 A 
ATOM     51  C   UNL     1      -2.163  10.673  -5.605  1.00  0.00     0.134 A 
ATOM     52  C   UNL     1      -3.098   8.554  -5.046  1.00  0.00     0.134 A 
ATOM     53  F   UNL     1      -1.138  11.532  -5.706  1.00  0.00    -0.206 F 
ATOM     54  C   UNL     1      -3.400  11.086  -6.117  1.00  0.00     0.040 A 
ATOM     55  C   UNL     1      -4.340   8.957  -5.545  1.00  0.00     0.040 A 
ATOM     56  F   UNL     1      -3.012   7.285  -4.624  1.00  0.00    -0.206 F 
ATOM     57  C   UNL     1      -4.490  10.221  -6.099  1.00  0.00     0.006 A 
ENDBRANCH  29  50
BRANCH  41  58
ATOM     58  C   UNL     1       4.219   9.776  -4.114  1.00  0.00     0.057 A 
ATOM     59  C   UNL     1       3.531   9.573  -2.907  1.00  0.00     0.134 A 
ATOM     60  C   UNL     1       5.342  10.611  -4.068  1.00  0.00     0.134 A 
ATOM     61  F   UNL     1       2.512   8.707  -2.823  1.00  0.00    -0.206 F 
ATOM     62  C   UNL     1       3.911  10.220  -1.726  1.00  0.00     0.040 A 
ATOM     63  C   UNL     1       5.753  11.232  -2.887  1.00  0.00     0.040 A 
ATOM     64  F   UNL     1       6.086  10.805  -5.169  1.00  0.00    -0.206 F 
ATOM     65  C   UNL     1       5.028  11.050  -1.714  1.00  0.00     0.006 A 
ENDBRANCH  41  58
ENDBRANCH  15  16
ENDBRANCH   8  10
ENDBRANCH   7   8
ENDBRANCH   6   7
ENDBRANCH   5   6
ENDBRANCH   4   5
ENDBRANCH   3   4
ENDBRANCH   2   3
ENDBRANCH   1   2
BRANCH   1  66
ATOM     66  C   UNL     1       3.936  -3.211   1.112  1.00  0.00     0.188 C 
BRANCH  66  67
ATOM     67  C   UNL     1       4.973  -3.729   0.098  1.00  0.00     0.188 C 
BRANCH  67  68
ATOM     68  O   UNL     1       4.582  -4.245  -1.165  1.00  0.00    -0.376 OA
BRANCH  68  69
ATOM     69  C   UNL     1       3.381  -4.986  -1.309  1.00  0.00     0.202 C 
BRANCH  69  70
ATOM     70  C   UNL     1       3.058  -6.181  -0.395  1.00  0.00     0.261 C 
BRANCH  70  71
ATOM     71  O   UNL     1       3.435  -6.065   0.982  1.00  0.00    -0.460 OA
BRANCH  71  72
ATOM     72  C   UNL     1       4.579  -6.686   1.335  1.00  0.00     0.338 C 
ATOM     73  O   UNL     1       5.326  -7.344   0.613  1.00  0.00    -0.246 OA
BRANCH  72  74
ATOM     74  C   UNL     1       4.927  -6.311   2.716  1.00  0.00     0.060 A 
ATOM     75  C   UNL     1       6.110  -5.596   2.934  1.00  0.00     0.016 A 
ATOM     76  C   UNL     1       4.106  -6.659   3.787  1.00  0.00     0.016 A 
ATOM     77  C   UNL     1       6.467  -5.216   4.222  1.00  0.00     0.005 A 
ATOM     78  C   UNL     1       4.503  -6.334   5.089  1.00  0.00     0.005 A 
ATOM     79  C   UNL     1       5.691  -5.613   5.323  1.00  0.00    -0.038 A 
BRANCH  79  80
ATOM     80  C   UNL     1       6.294  -5.401   6.702  1.00  0.00     0.081 C 
ATOM     81  C   UNL     1       7.005  -6.694   7.157  1.00  0.00     0.111 C 
ATOM     82  C   UNL     1       5.225  -5.011   7.646  1.00  0.00     0.093 A 
ATOM     83  C   UNL     1       6.223  -7.513   8.170  1.00  0.00     0.188 C 
ATOM     84  C   UNL     1       4.853  -5.838   8.682  1.00  0.00     0.164 A 
ATOM     85  N   UNL     1       4.477  -3.868   7.611  1.00  0.00    -0.238 NA
ATOM     86  N   UNL     1       5.266  -7.104   8.939  1.00  0.00    -0.198 NA
ATOM     87  N   UNL     1       3.832  -5.170   9.328  1.00  0.00    -0.283 N 
ATOM     88  C   UNL     1       3.619  -4.014   8.602  1.00  0.00     0.206 A 
BRANCH  83  89
ATOM     89  O   UNL     1       6.643  -8.786   8.294  1.00  0.00    -0.496 OA
ATOM     90  H   UNL     1       7.335  -9.107   7.749  1.00  0.00     0.294 HD
ENDBRANCH  83  89
BRANCH  87  91
ATOM     91  C   UNL     1       3.142  -5.579  10.492  1.00  0.00     0.050 A 
ATOM     92  C   UNL     1       1.769  -5.340  10.617  1.00  0.00     0.027 A 
ATOM     93  C   UNL     1       3.846  -6.223  11.519  1.00  0.00     0.047 A 
ATOM     94  C   UNL     1       1.095  -5.782  11.758  1.00  0.00     0.004 A 
ATOM     95  C   UNL     1       3.171  -6.614  12.672  1.00  0.00     0.043 A 
ATOM     96  C   UNL     1       1.798  -6.409  12.790  1.00  0.00     0.020 A 
ATOM     97  Cl  UNL     1       4.043  -7.335  13.969  1.00  0.00    -0.084 Cl
ENDBRANCH  87  91
ENDBRANCH  79  80
ENDBRANCH  72  74
ENDBRANCH  71  72
ENDBRANCH  70  71
ENDBRANCH  69  70
ENDBRANCH  68  69
ENDBRANCH  67  68
ENDBRANCH  66  67
ENDBRANCH   1  66
TORSDOF 23
