REMARK SMILES O=C(NC[C@@H]1CCOC1)NC[C@@H]1CC[C@H](C(=O)OCCOCCOCCOCCOC(=O)c2ccc(-c3c4nc(c(-c5c(F)cccc5F)c5ccc([nH]5)c(-c5c(F)cccc5F)c5nc(c(-c6c(F)cccc6F)c6ccc3[nH]6)C=C5)C=C4)cc2)O1
REMARK SMILES IDX 23 1 22 2 21 3 20 4 19 5 18 6 16 7 17 8 15 9 12 10 13 11
REMARK SMILES IDX 87 12 14 13 11 14 10 15 1 16 2 17 3 18 4 21 5 22 6 23 9 24
REMARK SMILES IDX 7 25 8 26 24 27 25 28 26 29 27 30 28 31 29 32 30 33 31 34
REMARK SMILES IDX 32 35 33 36 34 37 86 38 35 39 85 40 36 41 37 42 38 43 79 44
REMARK SMILES IDX 39 45 84 46 78 47 80 48 40 49 83 50 77 51 76 52 41 54 67 55
REMARK SMILES IDX 50 56 66 57 51 58 54 59 65 60 81 61 52 62 53 63 64 65 82 66
REMARK SMILES IDX 55 67 42 68 43 69 48 70 44 71 45 72 47 73 49 74 46 75 68 76
REMARK SMILES IDX 69 77 74 78 70 79 71 80 73 81 75 82 72 83 56 84 57 85 62 86
REMARK SMILES IDX 58 87 59 88 61 89 63 90 60 91
REMARK H PARENT 3 19 10 20 80 53 54 64
REMARK Flexibility Score: inf
ROOT
ATOM      1  C   UNL     1      -0.531  -5.306  -4.899  1.00  0.00     0.188 C 
ENDROOT
BRANCH   1   2
ATOM      2  C   UNL     1      -0.403  -6.733  -4.354  1.00  0.00     0.188 C 
BRANCH   2   3
ATOM      3  O   UNL     1      -1.366  -7.244  -3.452  1.00  0.00    -0.376 OA
BRANCH   3   4
ATOM      4  C   UNL     1      -1.639  -6.600  -2.214  1.00  0.00     0.202 C 
BRANCH   4   5
ATOM      5  C   UNL     1      -0.574  -5.865  -1.380  1.00  0.00     0.261 C 
BRANCH   5   6
ATOM      6  O   UNL     1       0.249  -4.919  -2.085  1.00  0.00    -0.461 OA
BRANCH   6   7
ATOM      7  C   UNL     1       1.560  -5.237  -2.182  1.00  0.00     0.335 C 
ATOM      8  O   UNL     1       2.058  -6.236  -1.667  1.00  0.00    -0.249 OA
BRANCH   7   9
ATOM      9  C   UNL     1       2.403  -4.255  -3.010  1.00  0.00     0.228 C 
ATOM     10  C   UNL     1       2.956  -2.355  -1.788  1.00  0.00     0.138 C 
ATOM     11  C   UNL     1       1.807  -1.971  -2.702  1.00  0.00     0.037 C 
ATOM     12  O   UNL     1       3.377  -3.689  -2.121  1.00  0.00    -0.361 OA
ATOM     13  C   UNL     1       1.825  -3.055  -3.737  1.00  0.00     0.047 C 
BRANCH  10  14
ATOM     14  C   UNL     1       2.574  -2.277  -0.307  1.00  0.00     0.149 C 
BRANCH  14  15
ATOM     15  N   UNL     1       3.062  -1.038   0.250  1.00  0.00    -0.336 N 
ATOM     16  O   UNL     1       1.161   0.170  -0.085  1.00  0.00    -0.249 OA
ATOM     17  C   UNL     1       2.348   0.112   0.219  1.00  0.00     0.314 C 
ATOM     18  N   UNL     1       3.026   1.248   0.509  1.00  0.00    -0.338 N 
ATOM     19  H   UNL     1       2.466   2.052   0.610  1.00  0.00     0.165 HD
ATOM     20  H   UNL     1       3.952  -1.029   0.671  1.00  0.00     0.165 HD
BRANCH  18  21
ATOM     21  C   UNL     1       4.451   1.465   0.697  1.00  0.00     0.123 C 
BRANCH  21  22
ATOM     22  C   UNL     1       5.020   2.411  -0.370  1.00  0.00     0.036 C 
ATOM     23  C   UNL     1       6.537   2.436  -0.329  1.00  0.00     0.036 C 
ATOM     24  C   UNL     1       4.713   3.863  -0.042  1.00  0.00     0.165 C 
ATOM     25  C   UNL     1       6.820   3.371   0.828  1.00  0.00     0.160 C 
ATOM     26  O   UNL     1       5.718   4.288   0.893  1.00  0.00    -0.381 OA
ENDBRANCH  21  22
ENDBRANCH  18  21
ENDBRANCH  14  15
ENDBRANCH  10  14
ENDBRANCH   7   9
ENDBRANCH   6   7
ENDBRANCH   5   6
ENDBRANCH   4   5
ENDBRANCH   3   4
ENDBRANCH   2   3
ENDBRANCH   1   2
BRANCH   1  27
ATOM     27  O   UNL     1      -1.262  -4.407  -4.089  1.00  0.00    -0.377 OA
BRANCH  27  28
ATOM     28  C   UNL     1      -2.661  -4.262  -4.302  1.00  0.00     0.188 C 
BRANCH  28  29
ATOM     29  C   UNL     1      -3.429  -5.357  -5.065  1.00  0.00     0.188 C 
BRANCH  29  30
ATOM     30  O   UNL     1      -2.796  -5.798  -6.255  1.00  0.00    -0.376 OA
BRANCH  30  31
ATOM     31  C   UNL     1      -3.107  -5.155  -7.483  1.00  0.00     0.202 C 
BRANCH  31  32
ATOM     32  C   UNL     1      -2.856  -3.642  -7.601  1.00  0.00     0.261 C 
BRANCH  32  33
ATOM     33  O   UNL     1      -3.616  -2.793  -6.722  1.00  0.00    -0.460 OA
BRANCH  33  34
ATOM     34  C   UNL     1      -4.960  -2.914  -6.729  1.00  0.00     0.338 C 
ATOM     35  O   UNL     1      -5.633  -3.597  -7.472  1.00  0.00    -0.246 OA
BRANCH  34  36
ATOM     36  C   UNL     1      -5.488  -2.221  -5.533  1.00  0.00     0.060 A 
ATOM     37  C   UNL     1      -6.237  -2.963  -4.611  1.00  0.00     0.016 A 
ATOM     38  C   UNL     1      -5.278  -0.854  -5.336  1.00  0.00     0.016 A 
ATOM     39  C   UNL     1      -6.823  -2.329  -3.517  1.00  0.00     0.010 A 
ATOM     40  C   UNL     1      -5.884  -0.216  -4.247  1.00  0.00     0.010 A 
ATOM     41  C   UNL     1      -6.693  -0.944  -3.357  1.00  0.00    -0.014 A 
BRANCH  41  42
ATOM     42  C   UNL     1      -7.556  -0.252  -2.367  1.00  0.00     0.031 A 
ATOM     43  C   UNL     1      -8.813   0.424  -2.849  1.00  0.00     0.074 A 
ATOM     44  C   UNL     1      -7.272  -0.285  -1.053  1.00  0.00     0.049 A 
ATOM     45  N   UNL     1      -9.730   1.060  -2.166  1.00  0.00    -0.248 NA
ATOM     46  C   UNL     1      -9.070   0.372  -4.297  1.00  0.00     0.031 C 
ATOM     47  C   UNL     1      -6.111  -0.941  -0.455  1.00  0.00     0.029 A 
ATOM     48  N   UNL     1      -7.949   0.244   0.018  1.00  0.00    -0.354 N 
ATOM     49  C   UNL     1     -10.671   1.482  -3.098  1.00  0.00     0.074 A 
ATOM     50  C   UNL     1     -10.195   1.064  -4.398  1.00  0.00     0.031 C 
ATOM     51  C   UNL     1      -6.155  -0.773   0.878  1.00  0.00     0.029 A 
ATOM     52  C   UNL     1      -7.331   0.025   1.224  1.00  0.00     0.049 A 
ATOM     53  H   UNL     1      -8.798   0.735  -0.071  1.00  0.00     0.167 HD
ATOM     54  C   UNL     1     -11.834   2.144  -2.889  1.00  0.00     0.037 A 
ATOM     55  C   UNL     1      -7.667   0.436   2.462  1.00  0.00     0.037 A 
ATOM     56  C   UNL     1     -12.306   2.565  -1.595  1.00  0.00     0.049 A 
ATOM     57  C   UNL     1      -8.926   1.243   2.657  1.00  0.00     0.074 A 
ATOM     58  C   UNL     1     -13.476   3.234  -1.281  1.00  0.00     0.029 A 
ATOM     59  N   UNL     1     -11.627   2.366  -0.403  1.00  0.00    -0.354 N 
ATOM     60  N   UNL     1      -9.823   1.610   1.773  1.00  0.00    -0.248 NA
ATOM     61  C   UNL     1      -9.221   1.686   4.027  1.00  0.00     0.031 C 
ATOM     62  C   UNL     1     -13.477   3.492   0.094  1.00  0.00     0.029 A 
ATOM     63  C   UNL     1     -12.339   2.925   0.646  1.00  0.00     0.049 A 
ATOM     64  H   UNL     1     -10.765   1.897  -0.315  1.00  0.00     0.167 HD
ATOM     65  C   UNL     1     -10.800   2.298   2.483  1.00  0.00     0.074 A 
ATOM     66  C   UNL     1     -10.397   2.276   3.874  1.00  0.00     0.031 C 
ATOM     67  C   UNL     1     -11.929   2.896   2.027  1.00  0.00     0.037 A 
BRANCH  54  68
ATOM     68  C   UNL     1     -12.667   2.480  -4.093  1.00  0.00     0.057 A 
ATOM     69  C   UNL     1     -13.353   1.497  -4.819  1.00  0.00     0.134 A 
ATOM     70  C   UNL     1     -12.818   3.810  -4.507  1.00  0.00     0.134 A 
ATOM     71  F   UNL     1     -13.240   0.202  -4.486  1.00  0.00    -0.206 F 
ATOM     72  C   UNL     1     -14.142   1.823  -5.925  1.00  0.00     0.040 A 
ATOM     73  C   UNL     1     -13.627   4.151  -5.592  1.00  0.00     0.040 A 
ATOM     74  F   UNL     1     -12.192   4.801  -3.855  1.00  0.00    -0.206 F 
ATOM     75  C   UNL     1     -14.287   3.155  -6.308  1.00  0.00     0.006 A 
ENDBRANCH  54  68
BRANCH  55  76
ATOM     76  C   UNL     1      -6.797   0.112   3.623  1.00  0.00     0.057 A 
ATOM     77  C   UNL     1      -7.236  -0.728   4.654  1.00  0.00     0.134 A 
ATOM     78  C   UNL     1      -5.521   0.675   3.753  1.00  0.00     0.134 A 
ATOM     79  F   UNL     1      -8.459  -1.276   4.603  1.00  0.00    -0.206 F 
ATOM     80  C   UNL     1      -6.451  -0.975   5.782  1.00  0.00     0.040 A 
ATOM     81  C   UNL     1      -4.713   0.410   4.859  1.00  0.00     0.040 A 
ATOM     82  F   UNL     1      -5.041   1.491   2.804  1.00  0.00    -0.206 F 
ATOM     83  C   UNL     1      -5.182  -0.409   5.884  1.00  0.00     0.006 A 
ENDBRANCH  55  76
BRANCH  67  84
ATOM     84  C   UNL     1     -12.828   3.539   3.047  1.00  0.00     0.057 A 
ATOM     85  C   UNL     1     -12.456   4.698   3.742  1.00  0.00     0.134 A 
ATOM     86  C   UNL     1     -14.089   2.998   3.328  1.00  0.00     0.134 A 
ATOM     87  F   UNL     1     -11.258   5.264   3.530  1.00  0.00    -0.206 F 
ATOM     88  C   UNL     1     -13.287   5.270   4.707  1.00  0.00     0.040 A 
ATOM     89  C   UNL     1     -14.944   3.581   4.266  1.00  0.00     0.040 A 
ATOM     90  F   UNL     1     -14.518   1.898   2.691  1.00  0.00    -0.206 F 
ATOM     91  C   UNL     1     -14.538   4.714   4.967  1.00  0.00     0.006 A 
ENDBRANCH  67  84
ENDBRANCH  41  42
ENDBRANCH  34  36
ENDBRANCH  33  34
ENDBRANCH  32  33
ENDBRANCH  31  32
ENDBRANCH  30  31
ENDBRANCH  29  30
ENDBRANCH  28  29
ENDBRANCH  27  28
ENDBRANCH   1  27
TORSDOF 24
