REMARK SMILES O=C(C[C@@H](C[NH+]1CCCCC1)C(=O)OCCOCCOCCOCCOC(=O)c1ccc(-c2c3nc(c(-c4c(F)cccc4F)c4ccc([nH]4)c(-c4c(F)cccc4F)c4nc(c(-c5c(F)cccc5F)c5ccc2[nH]5)C=C4)C=C3)cc1)Nc1ccccc1O
REMARK SMILES IDX 19 1 18 2 17 3 16 4 15 5 14 6 12 7 13 8 4 9 3 10 2 11 1 12
REMARK SMILES IDX 83 13 84 15 85 16 89 17 86 18 88 19 87 20 90 21 5 23 6 24
REMARK SMILES IDX 7 25 11 26 8 28 10 29 9 30 20 31 21 32 22 33 23 34 24 35
REMARK SMILES IDX 25 36 26 37 27 38 28 39 29 40 30 41 82 42 31 43 81 44 32 45
REMARK SMILES IDX 33 46 34 47 75 48 35 49 80 50 74 51 76 52 36 53 79 54 73 55
REMARK SMILES IDX 72 56 37 58 63 59 46 60 62 61 47 62 50 63 61 64 77 65 48 66
REMARK SMILES IDX 49 67 60 69 78 70 51 71 38 72 39 73 44 74 40 75 41 76 43 77
REMARK SMILES IDX 45 78 42 79 64 80 65 81 70 82 66 83 67 84 69 85 71 86 68 87
REMARK SMILES IDX 52 88 53 89 58 90 54 91 55 92 57 93 59 94 56 95
REMARK H PARENT 83 14 90 22 6 27 76 57 50 68
REMARK Flexibility Score: inf
ROOT
ATOM      1  C   UNL     1       3.055   3.803  -2.476  1.00  0.00     0.188 C 
ENDROOT
BRANCH   1   2
ATOM      2  C   UNL     1       3.570   5.152  -1.953  1.00  0.00     0.188 C 
BRANCH   2   3
ATOM      3  O   UNL     1       4.721   5.735  -2.541  1.00  0.00    -0.376 OA
BRANCH   3   4
ATOM      4  C   UNL     1       5.915   4.971  -2.641  1.00  0.00     0.202 C 
BRANCH   4   5
ATOM      5  C   UNL     1       6.367   4.072  -1.479  1.00  0.00     0.261 C 
BRANCH   5   6
ATOM      6  O   UNL     1       5.483   2.983  -1.127  1.00  0.00    -0.463 OA
BRANCH   6   7
ATOM      7  C   UNL     1       5.060   2.885   0.157  1.00  0.00     0.315 C 
ATOM      8  O   UNL     1       5.187   3.775   0.991  1.00  0.00    -0.252 OA
BRANCH   7   9
ATOM      9  C   UNL     1       4.528   1.493   0.528  1.00  0.00     0.163 C 
BRANCH   9  10
ATOM     10  C   UNL     1       3.353   0.984  -0.308  1.00  0.00     0.121 C 
BRANCH  10  11
ATOM     11  C   UNL     1       2.345  -0.019   0.241  1.00  0.00     0.225 C 
ATOM     12  O   UNL     1       1.224  -0.065  -0.268  1.00  0.00    -0.275 OA
ATOM     13  N   UNL     1       2.754  -0.845   1.248  1.00  0.00    -0.323 N 
ATOM     14  H   UNL     1       3.622  -0.625   1.657  1.00  0.00     0.170 HD
BRANCH  13  15
ATOM     15  C   UNL     1       2.091  -1.980   1.784  1.00  0.00     0.083 A 
ATOM     16  C   UNL     1       2.628  -2.461   2.990  1.00  0.00     0.030 A 
ATOM     17  C   UNL     1       1.012  -2.680   1.222  1.00  0.00     0.139 A 
ATOM     18  C   UNL     1       2.093  -3.583   3.629  1.00  0.00     0.002 A 
ATOM     19  C   UNL     1       0.491  -3.815   1.852  1.00  0.00     0.048 A 
ATOM     20  C   UNL     1       1.023  -4.261   3.058  1.00  0.00     0.004 A 
BRANCH  17  21
ATOM     21  O   UNL     1       0.405  -2.381   0.036  1.00  0.00    -0.506 OA
ATOM     22  H   UNL     1       0.686  -1.637  -0.460  1.00  0.00     0.293 HD
ENDBRANCH  17  21
ENDBRANCH  13  15
ENDBRANCH  10  11
ENDBRANCH   9  10
BRANCH   9  23
ATOM     23  C   UNL     1       5.747   0.566   0.742  1.00  0.00     0.278 C 
BRANCH  23  24
ATOM     24  N   UNL     1       6.260  -0.314  -0.315  1.00  0.00    -0.334 N 
ATOM     25  C   UNL     1       5.549  -1.584  -0.448  1.00  0.00     0.262 C 
ATOM     26  C   UNL     1       6.527   0.355  -1.590  1.00  0.00     0.262 C 
ATOM     27  H   UNL     1       7.184  -0.579   0.026  1.00  0.00     0.348 HD
ATOM     28  C   UNL     1       6.242  -2.515  -1.441  1.00  0.00     0.062 C 
ATOM     29  C   UNL     1       7.168  -0.548  -2.639  1.00  0.00     0.062 C 
ATOM     30  C   UNL     1       6.382  -1.840  -2.798  1.00  0.00     0.012 C 
ENDBRANCH  23  24
ENDBRANCH   9  23
ENDBRANCH   7   9
ENDBRANCH   6   7
ENDBRANCH   5   6
ENDBRANCH   4   5
ENDBRANCH   3   4
ENDBRANCH   2   3
ENDBRANCH   1   2
BRANCH   1  31
ATOM     31  O   UNL     1       3.958   3.054  -3.268  1.00  0.00    -0.377 OA
BRANCH  31  32
ATOM     32  C   UNL     1       3.869   3.213  -4.681  1.00  0.00     0.188 C 
BRANCH  32  33
ATOM     33  C   UNL     1       3.376   4.565  -5.229  1.00  0.00     0.188 C 
BRANCH  33  34
ATOM     34  O   UNL     1       2.168   5.022  -4.641  1.00  0.00    -0.376 OA
BRANCH  34  35
ATOM     35  C   UNL     1       0.924   4.689  -5.239  1.00  0.00     0.202 C 
BRANCH  35  36
ATOM     36  C   UNL     1       0.571   3.208  -5.459  1.00  0.00     0.261 C 
BRANCH  36  37
ATOM     37  O   UNL     1       1.459   2.444  -6.292  1.00  0.00    -0.460 OA
BRANCH  37  38
ATOM     38  C   UNL     1       1.732   2.890  -7.534  1.00  0.00     0.338 C 
ATOM     39  O   UNL     1       1.259   3.864  -8.095  1.00  0.00    -0.246 OA
BRANCH  38  40
ATOM     40  C   UNL     1       2.869   2.096  -8.039  1.00  0.00     0.060 A 
ATOM     41  C   UNL     1       4.085   2.737  -8.314  1.00  0.00     0.016 A 
ATOM     42  C   UNL     1       2.737   0.719  -8.227  1.00  0.00     0.016 A 
ATOM     43  C   UNL     1       5.169   2.002  -8.794  1.00  0.00     0.010 A 
ATOM     44  C   UNL     1       3.814  -0.010  -8.735  1.00  0.00     0.010 A 
ATOM     45  C   UNL     1       5.028   0.631  -9.041  1.00  0.00    -0.014 A 
BRANCH  45  46
ATOM     46  C   UNL     1       6.088  -0.107  -9.766  1.00  0.00     0.031 A 
ATOM     47  C   UNL     1       5.921  -0.337 -11.242  1.00  0.00     0.074 A 
ATOM     48  C   UNL     1       7.176  -0.567  -9.125  1.00  0.00     0.049 A 
ATOM     49  N   UNL     1       6.660  -1.037 -12.062  1.00  0.00    -0.248 NA
ATOM     50  C   UNL     1       4.761   0.309 -11.875  1.00  0.00     0.031 C 
ATOM     51  C   UNL     1       7.474  -0.362  -7.708  1.00  0.00     0.029 A 
ATOM     52  N   UNL     1       8.227  -1.319  -9.586  1.00  0.00    -0.354 N 
ATOM     53  C   UNL     1       6.050  -0.924 -13.305  1.00  0.00     0.074 A 
ATOM     54  C   UNL     1       4.868  -0.111 -13.127  1.00  0.00     0.031 C 
ATOM     55  C   UNL     1       8.623  -0.994  -7.411  1.00  0.00     0.029 A 
ATOM     56  C   UNL     1       9.116  -1.681  -8.604  1.00  0.00     0.049 A 
ATOM     57  H   UNL     1       8.334  -1.575 -10.531  1.00  0.00     0.167 HD
ATOM     58  C   UNL     1       6.444  -1.450 -14.489  1.00  0.00     0.037 A 
ATOM     59  C   UNL     1      10.182  -2.503  -8.657  1.00  0.00     0.037 A 
ATOM     60  C   UNL     1       7.618  -2.266 -14.658  1.00  0.00     0.049 A 
ATOM     61  C   UNL     1      10.544  -3.158  -9.967  1.00  0.00     0.074 A 
ATOM     62  C   UNL     1       8.114  -2.832 -15.819  1.00  0.00     0.029 A 
ATOM     63  N   UNL     1       8.472  -2.642 -13.632  1.00  0.00    -0.354 N 
ATOM     64  N   UNL     1       9.979  -3.027 -11.143  1.00  0.00    -0.248 NA
ATOM     65  C   UNL     1      11.690  -4.080  -9.954  1.00  0.00     0.031 C 
ATOM     66  C   UNL     1       9.232  -3.603 -15.485  1.00  0.00     0.029 A 
ATOM     67  C   UNL     1       9.470  -3.465 -14.127  1.00  0.00     0.049 A 
ATOM     68  H   UNL     1       8.382  -2.366 -12.691  1.00  0.00     0.167 HD
ATOM     69  C   UNL     1      10.713  -3.827 -12.012  1.00  0.00     0.074 A 
ATOM     70  C   UNL     1      11.776  -4.424 -11.231  1.00  0.00     0.031 C 
ATOM     71  C   UNL     1      10.524  -4.050 -13.336  1.00  0.00     0.037 A 
BRANCH  58  72
ATOM     72  C   UNL     1       5.580  -1.189 -15.688  1.00  0.00     0.057 A 
ATOM     73  C   UNL     1       5.490   0.078 -16.279  1.00  0.00     0.134 A 
ATOM     74  C   UNL     1       4.855  -2.231 -16.282  1.00  0.00     0.134 A 
ATOM     75  F   UNL     1       6.147   1.122 -15.751  1.00  0.00    -0.206 F 
ATOM     76  C   UNL     1       4.695   0.304 -17.404  1.00  0.00     0.040 A 
ATOM     77  C   UNL     1       4.080  -2.024 -17.423  1.00  0.00     0.040 A 
ATOM     78  F   UNL     1       4.898  -3.470 -15.769  1.00  0.00    -0.206 F 
ATOM     79  C   UNL     1       3.994  -0.751 -17.984  1.00  0.00     0.006 A 
ENDBRANCH  58  72
BRANCH  59  80
ATOM     80  C   UNL     1      10.970  -2.787  -7.429  1.00  0.00     0.057 A 
ATOM     81  C   UNL     1      12.301  -2.371  -7.308  1.00  0.00     0.134 A 
ATOM     82  C   UNL     1      10.423  -3.511  -6.362  1.00  0.00     0.134 A 
ATOM     83  F   UNL     1      12.891  -1.696  -8.305  1.00  0.00    -0.206 F 
ATOM     84  C   UNL     1      13.066  -2.682  -6.181  1.00  0.00     0.040 A 
ATOM     85  C   UNL     1      11.166  -3.803  -5.217  1.00  0.00     0.040 A 
ATOM     86  F   UNL     1       9.154  -3.941  -6.414  1.00  0.00    -0.206 F 
ATOM     87  C   UNL     1      12.496  -3.396  -5.129  1.00  0.00     0.006 A 
ENDBRANCH  59  80
BRANCH  71  88
ATOM     88  C   UNL     1      11.500  -4.955 -14.033  1.00  0.00     0.057 A 
ATOM     89  C   UNL     1      11.518  -6.337 -13.810  1.00  0.00     0.134 A 
ATOM     90  C   UNL     1      12.398  -4.442 -14.980  1.00  0.00     0.134 A 
ATOM     91  F   UNL     1      10.693  -6.891 -12.909  1.00  0.00    -0.206 F 
ATOM     92  C   UNL     1      12.409  -7.174 -14.485  1.00  0.00     0.040 A 
ATOM     93  C   UNL     1      13.271  -5.273 -15.684  1.00  0.00     0.040 A 
ATOM     94  F   UNL     1      12.427  -3.129 -15.252  1.00  0.00    -0.206 F 
ATOM     95  C   UNL     1      13.282  -6.643 -15.432  1.00  0.00     0.006 A 
ENDBRANCH  71  88
ENDBRANCH  45  46
ENDBRANCH  38  40
ENDBRANCH  37  38
ENDBRANCH  36  37
ENDBRANCH  35  36
ENDBRANCH  34  35
ENDBRANCH  33  34
ENDBRANCH  32  33
ENDBRANCH  31  32
ENDBRANCH   1  31
TORSDOF 26
