REMARK SMILES CCc1cc(OC(F)(F)F)cc2c1O[C@@H](C(F)(F)F)C(C(=O)OCCOCCOCCOCCOC(=O)c1ccc(-c3c4nc(c(-c5c(F)cccc5F)c5ccc([nH]5)c(-c5c(F)cccc5F)c5nc(c(-c6c(F)cccc6F)c6ccc3[nH]6)C=C5)C=C4)cc1)=C2
REMARK SMILES IDX 29 1 28 2 27 3 26 4 25 5 24 6 23 7 21 8 22 9 20 10 3 11 4 12
REMARK SMILES IDX 13 13 5 14 12 15 14 16 11 17 92 18 15 19 2 20 1 21 6 22 7 23
REMARK SMILES IDX 8 24 9 25 10 26 16 27 17 28 18 29 19 30 30 31 31 32 32 33
REMARK SMILES IDX 33 34 34 35 35 36 36 37 37 38 38 39 39 40 91 41 40 42 90 43
REMARK SMILES IDX 41 44 42 45 43 46 84 47 44 48 89 49 83 50 85 51 45 52 88 53
REMARK SMILES IDX 82 54 81 55 46 57 72 58 55 59 71 60 56 61 59 62 70 63 86 64
REMARK SMILES IDX 57 65 58 66 69 68 87 69 60 70 47 71 48 72 53 73 49 74 50 75
REMARK SMILES IDX 52 76 54 77 51 78 73 79 74 80 79 81 75 82 76 83 78 84 80 85
REMARK SMILES IDX 77 86 61 87 62 88 67 89 63 90 64 91 66 92 68 93 65 94
REMARK H PARENT 85 56 59 67
REMARK Flexibility Score: inf
ROOT
ATOM      1  O   UNL     1       5.556  -2.386   5.980  1.00  0.00    -0.377 OA
ENDROOT
BRANCH   1   2
ATOM      2  C   UNL     1       5.299  -1.299   5.111  1.00  0.00     0.188 C 
BRANCH   2   3
ATOM      3  C   UNL     1       5.026   0.080   5.734  1.00  0.00     0.188 C 
BRANCH   3   4
ATOM      4  O   UNL     1       5.014   0.096   7.158  1.00  0.00    -0.376 OA
BRANCH   4   5
ATOM      5  C   UNL     1       3.747   0.327   7.762  1.00  0.00     0.202 C 
BRANCH   5   6
ATOM      6  C   UNL     1       2.866  -0.926   7.795  1.00  0.00     0.261 C 
BRANCH   6   7
ATOM      7  O   UNL     1       2.519  -1.415   6.489  1.00  0.00    -0.460 OA
BRANCH   7   8
ATOM      8  C   UNL     1       1.710  -0.628   5.747  1.00  0.00     0.338 C 
ATOM      9  O   UNL     1       1.197   0.418   6.104  1.00  0.00    -0.246 OA
BRANCH   8  10
ATOM     10  C   UNL     1       1.635  -1.153   4.376  1.00  0.00     0.087 C 
ATOM     11  C   UNL     1       0.741  -2.346   0.471  1.00  0.00    -0.002 A 
ATOM     12  C   UNL     1       0.700  -3.728   0.187  1.00  0.00     0.054 A 
ATOM     13  C   UNL     1       1.028  -1.959   1.784  1.00  0.00     0.131 A 
ATOM     14  C   UNL     1       0.944  -4.687   1.175  1.00  0.00     0.130 A 
ATOM     15  C   UNL     1       1.270  -2.913   2.790  1.00  0.00     0.021 A 
ATOM     16  O   UNL     1       0.982  -0.626   2.098  1.00  0.00    -0.475 OA
ATOM     17  C   UNL     1       1.250  -4.272   2.473  1.00  0.00     0.058 A 
ATOM     18  C   UNL     1       1.420  -2.464   4.175  1.00  0.00     0.027 C 
ATOM     19  C   UNL     1       1.843  -0.235   3.197  1.00  0.00     0.316 C 
BRANCH  11  20
ATOM     20  C   UNL     1       0.381  -1.398  -0.657  1.00  0.00     0.036 C 
ATOM     21  C   UNL     1       0.864   0.046  -0.588  1.00  0.00     0.009 C 
ENDBRANCH  11  20
BRANCH  14  22
ATOM     22  O   UNL     1       0.902  -6.042   1.005  1.00  0.00    -0.406 OA
BRANCH  22  23
ATOM     23  C   UNL     1       0.230  -6.533  -0.145  1.00  0.00     0.573 C 
ATOM     24  F   UNL     1      -1.011  -6.011  -0.251  1.00  0.00    -0.132 F 
ATOM     25  F   UNL     1       0.931  -6.260  -1.266  1.00  0.00    -0.132 F 
ATOM     26  F   UNL     1       0.112  -7.875  -0.040  1.00  0.00    -0.132 F 
ENDBRANCH  22  23
ENDBRANCH  14  22
BRANCH  19  27
ATOM     27  C   UNL     1       1.708   1.284   3.385  1.00  0.00     0.430 C 
ATOM     28  F   UNL     1       2.614   1.765   4.267  1.00  0.00    -0.167 F 
ATOM     29  F   UNL     1       1.971   1.919   2.210  1.00  0.00    -0.167 F 
ATOM     30  F   UNL     1       0.477   1.667   3.775  1.00  0.00    -0.167 F 
ENDBRANCH  19  27
ENDBRANCH   8  10
ENDBRANCH   7   8
ENDBRANCH   6   7
ENDBRANCH   5   6
ENDBRANCH   4   5
ENDBRANCH   3   4
ENDBRANCH   2   3
ENDBRANCH   1   2
BRANCH   1  31
ATOM     31  C   UNL     1       6.529  -2.243   7.008  1.00  0.00     0.188 C 
BRANCH  31  32
ATOM     32  C   UNL     1       7.640  -1.174   6.928  1.00  0.00     0.188 C 
BRANCH  32  33
ATOM     33  O   UNL     1       7.922  -0.700   5.616  1.00  0.00    -0.376 OA
BRANCH  33  34
ATOM     34  C   UNL     1       9.168  -1.100   5.062  1.00  0.00     0.202 C 
BRANCH  34  35
ATOM     35  C   UNL     1       9.146  -2.529   4.512  1.00  0.00     0.261 C 
BRANCH  35  36
ATOM     36  O   UNL     1       8.948  -3.544   5.509  1.00  0.00    -0.460 OA
BRANCH  36  37
ATOM     37  C   UNL     1       9.888  -3.637   6.474  1.00  0.00     0.338 C 
ATOM     38  O   UNL     1      10.921  -2.999   6.569  1.00  0.00    -0.246 OA
BRANCH  37  39
ATOM     39  C   UNL     1       9.366  -4.530   7.524  1.00  0.00     0.060 A 
ATOM     40  C   UNL     1       9.291  -4.050   8.837  1.00  0.00     0.016 A 
ATOM     41  C   UNL     1       8.947  -5.825   7.210  1.00  0.00     0.016 A 
ATOM     42  C   UNL     1       8.831  -4.886   9.853  1.00  0.00     0.010 A 
ATOM     43  C   UNL     1       8.505  -6.667   8.230  1.00  0.00     0.010 A 
ATOM     44  C   UNL     1       8.481  -6.211   9.559  1.00  0.00    -0.014 A 
BRANCH  44  45
ATOM     45  C   UNL     1       8.309  -7.179  10.666  1.00  0.00     0.031 A 
ATOM     46  C   UNL     1       9.510  -7.969  11.105  1.00  0.00     0.074 A 
ATOM     47  C   UNL     1       7.124  -7.343  11.278  1.00  0.00     0.049 A 
ATOM     48  N   UNL     1       9.613  -8.871  12.046  1.00  0.00    -0.248 NA
ATOM     49  C   UNL     1      10.766  -7.703  10.383  1.00  0.00     0.031 C 
ATOM     50  C   UNL     1       5.896  -6.621  10.958  1.00  0.00     0.029 A 
ATOM     51  N   UNL     1       6.768  -8.184  12.302  1.00  0.00    -0.354 N 
ATOM     52  C   UNL     1      10.942  -9.274  12.033  1.00  0.00     0.074 A 
ATOM     53  C   UNL     1      11.600  -8.547  10.970  1.00  0.00     0.031 C 
ATOM     54  C   UNL     1       4.913  -7.057  11.767  1.00  0.00     0.029 A 
ATOM     55  C   UNL     1       5.441  -8.101  12.645  1.00  0.00     0.049 A 
ATOM     56  H   UNL     1       7.403  -8.789  12.749  1.00  0.00     0.167 HD
ATOM     57  C   UNL     1      11.564 -10.162  12.842  1.00  0.00     0.037 A 
ATOM     58  C   UNL     1       4.737  -8.800  13.556  1.00  0.00     0.037 A 
ATOM     59  C   UNL     1      10.909 -10.897  13.890  1.00  0.00     0.049 A 
ATOM     60  C   UNL     1       5.436  -9.838  14.396  1.00  0.00     0.074 A 
ATOM     61  C   UNL     1      11.456 -11.809  14.775  1.00  0.00     0.029 A 
ATOM     62  N   UNL     1       9.558 -10.810  14.184  1.00  0.00    -0.354 N 
ATOM     63  N   UNL     1       6.702 -10.181  14.406  1.00  0.00    -0.248 NA
ATOM     64  C   UNL     1       4.606 -10.584  15.354  1.00  0.00     0.031 C 
ATOM     65  C   UNL     1      10.424 -12.308  15.577  1.00  0.00     0.029 A 
ATOM     66  C   UNL     1       9.245 -11.673  15.221  1.00  0.00     0.049 A 
ATOM     67  H   UNL     1       8.915 -10.223  13.724  1.00  0.00     0.167 HD
ATOM     68  C   UNL     1       6.824 -11.160  15.385  1.00  0.00     0.074 A 
ATOM     69  C   UNL     1       5.507 -11.348  15.956  1.00  0.00     0.031 C 
ATOM     70  C   UNL     1       7.928 -11.843  15.778  1.00  0.00     0.037 A 
BRANCH  57  71
ATOM     71  C   UNL     1      13.024 -10.397  12.604  1.00  0.00     0.057 A 
ATOM     72  C   UNL     1      13.989  -9.442  12.948  1.00  0.00     0.134 A 
ATOM     73  C   UNL     1      13.471 -11.594  12.033  1.00  0.00     0.134 A 
ATOM     74  F   UNL     1      13.623  -8.266  13.480  1.00  0.00    -0.206 F 
ATOM     75  C   UNL     1      15.348  -9.662  12.714  1.00  0.00     0.040 A 
ATOM     76  C   UNL     1      14.828 -11.835  11.815  1.00  0.00     0.040 A 
ATOM     77  F   UNL     1      12.596 -12.548  11.678  1.00  0.00    -0.206 F 
ATOM     78  C   UNL     1      15.770 -10.864  12.151  1.00  0.00     0.006 A 
ENDBRANCH  57  71
BRANCH  58  79
ATOM     79  C   UNL     1       3.283  -8.555  13.724  1.00  0.00     0.057 A 
ATOM     80  C   UNL     1       2.779  -7.952  14.883  1.00  0.00     0.134 A 
ATOM     81  C   UNL     1       2.361  -8.948  12.747  1.00  0.00     0.134 A 
ATOM     82  F   UNL     1       3.611  -7.578  15.865  1.00  0.00    -0.206 F 
ATOM     83  C   UNL     1       1.408  -7.766  15.072  1.00  0.00     0.040 A 
ATOM     84  C   UNL     1       0.990  -8.748  12.914  1.00  0.00     0.040 A 
ATOM     85  F   UNL     1       2.781  -9.533  11.616  1.00  0.00    -0.206 F 
ATOM     86  C   UNL     1       0.510  -8.161  14.083  1.00  0.00     0.006 A 
ENDBRANCH  58  79
BRANCH  70  87
ATOM     87  C   UNL     1       7.765 -12.834  16.893  1.00  0.00     0.057 A 
ATOM     88  C   UNL     1       7.123 -14.064  16.699  1.00  0.00     0.134 A 
ATOM     89  C   UNL     1       8.296 -12.574  18.162  1.00  0.00     0.134 A 
ATOM     90  F   UNL     1       6.583 -14.369  15.509  1.00  0.00    -0.206 F 
ATOM     91  C   UNL     1       6.997 -14.991  17.735  1.00  0.00     0.040 A 
ATOM     92  C   UNL     1       8.198 -13.503  19.199  1.00  0.00     0.040 A 
ATOM     93  F   UNL     1       8.932 -11.419  18.411  1.00  0.00    -0.206 F 
ATOM     94  C   UNL     1       7.542 -14.714  18.987  1.00  0.00     0.006 A 
ENDBRANCH  70  87
ENDBRANCH  44  45
ENDBRANCH  37  39
ENDBRANCH  36  37
ENDBRANCH  35  36
ENDBRANCH  34  35
ENDBRANCH  33  34
ENDBRANCH  32  33
ENDBRANCH  31  32
ENDBRANCH   1  31
TORSDOF 24
