REMARK SMILES O=C(OCCOCCOCCOCCOC(=O)[C@]1(NC(=O)C2CCN(C(=O)C3CC3)CC2)CCCc2ccccc21)c1ccc(-c2c3nc(c(-c4c(F)cccc4F)c4ccc([nH]4)c(-c4c(F)cccc4F)c4nc(c(-c5c(F)cccc5F)c5ccc2[nH]5)C=C4)C=C3)cc1
REMARK SMILES IDX 10 1 9 2 8 3 7 4 6 5 5 6 4 7 3 8 2 9 1 10 42 11 43 12 95 13
REMARK SMILES IDX 44 14 94 15 45 16 46 17 47 18 88 19 48 20 93 21 87 22 89 23
REMARK SMILES IDX 49 24 92 25 86 26 85 27 50 29 76 30 59 31 75 32 60 33 63 34
REMARK SMILES IDX 74 35 90 36 61 37 62 38 73 40 91 41 64 42 51 43 52 44 57 45
REMARK SMILES IDX 53 46 54 47 56 48 58 49 55 50 77 51 78 52 83 53 79 54 80 55
REMARK SMILES IDX 82 56 84 57 81 58 65 59 66 60 71 61 67 62 68 63 70 64 72 65
REMARK SMILES IDX 69 66 11 67 12 68 13 69 14 70 15 71 16 72 17 73 18 74 33 75
REMARK SMILES IDX 41 76 34 77 36 78 40 79 35 80 37 81 39 82 38 83 19 84 20 85
REMARK SMILES IDX 21 87 22 88 23 89 32 90 24 91 31 92 25 93 26 94 27 95 28 96
REMARK SMILES IDX 29 97 30 98
REMARK H PARENT 89 28 63 39 19 86
REMARK Flexibility Score: inf
ROOT
ATOM      1  C   UNL     1       4.595   2.730   2.060  1.00  0.00     0.188 C 
ENDROOT
BRANCH   1   2
ATOM      2  O   UNL     1       3.175   2.657   1.951  1.00  0.00    -0.377 OA
BRANCH   2   3
ATOM      3  C   UNL     1       2.579   1.371   2.039  1.00  0.00     0.188 C 
BRANCH   3   4
ATOM      4  C   UNL     1       2.753   0.551   0.769  1.00  0.00     0.188 C 
BRANCH   4   5
ATOM      5  O   UNL     1       4.133   0.233   0.584  1.00  0.00    -0.376 OA
BRANCH   5   6
ATOM      6  C   UNL     1       4.632   0.359  -0.746  1.00  0.00     0.202 C 
BRANCH   6   7
ATOM      7  C   UNL     1       4.255  -0.756  -1.727  1.00  0.00     0.261 C 
BRANCH   7   8
ATOM      8  O   UNL     1       2.936  -1.289  -1.545  1.00  0.00    -0.460 OA
BRANCH   8   9
ATOM      9  C   UNL     1       2.530  -2.312  -0.756  1.00  0.00     0.338 C 
ATOM     10  O   UNL     1       1.429  -2.820  -0.959  1.00  0.00    -0.246 OA
BRANCH   9  11
ATOM     11  C   UNL     1       3.277  -2.754   0.467  1.00  0.00     0.060 A 
ATOM     12  C   UNL     1       4.602  -2.435   0.757  1.00  0.00     0.016 A 
ATOM     13  C   UNL     1       2.558  -3.498   1.427  1.00  0.00     0.016 A 
ATOM     14  C   UNL     1       5.171  -2.739   1.976  1.00  0.00     0.010 A 
ATOM     15  C   UNL     1       3.156  -3.910   2.623  1.00  0.00     0.010 A 
ATOM     16  C   UNL     1       4.473  -3.532   2.880  1.00  0.00    -0.014 A 
BRANCH  16  17
ATOM     17  C   UNL     1       5.334  -4.173   3.880  1.00  0.00     0.031 A 
ATOM     18  C   UNL     1       6.096  -5.377   3.405  1.00  0.00     0.074 A 
ATOM     19  C   UNL     1       5.662  -3.497   4.992  1.00  0.00     0.049 A 
ATOM     20  N   UNL     1       7.089  -6.006   3.967  1.00  0.00    -0.248 NA
ATOM     21  C   UNL     1       5.738  -5.891   2.066  1.00  0.00     0.031 C 
ATOM     22  C   UNL     1       5.095  -2.205   5.388  1.00  0.00     0.029 A 
ATOM     23  N   UNL     1       6.601  -3.762   5.947  1.00  0.00    -0.354 N 
ATOM     24  C   UNL     1       7.486  -6.965   3.044  1.00  0.00     0.074 A 
ATOM     25  C   UNL     1       6.643  -6.836   1.882  1.00  0.00     0.031 C 
ATOM     26  C   UNL     1       5.711  -1.785   6.506  1.00  0.00     0.029 A 
ATOM     27  C   UNL     1       6.678  -2.796   6.920  1.00  0.00     0.049 A 
ATOM     28  H   UNL     1       7.167  -4.567   5.939  1.00  0.00     0.167 HD
ATOM     29  C   UNL     1       8.465  -7.887   3.173  1.00  0.00     0.037 A 
ATOM     30  C   UNL     1       7.438  -2.770   8.031  1.00  0.00     0.037 A 
ATOM     31  C   UNL     1       9.224  -8.034   4.380  1.00  0.00     0.049 A 
ATOM     32  C   UNL     1       8.394  -3.915   8.239  1.00  0.00     0.074 A 
ATOM     33  C   UNL     1      10.091  -9.041   4.750  1.00  0.00     0.029 A 
ATOM     34  N   UNL     1       9.175  -7.128   5.434  1.00  0.00    -0.354 N 
ATOM     35  N   UNL     1       8.680  -4.907   7.426  1.00  0.00    -0.248 NA
ATOM     36  C   UNL     1       9.118  -3.954   9.514  1.00  0.00     0.031 C 
ATOM     37  C   UNL     1      10.538  -8.762   6.048  1.00  0.00     0.029 A 
ATOM     38  C   UNL     1       9.985  -7.559   6.465  1.00  0.00     0.049 A 
ATOM     39  H   UNL     1       8.641  -6.302   5.443  1.00  0.00     0.167 HD
ATOM     40  C   UNL     1       9.610  -5.693   8.090  1.00  0.00     0.074 A 
ATOM     41  C   UNL     1       9.868  -5.037   9.359  1.00  0.00     0.031 C 
ATOM     42  C   UNL     1      10.190  -6.859   7.708  1.00  0.00     0.037 A 
BRANCH  29  43
ATOM     43  C   UNL     1       8.643  -8.837   2.030  1.00  0.00     0.057 A 
ATOM     44  C   UNL     1       9.267  -8.451   0.835  1.00  0.00     0.134 A 
ATOM     45  C   UNL     1       8.088 -10.121   2.084  1.00  0.00     0.134 A 
ATOM     46  F   UNL     1       9.775  -7.217   0.701  1.00  0.00    -0.206 F 
ATOM     47  C   UNL     1       9.314  -9.304  -0.271  1.00  0.00     0.040 A 
ATOM     48  C   UNL     1       8.142 -10.987   0.991  1.00  0.00     0.040 A 
ATOM     49  F   UNL     1       7.453 -10.540   3.188  1.00  0.00    -0.206 F 
ATOM     50  C   UNL     1       8.749 -10.576  -0.194  1.00  0.00     0.006 A 
ENDBRANCH  29  43
BRANCH  30  51
ATOM     51  C   UNL     1       7.259  -1.696   9.046  1.00  0.00     0.057 A 
ATOM     52  C   UNL     1       8.293  -0.822   9.400  1.00  0.00     0.134 A 
ATOM     53  C   UNL     1       6.037  -1.541   9.718  1.00  0.00     0.134 A 
ATOM     54  F   UNL     1       9.495  -0.925   8.816  1.00  0.00    -0.206 F 
ATOM     55  C   UNL     1       8.124   0.151  10.390  1.00  0.00     0.040 A 
ATOM     56  C   UNL     1       5.845  -0.555  10.687  1.00  0.00     0.040 A 
ATOM     57  F   UNL     1       5.002  -2.347   9.437  1.00  0.00    -0.206 F 
ATOM     58  C   UNL     1       6.895   0.290  11.032  1.00  0.00     0.006 A 
ENDBRANCH  30  51
BRANCH  42  59
ATOM     59  C   UNL     1      11.146  -7.474   8.680  1.00  0.00     0.057 A 
ATOM     60  C   UNL     1      10.695  -8.129   9.831  1.00  0.00     0.134 A 
ATOM     61  C   UNL     1      12.523  -7.447   8.435  1.00  0.00     0.134 A 
ATOM     62  F   UNL     1       9.385  -8.175  10.119  1.00  0.00    -0.206 F 
ATOM     63  C   UNL     1      11.588  -8.719  10.723  1.00  0.00     0.040 A 
ATOM     64  C   UNL     1      13.424  -8.054   9.308  1.00  0.00     0.040 A 
ATOM     65  F   UNL     1      13.010  -6.842   7.341  1.00  0.00    -0.206 F 
ATOM     66  C   UNL     1      12.956  -8.688  10.458  1.00  0.00     0.006 A 
ENDBRANCH  42  59
ENDBRANCH  16  17
ENDBRANCH   9  11
ENDBRANCH   8   9
ENDBRANCH   7   8
ENDBRANCH   6   7
ENDBRANCH   5   6
ENDBRANCH   4   5
ENDBRANCH   3   4
ENDBRANCH   2   3
ENDBRANCH   1   2
BRANCH   1  67
ATOM     67  C   UNL     1       5.135   2.477   3.461  1.00  0.00     0.188 C 
BRANCH  67  68
ATOM     68  O   UNL     1       4.778   3.516   4.377  1.00  0.00    -0.376 OA
BRANCH  68  69
ATOM     69  C   UNL     1       3.389   3.577   4.694  1.00  0.00     0.202 C 
BRANCH  69  70
ATOM     70  C   UNL     1       2.673   4.858   4.212  1.00  0.00     0.261 C 
BRANCH  70  71
ATOM     71  O   UNL     1       2.963   5.304   2.864  1.00  0.00    -0.461 OA
BRANCH  71  72
ATOM     72  C   UNL     1       4.098   6.042   2.783  1.00  0.00     0.336 C 
ATOM     73  O   UNL     1       4.817   6.236   3.766  1.00  0.00    -0.249 OA
BRANCH  72  74
ATOM     74  C   UNL     1       4.427   6.700   1.360  1.00  0.00     0.164 C 
ATOM     75  C   UNL     1       5.858   6.261   0.917  1.00  0.00     0.046 C 
ATOM     76  C   UNL     1       4.457   8.202   1.756  1.00  0.00    -0.008 A 
ATOM     77  C   UNL     1       6.978   6.677   1.874  1.00  0.00     0.008 C 
ATOM     78  C   UNL     1       5.631   8.849   2.170  1.00  0.00    -0.042 A 
ATOM     79  C   UNL     1       3.221   8.889   1.811  1.00  0.00     0.007 A 
ATOM     80  C   UNL     1       6.983   8.180   2.150  1.00  0.00     0.036 C 
ATOM     81  C   UNL     1       5.539  10.178   2.609  1.00  0.00     0.004 A 
ATOM     82  C   UNL     1       3.152  10.208   2.230  1.00  0.00     0.000 A 
ATOM     83  C   UNL     1       4.313  10.850   2.636  1.00  0.00     0.000 A 
BRANCH  74  84
ATOM     84  N   UNL     1       3.571   6.740   0.106  1.00  0.00    -0.336 N 
ATOM     85  C   UNL     1       2.845   5.974  -0.731  1.00  0.00     0.224 C 
ATOM     86  H   UNL     1       3.534   7.670  -0.215  1.00  0.00     0.164 HD
ATOM     87  O   UNL     1       2.594   6.438  -1.848  1.00  0.00    -0.275 OA
BRANCH  85  88
ATOM     88  C   UNL     1       2.299   4.637  -0.338  1.00  0.00     0.082 C 
ATOM     89  C   UNL     1       2.977   3.578  -1.210  1.00  0.00     0.035 C 
ATOM     90  C   UNL     1       0.755   4.617  -0.333  1.00  0.00     0.035 C 
ATOM     91  C   UNL     1       2.139   2.908  -2.300  1.00  0.00     0.120 C 
ATOM     92  C   UNL     1       0.123   4.004  -1.577  1.00  0.00     0.120 C 
ATOM     93  N   UNL     1       0.755   2.737  -1.888  1.00  0.00    -0.342 N 
ATOM     94  C   UNL     1       0.170   1.482  -2.006  1.00  0.00     0.225 C 
ATOM     95  O   UNL     1       0.737   0.590  -2.652  1.00  0.00    -0.275 OA
BRANCH  94  96
ATOM     96  C   UNL     1      -1.091   1.062  -1.325  1.00  0.00     0.079 C 
ATOM     97  C   UNL     1      -2.062   1.811  -0.460  1.00  0.00     0.014 C 
ATOM     98  C   UNL     1      -2.424   1.502  -1.886  1.00  0.00     0.014 C 
ENDBRANCH  94  96
ENDBRANCH  85  88
ENDBRANCH  74  84
ENDBRANCH  72  74
ENDBRANCH  71  72
ENDBRANCH  70  71
ENDBRANCH  69  70
ENDBRANCH  68  69
ENDBRANCH  67  68
ENDBRANCH   1  67
TORSDOF 23
