REMARK SMILES COc1ccc(NC(=O)c2cnn3c2N=C(C(=O)OCCOCCOCCOCCOC(=O)c2ccc(-c4c5nc(c(-c6c(F)cccc6F)c6ccc([nH]6)c(-c6c(F)cccc6F)c6nc(c(-c7c(F)cccc7F)c7ccc4[nH]7)C=C6)C=C5)cc2)C[C@@H]3c2ccc(OC)cc2)cc1
REMARK SMILES IDX 24 1 23 2 22 3 21 4 20 5 19 6 17 7 18 8 16 9 10 10 11 11
REMARK SMILES IDX 14 12 12 13 13 14 15 15 89 16 88 17 8 18 7 19 9 21 6 22 3 23
REMARK SMILES IDX 4 24 99 25 5 26 98 27 2 28 1 29 90 30 91 31 97 32 92 33
REMARK SMILES IDX 96 34 93 35 94 36 95 37 25 38 26 39 27 40 28 41 29 42 30 43
REMARK SMILES IDX 31 44 32 45 33 46 34 47 35 48 87 49 36 50 86 51 37 52 38 53
REMARK SMILES IDX 39 54 80 55 40 56 85 57 79 58 81 59 41 60 84 61 78 62 77 63
REMARK SMILES IDX 42 65 68 66 51 67 67 68 52 69 55 70 66 71 82 72 53 73 54 74
REMARK SMILES IDX 65 76 83 77 56 78 43 79 44 80 49 81 45 82 46 83 48 84 50 85
REMARK SMILES IDX 47 86 69 87 70 88 75 89 71 90 72 91 74 92 76 93 73 94 57 95
REMARK SMILES IDX 58 96 63 97 59 98 60 99 62 100 64 101 61 102
REMARK H PARENT 7 20 81 64 55 75
REMARK Flexibility Score: inf
ROOT
ATOM      1  C   UNL     1       0.301   2.369   1.232  1.00  0.00     0.188 C 
ENDROOT
BRANCH   1   2
ATOM      2  C   UNL     1       1.321   3.370   1.803  1.00  0.00     0.188 C 
BRANCH   2   3
ATOM      3  O   UNL     1       1.073   4.066   3.027  1.00  0.00    -0.376 OA
BRANCH   3   4
ATOM      4  C   UNL     1       0.274   3.435   4.014  1.00  0.00     0.202 C 
BRANCH   4   5
ATOM      5  C   UNL     1      -1.179   3.922   3.931  1.00  0.00     0.261 C 
BRANCH   5   6
ATOM      6  O   UNL     1      -1.621   4.096   2.570  1.00  0.00    -0.459 OA
BRANCH   6   7
ATOM      7  C   UNL     1      -1.632   5.365   2.113  1.00  0.00     0.352 C 
ATOM      8  O   UNL     1      -1.534   6.393   2.756  1.00  0.00    -0.245 OA
BRANCH   7   9
ATOM      9  C   UNL     1      -1.815   5.381   0.594  1.00  0.00     0.130 C 
ATOM     10  C   UNL     1      -0.526   6.852  -2.452  1.00  0.00     0.104 A 
ATOM     11  C   UNL     1      -1.506   7.118  -3.434  1.00  0.00     0.151 A 
ATOM     12  C   UNL     1      -1.224   6.226  -1.429  1.00  0.00     0.164 A 
ATOM     13  N   UNL     1      -2.676   6.532  -3.157  1.00  0.00    -0.178 NA
ATOM     14  N   UNL     1      -2.418   5.867  -2.008  1.00  0.00    -0.239 N 
ATOM     15  N   UNL     1      -0.937   6.016  -0.122  1.00  0.00    -0.225 NA
ATOM     16  C   UNL     1      -3.378   4.934  -1.413  1.00  0.00     0.146 C 
ATOM     17  C   UNL     1      -2.988   4.606   0.045  1.00  0.00     0.096 C 
BRANCH  10  18
ATOM     18  C   UNL     1       0.878   7.193  -2.486  1.00  0.00     0.261 C 
ATOM     19  N   UNL     1       1.815   6.173  -2.436  1.00  0.00    -0.322 N 
ATOM     20  H   UNL     1       2.736   6.468  -2.249  1.00  0.00     0.170 HD
ATOM     21  O   UNL     1       1.259   8.359  -2.567  1.00  0.00    -0.269 OA
BRANCH  19  22
ATOM     22  C   UNL     1       1.664   4.784  -2.609  1.00  0.00     0.041 A 
ATOM     23  C   UNL     1       1.273   2.017  -2.564  1.00  0.00     0.119 A 
ATOM     24  C   UNL     1       0.371   2.830  -3.226  1.00  0.00     0.048 A 
ATOM     25  C   UNL     1       2.477   2.555  -2.122  1.00  0.00     0.048 A 
ATOM     26  C   UNL     1       0.574   4.205  -3.257  1.00  0.00     0.030 A 
ATOM     27  C   UNL     1       2.667   3.942  -2.125  1.00  0.00     0.030 A 
BRANCH  23  28
ATOM     28  O   UNL     1       1.010   0.702  -2.298  1.00  0.00    -0.497 OA
ATOM     29  C   UNL     1      -0.347   0.493  -1.883  1.00  0.00     0.278 C 
ENDBRANCH  23  28
ENDBRANCH  19  22
ENDBRANCH  10  18
BRANCH  16  30
ATOM     30  C   UNL     1      -3.601   3.642  -2.237  1.00  0.00    -0.023 A 
ATOM     31  C   UNL     1      -3.136   3.464  -3.550  1.00  0.00     0.010 A 
ATOM     32  C   UNL     1      -4.339   2.574  -1.686  1.00  0.00     0.010 A 
ATOM     33  C   UNL     1      -3.317   2.255  -4.236  1.00  0.00     0.047 A 
ATOM     34  C   UNL     1      -4.517   1.360  -2.372  1.00  0.00     0.047 A 
ATOM     35  C   UNL     1      -3.985   1.187  -3.645  1.00  0.00     0.118 A 
BRANCH  35  36
ATOM     36  O   UNL     1      -4.045   0.056  -4.407  1.00  0.00    -0.497 OA
ATOM     37  C   UNL     1      -4.714  -1.069  -3.853  1.00  0.00     0.278 C 
ENDBRANCH  35  36
ENDBRANCH  16  30
ENDBRANCH   7   9
ENDBRANCH   6   7
ENDBRANCH   5   6
ENDBRANCH   4   5
ENDBRANCH   3   4
ENDBRANCH   2   3
ENDBRANCH   1   2
BRANCH   1  38
ATOM     38  O   UNL     1      -0.167   1.378   2.137  1.00  0.00    -0.377 OA
BRANCH  38  39
ATOM     39  C   UNL     1       0.379   0.072   1.993  1.00  0.00     0.188 C 
BRANCH  39  40
ATOM     40  C   UNL     1       1.758  -0.143   2.627  1.00  0.00     0.188 C 
BRANCH  40  41
ATOM     41  O   UNL     1       2.889   0.497   2.046  1.00  0.00    -0.376 OA
BRANCH  41  42
ATOM     42  C   UNL     1       3.127   0.410   0.649  1.00  0.00     0.202 C 
BRANCH  42  43
ATOM     43  C   UNL     1       3.419  -0.950   0.041  1.00  0.00     0.261 C 
BRANCH  43  44
ATOM     44  O   UNL     1       2.195  -1.658  -0.139  1.00  0.00    -0.460 OA
BRANCH  44  45
ATOM     45  C   UNL     1       2.039  -2.766   0.606  1.00  0.00     0.338 C 
ATOM     46  O   UNL     1       2.772  -3.166   1.496  1.00  0.00    -0.246 OA
BRANCH  45  47
ATOM     47  C   UNL     1       0.850  -3.486   0.132  1.00  0.00     0.060 A 
ATOM     48  C   UNL     1       0.609  -4.732   0.700  1.00  0.00     0.016 A 
ATOM     49  C   UNL     1       0.087  -3.023  -0.953  1.00  0.00     0.016 A 
ATOM     50  C   UNL     1      -0.276  -5.577   0.068  1.00  0.00     0.010 A 
ATOM     51  C   UNL     1      -0.853  -3.841  -1.544  1.00  0.00     0.010 A 
ATOM     52  C   UNL     1      -0.944  -5.147  -1.091  1.00  0.00    -0.014 A 
BRANCH  52  53
ATOM     53  C   UNL     1      -1.641  -6.168  -1.846  1.00  0.00     0.031 A 
ATOM     54  C   UNL     1      -2.685  -6.901  -1.102  1.00  0.00     0.074 A 
ATOM     55  C   UNL     1      -1.309  -6.505  -3.106  1.00  0.00     0.049 A 
ATOM     56  N   UNL     1      -2.630  -8.116  -0.669  1.00  0.00    -0.248 NA
ATOM     57  C   UNL     1      -3.875  -6.152  -0.686  1.00  0.00     0.031 C 
ATOM     58  C   UNL     1      -0.498  -5.775  -4.082  1.00  0.00     0.029 A 
ATOM     59  N   UNL     1      -1.709  -7.607  -3.793  1.00  0.00    -0.354 N 
ATOM     60  C   UNL     1      -3.855  -8.354  -0.063  1.00  0.00     0.074 A 
ATOM     61  C   UNL     1      -4.535  -7.083   0.003  1.00  0.00     0.031 C 
ATOM     62  C   UNL     1      -0.644  -6.354  -5.296  1.00  0.00     0.029 A 
ATOM     63  C   UNL     1      -1.429  -7.567  -5.145  1.00  0.00     0.049 A 
ATOM     64  H   UNL     1      -2.160  -8.370  -3.363  1.00  0.00     0.167 HD
ATOM     65  C   UNL     1      -4.301  -9.617   0.163  1.00  0.00     0.037 A 
ATOM     66  C   UNL     1      -1.877  -8.443  -6.074  1.00  0.00     0.037 A 
ATOM     67  C   UNL     1      -3.232 -10.579   0.159  1.00  0.00     0.049 A 
ATOM     68  C   UNL     1      -2.242  -9.701  -5.375  1.00  0.00     0.074 A 
ATOM     69  C   UNL     1      -2.072 -10.741   0.895  1.00  0.00     0.029 A 
ATOM     70  N   UNL     1      -3.087 -11.400  -0.932  1.00  0.00    -0.354 N 
ATOM     71  N   UNL     1      -1.378 -10.525  -4.849  1.00  0.00    -0.248 NA
ATOM     72  C   UNL     1      -3.608  -9.843  -4.891  1.00  0.00     0.031 C 
ATOM     73  C   UNL     1      -1.112 -11.251  -0.028  1.00  0.00     0.029 A 
ATOM     74  C   UNL     1      -1.754 -11.390  -1.258  1.00  0.00     0.049 A 
ATOM     75  H   UNL     1      -3.801 -11.899  -1.392  1.00  0.00     0.167 HD
ATOM     76  C   UNL     1      -1.987 -10.993  -3.694  1.00  0.00     0.074 A 
ATOM     77  C   UNL     1      -3.392 -10.619  -3.826  1.00  0.00     0.031 C 
ATOM     78  C   UNL     1      -1.255 -11.395  -2.613  1.00  0.00     0.037 A 
BRANCH  65  79
ATOM     79  C   UNL     1      -5.749 -10.002   0.059  1.00  0.00     0.057 A 
ATOM     80  C   UNL     1      -6.173 -11.256   0.526  1.00  0.00     0.134 A 
ATOM     81  C   UNL     1      -6.682  -9.302  -0.734  1.00  0.00     0.134 A 
ATOM     82  F   UNL     1      -5.359 -12.027   1.261  1.00  0.00    -0.206 F 
ATOM     83  C   UNL     1      -7.419 -11.795   0.185  1.00  0.00     0.040 A 
ATOM     84  C   UNL     1      -7.947  -9.807  -1.035  1.00  0.00     0.040 A 
ATOM     85  F   UNL     1      -6.381  -8.144  -1.337  1.00  0.00    -0.206 F 
ATOM     86  C   UNL     1      -8.309 -11.071  -0.599  1.00  0.00     0.006 A 
ENDBRANCH  65  79
BRANCH  66  87
ATOM     87  C   UNL     1      -2.279  -8.149  -7.465  1.00  0.00     0.057 A 
ATOM     88  C   UNL     1      -2.467  -9.179  -8.396  1.00  0.00     0.134 A 
ATOM     89  C   UNL     1      -2.743  -6.877  -7.847  1.00  0.00     0.134 A 
ATOM     90  F   UNL     1      -2.098 -10.435  -8.105  1.00  0.00    -0.206 F 
ATOM     91  C   UNL     1      -3.100  -8.961  -9.626  1.00  0.00     0.040 A 
ATOM     92  C   UNL     1      -3.364  -6.643  -9.076  1.00  0.00     0.040 A 
ATOM     93  F   UNL     1      -2.693  -5.834  -7.006  1.00  0.00    -0.206 F 
ATOM     94  C   UNL     1      -3.558  -7.692  -9.966  1.00  0.00     0.006 A 
ENDBRANCH  66  87
BRANCH  78  95
ATOM     95  C   UNL     1       0.226 -11.572  -2.791  1.00  0.00     0.057 A 
ATOM     96  C   UNL     1       1.099 -10.527  -3.128  1.00  0.00     0.134 A 
ATOM     97  C   UNL     1       0.807 -12.804  -2.467  1.00  0.00     0.134 A 
ATOM     98  F   UNL     1       0.643  -9.286  -3.347  1.00  0.00    -0.206 F 
ATOM     99  C   UNL     1       2.484 -10.716  -3.190  1.00  0.00     0.040 A 
ATOM    100  C   UNL     1       2.191 -12.996  -2.493  1.00  0.00     0.040 A 
ATOM    101  F   UNL     1       0.039 -13.833  -2.075  1.00  0.00    -0.206 F 
ATOM    102  C   UNL     1       3.034 -11.953  -2.867  1.00  0.00     0.006 A 
ENDBRANCH  78  95
ENDBRANCH  52  53
ENDBRANCH  45  47
ENDBRANCH  44  45
ENDBRANCH  43  44
ENDBRANCH  42  43
ENDBRANCH  41  42
ENDBRANCH  40  41
ENDBRANCH  39  40
ENDBRANCH  38  39
ENDBRANCH   1  38
TORSDOF 25
