REMARK SMILES O=C(OCCOCCOCCOCCOC(=O)c1ccc(-c2c3nc(c(-c4c(F)cccc4F)c4ccc([nH]4)c(-c4c(F)cccc4F)c4nc(c(-c5c(F)cccc5F)c5ccc2[nH]5)C=C4)C=C3)cc1)C1=NN(c2ccc([N+](=O)[O-])cc2)[C@H](c2ccccc2)C1
REMARK SMILES IDX 9 1 8 2 7 3 6 4 5 5 4 6 3 7 2 8 1 9 72 10 73 11 91 12 74 13
REMARK SMILES IDX 84 14 75 15 76 16 83 17 77 18 82 19 78 20 79 21 80 22 81 23
REMARK SMILES IDX 85 24 86 25 90 26 87 27 89 28 88 29 10 30 11 31 12 32 13 33
REMARK SMILES IDX 14 34 15 35 16 36 17 37 18 38 19 39 71 40 20 41 70 42 21 43
REMARK SMILES IDX 22 44 23 45 64 46 24 47 69 48 63 49 65 50 25 51 68 52 62 53
REMARK SMILES IDX 61 54 26 56 52 57 35 58 51 59 36 60 39 61 50 62 66 63 37 64
REMARK SMILES IDX 38 65 49 67 67 68 40 69 27 70 28 71 33 72 29 73 30 74 32 75
REMARK SMILES IDX 34 76 31 77 53 78 54 79 59 80 55 81 56 82 58 83 60 84 57 85
REMARK SMILES IDX 41 86 42 87 47 88 43 89 44 90 46 91 48 92 45 93
REMARK H PARENT 65 55 39 66
REMARK Flexibility Score: inf
ROOT
ATOM      1  O   UNL     1       2.615  -1.433   3.247  1.00  0.00    -0.377 OA
ENDROOT
BRANCH   1   2
ATOM      2  C   UNL     1       2.099  -0.825   2.070  1.00  0.00     0.188 C 
BRANCH   2   3
ATOM      3  C   UNL     1       2.679  -1.286   0.735  1.00  0.00     0.188 C 
BRANCH   3   4
ATOM      4  O   UNL     1       4.064  -1.152   0.476  1.00  0.00    -0.376 OA
BRANCH   4   5
ATOM      5  C   UNL     1       4.826   0.038   0.524  1.00  0.00     0.202 C 
BRANCH   5   6
ATOM      6  C   UNL     1       4.325   1.344  -0.085  1.00  0.00     0.261 C 
BRANCH   6   7
ATOM      7  O   UNL     1       2.969   1.370  -0.532  1.00  0.00    -0.459 OA
BRANCH   7   8
ATOM      8  C   UNL     1       2.662   0.998  -1.785  1.00  0.00     0.354 C 
ATOM      9  O   UNL     1       1.711   1.460  -2.401  1.00  0.00    -0.245 OA
BRANCH   8  10
ATOM     10  C   UNL     1       3.363  -0.212  -2.357  1.00  0.00     0.148 C 
ATOM     11  N   UNL     1       4.604  -0.532  -2.141  1.00  0.00    -0.169 NA
ATOM     12  C   UNL     1       2.583  -1.189  -3.197  1.00  0.00     0.098 C 
ATOM     13  N   UNL     1       4.749  -1.737  -2.743  1.00  0.00    -0.257 N 
ATOM     14  C   UNL     1       3.782  -1.909  -3.830  1.00  0.00     0.144 C 
BRANCH  13  15
ATOM     15  C   UNL     1       5.819  -2.562  -2.456  1.00  0.00     0.061 A 
ATOM     16  C   UNL     1       5.637  -3.758  -1.746  1.00  0.00     0.035 A 
ATOM     17  C   UNL     1       7.114  -2.220  -2.863  1.00  0.00     0.035 A 
ATOM     18  C   UNL     1       6.713  -4.617  -1.486  1.00  0.00     0.088 A 
ATOM     19  C   UNL     1       8.194  -3.078  -2.642  1.00  0.00     0.088 A 
ATOM     20  C   UNL     1       7.986  -4.281  -1.959  1.00  0.00     0.269 A 
BRANCH  20  21
ATOM     21  N   UNL     1       9.111  -5.199  -1.752  1.00  0.00     0.062 N 
ATOM     22  O   UNL     1       8.935  -6.171  -1.004  1.00  0.00    -0.258 OA
ATOM     23  O   UNL     1      10.170  -4.957  -2.351  1.00  0.00    -0.258 OA
ENDBRANCH  20  21
ENDBRANCH  13  15
BRANCH  14  24
ATOM     24  C   UNL     1       4.388  -1.216  -5.058  1.00  0.00    -0.023 A 
ATOM     25  C   UNL     1       4.146   0.138  -5.363  1.00  0.00     0.006 A 
ATOM     26  C   UNL     1       5.418  -1.876  -5.749  1.00  0.00     0.006 A 
ATOM     27  C   UNL     1       4.978   0.834  -6.239  1.00  0.00     0.000 A 
ATOM     28  C   UNL     1       6.250  -1.176  -6.623  1.00  0.00     0.000 A 
ATOM     29  C   UNL     1       6.045   0.183  -6.848  1.00  0.00     0.000 A 
ENDBRANCH  14  24
ENDBRANCH   8  10
ENDBRANCH   7   8
ENDBRANCH   6   7
ENDBRANCH   5   6
ENDBRANCH   4   5
ENDBRANCH   3   4
ENDBRANCH   2   3
ENDBRANCH   1   2
BRANCH   1  30
ATOM     30  C   UNL     1       4.005  -1.224   3.449  1.00  0.00     0.188 C 
BRANCH  30  31
ATOM     31  C   UNL     1       4.879  -2.381   2.924  1.00  0.00     0.188 C 
BRANCH  31  32
ATOM     32  O   UNL     1       4.126  -3.369   2.228  1.00  0.00    -0.376 OA
BRANCH  32  33
ATOM     33  C   UNL     1       3.745  -4.521   2.968  1.00  0.00     0.202 C 
BRANCH  33  34
ATOM     34  C   UNL     1       2.844  -4.327   4.202  1.00  0.00     0.261 C 
BRANCH  34  35
ATOM     35  O   UNL     1       3.332  -3.441   5.226  1.00  0.00    -0.460 OA
BRANCH  35  36
ATOM     36  C   UNL     1       4.509  -3.726   5.819  1.00  0.00     0.338 C 
ATOM     37  O   UNL     1       5.183  -4.730   5.669  1.00  0.00    -0.246 OA
BRANCH  36  38
ATOM     38  C   UNL     1       4.977  -2.493   6.502  1.00  0.00     0.060 A 
ATOM     39  C   UNL     1       6.284  -2.049   6.252  1.00  0.00     0.016 A 
ATOM     40  C   UNL     1       4.123  -1.737   7.315  1.00  0.00     0.016 A 
ATOM     41  C   UNL     1       6.761  -0.892   6.867  1.00  0.00     0.010 A 
ATOM     42  C   UNL     1       4.609  -0.590   7.952  1.00  0.00     0.010 A 
ATOM     43  C   UNL     1       5.948  -0.199   7.775  1.00  0.00    -0.014 A 
BRANCH  43  44
ATOM     44  C   UNL     1       6.606   0.687   8.766  1.00  0.00     0.031 A 
ATOM     45  C   UNL     1       7.031   0.057  10.068  1.00  0.00     0.074 A 
ATOM     46  C   UNL     1       6.895   1.975   8.510  1.00  0.00     0.049 A 
ATOM     47  N   UNL     1       7.680   0.576  11.078  1.00  0.00    -0.248 NA
ATOM     48  C   UNL     1       6.677  -1.362  10.250  1.00  0.00     0.031 C 
ATOM     49  C   UNL     1       6.577   2.691   7.278  1.00  0.00     0.029 A 
ATOM     50  N   UNL     1       7.540   2.907   9.285  1.00  0.00    -0.354 N 
ATOM     51  C   UNL     1       7.810  -0.450  12.006  1.00  0.00     0.074 A 
ATOM     52  C   UNL     1       7.141  -1.609  11.462  1.00  0.00     0.031 C 
ATOM     53  C   UNL     1       7.030   3.954   7.379  1.00  0.00     0.029 A 
ATOM     54  C   UNL     1       7.655   4.139   8.689  1.00  0.00     0.049 A 
ATOM     55  H   UNL     1       7.887   2.711  10.185  1.00  0.00     0.167 HD
ATOM     56  C   UNL     1       8.444  -0.439  13.200  1.00  0.00     0.037 A 
ATOM     57  C   UNL     1       8.203   5.279   9.154  1.00  0.00     0.037 A 
ATOM     58  C   UNL     1       9.106   0.713  13.746  1.00  0.00     0.049 A 
ATOM     59  C   UNL     1       8.845   5.287  10.520  1.00  0.00     0.074 A 
ATOM     60  C   UNL     1       9.783   0.831  14.946  1.00  0.00     0.029 A 
ATOM     61  N   UNL     1       9.164   1.952  13.127  1.00  0.00    -0.354 N 
ATOM     62  N   UNL     1       8.993   4.304  11.375  1.00  0.00    -0.248 NA
ATOM     63  C   UNL     1       9.409   6.566  10.978  1.00  0.00     0.031 C 
ATOM     64  C   UNL     1      10.207   2.157  15.077  1.00  0.00     0.029 A 
ATOM     65  C   UNL     1       9.847   2.848  13.930  1.00  0.00     0.049 A 
ATOM     66  H   UNL     1       8.776   2.163  12.247  1.00  0.00     0.167 HD
ATOM     67  C   UNL     1       9.702   4.832  12.449  1.00  0.00     0.074 A 
ATOM     68  C   UNL     1       9.960   6.222  12.133  1.00  0.00     0.031 C 
ATOM     69  C   UNL     1      10.109   4.223  13.591  1.00  0.00     0.037 A 
BRANCH  56  70
ATOM     70  C   UNL     1       8.414  -1.705  14.004  1.00  0.00     0.057 A 
ATOM     71  C   UNL     1       9.132  -2.847  13.622  1.00  0.00     0.134 A 
ATOM     72  C   UNL     1       7.652  -1.784  15.177  1.00  0.00     0.134 A 
ATOM     73  F   UNL     1       9.861  -2.846  12.495  1.00  0.00    -0.206 F 
ATOM     74  C   UNL     1       9.072  -4.028  14.363  1.00  0.00     0.040 A 
ATOM     75  C   UNL     1       7.608  -2.950  15.941  1.00  0.00     0.040 A 
ATOM     76  F   UNL     1       6.938  -0.729  15.597  1.00  0.00    -0.206 F 
ATOM     77  C   UNL     1       8.314  -4.079  15.531  1.00  0.00     0.006 A 
ENDBRANCH  56  70
BRANCH  57  78
ATOM     78  C   UNL     1       8.182   6.516   8.328  1.00  0.00     0.057 A 
ATOM     79  C   UNL     1       9.362   7.069   7.816  1.00  0.00     0.134 A 
ATOM     80  C   UNL     1       6.988   7.199   8.070  1.00  0.00     0.134 A 
ATOM     81  F   UNL     1      10.543   6.478   8.051  1.00  0.00    -0.206 F 
ATOM     82  C   UNL     1       9.358   8.267   7.098  1.00  0.00     0.040 A 
ATOM     83  C   UNL     1       6.966   8.383   7.331  1.00  0.00     0.040 A 
ATOM     84  F   UNL     1       5.822   6.724   8.534  1.00  0.00    -0.206 F 
ATOM     85  C   UNL     1       8.156   8.926   6.850  1.00  0.00     0.006 A 
ENDBRANCH  57  78
BRANCH  69  86
ATOM     86  C   UNL     1      10.927   5.035  14.554  1.00  0.00     0.057 A 
ATOM     87  C   UNL     1      10.376   6.078  15.310  1.00  0.00     0.134 A 
ATOM     88  C   UNL     1      12.283   4.741  14.752  1.00  0.00     0.134 A 
ATOM     89  F   UNL     1       9.086   6.416  15.163  1.00  0.00    -0.206 F 
ATOM     90  C   UNL     1      11.152   6.821  16.202  1.00  0.00     0.040 A 
ATOM     91  C   UNL     1      13.061   5.456  15.664  1.00  0.00     0.040 A 
ATOM     92  F   UNL     1      12.871   3.745  14.072  1.00  0.00    -0.206 F 
ATOM     93  C   UNL     1      12.497   6.506  16.385  1.00  0.00     0.006 A 
ENDBRANCH  69  86
ENDBRANCH  43  44
ENDBRANCH  36  38
ENDBRANCH  35  36
ENDBRANCH  34  35
ENDBRANCH  33  34
ENDBRANCH  32  33
ENDBRANCH  31  32
ENDBRANCH  30  31
ENDBRANCH   1  30
TORSDOF 23
