REMARK SMILES CC[C@H](C(=O)OCCOCCOCCOCCOC(=O)c1ccc(-c2c3nc(c(-c4c(F)cccc4F)c4ccc([nH]4)c(-c4c(F)cccc4F)c4nc(c(-c5c(F)cccc5F)c5ccc2[nH]5)C=C4)C=C3)cc1)N1C(=O)c2ccc([N+](=O)[O-])cc2C1=O
REMARK SMILES IDX 12 1 11 2 10 3 9 4 8 5 7 6 6 7 4 8 5 9 3 10 2 11 1 12 75 13
REMARK SMILES IDX 76 14 87 15 77 16 78 17 86 18 88 19 79 20 85 21 80 22 81 23
REMARK SMILES IDX 82 24 83 25 84 26 13 27 14 28 15 29 16 30 17 31 18 32 19 33
REMARK SMILES IDX 20 34 21 35 22 36 74 37 23 38 73 39 24 40 25 41 26 42 67 43
REMARK SMILES IDX 27 44 72 45 66 46 68 47 28 48 71 49 65 50 64 51 29 53 55 54
REMARK SMILES IDX 38 55 54 56 39 57 42 58 53 59 69 60 40 61 41 62 52 64 70 65
REMARK SMILES IDX 43 66 30 67 31 68 36 69 32 70 33 71 35 72 37 73 34 74 56 75
REMARK SMILES IDX 57 76 62 77 58 78 59 79 61 80 63 81 60 82 44 83 45 84 50 85
REMARK SMILES IDX 46 86 47 87 49 88 51 89 48 90
REMARK H PARENT 68 52 42 63
REMARK Flexibility Score: inf
ROOT
ATOM      1  O   UNL     1       2.765   2.685   0.061  1.00  0.00    -0.377 OA
ENDROOT
BRANCH   1   2
ATOM      2  C   UNL     1       1.760   3.018  -0.880  1.00  0.00     0.188 C 
BRANCH   2   3
ATOM      3  C   UNL     1       0.299   3.090  -0.385  1.00  0.00     0.188 C 
BRANCH   3   4
ATOM      4  O   UNL     1       0.142   2.932   1.016  1.00  0.00    -0.376 OA
BRANCH   4   5
ATOM      5  C   UNL     1      -0.323   1.670   1.473  1.00  0.00     0.202 C 
BRANCH   5   6
ATOM      6  C   UNL     1       0.514   0.435   1.101  1.00  0.00     0.261 C 
BRANCH   6   7
ATOM      7  O   UNL     1       0.857   0.351  -0.295  1.00  0.00    -0.462 OA
BRANCH   7   8
ATOM      8  C   UNL     1      -0.101  -0.102  -1.149  1.00  0.00     0.329 C 
ATOM      9  O   UNL     1      -1.156  -0.595  -0.780  1.00  0.00    -0.250 OA
BRANCH   8  10
ATOM     10  C   UNL     1       0.318   0.166  -2.620  1.00  0.00     0.203 C 
BRANCH  10  11
ATOM     11  C   UNL     1       0.154  -1.121  -3.436  1.00  0.00     0.034 C 
ATOM     12  C   UNL     1      -1.265  -1.355  -3.926  1.00  0.00     0.007 C 
ENDBRANCH  10  11
BRANCH  10  13
ATOM     13  N   UNL     1      -0.291   1.345  -3.273  1.00  0.00    -0.260 N 
ATOM     14  C   UNL     1      -1.537   1.842  -2.999  1.00  0.00     0.262 C 
ATOM     15  C   UNL     1       0.250   1.979  -4.366  1.00  0.00     0.262 C 
ATOM     16  O   UNL     1      -2.349   1.518  -2.164  1.00  0.00    -0.269 OA
ATOM     17  C   UNL     1      -1.774   2.945  -3.920  1.00  0.00     0.053 A 
ATOM     18  C   UNL     1      -0.717   2.994  -4.807  1.00  0.00     0.060 A 
ATOM     19  O   UNL     1       1.315   1.778  -4.920  1.00  0.00    -0.269 OA
ATOM     20  C   UNL     1      -2.856   3.803  -3.989  1.00  0.00     0.022 A 
ATOM     21  C   UNL     1      -0.728   3.861  -5.889  1.00  0.00     0.100 A 
ATOM     22  C   UNL     1      -2.893   4.700  -5.056  1.00  0.00     0.086 A 
ATOM     23  C   UNL     1      -1.852   4.704  -6.017  1.00  0.00     0.270 A 
BRANCH  23  24
ATOM     24  N   UNL     1      -1.986   5.573  -7.196  1.00  0.00     0.062 N 
ATOM     25  O   UNL     1      -2.883   6.427  -7.181  1.00  0.00    -0.258 OA
ATOM     26  O   UNL     1      -1.206   5.383  -8.138  1.00  0.00    -0.258 OA
ENDBRANCH  23  24
ENDBRANCH  10  13
ENDBRANCH   8  10
ENDBRANCH   7   8
ENDBRANCH   6   7
ENDBRANCH   5   6
ENDBRANCH   4   5
ENDBRANCH   3   4
ENDBRANCH   2   3
ENDBRANCH   1   2
BRANCH   1  27
ATOM     27  C   UNL     1       2.812   3.381   1.303  1.00  0.00     0.188 C 
BRANCH  27  28
ATOM     28  C   UNL     1       2.148   4.771   1.479  1.00  0.00     0.188 C 
BRANCH  28  29
ATOM     29  O   UNL     1       1.683   5.378   0.286  1.00  0.00    -0.376 OA
BRANCH  29  30
ATOM     30  C   UNL     1       2.435   6.436  -0.277  1.00  0.00     0.202 C 
BRANCH  30  31
ATOM     31  C   UNL     1       3.873   6.131  -0.724  1.00  0.00     0.261 C 
BRANCH  31  32
ATOM     32  O   UNL     1       4.713   5.494   0.250  1.00  0.00    -0.460 OA
BRANCH  32  33
ATOM     33  C   UNL     1       5.010   6.212   1.355  1.00  0.00     0.338 C 
ATOM     34  O   UNL     1       4.666   7.353   1.604  1.00  0.00    -0.246 OA
BRANCH  33  35
ATOM     35  C   UNL     1       5.649   5.304   2.330  1.00  0.00     0.060 A 
ATOM     36  C   UNL     1       5.041   5.130   3.581  1.00  0.00     0.016 A 
ATOM     37  C   UNL     1       6.829   4.624   2.015  1.00  0.00     0.016 A 
ATOM     38  C   UNL     1       5.640   4.320   4.540  1.00  0.00     0.010 A 
ATOM     39  C   UNL     1       7.445   3.833   2.989  1.00  0.00     0.010 A 
ATOM     40  C   UNL     1       6.876   3.719   4.270  1.00  0.00    -0.014 A 
BRANCH  40  41
ATOM     41  C   UNL     1       7.654   3.178   5.409  1.00  0.00     0.031 A 
ATOM     42  C   UNL     1       8.713   4.052   6.026  1.00  0.00     0.074 A 
ATOM     43  C   UNL     1       7.361   1.983   5.948  1.00  0.00     0.049 A 
ATOM     44  N   UNL     1       9.468   3.833   7.072  1.00  0.00    -0.248 NA
ATOM     45  C   UNL     1       8.947   5.353   5.378  1.00  0.00     0.031 C 
ATOM     46  C   UNL     1       6.329   1.068   5.467  1.00  0.00     0.029 A 
ATOM     47  N   UNL     1       7.902   1.343   7.034  1.00  0.00    -0.354 N 
ATOM     48  C   UNL     1      10.262   4.966   7.206  1.00  0.00     0.074 A 
ATOM     49  C   UNL     1       9.929   5.851   6.112  1.00  0.00     0.031 C 
ATOM     50  C   UNL     1       6.308  -0.018   6.259  1.00  0.00     0.029 A 
ATOM     51  C   UNL     1       7.340   0.116   7.286  1.00  0.00     0.049 A 
ATOM     52  H   UNL     1       8.625   1.727   7.582  1.00  0.00     0.167 HD
ATOM     53  C   UNL     1      11.176   5.250   8.164  1.00  0.00     0.037 A 
ATOM     54  C   UNL     1       7.634  -0.795   8.233  1.00  0.00     0.037 A 
ATOM     55  C   UNL     1      11.510   4.364   9.247  1.00  0.00     0.049 A 
ATOM     56  C   UNL     1       8.707  -0.485   9.246  1.00  0.00     0.074 A 
ATOM     57  C   UNL     1      12.418   4.559  10.272  1.00  0.00     0.029 A 
ATOM     58  N   UNL     1      10.955   3.107   9.439  1.00  0.00    -0.354 N 
ATOM     59  N   UNL     1       9.435   0.598   9.380  1.00  0.00    -0.248 NA
ATOM     60  C   UNL     1       8.987  -1.522  10.248  1.00  0.00     0.031 C 
ATOM     61  C   UNL     1      12.458   3.396  11.048  1.00  0.00     0.029 A 
ATOM     62  C   UNL     1      11.521   2.505  10.551  1.00  0.00     0.049 A 
ATOM     63  H   UNL     1      10.261   2.703   8.869  1.00  0.00     0.167 HD
ATOM     64  C   UNL     1      10.230   0.388  10.501  1.00  0.00     0.074 A 
ATOM     65  C   UNL     1       9.881  -0.919  11.018  1.00  0.00     0.031 C 
ATOM     66  C   UNL     1      11.162   1.203  11.057  1.00  0.00     0.037 A 
BRANCH  53  67
ATOM     67  C   UNL     1      11.902   6.561   8.058  1.00  0.00     0.057 A 
ATOM     68  C   UNL     1      11.261   7.789   8.270  1.00  0.00     0.134 A 
ATOM     69  C   UNL     1      13.270   6.593   7.759  1.00  0.00     0.134 A 
ATOM     70  F   UNL     1       9.947   7.833   8.542  1.00  0.00    -0.206 F 
ATOM     71  C   UNL     1      11.947   9.001   8.163  1.00  0.00     0.040 A 
ATOM     72  C   UNL     1      13.975   7.796   7.681  1.00  0.00     0.040 A 
ATOM     73  F   UNL     1      13.948   5.455   7.545  1.00  0.00    -0.206 F 
ATOM     74  C   UNL     1      13.311   9.005   7.877  1.00  0.00     0.006 A 
ENDBRANCH  53  67
BRANCH  54  75
ATOM     75  C   UNL     1       6.907  -2.091   8.274  1.00  0.00     0.057 A 
ATOM     76  C   UNL     1       6.058  -2.420   9.337  1.00  0.00     0.134 A 
ATOM     77  C   UNL     1       7.071  -3.046   7.262  1.00  0.00     0.134 A 
ATOM     78  F   UNL     1       5.878  -1.559  10.349  1.00  0.00    -0.206 F 
ATOM     79  C   UNL     1       5.418  -3.659   9.406  1.00  0.00     0.040 A 
ATOM     80  C   UNL     1       6.412  -4.276   7.302  1.00  0.00     0.040 A 
ATOM     81  F   UNL     1       7.869  -2.793   6.215  1.00  0.00    -0.206 F 
ATOM     82  C   UNL     1       5.590  -4.589   8.383  1.00  0.00     0.006 A 
ENDBRANCH  54  75
BRANCH  66  83
ATOM     83  C   UNL     1      11.829   0.726  12.318  1.00  0.00     0.057 A 
ATOM     84  C   UNL     1      12.711  -0.363  12.334  1.00  0.00     0.134 A 
ATOM     85  C   UNL     1      11.588   1.376  13.536  1.00  0.00     0.134 A 
ATOM     86  F   UNL     1      12.982  -1.036  11.205  1.00  0.00    -0.206 F 
ATOM     87  C   UNL     1      13.290  -0.816  13.521  1.00  0.00     0.040 A 
ATOM     88  C   UNL     1      12.190   0.955  14.723  1.00  0.00     0.040 A 
ATOM     89  F   UNL     1      10.767   2.436  13.594  1.00  0.00    -0.206 F 
ATOM     90  C   UNL     1      13.033  -0.154  14.719  1.00  0.00     0.006 A 
ENDBRANCH  66  83
ENDBRANCH  40  41
ENDBRANCH  33  35
ENDBRANCH  32  33
ENDBRANCH  31  32
ENDBRANCH  30  31
ENDBRANCH  29  30
ENDBRANCH  28  29
ENDBRANCH  27  28
ENDBRANCH   1  27
TORSDOF 23
