REMARK SMILES CC1(C)CSC[C@](O)([C@H](F)C(=O)OCCOCCOCCOCCOC(=O)c2ccc(-c3c4nc(c(-c5c(F)cccc5F)c5ccc([nH]5)c(-c5c(F)cccc5F)c5nc(c(-c6c(F)cccc6F)c6ccc3[nH]6)C=C5)C=C4)cc2)C1
REMARK SMILES IDX 19 1 18 2 17 3 16 4 15 5 14 6 13 7 11 8 12 9 9 10 10 11 7 12
REMARK SMILES IDX 1 13 2 14 3 15 4 16 82 17 5 18 6 19 8 20 20 22 21 23 22 24
REMARK SMILES IDX 23 25 24 26 25 27 26 28 27 29 28 30 29 31 81 32 30 33 80 34
REMARK SMILES IDX 31 35 32 36 33 37 74 38 34 39 79 40 73 41 75 42 35 43 78 44
REMARK SMILES IDX 72 45 71 46 36 48 62 49 45 50 61 51 46 52 49 53 60 54 76 55
REMARK SMILES IDX 47 56 48 57 59 59 77 60 50 61 37 62 38 63 43 64 39 65 40 66
REMARK SMILES IDX 42 67 44 68 41 69 63 70 64 71 69 72 65 73 66 74 68 75 70 76
REMARK SMILES IDX 67 77 51 78 52 79 57 80 53 81 54 82 56 83 58 84 55 85
REMARK H PARENT 8 21 75 47 49 58
REMARK Flexibility Score: inf
ROOT
ATOM      1  O   UNL     1       2.393   3.612   3.158  1.00  0.00    -0.377 OA
ENDROOT
BRANCH   1   2
ATOM      2  C   UNL     1       3.332   2.981   2.315  1.00  0.00     0.188 C 
BRANCH   2   3
ATOM      3  C   UNL     1       4.675   3.732   2.204  1.00  0.00     0.188 C 
BRANCH   3   4
ATOM      4  O   UNL     1       5.059   4.763   3.109  1.00  0.00    -0.376 OA
BRANCH   4   5
ATOM      5  C   UNL     1       4.178   5.757   3.610  1.00  0.00     0.202 C 
BRANCH   5   6
ATOM      6  C   UNL     1       3.282   6.601   2.701  1.00  0.00     0.261 C 
BRANCH   6   7
ATOM      7  O   UNL     1       2.474   5.851   1.802  1.00  0.00    -0.461 OA
BRANCH   7   8
ATOM      8  C   UNL     1       2.983   5.678   0.558  1.00  0.00     0.343 C 
ATOM      9  O   UNL     1       4.015   6.198   0.153  1.00  0.00    -0.249 OA
BRANCH   8  10
ATOM     10  C   UNL     1       2.068   4.800  -0.284  1.00  0.00     0.308 C 
ATOM     11  F   UNL     1       1.084   4.212   0.471  1.00  0.00    -0.232 F 
BRANCH  10  12
ATOM     12  C   UNL     1       1.385   5.639  -1.374  1.00  0.00     0.116 C 
ATOM     13  C   UNL     1       0.862   6.415  -4.449  1.00  0.00     0.012 C 
ATOM     14  C   UNL     1       1.973   6.984  -3.547  1.00  0.00    -0.023 C 
ATOM     15  C   UNL     1       3.199   7.260  -4.445  1.00  0.00     0.012 C 
ATOM     16  C   UNL     1       1.552   8.299  -2.865  1.00  0.00     0.076 C 
ATOM     17  C   UNL     1       2.415   5.968  -2.474  1.00  0.00     0.047 C 
ATOM     18  S   UNL     1       0.065   8.110  -1.832  1.00  0.00    -0.158 SA
ATOM     19  C   UNL     1       0.708   6.855  -0.696  1.00  0.00     0.108 C 
BRANCH  12  20
ATOM     20  O   UNL     1       0.395   4.791  -1.997  1.00  0.00    -0.385 OA
ATOM     21  H   UNL     1      -0.061   5.286  -2.696  1.00  0.00     0.211 HD
ENDBRANCH  12  20
ENDBRANCH  10  12
ENDBRANCH   8  10
ENDBRANCH   7   8
ENDBRANCH   6   7
ENDBRANCH   5   6
ENDBRANCH   4   5
ENDBRANCH   3   4
ENDBRANCH   2   3
ENDBRANCH   1   2
BRANCH   1  22
ATOM     22  C   UNL     1       2.298   3.122   4.490  1.00  0.00     0.188 C 
BRANCH  22  23
ATOM     23  C   UNL     1       3.604   2.717   5.210  1.00  0.00     0.188 C 
BRANCH  23  24
ATOM     24  O   UNL     1       4.443   1.865   4.445  1.00  0.00    -0.376 OA
BRANCH  24  25
ATOM     25  C   UNL     1       4.435   0.474   4.722  1.00  0.00     0.202 C 
BRANCH  25  26
ATOM     26  C   UNL     1       3.135  -0.298   4.441  1.00  0.00     0.261 C 
BRANCH  26  27
ATOM     27  O   UNL     1       1.952   0.184   5.096  1.00  0.00    -0.460 OA
BRANCH  27  28
ATOM     28  C   UNL     1       1.942   0.200   6.443  1.00  0.00     0.338 C 
ATOM     29  O   UNL     1       2.820  -0.204   7.191  1.00  0.00    -0.246 OA
BRANCH  28  30
ATOM     30  C   UNL     1       0.767   0.981   6.880  1.00  0.00     0.060 A 
ATOM     31  C   UNL     1       0.965   2.124   7.667  1.00  0.00     0.016 A 
ATOM     32  C   UNL     1      -0.524   0.586   6.520  1.00  0.00     0.016 A 
ATOM     33  C   UNL     1      -0.130   2.849   8.135  1.00  0.00     0.010 A 
ATOM     34  C   UNL     1      -1.621   1.300   7.009  1.00  0.00     0.010 A 
ATOM     35  C   UNL     1      -1.429   2.409   7.852  1.00  0.00    -0.014 A 
BRANCH  35  36
ATOM     36  C   UNL     1      -2.573   2.977   8.605  1.00  0.00     0.031 A 
ATOM     37  C   UNL     1      -3.085   2.219   9.800  1.00  0.00     0.074 A 
ATOM     38  C   UNL     1      -3.129   4.151   8.261  1.00  0.00     0.049 A 
ATOM     39  N   UNL     1      -4.085   2.494  10.597  1.00  0.00    -0.248 NA
ATOM     40  C   UNL     1      -2.369   0.978  10.139  1.00  0.00     0.031 C 
ATOM     41  C   UNL     1      -2.693   5.003   7.157  1.00  0.00     0.029 A 
ATOM     42  N   UNL     1      -4.190   4.825   8.811  1.00  0.00    -0.354 N 
ATOM     43  C   UNL     1      -4.129   1.455  11.518  1.00  0.00     0.074 A 
ATOM     44  C   UNL     1      -3.073   0.531  11.166  1.00  0.00     0.031 C 
ATOM     45  C   UNL     1      -3.484   6.090   7.109  1.00  0.00     0.029 A 
ATOM     46  C   UNL     1      -4.502   5.990   8.154  1.00  0.00     0.049 A 
ATOM     47  H   UNL     1      -4.681   4.504   9.601  1.00  0.00     0.167 HD
ATOM     48  C   UNL     1      -4.970   1.287  12.565  1.00  0.00     0.037 A 
ATOM     49  C   UNL     1      -5.507   6.862   8.364  1.00  0.00     0.037 A 
ATOM     50  C   UNL     1      -6.020   2.209  12.912  1.00  0.00     0.049 A 
ATOM     51  C   UNL     1      -6.482   6.610   9.486  1.00  0.00     0.074 A 
ATOM     52  C   UNL     1      -6.905   2.148  13.973  1.00  0.00     0.029 A 
ATOM     53  N   UNL     1      -6.335   3.353  12.193  1.00  0.00    -0.354 N 
ATOM     54  N   UNL     1      -6.496   5.646  10.374  1.00  0.00    -0.248 NA
ATOM     55  C   UNL     1      -7.584   7.573   9.632  1.00  0.00     0.031 C 
ATOM     56  C   UNL     1      -7.800   3.216  13.857  1.00  0.00     0.029 A 
ATOM     57  C   UNL     1      -7.428   3.984  12.764  1.00  0.00     0.049 A 
ATOM     58  H   UNL     1      -5.854   3.669  11.394  1.00  0.00     0.167 HD
ATOM     59  C   UNL     1      -7.581   5.905  11.205  1.00  0.00     0.074 A 
ATOM     60  C   UNL     1      -8.194   7.124  10.720  1.00  0.00     0.031 C 
ATOM     61  C   UNL     1      -8.027   5.200  12.275  1.00  0.00     0.037 A 
BRANCH  48  62
ATOM     62  C   UNL     1      -4.818   0.035  13.381  1.00  0.00     0.057 A 
ATOM     63  C   UNL     1      -3.709  -0.191  14.208  1.00  0.00     0.134 A 
ATOM     64  C   UNL     1      -5.809  -0.955  13.347  1.00  0.00     0.134 A 
ATOM     65  F   UNL     1      -2.716   0.708  14.275  1.00  0.00    -0.206 F 
ATOM     66  C   UNL     1      -3.577  -1.370  14.946  1.00  0.00     0.040 A 
ATOM     67  C   UNL     1      -5.703  -2.122  14.105  1.00  0.00     0.040 A 
ATOM     68  F   UNL     1      -6.899  -0.803  12.580  1.00  0.00    -0.206 F 
ATOM     69  C   UNL     1      -4.580  -2.336  14.901  1.00  0.00     0.006 A 
ENDBRANCH  48  62
BRANCH  49  70
ATOM     70  C   UNL     1      -5.653   8.059   7.495  1.00  0.00     0.057 A 
ATOM     71  C   UNL     1      -5.461   9.349   8.004  1.00  0.00     0.134 A 
ATOM     72  C   UNL     1      -6.015   7.946   6.147  1.00  0.00     0.134 A 
ATOM     73  F   UNL     1      -5.139   9.525   9.294  1.00  0.00    -0.206 F 
ATOM     74  C   UNL     1      -5.641  10.484   7.210  1.00  0.00     0.040 A 
ATOM     75  C   UNL     1      -6.171   9.071   5.335  1.00  0.00     0.040 A 
ATOM     76  F   UNL     1      -6.217   6.739   5.598  1.00  0.00    -0.206 F 
ATOM     77  C   UNL     1      -5.992  10.345   5.869  1.00  0.00     0.006 A 
ENDBRANCH  49  70
BRANCH  61  78
ATOM     78  C   UNL     1      -9.208   5.753  13.024  1.00  0.00     0.057 A 
ATOM     79  C   UNL     1     -10.498   5.767  12.479  1.00  0.00     0.134 A 
ATOM     80  C   UNL     1      -9.054   6.248  14.326  1.00  0.00     0.134 A 
ATOM     81  F   UNL     1     -10.715   5.318  11.233  1.00  0.00    -0.206 F 
ATOM     82  C   UNL     1     -11.585   6.282  13.188  1.00  0.00     0.040 A 
ATOM     83  C   UNL     1     -10.139   6.733  15.058  1.00  0.00     0.040 A 
ATOM     84  F   UNL     1      -7.849   6.253  14.917  1.00  0.00    -0.206 F 
ATOM     85  C   UNL     1     -11.408   6.760  14.485  1.00  0.00     0.006 A 
ENDBRANCH  61  78
ENDBRANCH  35  36
ENDBRANCH  28  30
ENDBRANCH  27  28
ENDBRANCH  26  27
ENDBRANCH  25  26
ENDBRANCH  24  25
ENDBRANCH  23  24
ENDBRANCH  22  23
ENDBRANCH   1  22
TORSDOF 22
