REMARK SMILES C[C@@H](c1ccccn1)S(=O)(=O)N1CC[NH2+]C[C@@H]1C(=O)OCCOCCOCCOCCOC(=O)c1ccc(-c2c3nc(c(-c4c(F)cccc4F)c4ccc([nH]4)c(-c4c(F)cccc4F)c4nc(c(-c5c(F)cccc5F)c5ccc2[nH]5)C=C4)C=C3)cc1
REMARK SMILES IDX 25 1 24 2 23 3 22 4 21 5 20 6 18 7 19 8 17 9 12 10 13 11
REMARK SMILES IDX 14 12 16 13 15 14 9 17 10 18 11 19 2 20 1 21 3 22 4 23 8 24
REMARK SMILES IDX 5 25 7 26 6 27 26 28 27 29 28 30 29 31 30 32 31 33 32 34
REMARK SMILES IDX 33 35 34 36 35 37 36 38 88 39 37 40 87 41 38 42 39 43 40 44
REMARK SMILES IDX 81 45 41 46 86 47 80 48 82 49 42 50 85 51 79 52 78 53 43 55
REMARK SMILES IDX 69 56 52 57 68 58 53 59 56 60 67 61 83 62 54 63 55 64 66 66
REMARK SMILES IDX 84 67 57 68 44 69 45 70 50 71 46 72 47 73 49 74 51 75 48 76
REMARK SMILES IDX 70 77 71 78 76 79 72 80 73 81 75 82 77 83 74 84 58 85 59 86
REMARK SMILES IDX 64 87 60 88 61 89 63 90 65 91 62 92
REMARK H PARENT 15 15 15 16 82 54 56 65
REMARK Flexibility Score: inf
ROOT
ATOM      1  C   UNL     1      -0.640   5.373  -1.391  1.00  0.00     0.188 C 
ENDROOT
BRANCH   1   2
ATOM      2  C   UNL     1      -0.422   4.430  -2.596  1.00  0.00     0.188 C 
BRANCH   2   3
ATOM      3  O   UNL     1      -1.119   4.602  -3.826  1.00  0.00    -0.376 OA
BRANCH   3   4
ATOM      4  C   UNL     1      -2.470   5.027  -3.900  1.00  0.00     0.202 C 
BRANCH   4   5
ATOM      5  C   UNL     1      -3.573   4.378  -3.054  1.00  0.00     0.261 C 
BRANCH   5   6
ATOM      6  O   UNL     1      -3.188   4.017  -1.729  1.00  0.00    -0.462 OA
BRANCH   6   7
ATOM      7  C   UNL     1      -2.796   2.730  -1.535  1.00  0.00     0.330 C 
ATOM      8  O   UNL     1      -2.805   1.871  -2.408  1.00  0.00    -0.250 OA
BRANCH   7   9
ATOM      9  C   UNL     1      -2.249   2.536  -0.104  1.00  0.00     0.237 C 
ATOM     10  N   UNL     1      -2.312   1.092   0.286  1.00  0.00    -0.176 NA
ATOM     11  C   UNL     1      -3.766   0.691   0.398  1.00  0.00     0.164 C 
ATOM     12  C   UNL     1      -4.561   1.630   1.340  1.00  0.00     0.277 C 
ATOM     13  C   UNL     1      -3.011   3.427   0.909  1.00  0.00     0.293 C 
ATOM     14  N   UNL     1      -4.433   3.073   1.059  1.00  0.00    -0.343 N 
ATOM     15  H   UNL     1      -4.835   3.605   1.831  1.00  0.00     0.346 HD
ATOM     16  H   UNL     1      -4.928   3.294   0.195  1.00  0.00     0.346 HD
BRANCH  10  17
ATOM     17  S   UNL     1      -1.336   0.514   1.540  1.00  0.00     0.223 S 
ATOM     18  O   UNL     1      -1.549  -0.923   1.548  1.00  0.00    -0.211 OA
ATOM     19  O   UNL     1      -1.680   1.246   2.740  1.00  0.00    -0.211 OA
BRANCH  17  20
ATOM     20  C   UNL     1       0.424   0.763   1.143  1.00  0.00     0.170 C 
ATOM     21  C   UNL     1       0.781   0.116  -0.200  1.00  0.00     0.033 C 
BRANCH  20  22
ATOM     22  C   UNL     1       0.990   2.170   1.288  1.00  0.00     0.060 A 
ATOM     23  C   UNL     1       0.439   3.219   2.017  1.00  0.00     0.025 A 
ATOM     24  N   UNL     1       2.229   2.330   0.738  1.00  0.00    -0.260 NA
ATOM     25  C   UNL     1       1.105   4.447   2.105  1.00  0.00     0.004 A 
ATOM     26  C   UNL     1       2.888   3.502   0.886  1.00  0.00     0.111 A 
ATOM     27  C   UNL     1       2.359   4.593   1.539  1.00  0.00     0.020 A 
ENDBRANCH  20  22
ENDBRANCH  17  20
ENDBRANCH  10  17
ENDBRANCH   7   9
ENDBRANCH   6   7
ENDBRANCH   5   6
ENDBRANCH   4   5
ENDBRANCH   3   4
ENDBRANCH   2   3
ENDBRANCH   1   2
BRANCH   1  28
ATOM     28  O   UNL     1      -1.702   6.293  -1.554  1.00  0.00    -0.377 OA
BRANCH  28  29
ATOM     29  C   UNL     1      -1.325   7.599  -1.978  1.00  0.00     0.188 C 
BRANCH  29  30
ATOM     30  C   UNL     1      -0.249   7.710  -3.080  1.00  0.00     0.188 C 
BRANCH  30  31
ATOM     31  O   UNL     1       0.920   6.943  -2.823  1.00  0.00    -0.376 OA
BRANCH  31  32
ATOM     32  C   UNL     1       2.080   7.593  -2.332  1.00  0.00     0.202 C 
BRANCH  32  33
ATOM     33  C   UNL     1       2.021   8.150  -0.900  1.00  0.00     0.261 C 
BRANCH  33  34
ATOM     34  O   UNL     1       0.956   9.071  -0.627  1.00  0.00    -0.460 OA
BRANCH  34  35
ATOM     35  C   UNL     1       0.952  10.222  -1.327  1.00  0.00     0.338 C 
ATOM     36  O   UNL     1       1.795  10.594  -2.130  1.00  0.00    -0.246 OA
BRANCH  35  37
ATOM     37  C   UNL     1      -0.352  10.885  -1.129  1.00  0.00     0.060 A 
ATOM     38  C   UNL     1      -1.134  11.162  -2.257  1.00  0.00     0.016 A 
ATOM     39  C   UNL     1      -0.797  11.243   0.146  1.00  0.00     0.016 A 
ATOM     40  C   UNL     1      -2.337  11.848  -2.119  1.00  0.00     0.010 A 
ATOM     41  C   UNL     1      -1.996  11.952   0.282  1.00  0.00     0.010 A 
ATOM     42  C   UNL     1      -2.747  12.296  -0.856  1.00  0.00    -0.014 A 
BRANCH  42  43
ATOM     43  C   UNL     1      -3.843  13.292  -0.781  1.00  0.00     0.031 A 
ATOM     44  C   UNL     1      -3.481  14.749  -0.662  1.00  0.00     0.074 A 
ATOM     45  C   UNL     1      -5.129  12.922  -0.919  1.00  0.00     0.049 A 
ATOM     46  N   UNL     1      -4.260  15.800  -0.635  1.00  0.00    -0.248 NA
ATOM     47  C   UNL     1      -2.045  15.063  -0.567  1.00  0.00     0.031 C 
ATOM     48  C   UNL     1      -5.601  11.548  -1.082  1.00  0.00     0.029 A 
ATOM     49  N   UNL     1      -6.273  13.678  -0.953  1.00  0.00    -0.354 N 
ATOM     50  C   UNL     1      -3.410  16.896  -0.538  1.00  0.00     0.074 A 
ATOM     51  C   UNL     1      -2.061  16.382  -0.457  1.00  0.00     0.031 C 
ATOM     52  C   UNL     1      -6.941  11.559  -1.195  1.00  0.00     0.029 A 
ATOM     53  C   UNL     1      -7.421  12.936  -1.087  1.00  0.00     0.049 A 
ATOM     54  H   UNL     1      -6.272  14.661  -0.886  1.00  0.00     0.167 HD
ATOM     55  C   UNL     1      -3.723  18.213  -0.541  1.00  0.00     0.037 A 
ATOM     56  C   UNL     1      -8.710  13.326  -1.105  1.00  0.00     0.037 A 
ATOM     57  C   UNL     1      -5.066  18.725  -0.609  1.00  0.00     0.049 A 
ATOM     58  C   UNL     1      -9.034  14.797  -1.016  1.00  0.00     0.074 A 
ATOM     59  C   UNL     1      -5.490  20.042  -0.595  1.00  0.00     0.029 A 
ATOM     60  N   UNL     1      -6.205  17.939  -0.700  1.00  0.00    -0.354 N 
ATOM     61  N   UNL     1      -8.222  15.824  -0.943  1.00  0.00    -0.248 NA
ATOM     62  C   UNL     1     -10.458  15.162  -1.026  1.00  0.00     0.031 C 
ATOM     63  C   UNL     1      -6.888  20.052  -0.630  1.00  0.00     0.029 A 
ATOM     64  C   UNL     1      -7.332  18.744  -0.728  1.00  0.00     0.049 A 
ATOM     65  H   UNL     1      -6.212  16.955  -0.739  1.00  0.00     0.167 HD
ATOM     66  C   UNL     1      -9.033  16.953  -0.932  1.00  0.00     0.074 A 
ATOM     67  C   UNL     1     -10.399  16.485  -1.034  1.00  0.00     0.031 C 
ATOM     68  C   UNL     1      -8.685  18.261  -0.840  1.00  0.00     0.037 A 
BRANCH  55  69
ATOM     69  C   UNL     1      -2.589  19.195  -0.464  1.00  0.00     0.057 A 
ATOM     70  C   UNL     1      -1.715  19.397  -1.540  1.00  0.00     0.134 A 
ATOM     71  C   UNL     1      -2.397  19.981   0.679  1.00  0.00     0.134 A 
ATOM     72  F   UNL     1      -1.832  18.664  -2.658  1.00  0.00    -0.206 F 
ATOM     73  C   UNL     1      -0.682  20.334  -1.476  1.00  0.00     0.040 A 
ATOM     74  C   UNL     1      -1.386  20.941   0.744  1.00  0.00     0.040 A 
ATOM     75  F   UNL     1      -3.199  19.840   1.746  1.00  0.00    -0.206 F 
ATOM     76  C   UNL     1      -0.522  21.116  -0.335  1.00  0.00     0.006 A 
ENDBRANCH  55  69
BRANCH  56  77
ATOM     77  C   UNL     1      -9.804  12.321  -1.182  1.00  0.00     0.057 A 
ATOM     78  C   UNL     1     -10.676  12.267  -2.276  1.00  0.00     0.134 A 
ATOM     79  C   UNL     1     -10.046  11.434  -0.125  1.00  0.00     0.134 A 
ATOM     80  F   UNL     1     -10.514  13.104  -3.312  1.00  0.00    -0.206 F 
ATOM     81  C   UNL     1     -11.770  11.398  -2.299  1.00  0.00     0.040 A 
ATOM     82  C   UNL     1     -11.114  10.537  -0.150  1.00  0.00     0.040 A 
ATOM     83  F   UNL     1      -9.247  11.430   0.952  1.00  0.00    -0.206 F 
ATOM     84  C   UNL     1     -11.990  10.528  -1.234  1.00  0.00     0.006 A 
ENDBRANCH  56  77
BRANCH  68  85
ATOM     85  C   UNL     1      -9.796  19.272  -0.895  1.00  0.00     0.057 A 
ATOM     86  C   UNL     1     -10.730  19.410   0.140  1.00  0.00     0.134 A 
ATOM     87  C   UNL     1      -9.927  20.127  -1.998  1.00  0.00     0.134 A 
ATOM     88  F   UNL     1     -10.668  18.618   1.222  1.00  0.00    -0.206 F 
ATOM     89  C   UNL     1     -11.779  20.327   0.060  1.00  0.00     0.040 A 
ATOM     90  C   UNL     1     -10.950  21.072  -2.073  1.00  0.00     0.040 A 
ATOM     91  F   UNL     1      -9.058  20.062  -3.019  1.00  0.00    -0.206 F 
ATOM     92  C   UNL     1     -11.889  21.165  -1.048  1.00  0.00     0.006 A 
ENDBRANCH  68  85
ENDBRANCH  42  43
ENDBRANCH  35  37
ENDBRANCH  34  35
ENDBRANCH  33  34
ENDBRANCH  32  33
ENDBRANCH  31  32
ENDBRANCH  30  31
ENDBRANCH  29  30
ENDBRANCH  28  29
ENDBRANCH   1  28
TORSDOF 23
