REMARK SMILES O=C(COc1ccccc1C[NH+]1CCC2(CC[NH2+]CC2)CC1)OCCOCCOCCOCCOC(=O)c1ccc(-c2c3nc(c(-c4c(F)cccc4F)c4ccc([nH]4)c(-c4c(F)cccc4F)c4nc(c(-c5c(F)cccc5F)c5ccc2[nH]5)C=C4)C=C3)cc1
REMARK SMILES IDX 28 1 27 2 26 3 25 4 24 5 23 6 2 7 1 8 3 9 4 10 5 11 6 12
REMARK SMILES IDX 10 13 7 14 9 15 8 16 11 17 12 18 13 19 22 20 14 22 21 23
REMARK SMILES IDX 15 24 16 25 20 26 17 27 19 28 18 29 29 32 30 33 31 34 32 35
REMARK SMILES IDX 33 36 34 37 35 38 36 39 37 40 38 41 39 42 91 43 40 44 90 45
REMARK SMILES IDX 41 46 42 47 43 48 84 49 44 50 89 51 83 52 85 53 45 54 88 55
REMARK SMILES IDX 82 56 81 57 46 59 72 60 55 61 71 62 56 63 59 64 70 65 86 66
REMARK SMILES IDX 57 67 58 68 69 70 87 71 60 72 47 73 48 74 53 75 49 76 50 77
REMARK SMILES IDX 52 78 54 79 51 80 73 81 74 82 79 83 75 84 76 85 78 86 80 87
REMARK SMILES IDX 77 88 61 89 62 90 67 91 63 92 64 93 66 94 68 95 65 96
REMARK H PARENT 12 21 18 30 18 31 85 58 59 69
REMARK Flexibility Score: inf
ROOT
ATOM      1  C   UNL     1       2.352  -2.692  -1.185  1.00  0.00     0.188 C 
ENDROOT
BRANCH   1   2
ATOM      2  C   UNL     1       3.177  -1.835  -2.187  1.00  0.00     0.188 C 
BRANCH   2   3
ATOM      3  O   UNL     1       4.521  -1.514  -1.863  1.00  0.00    -0.376 OA
BRANCH   3   4
ATOM      4  C   UNL     1       4.957  -0.514  -0.970  1.00  0.00     0.202 C 
BRANCH   4   5
ATOM      5  C   UNL     1       4.131  -0.102   0.237  1.00  0.00     0.261 C 
BRANCH   5   6
ATOM      6  O   UNL     1       2.706  -0.160   0.077  1.00  0.00    -0.461 OA
BRANCH   6   7
ATOM      7  C   UNL     1       1.960   0.484  -0.850  1.00  0.00     0.344 C 
ATOM      8  O   UNL     1       0.819   0.099  -1.105  1.00  0.00    -0.248 OA
BRANCH   7   9
ATOM      9  C   UNL     1       2.559   1.672  -1.540  1.00  0.00     0.351 C 
BRANCH   9  10
ATOM     10  O   UNL     1       3.360   2.398  -0.622  1.00  0.00    -0.481 OA
BRANCH  10  11
ATOM     11  C   UNL     1       2.761   3.551  -0.212  1.00  0.00     0.129 A 
ATOM     12  C   UNL     1       3.377   4.696  -0.734  1.00  0.00     0.047 A 
ATOM     13  C   UNL     1       1.681   3.626   0.691  1.00  0.00     0.048 A 
ATOM     14  C   UNL     1       2.878   5.952  -0.433  1.00  0.00     0.004 A 
ATOM     15  C   UNL     1       1.149   4.908   0.901  1.00  0.00     0.013 A 
ATOM     16  C   UNL     1       1.746   6.055   0.364  1.00  0.00     0.001 A 
BRANCH  13  17
ATOM     17  C   UNL     1       1.016   2.463   1.420  1.00  0.00     0.302 C 
BRANCH  17  18
ATOM     18  N   UNL     1       1.334   2.118   2.812  1.00  0.00    -0.331 N 
ATOM     19  C   UNL     1       2.586   1.428   3.067  1.00  0.00     0.263 C 
ATOM     20  C   UNL     1       1.062   3.101   3.836  1.00  0.00     0.263 C 
ATOM     21  H   UNL     1       0.602   1.414   2.911  1.00  0.00     0.348 HD
ATOM     22  C   UNL     1       3.776   2.368   2.999  1.00  0.00     0.069 C 
ATOM     23  C   UNL     1       2.171   4.136   3.993  1.00  0.00     0.069 C 
ATOM     24  C   UNL     1       3.631   3.600   3.931  1.00  0.00    -0.008 C 
ATOM     25  C   UNL     1       4.116   3.237   5.356  1.00  0.00     0.069 C 
ATOM     26  C   UNL     1       4.517   4.752   3.390  1.00  0.00     0.069 C 
ATOM     27  C   UNL     1       5.635   3.045   5.437  1.00  0.00     0.261 C 
ATOM     28  C   UNL     1       6.008   4.469   3.523  1.00  0.00     0.261 C 
ATOM     29  N   UNL     1       6.367   4.200   4.915  1.00  0.00    -0.346 N 
ATOM     30  H   UNL     1       7.369   4.012   4.970  1.00  0.00     0.346 HD
ATOM     31  H   UNL     1       6.124   5.017   5.475  1.00  0.00     0.346 HD
ENDBRANCH  17  18
ENDBRANCH  13  17
ENDBRANCH  10  11
ENDBRANCH   9  10
ENDBRANCH   7   9
ENDBRANCH   6   7
ENDBRANCH   5   6
ENDBRANCH   4   5
ENDBRANCH   3   4
ENDBRANCH   2   3
ENDBRANCH   1   2
BRANCH   1  32
ATOM     32  O   UNL     1       2.923  -3.827  -0.548  1.00  0.00    -0.377 OA
BRANCH  32  33
ATOM     33  C   UNL     1       4.284  -3.743  -0.174  1.00  0.00     0.188 C 
BRANCH  33  34
ATOM     34  C   UNL     1       5.234  -4.146  -1.312  1.00  0.00     0.188 C 
BRANCH  34  35
ATOM     35  O   UNL     1       4.676  -4.134  -2.609  1.00  0.00    -0.376 OA
BRANCH  35  36
ATOM     36  C   UNL     1       3.812  -5.153  -3.086  1.00  0.00     0.202 C 
BRANCH  36  37
ATOM     37  C   UNL     1       2.973  -6.124  -2.231  1.00  0.00     0.261 C 
BRANCH  37  38
ATOM     38  O   UNL     1       3.441  -6.476  -0.931  1.00  0.00    -0.460 OA
BRANCH  38  39
ATOM     39  C   UNL     1       4.562  -7.206  -0.853  1.00  0.00     0.338 C 
ATOM     40  O   UNL     1       5.227  -7.653  -1.776  1.00  0.00    -0.246 OA
BRANCH  39  41
ATOM     41  C   UNL     1       4.982  -7.182   0.561  1.00  0.00     0.060 A 
ATOM     42  C   UNL     1       6.260  -6.696   0.867  1.00  0.00     0.016 A 
ATOM     43  C   UNL     1       4.115  -7.601   1.576  1.00  0.00     0.016 A 
ATOM     44  C   UNL     1       6.696  -6.671   2.183  1.00  0.00     0.010 A 
ATOM     45  C   UNL     1       4.570  -7.623   2.894  1.00  0.00     0.010 A 
ATOM     46  C   UNL     1       5.879  -7.204   3.186  1.00  0.00    -0.014 A 
BRANCH  46  47
ATOM     47  C   UNL     1       6.527  -7.590   4.455  1.00  0.00     0.031 A 
ATOM     48  C   UNL     1       7.045  -8.998   4.565  1.00  0.00     0.074 A 
ATOM     49  C   UNL     1       6.746  -6.692   5.427  1.00  0.00     0.049 A 
ATOM     50  N   UNL     1       7.681  -9.575   5.549  1.00  0.00    -0.248 NA
ATOM     51  C   UNL     1       6.821  -9.870   3.398  1.00  0.00     0.031 C 
ATOM     52  C   UNL     1       6.339  -5.289   5.392  1.00  0.00     0.029 A 
ATOM     53  N   UNL     1       7.374  -6.836   6.636  1.00  0.00    -0.354 N 
ATOM     54  C   UNL     1       7.941 -10.870   5.115  1.00  0.00     0.074 A 
ATOM     55  C   UNL     1       7.356 -11.011   3.802  1.00  0.00     0.031 C 
ATOM     56  C   UNL     1       6.717  -4.701   6.541  1.00  0.00     0.029 A 
ATOM     57  C   UNL     1       7.366  -5.694   7.396  1.00  0.00     0.049 A 
ATOM     58  H   UNL     1       7.792  -7.677   6.931  1.00  0.00     0.167 HD
ATOM     59  C   UNL     1       8.624 -11.849   5.751  1.00  0.00     0.037 A 
ATOM     60  C   UNL     1       7.814  -5.491   8.649  1.00  0.00     0.037 A 
ATOM     61  C   UNL     1       9.187 -11.704   7.065  1.00  0.00     0.049 A 
ATOM     62  C   UNL     1       8.487  -6.628   9.374  1.00  0.00     0.074 A 
ATOM     63  C   UNL     1       9.876 -12.639   7.817  1.00  0.00     0.029 A 
ATOM     64  N   UNL     1       9.119 -10.546   7.826  1.00  0.00    -0.354 N 
ATOM     65  N   UNL     1       8.735  -7.849   8.959  1.00  0.00    -0.248 NA
ATOM     66  C   UNL     1       8.955  -6.355  10.740  1.00  0.00     0.031 C 
ATOM     67  C   UNL     1      10.180 -12.062   9.054  1.00  0.00     0.029 A 
ATOM     68  C   UNL     1       9.737 -10.748   9.048  1.00  0.00     0.049 A 
ATOM     69  H   UNL     1       8.693  -9.706   7.540  1.00  0.00     0.167 HD
ATOM     70  C   UNL     1       9.411  -8.477   9.998  1.00  0.00     0.074 A 
ATOM     71  C   UNL     1       9.555  -7.494  11.052  1.00  0.00     0.031 C 
ATOM     72  C   UNL     1       9.872  -9.751  10.079  1.00  0.00     0.037 A 
BRANCH  59  73
ATOM     73  C   UNL     1       8.771 -13.161   5.038  1.00  0.00     0.057 A 
ATOM     74  C   UNL     1       9.588 -13.302   3.907  1.00  0.00     0.134 A 
ATOM     75  C   UNL     1       8.102 -14.302   5.497  1.00  0.00     0.134 A 
ATOM     76  F   UNL     1      10.238 -12.242   3.401  1.00  0.00    -0.206 F 
ATOM     77  C   UNL     1       9.718 -14.525   3.248  1.00  0.00     0.040 A 
ATOM     78  C   UNL     1       8.247 -15.537   4.864  1.00  0.00     0.040 A 
ATOM     79  F   UNL     1       7.301 -14.236   6.571  1.00  0.00    -0.206 F 
ATOM     80  C   UNL     1       9.053 -15.650   3.733  1.00  0.00     0.006 A 
ENDBRANCH  59  73
BRANCH  60  81
ATOM     81  C   UNL     1       7.618  -4.176   9.311  1.00  0.00     0.057 A 
ATOM     82  C   UNL     1       8.700  -3.362   9.664  1.00  0.00     0.134 A 
ATOM     83  C   UNL     1       6.336  -3.723   9.648  1.00  0.00     0.134 A 
ATOM     84  F   UNL     1       9.954  -3.749   9.387  1.00  0.00    -0.206 F 
ATOM     85  C   UNL     1       8.519  -2.163  10.355  1.00  0.00     0.040 A 
ATOM     86  C   UNL     1       6.138  -2.511  10.311  1.00  0.00     0.040 A 
ATOM     87  F   UNL     1       5.255  -4.452   9.336  1.00  0.00    -0.206 F 
ATOM     88  C   UNL     1       7.233  -1.733  10.677  1.00  0.00     0.006 A 
ENDBRANCH  60  81
BRANCH  72  89
ATOM     89  C   UNL     1      10.610 -10.133  11.331  1.00  0.00     0.057 A 
ATOM     90  C   UNL     1       9.964 -10.257  12.568  1.00  0.00     0.134 A 
ATOM     91  C   UNL     1      11.985 -10.400  11.292  1.00  0.00     0.134 A 
ATOM     92  F   UNL     1       8.650 -10.008  12.678  1.00  0.00    -0.206 F 
ATOM     93  C   UNL     1      10.666 -10.591  13.727  1.00  0.00     0.040 A 
ATOM     94  C   UNL     1      12.691 -10.769  12.437  1.00  0.00     0.040 A 
ATOM     95  F   UNL     1      12.664 -10.315  10.137  1.00  0.00    -0.206 F 
ATOM     96  C   UNL     1      12.033 -10.854  13.662  1.00  0.00     0.006 A 
ENDBRANCH  72  89
ENDBRANCH  46  47
ENDBRANCH  39  41
ENDBRANCH  38  39
ENDBRANCH  37  38
ENDBRANCH  36  37
ENDBRANCH  35  36
ENDBRANCH  34  35
ENDBRANCH  33  34
ENDBRANCH  32  33
ENDBRANCH   1  32
TORSDOF 24
