REMARK SMILES COc1ccc2[nH]cc([C@H](C(=O)OCCOCCOCCOCCOC(=O)c3ccc(-c4c5nc(c(-c6c(F)cccc6F)c6ccc([nH]6)c(-c6c(F)cccc6F)c6nc(c(-c7c(F)cccc7F)c7ccc4[nH]7)C=C6)C=C5)cc3)[NH+]3CC[NH+](Cc4cccc5ccccc45)CC3)c2c1
REMARK SMILES IDX 18 1 17 2 16 3 15 4 14 5 13 6 11 7 12 8 10 9 9 10 3 11 4 12
REMARK SMILES IDX 100 13 5 14 99 15 6 16 7 17 8 18 2 20 1 21 82 22 83 23 98 24
REMARK SMILES IDX 84 26 97 27 85 28 86 30 87 31 88 32 96 33 89 34 91 35 95 36
REMARK SMILES IDX 90 37 92 38 94 39 93 40 19 41 20 42 21 43 22 44 23 45 24 46
REMARK SMILES IDX 25 47 26 48 27 49 28 50 29 51 81 52 30 53 80 54 31 55 32 56
REMARK SMILES IDX 33 57 74 58 34 59 79 60 73 61 75 62 35 63 78 64 72 65 71 66
REMARK SMILES IDX 36 68 62 69 45 70 61 71 46 72 49 73 60 74 76 75 47 76 48 77
REMARK SMILES IDX 59 79 77 80 50 81 37 82 38 83 43 84 39 85 40 86 42 87 44 88
REMARK SMILES IDX 41 89 63 90 64 91 69 92 65 93 66 94 68 95 70 96 67 97 51 98
REMARK SMILES IDX 52 99 57 100 53 101 54 102 56 103 58 104 55 105
REMARK H PARENT 7 19 82 25 85 29 75 67 49 78
REMARK Flexibility Score: inf
ROOT
ATOM      1  C   UNL     1       0.495   2.642  -3.094  1.00  0.00     0.188 C 
ENDROOT
BRANCH   1   2
ATOM      2  C   UNL     1       1.730   3.489  -3.469  1.00  0.00     0.188 C 
BRANCH   2   3
ATOM      3  O   UNL     1       2.623   3.774  -2.398  1.00  0.00    -0.376 OA
BRANCH   3   4
ATOM      4  C   UNL     1       2.523   5.074  -1.840  1.00  0.00     0.202 C 
BRANCH   4   5
ATOM      5  C   UNL     1       1.308   5.280  -0.924  1.00  0.00     0.261 C 
BRANCH   5   6
ATOM      6  O   UNL     1       0.008   5.081  -1.508  1.00  0.00    -0.459 OA
BRANCH   6   7
ATOM      7  C   UNL     1      -0.272   5.781  -2.642  1.00  0.00     0.370 C 
ATOM      8  O   UNL     1       0.547   6.508  -3.190  1.00  0.00    -0.245 OA
BRANCH   7   9
ATOM      9  C   UNL     1      -1.737   5.611  -3.058  1.00  0.00     0.328 C 
BRANCH   9  10
ATOM     10  C   UNL     1      -2.615   6.614  -2.318  1.00  0.00     0.046 A 
ATOM     11  C   UNL     1      -0.917   9.484  -0.393  1.00  0.00     0.119 A 
ATOM     12  C   UNL     1      -2.074  10.027   0.137  1.00  0.00     0.048 A 
ATOM     13  C   UNL     1      -0.973   8.398  -1.262  1.00  0.00     0.057 A 
ATOM     14  C   UNL     1      -3.320   9.467  -0.167  1.00  0.00     0.030 A 
ATOM     15  C   UNL     1      -2.206   7.771  -1.553  1.00  0.00     0.013 A 
ATOM     16  C   UNL     1      -3.356   8.341  -1.005  1.00  0.00     0.046 A 
ATOM     17  N   UNL     1      -4.426   7.609  -1.461  1.00  0.00    -0.361 N 
ATOM     18  C   UNL     1      -3.997   6.563  -2.231  1.00  0.00     0.094 A 
ATOM     19  H   UNL     1      -5.370   7.810  -1.263  1.00  0.00     0.166 HD
BRANCH  11  20
ATOM     20  O   UNL     1       0.294  10.058  -0.120  1.00  0.00    -0.497 OA
ATOM     21  C   UNL     1       0.983   9.329   0.898  1.00  0.00     0.278 C 
ENDBRANCH  11  20
ENDBRANCH   9  10
BRANCH   9  22
ATOM     22  N   UNL     1      -1.969   5.725  -4.513  1.00  0.00    -0.310 N 
ATOM     23  C   UNL     1      -1.585   6.983  -5.142  1.00  0.00     0.325 C 
ATOM     24  C   UNL     1      -1.722   4.569  -5.376  1.00  0.00     0.325 C 
ATOM     25  H   UNL     1      -2.987   5.732  -4.449  1.00  0.00     0.349 HD
ATOM     26  C   UNL     1      -0.283   7.000  -5.981  1.00  0.00     0.324 C 
ATOM     27  C   UNL     1      -0.439   4.573  -6.256  1.00  0.00     0.324 C 
ATOM     28  N   UNL     1      -0.004   5.846  -6.833  1.00  0.00    -0.322 N 
ATOM     29  H   UNL     1       1.012   5.751  -6.826  1.00  0.00     0.348 HD
BRANCH  28  30
ATOM     30  C   UNL     1      -0.201   6.049  -8.273  1.00  0.00     0.300 C 
BRANCH  30  31
ATOM     31  C   UNL     1      -1.586   5.691  -8.774  1.00  0.00     0.014 A 
ATOM     32  C   UNL     1      -1.761   4.397  -9.301  1.00  0.00     0.010 A 
ATOM     33  C   UNL     1      -2.714   6.506  -8.508  1.00  0.00    -0.010 A 
ATOM     34  C   UNL     1      -3.028   3.842  -9.395  1.00  0.00     0.001 A 
ATOM     35  C   UNL     1      -3.984   5.890  -8.490  1.00  0.00    -0.018 A 
ATOM     36  C   UNL     1      -2.641   7.885  -8.200  1.00  0.00     0.009 A 
ATOM     37  C   UNL     1      -4.124   4.564  -8.933  1.00  0.00     0.009 A 
ATOM     38  C   UNL     1      -5.087   6.599  -7.987  1.00  0.00     0.009 A 
ATOM     39  C   UNL     1      -3.754   8.589  -7.737  1.00  0.00     0.001 A 
ATOM     40  C   UNL     1      -4.966   7.931  -7.588  1.00  0.00     0.001 A 
ENDBRANCH  30  31
ENDBRANCH  28  30
ENDBRANCH   9  22
ENDBRANCH   7   9
ENDBRANCH   6   7
ENDBRANCH   5   6
ENDBRANCH   4   5
ENDBRANCH   3   4
ENDBRANCH   2   3
ENDBRANCH   1   2
BRANCH   1  41
ATOM     41  O   UNL     1       0.450   2.006  -1.829  1.00  0.00    -0.377 OA
BRANCH  41  42
ATOM     42  C   UNL     1       1.663   1.497  -1.296  1.00  0.00     0.188 C 
BRANCH  42  43
ATOM     43  C   UNL     1       2.669   0.842  -2.266  1.00  0.00     0.188 C 
BRANCH  43  44
ATOM     44  O   UNL     1       2.135   0.568  -3.555  1.00  0.00    -0.376 OA
BRANCH  44  45
ATOM     45  C   UNL     1       1.759  -0.770  -3.835  1.00  0.00     0.202 C 
BRANCH  45  46
ATOM     46  C   UNL     1       0.575  -1.334  -3.040  1.00  0.00     0.261 C 
BRANCH  46  47
ATOM     47  O   UNL     1       0.708  -1.330  -1.609  1.00  0.00    -0.460 OA
BRANCH  47  48
ATOM     48  C   UNL     1       1.744  -1.991  -1.053  1.00  0.00     0.338 C 
ATOM     49  O   UNL     1       2.580  -2.673  -1.618  1.00  0.00    -0.246 OA
BRANCH  48  50
ATOM     50  C   UNL     1       1.827  -1.542   0.357  1.00  0.00     0.060 A 
ATOM     51  C   UNL     1       3.009  -0.935   0.808  1.00  0.00     0.016 A 
ATOM     52  C   UNL     1       0.708  -1.619   1.190  1.00  0.00     0.016 A 
ATOM     53  C   UNL     1       3.078  -0.419   2.102  1.00  0.00     0.010 A 
ATOM     54  C   UNL     1       0.792  -1.143   2.499  1.00  0.00     0.010 A 
ATOM     55  C   UNL     1       1.989  -0.574   2.969  1.00  0.00    -0.014 A 
BRANCH  55  56
ATOM     56  C   UNL     1       2.209  -0.444   4.427  1.00  0.00     0.031 A 
ATOM     57  C   UNL     1       2.667  -1.678   5.155  1.00  0.00     0.074 A 
ATOM     58  C   UNL     1       2.031   0.714   5.085  1.00  0.00     0.049 A 
ATOM     59  N   UNL     1       2.902  -1.858   6.428  1.00  0.00    -0.248 NA
ATOM     60  C   UNL     1       2.891  -2.876   4.326  1.00  0.00     0.031 C 
ATOM     61  C   UNL     1       1.633   1.984   4.484  1.00  0.00     0.029 A 
ATOM     62  N   UNL     1       2.159   0.997   6.422  1.00  0.00    -0.354 N 
ATOM     63  C   UNL     1       3.303  -3.183   6.548  1.00  0.00     0.074 A 
ATOM     64  C   UNL     1       3.251  -3.771   5.229  1.00  0.00     0.031 C 
ATOM     65  C   UNL     1       1.535   2.911   5.455  1.00  0.00     0.029 A 
ATOM     66  C   UNL     1       1.836   2.292   6.745  1.00  0.00     0.049 A 
ATOM     67  H   UNL     1       2.456   0.334   7.087  1.00  0.00     0.167 HD
ATOM     68  C   UNL     1       3.688  -3.852   7.657  1.00  0.00     0.037 A 
ATOM     69  C   UNL     1       1.772   2.892   7.951  1.00  0.00     0.037 A 
ATOM     70  C   UNL     1       3.715  -3.274   8.971  1.00  0.00     0.049 A 
ATOM     71  C   UNL     1       2.118   2.099   9.188  1.00  0.00     0.074 A 
ATOM     72  C   UNL     1       4.083  -3.865  10.166  1.00  0.00     0.029 A 
ATOM     73  N   UNL     1       3.344  -1.970   9.262  1.00  0.00    -0.354 N 
ATOM     74  N   UNL     1       2.520   0.855   9.291  1.00  0.00    -0.248 NA
ATOM     75  C   UNL     1       2.000   2.797  10.477  1.00  0.00     0.031 C 
ATOM     76  C   UNL     1       3.887  -2.932  11.189  1.00  0.00     0.029 A 
ATOM     77  C   UNL     1       3.451  -1.744  10.623  1.00  0.00     0.049 A 
ATOM     78  H   UNL     1       3.049  -1.305   8.600  1.00  0.00     0.167 HD
ATOM     79  C   UNL     1       2.735   0.632  10.647  1.00  0.00     0.074 A 
ATOM     80  C   UNL     1       2.427   1.874  11.326  1.00  0.00     0.031 C 
ATOM     81  C   UNL     1       3.151  -0.495  11.276  1.00  0.00     0.037 A 
BRANCH  68  82
ATOM     82  C   UNL     1       4.071  -5.291   7.489  1.00  0.00     0.057 A 
ATOM     83  C   UNL     1       5.256  -5.671   6.844  1.00  0.00     0.134 A 
ATOM     84  C   UNL     1       3.243  -6.310   7.973  1.00  0.00     0.134 A 
ATOM     85  F   UNL     1       6.080  -4.743   6.332  1.00  0.00    -0.206 F 
ATOM     86  C   UNL     1       5.592  -7.014   6.668  1.00  0.00     0.040 A 
ATOM     87  C   UNL     1       3.581  -7.656   7.827  1.00  0.00     0.040 A 
ATOM     88  F   UNL     1       2.091  -6.014   8.594  1.00  0.00    -0.206 F 
ATOM     89  C   UNL     1       4.756  -8.011   7.167  1.00  0.00     0.006 A 
ENDBRANCH  68  82
BRANCH  69  90
ATOM     90  C   UNL     1       1.351   4.313   8.062  1.00  0.00     0.057 A 
ATOM     91  C   UNL     1       2.246   5.307   8.477  1.00  0.00     0.134 A 
ATOM     92  C   UNL     1       0.033   4.705   7.797  1.00  0.00     0.134 A 
ATOM     93  F   UNL     1       3.515   4.991   8.774  1.00  0.00    -0.206 F 
ATOM     94  C   UNL     1       1.842   6.633   8.643  1.00  0.00     0.040 A 
ATOM     95  C   UNL     1      -0.378   6.032   7.934  1.00  0.00     0.040 A 
ATOM     96  F   UNL     1      -0.876   3.802   7.402  1.00  0.00    -0.206 F 
ATOM     97  C   UNL     1       0.527   7.000   8.366  1.00  0.00     0.006 A 
ENDBRANCH  69  90
BRANCH  81  98
ATOM     98  C   UNL     1       3.343  -0.429  12.763  1.00  0.00     0.057 A 
ATOM     99  C   UNL     1       2.260  -0.367  13.650  1.00  0.00     0.134 A 
ATOM    100  C   UNL     1       4.629  -0.483  13.316  1.00  0.00     0.134 A 
ATOM    101  F   UNL     1       1.004  -0.304  13.185  1.00  0.00    -0.206 F 
ATOM    102  C   UNL     1       2.452  -0.337  15.032  1.00  0.00     0.040 A 
ATOM    103  C   UNL     1       4.832  -0.484  14.696  1.00  0.00     0.040 A 
ATOM    104  F   UNL     1       5.709  -0.557  12.523  1.00  0.00    -0.206 F 
ATOM    105  C   UNL     1       3.741  -0.404  15.558  1.00  0.00     0.006 A 
ENDBRANCH  81  98
ENDBRANCH  55  56
ENDBRANCH  48  50
ENDBRANCH  47  48
ENDBRANCH  46  47
ENDBRANCH  45  46
ENDBRANCH  44  45
ENDBRANCH  43  44
ENDBRANCH  42  43
ENDBRANCH  41  42
ENDBRANCH   1  41
TORSDOF 25
