REMARK SMILES O=C(OCCOCCOCCOCCOC(=O)c1nn(-c2ccc([N+](=O)[O-])cc2)cc1CCO)c1ccc(-c2c3nc(c(-c4c(F)cccc4F)c4ccc([nH]4)c(-c4c(F)cccc4F)c4nc(c(-c5c(F)cccc5F)c5ccc2[nH]5)C=C4)C=C3)cc1
REMARK SMILES IDX 10 1 9 2 8 3 7 4 6 5 5 6 4 7 3 8 2 9 1 10 35 11 36 12 88 13
REMARK SMILES IDX 37 14 87 15 38 16 39 17 40 18 81 19 41 20 86 21 80 22 82 23
REMARK SMILES IDX 42 24 85 25 79 26 78 27 43 29 69 30 52 31 68 32 53 33 56 34
REMARK SMILES IDX 67 35 83 36 54 37 55 38 66 40 84 41 57 42 44 43 45 44 50 45
REMARK SMILES IDX 46 46 47 47 49 48 51 49 48 50 70 51 71 52 76 53 72 54 73 55
REMARK SMILES IDX 75 56 77 57 74 58 58 59 59 60 64 61 60 62 61 63 63 64 65 65
REMARK SMILES IDX 62 66 11 67 12 68 13 69 14 70 15 71 16 72 17 73 18 74 19 75
REMARK SMILES IDX 31 76 20 77 30 78 32 79 33 80 34 81 21 83 22 84 29 85 23 86
REMARK SMILES IDX 28 87 24 88 25 89 26 90 27 91
REMARK H PARENT 82 28 56 39 34 82
REMARK Flexibility Score: inf
ROOT
ATOM      1  C   UNL     1       3.787   3.365  -0.826  1.00  0.00     0.188 C 
ENDROOT
BRANCH   1   2
ATOM      2  O   UNL     1       2.382   3.363  -0.650  1.00  0.00    -0.377 OA
BRANCH   2   3
ATOM      3  C   UNL     1       1.897   2.443   0.319  1.00  0.00     0.188 C 
BRANCH   3   4
ATOM      4  C   UNL     1       2.455   1.028   0.198  1.00  0.00     0.188 C 
BRANCH   4   5
ATOM      5  O   UNL     1       3.772   0.742   0.651  1.00  0.00    -0.376 OA
BRANCH   5   6
ATOM      6  C   UNL     1       4.827   0.318  -0.211  1.00  0.00     0.202 C 
BRANCH   6   7
ATOM      7  C   UNL     1       4.686  -0.534  -1.484  1.00  0.00     0.261 C 
BRANCH   7   8
ATOM      8  O   UNL     1       3.410  -0.733  -2.090  1.00  0.00    -0.460 OA
BRANCH   8   9
ATOM      9  C   UNL     1       2.380  -1.472  -1.627  1.00  0.00     0.338 C 
ATOM     10  O   UNL     1       1.363  -1.606  -2.302  1.00  0.00    -0.246 OA
BRANCH   9  11
ATOM     11  C   UNL     1       2.378  -1.998  -0.246  1.00  0.00     0.060 A 
ATOM     12  C   UNL     1       3.495  -2.575   0.358  1.00  0.00     0.016 A 
ATOM     13  C   UNL     1       1.134  -1.982   0.418  1.00  0.00     0.016 A 
ATOM     14  C   UNL     1       3.353  -3.253   1.542  1.00  0.00     0.010 A 
ATOM     15  C   UNL     1       0.979  -2.673   1.602  1.00  0.00     0.010 A 
ATOM     16  C   UNL     1       2.068  -3.415   2.049  1.00  0.00    -0.014 A 
BRANCH  16  17
ATOM     17  C   UNL     1       1.874  -4.668   2.755  1.00  0.00     0.031 A 
ATOM     18  C   UNL     1       2.457  -4.753   4.114  1.00  0.00     0.074 A 
ATOM     19  C   UNL     1       1.252  -5.659   2.080  1.00  0.00     0.049 A 
ATOM     20  N   UNL     1       3.256  -5.651   4.596  1.00  0.00    -0.248 NA
ATOM     21  C   UNL     1       2.198  -3.623   5.021  1.00  0.00     0.031 C 
ATOM     22  C   UNL     1       0.546  -5.572   0.789  1.00  0.00     0.029 A 
ATOM     23  N   UNL     1       1.017  -6.940   2.456  1.00  0.00    -0.354 N 
ATOM     24  C   UNL     1       3.436  -5.306   5.933  1.00  0.00     0.074 A 
ATOM     25  C   UNL     1       2.874  -3.992   6.107  1.00  0.00     0.031 C 
ATOM     26  C   UNL     1      -0.252  -6.646   0.640  1.00  0.00     0.029 A 
ATOM     27  C   UNL     1      -0.014  -7.542   1.751  1.00  0.00     0.049 A 
ATOM     28  H   UNL     1       1.529  -7.399   3.161  1.00  0.00     0.167 HD
ATOM     29  C   UNL     1       3.811  -6.217   6.868  1.00  0.00     0.037 A 
ATOM     30  C   UNL     1      -0.727  -8.610   2.172  1.00  0.00     0.037 A 
ATOM     31  C   UNL     1       4.554  -7.308   6.306  1.00  0.00     0.049 A 
ATOM     32  C   UNL     1       0.087  -9.298   3.206  1.00  0.00     0.074 A 
ATOM     33  C   UNL     1       5.764  -7.411   5.647  1.00  0.00     0.029 A 
ATOM     34  N   UNL     1       3.916  -8.504   6.095  1.00  0.00    -0.354 N 
ATOM     35  N   UNL     1       1.215  -9.906   2.952  1.00  0.00    -0.248 NA
ATOM     36  C   UNL     1      -0.106  -8.901   4.595  1.00  0.00     0.031 C 
ATOM     37  C   UNL     1       5.581  -8.451   4.692  1.00  0.00     0.029 A 
ATOM     38  C   UNL     1       4.281  -8.934   4.844  1.00  0.00     0.049 A 
ATOM     39  H   UNL     1       3.312  -8.965   6.721  1.00  0.00     0.167 HD
ATOM     40  C   UNL     1       2.030  -9.630   4.044  1.00  0.00     0.074 A 
ATOM     41  C   UNL     1       1.137  -9.070   5.054  1.00  0.00     0.031 C 
ATOM     42  C   UNL     1       3.391  -9.614   3.933  1.00  0.00     0.037 A 
BRANCH  29  43
ATOM     43  C   UNL     1       3.179  -6.258   8.231  1.00  0.00     0.057 A 
ATOM     44  C   UNL     1       3.748  -7.034   9.252  1.00  0.00     0.134 A 
ATOM     45  C   UNL     1       1.878  -5.775   8.490  1.00  0.00     0.134 A 
ATOM     46  F   UNL     1       4.964  -7.579   9.104  1.00  0.00    -0.206 F 
ATOM     47  C   UNL     1       3.053  -7.338  10.430  1.00  0.00     0.040 A 
ATOM     48  C   UNL     1       1.197  -6.029   9.681  1.00  0.00     0.040 A 
ATOM     49  F   UNL     1       1.163  -5.117   7.566  1.00  0.00    -0.206 F 
ATOM     50  C   UNL     1       1.774  -6.836  10.646  1.00  0.00     0.006 A 
ENDBRANCH  29  43
BRANCH  30  51
ATOM     51  C   UNL     1      -2.195  -8.746   2.033  1.00  0.00     0.057 A 
ATOM     52  C   UNL     1      -2.825  -9.988   2.151  1.00  0.00     0.134 A 
ATOM     53  C   UNL     1      -3.048  -7.623   1.981  1.00  0.00     0.134 A 
ATOM     54  F   UNL     1      -2.098 -11.108   2.266  1.00  0.00    -0.206 F 
ATOM     55  C   UNL     1      -4.221 -10.109   2.199  1.00  0.00     0.040 A 
ATOM     56  C   UNL     1      -4.440  -7.730   2.009  1.00  0.00     0.040 A 
ATOM     57  F   UNL     1      -2.560  -6.374   1.979  1.00  0.00    -0.206 F 
ATOM     58  C   UNL     1      -5.033  -8.978   2.126  1.00  0.00     0.006 A 
ENDBRANCH  30  51
BRANCH  42  59
ATOM     59  C   UNL     1       3.989 -10.071   2.631  1.00  0.00     0.057 A 
ATOM     60  C   UNL     1       3.846  -9.350   1.435  1.00  0.00     0.134 A 
ATOM     61  C   UNL     1       4.872 -11.154   2.615  1.00  0.00     0.134 A 
ATOM     62  F   UNL     1       3.114  -8.231   1.391  1.00  0.00    -0.206 F 
ATOM     63  C   UNL     1       4.514  -9.718   0.264  1.00  0.00     0.040 A 
ATOM     64  C   UNL     1       5.571 -11.515   1.458  1.00  0.00     0.040 A 
ATOM     65  F   UNL     1       5.115 -11.844   3.739  1.00  0.00    -0.206 F 
ATOM     66  C   UNL     1       5.386 -10.802   0.275  1.00  0.00     0.006 A 
ENDBRANCH  42  59
ENDBRANCH  16  17
ENDBRANCH   9  11
ENDBRANCH   8   9
ENDBRANCH   7   8
ENDBRANCH   6   7
ENDBRANCH   5   6
ENDBRANCH   4   5
ENDBRANCH   3   4
ENDBRANCH   2   3
ENDBRANCH   1   2
BRANCH   1  67
ATOM     67  C   UNL     1       4.639   3.611   0.440  1.00  0.00     0.188 C 
BRANCH  67  68
ATOM     68  O   UNL     1       3.888   3.887   1.604  1.00  0.00    -0.376 OA
BRANCH  68  69
ATOM     69  C   UNL     1       3.803   5.253   1.972  1.00  0.00     0.202 C 
BRANCH  69  70
ATOM     70  C   UNL     1       3.140   6.196   0.958  1.00  0.00     0.261 C 
BRANCH  70  71
ATOM     71  O   UNL     1       3.720   6.276  -0.359  1.00  0.00    -0.458 OA
BRANCH  71  72
ATOM     72  C   UNL     1       5.030   6.596  -0.552  1.00  0.00     0.359 C 
ATOM     73  O   UNL     1       5.830   6.881   0.334  1.00  0.00    -0.244 OA
BRANCH  72  74
ATOM     74  C   UNL     1       5.405   6.411  -1.963  1.00  0.00     0.174 A 
ATOM     75  N   UNL     1       4.895   7.249  -2.879  1.00  0.00    -0.161 NA
ATOM     76  C   UNL     1       6.215   5.401  -2.593  1.00  0.00     0.008 A 
ATOM     77  N   UNL     1       5.230   6.730  -4.072  1.00  0.00    -0.240 N 
ATOM     78  C   UNL     1       5.962   5.580  -3.943  1.00  0.00     0.119 A 
BRANCH  76  79
ATOM     79  C   UNL     1       7.065   4.292  -2.045  1.00  0.00     0.068 C 
BRANCH  79  80
ATOM     80  C   UNL     1       8.186   4.716  -1.100  1.00  0.00     0.161 C 
BRANCH  80  81
ATOM     81  O   UNL     1       7.719   4.907   0.225  1.00  0.00    -0.396 OA
ATOM     82  H   UNL     1       7.052   5.612   0.235  1.00  0.00     0.210 HD
ENDBRANCH  80  81
ENDBRANCH  79  80
ENDBRANCH  76  79
BRANCH  77  83
ATOM     83  C   UNL     1       4.911   7.415  -5.266  1.00  0.00     0.065 A 
ATOM     84  C   UNL     1       4.812   8.813  -5.212  1.00  0.00     0.035 A 
ATOM     85  C   UNL     1       4.754   6.734  -6.480  1.00  0.00     0.035 A 
ATOM     86  C   UNL     1       4.617   9.544  -6.381  1.00  0.00     0.088 A 
ATOM     87  C   UNL     1       4.508   7.464  -7.648  1.00  0.00     0.088 A 
ATOM     88  C   UNL     1       4.465   8.866  -7.595  1.00  0.00     0.269 A 
BRANCH  88  89
ATOM     89  N   UNL     1       4.276   9.638  -8.828  1.00  0.00     0.062 N 
ATOM     90  O   UNL     1       4.429  10.866  -8.767  1.00  0.00    -0.258 OA
ATOM     91  O   UNL     1       3.985   9.015  -9.858  1.00  0.00    -0.258 OA
ENDBRANCH  88  89
ENDBRANCH  77  83
ENDBRANCH  72  74
ENDBRANCH  71  72
ENDBRANCH  70  71
ENDBRANCH  69  70
ENDBRANCH  68  69
ENDBRANCH  67  68
ENDBRANCH   1  67
TORSDOF 25
