REMARK SMILES O=C(OCCOCCOCCOCCOC(=O)c1noc(-c2ccccc2C(F)(F)F)n1)c1ccc(-c2c3nc(c(-c4c(F)cccc4F)c4ccc([nH]4)c(-c4c(F)cccc4F)c4nc(c(-c5c(F)cccc5F)c5ccc2[nH]5)C=C4)C=C3)cc1
REMARK SMILES IDX 9 1 8 2 7 3 6 4 5 5 4 6 3 7 2 8 1 9 33 10 34 11 86 12 35 13
REMARK SMILES IDX 85 14 36 15 37 16 38 17 79 18 39 19 84 20 78 21 80 22 40 23
REMARK SMILES IDX 83 24 77 25 76 26 41 28 67 29 50 30 66 31 51 32 54 33 65 34
REMARK SMILES IDX 81 35 52 36 53 37 64 39 82 40 55 41 42 42 43 43 48 44 44 45
REMARK SMILES IDX 45 46 47 47 49 48 46 49 68 50 69 51 74 52 70 53 71 54 73 55
REMARK SMILES IDX 75 56 72 57 56 58 57 59 62 60 58 61 59 62 61 63 63 64 60 65
REMARK SMILES IDX 10 66 11 67 12 68 13 69 14 70 15 71 16 72 17 73 18 74 19 75
REMARK SMILES IDX 32 76 20 77 21 78 22 79 23 80 27 81 24 82 26 83 25 84 28 85
REMARK SMILES IDX 29 86 30 87 31 88
REMARK H PARENT 80 27 54 38
REMARK Flexibility Score: inf
ROOT
ATOM      1  O   UNL     1       2.674  -4.094  -0.559  1.00  0.00    -0.377 OA
ENDROOT
BRANCH   1   2
ATOM      2  C   UNL     1       1.901  -2.892  -0.593  1.00  0.00     0.188 C 
BRANCH   2   3
ATOM      3  C   UNL     1       2.333  -1.812   0.401  1.00  0.00     0.188 C 
BRANCH   3   4
ATOM      4  O   UNL     1       3.608  -1.274   0.034  1.00  0.00    -0.376 OA
BRANCH   4   5
ATOM      5  C   UNL     1       4.468  -0.957   1.128  1.00  0.00     0.202 C 
BRANCH   5   6
ATOM      6  C   UNL     1       4.288   0.464   1.662  1.00  0.00     0.261 C 
BRANCH   6   7
ATOM      7  O   UNL     1       2.907   0.849   1.683  1.00  0.00    -0.460 OA
BRANCH   7   8
ATOM      8  C   UNL     1       2.217   1.500   0.715  1.00  0.00     0.338 C 
ATOM      9  O   UNL     1       1.027   1.745   0.915  1.00  0.00    -0.246 OA
BRANCH   8  10
ATOM     10  C   UNL     1       2.820   1.993  -0.565  1.00  0.00     0.060 A 
ATOM     11  C   UNL     1       3.918   1.436  -1.230  1.00  0.00     0.016 A 
ATOM     12  C   UNL     1       2.178   3.088  -1.169  1.00  0.00     0.016 A 
ATOM     13  C   UNL     1       4.427   1.996  -2.397  1.00  0.00     0.010 A 
ATOM     14  C   UNL     1       2.664   3.644  -2.353  1.00  0.00     0.010 A 
ATOM     15  C   UNL     1       3.819   3.120  -2.943  1.00  0.00    -0.014 A 
BRANCH  15  16
ATOM     16  C   UNL     1       4.515   3.866  -4.004  1.00  0.00     0.031 A 
ATOM     17  C   UNL     1       5.268   5.094  -3.600  1.00  0.00     0.074 A 
ATOM     18  C   UNL     1       4.519   3.422  -5.270  1.00  0.00     0.049 A 
ATOM     19  N   UNL     1       5.812   6.019  -4.340  1.00  0.00    -0.248 NA
ATOM     20  C   UNL     1       5.426   5.307  -2.150  1.00  0.00     0.031 C 
ATOM     21  C   UNL     1       3.922   2.167  -5.726  1.00  0.00     0.029 A 
ATOM     22  N   UNL     1       5.041   3.982  -6.404  1.00  0.00    -0.354 N 
ATOM     23  C   UNL     1       6.332   6.947  -3.448  1.00  0.00     0.074 A 
ATOM     24  C   UNL     1       6.052   6.471  -2.114  1.00  0.00     0.031 C 
ATOM     25  C   UNL     1       4.096   2.062  -7.054  1.00  0.00     0.029 A 
ATOM     26  C   UNL     1       4.754   3.271  -7.542  1.00  0.00     0.049 A 
ATOM     27  H   UNL     1       5.569   4.813  -6.403  1.00  0.00     0.167 HD
ATOM     28  C   UNL     1       6.967   8.107  -3.731  1.00  0.00     0.037 A 
ATOM     29  C   UNL     1       4.956   3.599  -8.831  1.00  0.00     0.037 A 
ATOM     30  C   UNL     1       7.222   8.550  -5.073  1.00  0.00     0.049 A 
ATOM     31  C   UNL     1       5.601   4.924  -9.135  1.00  0.00     0.074 A 
ATOM     32  C   UNL     1       7.802   9.726  -5.506  1.00  0.00     0.029 A 
ATOM     33  N   UNL     1       6.901   7.813  -6.207  1.00  0.00    -0.354 N 
ATOM     34  N   UNL     1       6.027   5.843  -8.298  1.00  0.00    -0.248 NA
ATOM     35  C   UNL     1       5.776   5.273 -10.550  1.00  0.00     0.031 C 
ATOM     36  C   UNL     1       7.798   9.716  -6.906  1.00  0.00     0.029 A 
ATOM     37  C   UNL     1       7.258   8.514  -7.343  1.00  0.00     0.049 A 
ATOM     38  H   UNL     1       6.482   6.923  -6.202  1.00  0.00     0.167 HD
ATOM     39  C   UNL     1       6.533   6.871  -9.080  1.00  0.00     0.074 A 
ATOM     40  C   UNL     1       6.367   6.458 -10.461  1.00  0.00     0.031 C 
ATOM     41  C   UNL     1       7.083   8.050  -8.698  1.00  0.00     0.037 A 
BRANCH  28  42
ATOM     42  C   UNL     1       7.320   8.982  -2.566  1.00  0.00     0.057 A 
ATOM     43  C   UNL     1       8.334   8.649  -1.658  1.00  0.00     0.134 A 
ATOM     44  C   UNL     1       6.569  10.134  -2.299  1.00  0.00     0.134 A 
ATOM     45  F   UNL     1       9.067   7.539  -1.835  1.00  0.00    -0.206 F 
ATOM     46  C   UNL     1       8.560   9.406  -0.506  1.00  0.00     0.040 A 
ATOM     47  C   UNL     1       6.802  10.913  -1.164  1.00  0.00     0.040 A 
ATOM     48  F   UNL     1       5.577  10.506  -3.122  1.00  0.00    -0.206 F 
ATOM     49  C   UNL     1       7.791  10.542  -0.257  1.00  0.00     0.006 A 
ENDBRANCH  28  42
BRANCH  29  50
ATOM     50  C   UNL     1       4.490   2.684  -9.903  1.00  0.00     0.057 A 
ATOM     51  C   UNL     1       5.391   1.972 -10.701  1.00  0.00     0.134 A 
ATOM     52  C   UNL     1       3.123   2.461 -10.123  1.00  0.00     0.134 A 
ATOM     53  F   UNL     1       6.712   2.155 -10.555  1.00  0.00    -0.206 F 
ATOM     54  C   UNL     1       4.953   1.069 -11.674  1.00  0.00     0.040 A 
ATOM     55  C   UNL     1       2.671   1.544 -11.074  1.00  0.00     0.040 A 
ATOM     56  F   UNL     1       2.206   3.109  -9.390  1.00  0.00    -0.206 F 
ATOM     57  C   UNL     1       3.589   0.846 -11.854  1.00  0.00     0.006 A 
ENDBRANCH  29  50
BRANCH  41  58
ATOM     58  C   UNL     1       7.576   8.957  -9.782  1.00  0.00     0.057 A 
ATOM     59  C   UNL     1       6.699   9.753 -10.527  1.00  0.00     0.134 A 
ATOM     60  C   UNL     1       8.950   9.105 -10.008  1.00  0.00     0.134 A 
ATOM     61  F   UNL     1       5.373   9.647 -10.358  1.00  0.00    -0.206 F 
ATOM     62  C   UNL     1       7.175  10.670 -11.464  1.00  0.00     0.040 A 
ATOM     63  C   UNL     1       9.437  10.032 -10.928  1.00  0.00     0.040 A 
ATOM     64  F   UNL     1       9.836   8.375  -9.315  1.00  0.00    -0.206 F 
ATOM     65  C   UNL     1       8.548  10.818 -11.658  1.00  0.00     0.006 A 
ENDBRANCH  41  58
ENDBRANCH  15  16
ENDBRANCH   8  10
ENDBRANCH   7   8
ENDBRANCH   6   7
ENDBRANCH   5   6
ENDBRANCH   4   5
ENDBRANCH   3   4
ENDBRANCH   2   3
ENDBRANCH   1   2
BRANCH   1  66
ATOM     66  C   UNL     1       4.088  -3.946  -0.609  1.00  0.00     0.188 C 
BRANCH  66  67
ATOM     67  C   UNL     1       4.718  -3.308  -1.865  1.00  0.00     0.188 C 
BRANCH  67  68
ATOM     68  O   UNL     1       3.791  -2.720  -2.771  1.00  0.00    -0.376 OA
BRANCH  68  69
ATOM     69  C   UNL     1       3.661  -3.378  -4.029  1.00  0.00     0.202 C 
BRANCH  69  70
ATOM     70  C   UNL     1       2.786  -4.644  -4.003  1.00  0.00     0.261 C 
BRANCH  70  71
ATOM     71  O   UNL     1       3.219  -5.660  -3.085  1.00  0.00    -0.457 OA
BRANCH  71  72
ATOM     72  C   UNL     1       4.431  -6.233  -3.329  1.00  0.00     0.380 C 
ATOM     73  O   UNL     1       5.080  -6.046  -4.354  1.00  0.00    -0.242 OA
BRANCH  72  74
ATOM     74  C   UNL     1       4.940  -6.935  -2.148  1.00  0.00     0.281 A 
ATOM     75  N   UNL     1       6.173  -6.683  -1.663  1.00  0.00    -0.049 NA
ATOM     76  N   UNL     1       4.200  -7.806  -1.366  1.00  0.00    -0.181 NA
ATOM     77  O   UNL     1       6.237  -7.457  -0.507  1.00  0.00    -0.333 OA
ATOM     78  C   UNL     1       5.050  -8.122  -0.418  1.00  0.00     0.259 A 
BRANCH  78  79
ATOM     79  C   UNL     1       5.063  -9.273   0.467  1.00  0.00     0.052 A 
ATOM     80  C   UNL     1       5.046  -9.107   1.861  1.00  0.00     0.014 A 
ATOM     81  C   UNL     1       5.163 -10.569  -0.083  1.00  0.00     0.068 A 
ATOM     82  C   UNL     1       5.129 -10.218   2.704  1.00  0.00     0.001 A 
ATOM     83  C   UNL     1       5.241 -11.674   0.782  1.00  0.00     0.014 A 
ATOM     84  C   UNL     1       5.231 -11.498   2.165  1.00  0.00     0.001 A 
BRANCH  81  85
ATOM     85  C   UNL     1       5.178 -10.795  -1.580  1.00  0.00     0.417 C 
ATOM     86  F   UNL     1       5.708 -12.005  -1.922  1.00  0.00    -0.166 F 
ATOM     87  F   UNL     1       3.931 -10.773  -2.123  1.00  0.00    -0.166 F 
ATOM     88  F   UNL     1       5.917  -9.885  -2.271  1.00  0.00    -0.166 F 
ENDBRANCH  81  85
ENDBRANCH  78  79
ENDBRANCH  72  74
ENDBRANCH  71  72
ENDBRANCH  70  71
ENDBRANCH  69  70
ENDBRANCH  68  69
ENDBRANCH  67  68
ENDBRANCH  66  67
ENDBRANCH   1  66
TORSDOF 22
