REMARK SMILES Cc1ccc(C(=O)N2C[C@@H](C(=O)OCCOCCOCCOCCOC(=O)c3ccc(-c4c5nc(c(-c6c(F)cccc6F)c6ccc([nH]6)c(-c6c(F)cccc6F)c6nc(c(-c7c(F)cccc7F)c7ccc4[nH]7)C=C6)C=C5)cc3)C[C@H](C(=O)N3CCOCC3)C2)cc1F
REMARK SMILES IDX 19 1 18 2 17 3 16 4 15 5 14 6 13 7 11 8 12 9 10 10 8 11 9 12
REMARK SMILES IDX 92 13 83 14 82 15 6 16 7 17 5 18 1 19 2 20 3 21 94 22 4 23
REMARK SMILES IDX 93 24 95 25 84 26 85 27 86 28 87 29 91 30 88 31 90 32 89 33
REMARK SMILES IDX 20 34 21 35 22 36 23 37 24 38 25 39 26 40 27 41 28 42 29 43
REMARK SMILES IDX 81 44 30 45 80 46 31 47 32 48 33 49 74 50 34 51 79 52 73 53
REMARK SMILES IDX 75 54 35 55 78 56 72 57 71 58 36 60 62 61 45 62 61 63 46 64
REMARK SMILES IDX 49 65 60 66 76 67 47 68 48 69 59 71 77 72 50 73 37 74 38 75
REMARK SMILES IDX 43 76 39 77 40 78 42 79 44 80 41 81 63 82 64 83 69 84 65 85
REMARK SMILES IDX 66 86 68 87 70 88 67 89 51 90 52 91 57 92 53 93 54 94 56 95
REMARK SMILES IDX 58 96 55 97
REMARK H PARENT 75 59 49 70
REMARK Flexibility Score: inf
ROOT
ATOM      1  O   UNL     1      -9.664  -1.611   0.771  1.00  0.00    -0.377 OA
ENDROOT
BRANCH   1   2
ATOM      2  C   UNL     1      -9.281  -2.970   0.676  1.00  0.00     0.188 C 
BRANCH   2   3
ATOM      3  C   UNL     1      -9.103  -3.788   1.957  1.00  0.00     0.188 C 
BRANCH   3   4
ATOM      4  O   UNL     1      -9.954  -3.430   3.015  1.00  0.00    -0.376 OA
BRANCH   4   5
ATOM      5  C   UNL     1      -9.576  -2.521   4.034  1.00  0.00     0.202 C 
BRANCH   5   6
ATOM      6  C   UNL     1      -8.526  -1.388   3.932  1.00  0.00     0.261 C 
BRANCH   6   7
ATOM      7  O   UNL     1      -7.934  -1.078   2.663  1.00  0.00    -0.463 OA
BRANCH   7   8
ATOM      8  C   UNL     1      -6.785  -1.740   2.439  1.00  0.00     0.310 C 
ATOM      9  O   UNL     1      -6.311  -2.557   3.228  1.00  0.00    -0.252 OA
BRANCH   8  10
ATOM     10  C   UNL     1      -6.061  -1.428   1.157  1.00  0.00     0.119 C 
ATOM     11  N   UNL     1      -3.875  -0.723   0.459  1.00  0.00    -0.337 N 
ATOM     12  C   UNL     1      -4.859  -0.600   1.516  1.00  0.00     0.135 C 
ATOM     13  C   UNL     1      -4.277  -0.386  -0.911  1.00  0.00     0.133 C 
ATOM     14  C   UNL     1      -5.644  -0.979  -1.305  1.00  0.00     0.099 C 
ATOM     15  C   UNL     1      -6.661  -0.891  -0.144  1.00  0.00     0.032 C 
BRANCH  11  16
ATOM     16  C   UNL     1      -2.622  -1.176   0.818  1.00  0.00     0.254 C 
ATOM     17  O   UNL     1      -2.433  -2.038   1.670  1.00  0.00    -0.269 OA
BRANCH  16  18
ATOM     18  C   UNL     1      -1.468  -0.425   0.297  1.00  0.00     0.042 A 
ATOM     19  C   UNL     1       2.076   1.898  -0.249  1.00  0.00     0.047 C 
ATOM     20  C   UNL     1       0.820   1.092  -0.149  1.00  0.00    -0.015 A 
ATOM     21  C   UNL     1      -0.421   1.726  -0.053  1.00  0.00     0.007 A 
ATOM     22  C   UNL     1       0.889  -0.305  -0.067  1.00  0.00     0.126 A 
ATOM     23  C   UNL     1      -1.562   0.969   0.180  1.00  0.00     0.014 A 
ATOM     24  C   UNL     1      -0.243  -1.072   0.161  1.00  0.00     0.053 A 
ATOM     25  F   UNL     1       2.077  -0.918  -0.150  1.00  0.00    -0.207 F 
ENDBRANCH  16  18
ENDBRANCH  11  16
BRANCH  14  26
ATOM     26  C   UNL     1      -5.446  -2.308  -2.089  1.00  0.00     0.227 C 
ATOM     27  O   UNL     1      -5.511  -2.281  -3.323  1.00  0.00    -0.275 OA
ATOM     28  N   UNL     1      -4.929  -3.416  -1.452  1.00  0.00    -0.338 N 
ATOM     29  C   UNL     1      -5.676  -4.305  -0.561  1.00  0.00     0.148 C 
ATOM     30  C   UNL     1      -3.788  -4.113  -2.045  1.00  0.00     0.148 C 
ATOM     31  C   UNL     1      -4.746  -4.830   0.544  1.00  0.00     0.181 C 
ATOM     32  C   UNL     1      -2.891  -4.644  -0.919  1.00  0.00     0.181 C 
ATOM     33  O   UNL     1      -3.626  -5.518  -0.041  1.00  0.00    -0.378 OA
ENDBRANCH  14  26
ENDBRANCH   8  10
ENDBRANCH   7   8
ENDBRANCH   6   7
ENDBRANCH   5   6
ENDBRANCH   4   5
ENDBRANCH   3   4
ENDBRANCH   2   3
ENDBRANCH   1   2
BRANCH   1  34
ATOM     34  C   UNL     1     -10.881  -1.286   1.428  1.00  0.00     0.188 C 
BRANCH  34  35
ATOM     35  C   UNL     1     -12.050  -2.297   1.455  1.00  0.00     0.188 C 
BRANCH  35  36
ATOM     36  O   UNL     1     -11.882  -3.450   0.642  1.00  0.00    -0.376 OA
BRANCH  36  37
ATOM     37  C   UNL     1     -12.441  -3.486  -0.662  1.00  0.00     0.202 C 
BRANCH  37  38
ATOM     38  C   UNL     1     -11.921  -2.520  -1.742  1.00  0.00     0.261 C 
BRANCH  38  39
ATOM     39  O   UNL     1     -11.738  -1.171  -1.333  1.00  0.00    -0.460 OA
BRANCH  39  40
ATOM     40  C   UNL     1     -12.849  -0.595  -0.862  1.00  0.00     0.338 C 
ATOM     41  O   UNL     1     -13.952  -1.131  -0.735  1.00  0.00    -0.246 OA
BRANCH  40  42
ATOM     42  C   UNL     1     -12.606   0.823  -0.522  1.00  0.00     0.060 A 
ATOM     43  C   UNL     1     -13.669   1.332   0.240  1.00  0.00     0.016 A 
ATOM     44  C   UNL     1     -12.109   1.482  -1.642  1.00  0.00     0.016 A 
ATOM     45  C   UNL     1     -14.595   2.080  -0.440  1.00  0.00     0.010 A 
ATOM     46  C   UNL     1     -13.031   2.206  -2.336  1.00  0.00     0.010 A 
ATOM     47  C   UNL     1     -14.296   2.390  -1.765  1.00  0.00    -0.014 A 
BRANCH  47  48
ATOM     48  C   UNL     1     -15.243   3.035  -2.622  1.00  0.00     0.031 A 
ATOM     49  C   UNL     1     -15.410   4.466  -2.363  1.00  0.00     0.074 A 
ATOM     50  C   UNL     1     -15.861   2.326  -3.587  1.00  0.00     0.049 A 
ATOM     51  N   UNL     1     -16.526   5.091  -2.448  1.00  0.00    -0.248 NA
ATOM     52  C   UNL     1     -14.320   5.288  -1.825  1.00  0.00     0.031 C 
ATOM     53  C   UNL     1     -16.580   2.862  -4.731  1.00  0.00     0.029 A 
ATOM     54  N   UNL     1     -16.030   0.954  -3.735  1.00  0.00    -0.354 N 
ATOM     55  C   UNL     1     -16.210   6.428  -2.376  1.00  0.00     0.074 A 
ATOM     56  C   UNL     1     -14.895   6.492  -1.791  1.00  0.00     0.031 C 
ATOM     57  C   UNL     1     -17.327   1.884  -5.272  1.00  0.00     0.029 A 
ATOM     58  C   UNL     1     -17.241   0.732  -4.391  1.00  0.00     0.049 A 
ATOM     59  H   UNL     1     -15.403   0.258  -3.429  1.00  0.00     0.167 HD
ATOM     60  C   UNL     1     -16.977   7.314  -3.067  1.00  0.00     0.037 A 
ATOM     61  C   UNL     1     -18.330   0.126  -3.829  1.00  0.00     0.037 A 
ATOM     62  C   UNL     1     -18.009   6.596  -3.808  1.00  0.00     0.049 A 
ATOM     63  C   UNL     1     -19.512   1.060  -3.696  1.00  0.00     0.074 A 
ATOM     64  C   UNL     1     -18.014   6.098  -5.103  1.00  0.00     0.029 A 
ATOM     65  N   UNL     1     -19.022   5.935  -3.128  1.00  0.00    -0.354 N 
ATOM     66  N   UNL     1     -19.403   2.359  -3.654  1.00  0.00    -0.248 NA
ATOM     67  C   UNL     1     -20.899   0.613  -3.610  1.00  0.00     0.031 C 
ATOM     68  C   UNL     1     -19.045   5.135  -5.200  1.00  0.00     0.029 A 
ATOM     69  C   UNL     1     -19.667   5.046  -3.967  1.00  0.00     0.049 A 
ATOM     70  H   UNL     1     -19.249   6.078  -2.181  1.00  0.00     0.167 HD
ATOM     71  C   UNL     1     -20.649   2.924  -3.561  1.00  0.00     0.074 A 
ATOM     72  C   UNL     1     -21.551   1.788  -3.553  1.00  0.00     0.031 C 
ATOM     73  C   UNL     1     -20.815   4.280  -3.505  1.00  0.00     0.037 A 
BRANCH  60  74
ATOM     74  C   UNL     1     -16.540   8.719  -3.382  1.00  0.00     0.057 A 
ATOM     75  C   UNL     1     -16.911   9.329  -4.596  1.00  0.00     0.134 A 
ATOM     76  C   UNL     1     -15.743   9.517  -2.544  1.00  0.00     0.134 A 
ATOM     77  F   UNL     1     -17.732   8.730  -5.468  1.00  0.00    -0.206 F 
ATOM     78  C   UNL     1     -16.456  10.592  -4.984  1.00  0.00     0.040 A 
ATOM     79  C   UNL     1     -15.244  10.768  -2.938  1.00  0.00     0.040 A 
ATOM     80  F   UNL     1     -15.446   9.140  -1.293  1.00  0.00    -0.206 F 
ATOM     81  C   UNL     1     -15.597  11.307  -4.167  1.00  0.00     0.006 A 
ENDBRANCH  60  74
BRANCH  61  82
ATOM     82  C   UNL     1     -18.012  -0.955  -2.872  1.00  0.00     0.057 A 
ATOM     83  C   UNL     1     -17.515  -2.159  -3.395  1.00  0.00     0.134 A 
ATOM     84  C   UNL     1     -17.783  -0.683  -1.521  1.00  0.00     0.134 A 
ATOM     85  F   UNL     1     -17.740  -2.482  -4.678  1.00  0.00    -0.206 F 
ATOM     86  C   UNL     1     -16.683  -2.989  -2.648  1.00  0.00     0.040 A 
ATOM     87  C   UNL     1     -16.955  -1.508  -0.762  1.00  0.00     0.040 A 
ATOM     88  F   UNL     1     -18.243   0.443  -0.958  1.00  0.00    -0.206 F 
ATOM     89  C   UNL     1     -16.382  -2.644  -1.336  1.00  0.00     0.006 A 
ENDBRANCH  61  82
BRANCH  73  90
ATOM     90  C   UNL     1     -22.073   5.035  -3.126  1.00  0.00     0.057 A 
ATOM     91  C   UNL     1     -23.161   4.482  -2.441  1.00  0.00     0.134 A 
ATOM     92  C   UNL     1     -22.165   6.435  -3.338  1.00  0.00     0.134 A 
ATOM     93  F   UNL     1     -23.175   3.205  -2.042  1.00  0.00    -0.206 F 
ATOM     94  C   UNL     1     -24.282   5.237  -2.066  1.00  0.00     0.040 A 
ATOM     95  C   UNL     1     -23.240   7.210  -2.898  1.00  0.00     0.040 A 
ATOM     96  F   UNL     1     -21.205   7.133  -3.960  1.00  0.00    -0.206 F 
ATOM     97  C   UNL     1     -24.319   6.607  -2.280  1.00  0.00     0.006 A 
ENDBRANCH  73  90
ENDBRANCH  47  48
ENDBRANCH  40  42
ENDBRANCH  39  40
ENDBRANCH  38  39
ENDBRANCH  37  38
ENDBRANCH  36  37
ENDBRANCH  35  36
ENDBRANCH  34  35
ENDBRANCH   1  34
TORSDOF 23
