REMARK SMILES CNC(=O)C[N@@H+](C)CCn1cc(C(=O)OCCOCCOCCOCCOC(=O)c2ccc(-c3c4nc(c(-c5c(F)cccc5F)c5ccc([nH]5)c(-c5c(F)cccc5F)c5nc(c(-c6c(F)cccc6F)c6ccc3[nH]6)C=C5)C=C4)cc2)nn1
REMARK SMILES IDX 19 1 18 2 17 3 16 4 15 5 13 6 14 7 12 8 10 9 11 10 85 11
REMARK SMILES IDX 84 12 9 13 8 14 6 15 7 16 5 18 3 19 1 20 2 21 4 23 20 24
REMARK SMILES IDX 21 25 22 26 23 27 24 28 25 29 26 30 27 31 28 32 29 33 30 34
REMARK SMILES IDX 31 35 83 36 32 37 82 38 33 39 34 40 35 41 76 42 36 43 81 44
REMARK SMILES IDX 75 45 77 46 37 47 80 48 74 49 73 50 38 52 64 53 47 54 63 55
REMARK SMILES IDX 48 56 51 57 62 58 78 59 49 60 50 61 61 63 79 64 52 65 39 66
REMARK SMILES IDX 40 67 45 68 41 69 42 70 44 71 46 72 43 73 65 74 66 75 71 76
REMARK SMILES IDX 67 77 68 78 70 79 72 80 69 81 53 82 54 83 59 84 55 85 56 86
REMARK SMILES IDX 58 87 60 88 57 89
REMARK H PARENT 6 17 2 22 77 51 51 62
REMARK Flexibility Score: inf
ROOT
ATOM      1  C   UNL     1      -4.606  -4.476   4.290  1.00  0.00     0.188 C 
ENDROOT
BRANCH   1   2
ATOM      2  O   UNL     1      -4.999  -5.707   3.716  1.00  0.00    -0.376 OA
BRANCH   2   3
ATOM      3  C   UNL     1      -4.139  -6.588   3.022  1.00  0.00     0.202 C 
BRANCH   3   4
ATOM      4  C   UNL     1      -2.679  -6.345   2.596  1.00  0.00     0.261 C 
BRANCH   4   5
ATOM      5  O   UNL     1      -1.969  -5.284   3.217  1.00  0.00    -0.458 OA
BRANCH   5   6
ATOM      6  C   UNL     1      -2.091  -4.078   2.598  1.00  0.00     0.360 C 
ATOM      7  O   UNL     1      -2.661  -3.907   1.518  1.00  0.00    -0.244 OA
BRANCH   6   8
ATOM      8  C   UNL     1      -1.685  -3.002   3.475  1.00  0.00     0.190 A 
ATOM      9  N   UNL     1      -0.615  -1.633   4.725  1.00  0.00    -0.246 N 
ATOM     10  C   UNL     1      -0.539  -2.902   4.242  1.00  0.00     0.147 A 
ATOM     11  N   UNL     1      -1.850  -1.122   4.587  1.00  0.00    -0.066 NA
ATOM     12  N   UNL     1      -2.486  -1.909   3.731  1.00  0.00    -0.123 NA
BRANCH   9  13
ATOM     13  C   UNL     1       0.483  -0.773   5.087  1.00  0.00     0.207 C 
BRANCH  13  14
ATOM     14  C   UNL     1       1.308  -0.310   3.864  1.00  0.00     0.286 C 
BRANCH  14  15
ATOM     15  N   UNL     1       0.765   0.660   2.886  1.00  0.00    -0.328 N 
ATOM     16  C   UNL     1       0.252   1.865   3.537  1.00  0.00     0.333 C 
ATOM     17  H   UNL     1       1.575   0.894   2.312  1.00  0.00     0.348 HD
BRANCH  15  18
ATOM     18  C   UNL     1      -0.252   0.123   1.950  1.00  0.00     0.363 C 
BRANCH  18  19
ATOM     19  C   UNL     1       0.277  -1.048   1.111  1.00  0.00     0.274 C 
ATOM     20  C   UNL     1       1.450   0.448  -0.540  1.00  0.00     0.143 C 
ATOM     21  N   UNL     1       0.965  -0.808  -0.037  1.00  0.00    -0.354 N 
ATOM     22  H   UNL     1       1.155  -1.596  -0.596  1.00  0.00     0.163 HD
ATOM     23  O   UNL     1       0.132  -2.228   1.436  1.00  0.00    -0.269 OA
ENDBRANCH  18  19
ENDBRANCH  15  18
ENDBRANCH  14  15
ENDBRANCH  13  14
ENDBRANCH   9  13
ENDBRANCH   6   8
ENDBRANCH   5   6
ENDBRANCH   4   5
ENDBRANCH   3   4
ENDBRANCH   2   3
ENDBRANCH   1   2
BRANCH   1  24
ATOM     24  C   UNL     1      -3.747  -4.496   5.574  1.00  0.00     0.188 C 
BRANCH  24  25
ATOM     25  O   UNL     1      -3.038  -5.693   5.817  1.00  0.00    -0.377 OA
BRANCH  25  26
ATOM     26  C   UNL     1      -3.751  -6.798   6.365  1.00  0.00     0.188 C 
BRANCH  26  27
ATOM     27  C   UNL     1      -5.303  -6.877   6.401  1.00  0.00     0.188 C 
BRANCH  27  28
ATOM     28  O   UNL     1      -6.003  -5.649   6.277  1.00  0.00    -0.376 OA
BRANCH  28  29
ATOM     29  C   UNL     1      -6.724  -5.072   7.349  1.00  0.00     0.202 C 
BRANCH  29  30
ATOM     30  C   UNL     1      -5.899  -4.515   8.505  1.00  0.00     0.261 C 
BRANCH  30  31
ATOM     31  O   UNL     1      -4.852  -5.382   8.899  1.00  0.00    -0.460 OA
BRANCH  31  32
ATOM     32  C   UNL     1      -5.261  -6.530   9.453  1.00  0.00     0.338 C 
ATOM     33  O   UNL     1      -6.412  -6.961   9.522  1.00  0.00    -0.246 OA
BRANCH  32  34
ATOM     34  C   UNL     1      -4.120  -7.152  10.111  1.00  0.00     0.060 A 
ATOM     35  C   UNL     1      -4.370  -8.384  10.713  1.00  0.00     0.016 A 
ATOM     36  C   UNL     1      -3.042  -6.328  10.472  1.00  0.00     0.016 A 
ATOM     37  C   UNL     1      -3.732  -8.641  11.896  1.00  0.00     0.010 A 
ATOM     38  C   UNL     1      -2.430  -6.571  11.668  1.00  0.00     0.010 A 
ATOM     39  C   UNL     1      -2.868  -7.666  12.405  1.00  0.00    -0.014 A 
BRANCH  39  40
ATOM     40  C   UNL     1      -2.371  -7.853  13.743  1.00  0.00     0.031 A 
ATOM     41  C   UNL     1      -1.303  -8.863  13.791  1.00  0.00     0.074 A 
ATOM     42  C   UNL     1      -2.814  -7.114  14.775  1.00  0.00     0.049 A 
ATOM     43  N   UNL     1      -1.366 -10.046  14.298  1.00  0.00    -0.248 NA
ATOM     44  C   UNL     1      -0.095  -8.605  12.992  1.00  0.00     0.031 C 
ATOM     45  C   UNL     1      -3.665  -5.920  14.738  1.00  0.00     0.029 A 
ATOM     46  N   UNL     1      -2.506  -7.234  16.091  1.00  0.00    -0.354 N 
ATOM     47  C   UNL     1      -0.112 -10.598  14.076  1.00  0.00     0.074 A 
ATOM     48  C   UNL     1       0.534  -9.775  13.091  1.00  0.00     0.031 C 
ATOM     49  C   UNL     1      -3.621  -5.307  15.943  1.00  0.00     0.029 A 
ATOM     50  C   UNL     1      -2.853  -6.133  16.860  1.00  0.00     0.049 A 
ATOM     51  H   UNL     1      -2.074  -8.034  16.468  1.00  0.00     0.167 HD
ATOM     52  C   UNL     1       0.407 -11.494  14.953  1.00  0.00     0.037 A 
ATOM     53  C   UNL     1      -2.463  -5.909  18.138  1.00  0.00     0.037 A 
ATOM     54  C   UNL     1      -0.626 -12.066  15.780  1.00  0.00     0.049 A 
ATOM     55  C   UNL     1      -2.012  -7.206  18.697  1.00  0.00     0.074 A 
ATOM     56  C   UNL     1      -1.728 -12.867  15.565  1.00  0.00     0.029 A 
ATOM     57  N   UNL     1      -0.791 -11.492  17.015  1.00  0.00    -0.354 N 
ATOM     58  N   UNL     1      -2.810  -8.200  18.965  1.00  0.00    -0.248 NA
ATOM     59  C   UNL     1      -0.602  -7.555  18.595  1.00  0.00     0.031 C 
ATOM     60  C   UNL     1      -2.690 -12.463  16.538  1.00  0.00     0.029 A 
ATOM     61  C   UNL     1      -2.124 -11.460  17.327  1.00  0.00     0.049 A 
ATOM     62  H   UNL     1      -0.065 -11.155  17.587  1.00  0.00     0.167 HD
ATOM     63  C   UNL     1      -2.084  -9.335  18.641  1.00  0.00     0.074 A 
ATOM     64  C   UNL     1      -0.698  -8.887  18.568  1.00  0.00     0.031 C 
ATOM     65  C   UNL     1      -2.718 -10.451  18.177  1.00  0.00     0.037 A 
BRANCH  52  66
ATOM     66  C   UNL     1       1.859 -11.488  15.371  1.00  0.00     0.057 A 
ATOM     67  C   UNL     1       2.320 -12.515  16.210  1.00  0.00     0.134 A 
ATOM     68  C   UNL     1       2.730 -10.383  15.246  1.00  0.00     0.134 A 
ATOM     69  F   UNL     1       1.578 -13.611  16.428  1.00  0.00    -0.206 F 
ATOM     70  C   UNL     1       3.518 -12.416  16.928  1.00  0.00     0.040 A 
ATOM     71  C   UNL     1       3.952 -10.299  15.914  1.00  0.00     0.040 A 
ATOM     72  F   UNL     1       2.411  -9.279  14.561  1.00  0.00    -0.206 F 
ATOM     73  C   UNL     1       4.335 -11.301  16.786  1.00  0.00     0.006 A 
ENDBRANCH  52  66
BRANCH  53  74
ATOM     74  C   UNL     1      -2.188  -4.628  18.824  1.00  0.00     0.057 A 
ATOM     75  C   UNL     1      -2.110  -4.562  20.222  1.00  0.00     0.134 A 
ATOM     76  C   UNL     1      -1.711  -3.508  18.123  1.00  0.00     0.134 A 
ATOM     77  F   UNL     1      -2.508  -5.597  20.976  1.00  0.00    -0.206 F 
ATOM     78  C   UNL     1      -1.555  -3.460  20.885  1.00  0.00     0.040 A 
ATOM     79  C   UNL     1      -1.161  -2.398  18.773  1.00  0.00     0.040 A 
ATOM     80  F   UNL     1      -1.676  -3.493  16.782  1.00  0.00    -0.206 F 
ATOM     81  C   UNL     1      -1.066  -2.379  20.159  1.00  0.00     0.006 A 
ENDBRANCH  53  74
BRANCH  65  82
ATOM     82  C   UNL     1      -4.204 -10.524  18.391  1.00  0.00     0.057 A 
ATOM     83  C   UNL     1      -5.134  -9.671  17.778  1.00  0.00     0.134 A 
ATOM     84  C   UNL     1      -4.716 -11.564  19.173  1.00  0.00     0.134 A 
ATOM     85  F   UNL     1      -4.740  -8.703  16.941  1.00  0.00    -0.206 F 
ATOM     86  C   UNL     1      -6.510  -9.819  17.977  1.00  0.00     0.040 A 
ATOM     87  C   UNL     1      -6.088 -11.745  19.351  1.00  0.00     0.040 A 
ATOM     88  F   UNL     1      -3.885 -12.449  19.747  1.00  0.00    -0.206 F 
ATOM     89  C   UNL     1      -6.991 -10.863  18.763  1.00  0.00     0.006 A 
ENDBRANCH  65  82
ENDBRANCH  39  40
ENDBRANCH  32  34
ENDBRANCH  31  32
ENDBRANCH  30  31
ENDBRANCH  29  30
ENDBRANCH  28  29
ENDBRANCH  27  28
ENDBRANCH  26  27
ENDBRANCH  25  26
ENDBRANCH  24  25
ENDBRANCH   1  24
TORSDOF 25
