REMARK SMILES COc1ccc(-n2c(=S)[nH]cc(CC(=O)OCCOCCOCCOCCOC(=O)c3ccc(-c4c5nc(c(-c6c(F)cccc6F)c6ccc([nH]6)c(-c6c(F)cccc6F)c6nc(c(-c7c(F)cccc7F)c7ccc4[nH]7)C=C6)C=C5)cc3)c2=O)cc1Cl
REMARK SMILES IDX 21 1 20 2 19 3 18 4 17 5 16 6 14 7 15 8 13 9 12 10 7 11 8 12
REMARK SMILES IDX 85 13 9 14 10 15 86 16 11 17 6 19 3 20 4 21 88 22 5 23 87 24
REMARK SMILES IDX 89 25 2 26 1 27 22 28 23 29 24 30 25 31 26 32 27 33 28 34
REMARK SMILES IDX 29 35 30 36 31 37 32 38 84 39 33 40 83 41 34 42 35 43 36 44
REMARK SMILES IDX 77 45 37 46 82 47 76 48 78 49 38 50 81 51 75 52 74 53 39 55
REMARK SMILES IDX 65 56 48 57 64 58 49 59 52 60 63 61 79 62 50 63 51 64 62 66
REMARK SMILES IDX 80 67 53 68 40 69 41 70 46 71 42 72 43 73 45 74 47 75 44 76
REMARK SMILES IDX 66 77 67 78 72 79 68 80 69 81 71 82 73 83 70 84 54 85 55 86
REMARK SMILES IDX 60 87 56 88 57 89 59 90 61 91 58 92
REMARK H PARENT 10 18 78 54 52 65
REMARK Flexibility Score: inf
ROOT
ATOM      1  C   UNL     1       2.584  -7.583   8.671  1.00  0.00     0.188 C 
ENDROOT
BRANCH   1   2
ATOM      2  C   UNL     1       1.996  -8.895   9.185  1.00  0.00     0.188 C 
BRANCH   2   3
ATOM      3  O   UNL     1       2.557 -10.112   8.742  1.00  0.00    -0.376 OA
BRANCH   3   4
ATOM      4  C   UNL     1       2.657 -10.385   7.351  1.00  0.00     0.202 C 
BRANCH   4   5
ATOM      5  C   UNL     1       1.642  -9.874   6.304  1.00  0.00     0.261 C 
BRANCH   5   6
ATOM      6  O   UNL     1       1.279  -8.476   6.347  1.00  0.00    -0.463 OA
BRANCH   6   7
ATOM      7  C   UNL     1      -0.045  -8.198   6.232  1.00  0.00     0.310 C 
ATOM      8  O   UNL     1      -0.913  -9.062   6.127  1.00  0.00    -0.252 OA
BRANCH   7   9
ATOM      9  C   UNL     1      -0.438  -6.724   6.381  1.00  0.00     0.165 C 
BRANCH   9  10
ATOM     10  C   UNL     1       0.573  -5.611   6.307  1.00  0.00     0.045 A 
ATOM     11  N   UNL     1       1.694  -3.871   4.968  1.00  0.00    -0.253 N 
ATOM     12  C   UNL     1       2.377  -3.414   6.107  1.00  0.00     0.184 A 
ATOM     13  C   UNL     1       0.903  -5.032   4.973  1.00  0.00     0.262 A 
ATOM     14  S   UNL     1       3.534  -2.205   6.242  1.00  0.00    -0.040 S 
ATOM     15  N   UNL     1       1.969  -3.979   7.288  1.00  0.00    -0.338 N 
ATOM     16  O   UNL     1       0.420  -5.555   3.968  1.00  0.00    -0.269 OA
ATOM     17  C   UNL     1       1.044  -4.969   7.382  1.00  0.00     0.095 A 
ATOM     18  H   UNL     1       2.373  -3.646   8.122  1.00  0.00     0.168 HD
BRANCH  11  19
ATOM     19  C   UNL     1       1.516  -2.980   3.861  1.00  0.00     0.053 A 
ATOM     20  C   UNL     1       1.129  -0.882   2.044  1.00  0.00     0.137 A 
ATOM     21  C   UNL     1       0.061  -1.338   2.817  1.00  0.00     0.050 A 
ATOM     22  C   UNL     1       2.388  -1.485   2.166  1.00  0.00     0.085 A 
ATOM     23  C   UNL     1       0.249  -2.392   3.708  1.00  0.00     0.031 A 
ATOM     24  C   UNL     1       2.579  -2.540   3.068  1.00  0.00     0.051 A 
ATOM     25  Cl  UNL     1       3.767  -0.912   1.300  1.00  0.00    -0.080 Cl
BRANCH  20  26
ATOM     26  O   UNL     1       0.880   0.235   1.291  1.00  0.00    -0.495 OA
ATOM     27  C   UNL     1       0.911  -0.033  -0.109  1.00  0.00     0.278 C 
ENDBRANCH  20  26
ENDBRANCH  11  19
ENDBRANCH   9  10
ENDBRANCH   7   9
ENDBRANCH   6   7
ENDBRANCH   5   6
ENDBRANCH   4   5
ENDBRANCH   3   4
ENDBRANCH   2   3
ENDBRANCH   1   2
BRANCH   1  28
ATOM     28  O   UNL     1       3.532  -7.655   7.629  1.00  0.00    -0.377 OA
BRANCH  28  29
ATOM     29  C   UNL     1       4.888  -7.929   7.945  1.00  0.00     0.188 C 
BRANCH  29  30
ATOM     30  C   UNL     1       5.298  -8.295   9.379  1.00  0.00     0.188 C 
BRANCH  30  31
ATOM     31  O   UNL     1       4.670  -7.514  10.389  1.00  0.00    -0.376 OA
BRANCH  31  32
ATOM     32  C   UNL     1       5.399  -6.419  10.927  1.00  0.00     0.202 C 
BRANCH  32  33
ATOM     33  C   UNL     1       5.525  -5.189  10.017  1.00  0.00     0.261 C 
BRANCH  33  34
ATOM     34  O   UNL     1       6.287  -5.368   8.815  1.00  0.00    -0.460 OA
BRANCH  34  35
ATOM     35  C   UNL     1       7.564  -5.806   8.925  1.00  0.00     0.338 C 
ATOM     36  O   UNL     1       8.181  -6.036   9.938  1.00  0.00    -0.246 OA
BRANCH  35  37
ATOM     37  C   UNL     1       8.019  -6.146   7.557  1.00  0.00     0.060 A 
ATOM     38  C   UNL     1       7.957  -5.197   6.534  1.00  0.00     0.016 A 
ATOM     39  C   UNL     1       8.473  -7.444   7.297  1.00  0.00     0.016 A 
ATOM     40  C   UNL     1       8.383  -5.540   5.250  1.00  0.00     0.010 A 
ATOM     41  C   UNL     1       8.886  -7.790   6.008  1.00  0.00     0.010 A 
ATOM     42  C   UNL     1       8.866  -6.833   4.982  1.00  0.00    -0.014 A 
BRANCH  42  43
ATOM     43  C   UNL     1       9.520  -7.118   3.682  1.00  0.00     0.031 A 
ATOM     44  C   UNL     1       8.821  -7.848   2.577  1.00  0.00     0.074 A 
ATOM     45  C   UNL     1      10.793  -6.711   3.523  1.00  0.00     0.049 A 
ATOM     46  N   UNL     1       9.247  -8.105   1.365  1.00  0.00    -0.248 NA
ATOM     47  C   UNL     1       7.477  -8.365   2.867  1.00  0.00     0.031 C 
ATOM     48  C   UNL     1      11.586  -6.024   4.545  1.00  0.00     0.029 A 
ATOM     49  N   UNL     1      11.642  -6.813   2.452  1.00  0.00    -0.354 N 
ATOM     50  C   UNL     1       8.219  -8.793   0.736  1.00  0.00     0.074 A 
ATOM     51  C   UNL     1       7.165  -8.954   1.719  1.00  0.00     0.031 C 
ATOM     52  C   UNL     1      12.802  -5.755   4.047  1.00  0.00     0.029 A 
ATOM     53  C   UNL     1      12.879  -6.265   2.682  1.00  0.00     0.049 A 
ATOM     54  H   UNL     1      11.389  -7.238   1.601  1.00  0.00     0.167 HD
ATOM     55  C   UNL     1       8.158  -9.232  -0.546  1.00  0.00     0.037 A 
ATOM     56  C   UNL     1      13.957  -6.181   1.882  1.00  0.00     0.037 A 
ATOM     57  C   UNL     1       9.224  -9.091  -1.510  1.00  0.00     0.049 A 
ATOM     58  C   UNL     1      13.877  -6.721   0.483  1.00  0.00     0.074 A 
ATOM     59  C   UNL     1       9.237  -9.461  -2.845  1.00  0.00     0.029 A 
ATOM     60  N   UNL     1      10.475  -8.556  -1.236  1.00  0.00    -0.354 N 
ATOM     61  N   UNL     1      12.863  -7.281  -0.131  1.00  0.00    -0.248 NA
ATOM     62  C   UNL     1      15.090  -6.607  -0.337  1.00  0.00     0.031 C 
ATOM     63  C   UNL     1      10.512  -9.201  -3.363  1.00  0.00     0.029 A 
ATOM     64  C   UNL     1      11.278  -8.620  -2.366  1.00  0.00     0.049 A 
ATOM     65  H   UNL     1      10.752  -8.186  -0.367  1.00  0.00     0.167 HD
ATOM     66  C   UNL     1      13.307  -7.563  -1.415  1.00  0.00     0.074 A 
ATOM     67  C   UNL     1      14.675  -7.093  -1.498  1.00  0.00     0.031 C 
ATOM     68  C   UNL     1      12.642  -8.159  -2.435  1.00  0.00     0.037 A 
BRANCH  55  69
ATOM     69  C   UNL     1       6.894  -9.913  -0.989  1.00  0.00     0.057 A 
ATOM     70  C   UNL     1       6.880 -11.280  -1.296  1.00  0.00     0.134 A 
ATOM     71  C   UNL     1       5.700  -9.202  -1.168  1.00  0.00     0.134 A 
ATOM     72  F   UNL     1       7.991 -12.020  -1.160  1.00  0.00    -0.206 F 
ATOM     73  C   UNL     1       5.727 -11.913  -1.764  1.00  0.00     0.040 A 
ATOM     74  C   UNL     1       4.533  -9.829  -1.612  1.00  0.00     0.040 A 
ATOM     75  F   UNL     1       5.642  -7.890  -0.892  1.00  0.00    -0.206 F 
ATOM     76  C   UNL     1       4.547 -11.188  -1.917  1.00  0.00     0.006 A 
ENDBRANCH  55  69
BRANCH  56  77
ATOM     77  C   UNL     1      15.201  -5.544   2.378  1.00  0.00     0.057 A 
ATOM     78  C   UNL     1      15.989  -6.152   3.362  1.00  0.00     0.134 A 
ATOM     79  C   UNL     1      15.639  -4.318   1.864  1.00  0.00     0.134 A 
ATOM     80  F   UNL     1      15.617  -7.322   3.900  1.00  0.00    -0.206 F 
ATOM     81  C   UNL     1      17.169  -5.564   3.817  1.00  0.00     0.040 A 
ATOM     82  C   UNL     1      16.831  -3.732   2.290  1.00  0.00     0.040 A 
ATOM     83  F   UNL     1      14.933  -3.696   0.908  1.00  0.00    -0.206 F 
ATOM     84  C   UNL     1      17.598  -4.355   3.273  1.00  0.00     0.006 A 
ENDBRANCH  56  77
BRANCH  68  85
ATOM     85  C   UNL     1      13.386  -8.314  -3.731  1.00  0.00     0.057 A 
ATOM     86  C   UNL     1      13.041  -7.547  -4.851  1.00  0.00     0.134 A 
ATOM     87  C   UNL     1      14.445  -9.221  -3.871  1.00  0.00     0.134 A 
ATOM     88  F   UNL     1      12.034  -6.663  -4.788  1.00  0.00    -0.206 F 
ATOM     89  C   UNL     1      13.724  -7.674  -6.061  1.00  0.00     0.040 A 
ATOM     90  C   UNL     1      15.154  -9.336  -5.069  1.00  0.00     0.040 A 
ATOM     91  F   UNL     1      14.839  -9.973  -2.832  1.00  0.00    -0.206 F 
ATOM     92  C   UNL     1      14.790  -8.564  -6.170  1.00  0.00     0.006 A 
ENDBRANCH  68  85
ENDBRANCH  42  43
ENDBRANCH  35  37
ENDBRANCH  34  35
ENDBRANCH  33  34
ENDBRANCH  32  33
ENDBRANCH  31  32
ENDBRANCH  30  31
ENDBRANCH  29  30
ENDBRANCH  28  29
ENDBRANCH   1  28
TORSDOF 23
