REMARK SMILES Cc1ccc(C(=O)NC2(CC(=O)OCCOCCOCCOCCOC(=O)c3ccc(-c4c5nc(c(-c6c(F)cccc6F)c6ccc([nH]6)c(-c6c(F)cccc6F)c6nc(c(-c7c(F)cccc7F)c7ccc4[nH]7)C=C6)C=C5)cc3)CCC2)cc1
REMARK SMILES IDX 18 1 17 2 16 3 15 4 14 5 13 6 11 7 12 8 10 9 9 10 82 11
REMARK SMILES IDX 84 12 83 13 8 14 6 15 7 16 5 18 1 19 2 20 3 21 86 22 4 23
REMARK SMILES IDX 85 24 19 25 20 26 21 27 22 28 23 29 24 30 25 31 26 32 27 33
REMARK SMILES IDX 28 34 29 35 81 36 30 37 80 38 31 39 32 40 33 41 74 42 34 43
REMARK SMILES IDX 79 44 73 45 75 46 35 47 78 48 72 49 71 50 36 52 62 53 45 54
REMARK SMILES IDX 61 55 46 56 49 57 60 58 76 59 47 60 48 61 59 63 77 64 50 65
REMARK SMILES IDX 37 66 38 67 43 68 39 69 40 70 42 71 44 72 41 73 63 74 64 75
REMARK SMILES IDX 69 76 65 77 66 78 68 79 70 80 67 81 51 82 52 83 57 84 53 85
REMARK SMILES IDX 54 86 56 87 58 88 55 89
REMARK H PARENT 8 17 75 51 49 62
REMARK Flexibility Score: inf
ROOT
ATOM      1  C   UNL     1      -4.986  -1.509   0.059  1.00  0.00     0.188 C 
ENDROOT
BRANCH   1   2
ATOM      2  C   UNL     1      -4.112  -2.946   0.201  1.00  0.00     0.188 C 
BRANCH   2   3
ATOM      3  O   UNL     1      -2.522  -3.441  -0.380  1.00  0.00    -0.376 OA
BRANCH   3   4
ATOM      4  C   UNL     1      -0.878  -2.804  -0.542  1.00  0.00     0.202 C 
BRANCH   4   5
ATOM      5  C   UNL     1       0.168  -1.206  -0.210  1.00  0.00     0.261 C 
BRANCH   5   6
ATOM      6  O   UNL     1       0.785   0.497  -1.228  1.00  0.00    -0.463 OA
BRANCH   6   7
ATOM      7  C   UNL     1      -0.011   1.958  -1.868  1.00  0.00     0.308 C 
ATOM      8  O   UNL     1      -0.457   1.981  -3.029  1.00  0.00    -0.252 OA
BRANCH   7   9
ATOM      9  C   UNL     1      -0.867   3.217  -1.083  1.00  0.00     0.151 C 
BRANCH   9  10
ATOM     10  C   UNL     1      -2.410   3.323  -1.216  1.00  0.00     0.051 C 
ATOM     11  C   UNL     1      -2.935   4.526  -2.132  1.00  0.00     0.029 C 
ATOM     12  C   UNL     1      -3.536   3.979  -0.224  1.00  0.00     0.029 C 
ATOM     13  C   UNL     1      -3.259   5.315  -0.858  1.00  0.00     0.005 C 
BRANCH  10  14
ATOM     14  N   UNL     1      -2.965   2.066  -1.631  1.00  0.00    -0.346 N 
ATOM     15  C   UNL     1      -2.420   0.890  -2.043  1.00  0.00     0.251 C 
ATOM     16  O   UNL     1      -3.195   0.508  -2.928  1.00  0.00    -0.269 OA
ATOM     17  H   UNL     1      -3.949   2.051  -1.614  1.00  0.00     0.164 HD
BRANCH  15  18
ATOM     18  C   UNL     1      -1.007   0.133  -1.332  1.00  0.00     0.039 A 
ATOM     19  C   UNL     1       3.866  -0.672   0.117  1.00  0.00     0.044 C 
ATOM     20  C   UNL     1       2.447  -0.466  -0.312  1.00  0.00    -0.051 A 
ATOM     21  C   UNL     1       1.898  -1.179  -1.694  1.00  0.00     0.004 A 
ATOM     22  C   UNL     1       1.385   0.401   0.665  1.00  0.00     0.004 A 
ATOM     23  C   UNL     1       0.240  -0.960  -2.213  1.00  0.00     0.014 A 
ATOM     24  C   UNL     1      -0.320   0.798   0.172  1.00  0.00     0.014 A 
ENDBRANCH  15  18
ENDBRANCH  10  14
ENDBRANCH   9  10
ENDBRANCH   7   9
ENDBRANCH   6   7
ENDBRANCH   5   6
ENDBRANCH   4   5
ENDBRANCH   3   4
ENDBRANCH   2   3
ENDBRANCH   1   2
BRANCH   1  25
ATOM     25  O   UNL     1      -5.796  -0.976   1.117  1.00  0.00    -0.377 OA
BRANCH  25  26
ATOM     26  C   UNL     1      -5.213  -0.377   2.262  1.00  0.00     0.188 C 
BRANCH  26  27
ATOM     27  C   UNL     1      -5.647  -1.016   3.531  1.00  0.00     0.188 C 
BRANCH  27  28
ATOM     28  O   UNL     1      -5.680  -2.361   3.171  1.00  0.00    -0.376 OA
BRANCH  28  29
ATOM     29  C   UNL     1      -6.953  -2.947   3.247  1.00  0.00     0.202 C 
BRANCH  29  30
ATOM     30  C   UNL     1      -6.923  -3.686   4.564  1.00  0.00     0.261 C 
BRANCH  30  31
ATOM     31  O   UNL     1      -5.691  -4.469   4.585  1.00  0.00    -0.460 OA
BRANCH  31  32
ATOM     32  C   UNL     1      -4.627  -3.851   5.187  1.00  0.00     0.338 C 
ATOM     33  O   UNL     1      -4.686  -3.253   6.255  1.00  0.00    -0.246 OA
BRANCH  32  34
ATOM     34  C   UNL     1      -3.456  -3.709   4.254  1.00  0.00     0.060 A 
ATOM     35  C   UNL     1      -2.574  -2.654   4.395  1.00  0.00     0.016 A 
ATOM     36  C   UNL     1      -3.256  -4.447   3.115  1.00  0.00     0.016 A 
ATOM     37  C   UNL     1      -1.884  -2.128   3.262  1.00  0.00     0.010 A 
ATOM     38  C   UNL     1      -2.478  -3.901   2.037  1.00  0.00     0.010 A 
ATOM     39  C   UNL     1      -2.136  -2.508   1.933  1.00  0.00    -0.014 A 
BRANCH  39  40
ATOM     40  C   UNL     1      -2.413  -1.268   0.587  1.00  0.00     0.031 A 
ATOM     41  C   UNL     1      -2.766  -1.602  -1.363  1.00  0.00     0.074 A 
ATOM     42  C   UNL     1      -2.297  -0.022   1.326  1.00  0.00     0.049 A 
ATOM     43  N   UNL     1      -1.901  -1.369  -2.372  1.00  0.00    -0.248 NA
ATOM     44  C   UNL     1      -3.623  -2.525  -2.350  1.00  0.00     0.031 C 
ATOM     45  C   UNL     1      -2.921   1.304   1.184  1.00  0.00     0.029 A 
ATOM     46  N   UNL     1      -1.263   0.395   2.376  1.00  0.00    -0.354 N 
ATOM     47  C   UNL     1      -1.970  -1.601  -3.742  1.00  0.00     0.074 A 
ATOM     48  C   UNL     1      -3.087  -2.511  -3.617  1.00  0.00     0.031 C 
ATOM     49  C   UNL     1      -2.254   2.273   1.881  1.00  0.00     0.029 A 
ATOM     50  C   UNL     1      -0.967   1.838   2.411  1.00  0.00     0.049 A 
ATOM     51  H   UNL     1      -0.830  -0.251   2.980  1.00  0.00     0.167 HD
ATOM     52  C   UNL     1      -1.034  -1.137  -4.779  1.00  0.00     0.037 A 
ATOM     53  C   UNL     1       0.259   2.608   2.273  1.00  0.00     0.037 A 
ATOM     54  C   UNL     1       0.074   0.147  -4.728  1.00  0.00     0.049 A 
ATOM     55  C   UNL     1       1.497   2.940   0.967  1.00  0.00     0.074 A 
ATOM     56  C   UNL     1       0.186   1.372  -5.425  1.00  0.00     0.029 A 
ATOM     57  N   UNL     1       1.394   0.287  -4.059  1.00  0.00    -0.354 N 
ATOM     58  N   UNL     1       1.410   2.952  -0.379  1.00  0.00    -0.248 NA
ATOM     59  C   UNL     1       2.933   3.044   1.258  1.00  0.00     0.031 C 
ATOM     60  C   UNL     1       1.254   2.266  -4.841  1.00  0.00     0.029 A 
ATOM     61  C   UNL     1       1.831   1.669  -3.703  1.00  0.00     0.049 A 
ATOM     62  H   UNL     1       1.955  -0.497  -3.859  1.00  0.00     0.167 HD
ATOM     63  C   UNL     1       2.623   2.655  -1.119  1.00  0.00     0.074 A 
ATOM     64  C   UNL     1       3.535   2.849   0.052  1.00  0.00     0.031 C 
ATOM     65  C   UNL     1       2.886   2.125  -2.497  1.00  0.00     0.037 A 
BRANCH  52  66
ATOM     66  C   UNL     1      -1.076  -1.965  -6.073  1.00  0.00     0.057 A 
ATOM     67  C   UNL     1      -0.942  -1.417  -7.357  1.00  0.00     0.134 A 
ATOM     68  C   UNL     1      -1.193  -3.369  -6.059  1.00  0.00     0.134 A 
ATOM     69  F   UNL     1      -0.699  -0.123  -7.548  1.00  0.00    -0.206 F 
ATOM     70  C   UNL     1      -1.054  -2.179  -8.527  1.00  0.00     0.040 A 
ATOM     71  C   UNL     1      -1.355  -4.139  -7.215  1.00  0.00     0.040 A 
ATOM     72  F   UNL     1      -1.133  -4.054  -4.907  1.00  0.00    -0.206 F 
ATOM     73  C   UNL     1      -1.308  -3.534  -8.457  1.00  0.00     0.006 A 
ENDBRANCH  52  66
BRANCH  53  74
ATOM     74  C   UNL     1       0.661   2.659   3.746  1.00  0.00     0.057 A 
ATOM     75  C   UNL     1      -0.256   3.399   4.524  1.00  0.00     0.134 A 
ATOM     76  C   UNL     1       1.162   1.481   4.329  1.00  0.00     0.134 A 
ATOM     77  F   UNL     1      -0.770   4.540   4.040  1.00  0.00    -0.206 F 
ATOM     78  C   UNL     1      -0.896   2.818   5.617  1.00  0.00     0.040 A 
ATOM     79  C   UNL     1       0.537   0.899   5.431  1.00  0.00     0.040 A 
ATOM     80  F   UNL     1       2.123   0.773   3.725  1.00  0.00    -0.206 F 
ATOM     81  C   UNL     1      -0.540   1.538   6.031  1.00  0.00     0.006 A 
ENDBRANCH  53  74
BRANCH  65  82
ATOM     82  C   UNL     1       4.364   1.827  -2.905  1.00  0.00     0.057 A 
ATOM     83  C   UNL     1       5.491   2.423  -2.338  1.00  0.00     0.134 A 
ATOM     84  C   UNL     1       4.695   0.903  -3.922  1.00  0.00     0.134 A 
ATOM     85  F   UNL     1       5.402   3.574  -1.659  1.00  0.00    -0.206 F 
ATOM     86  C   UNL     1       6.792   1.919  -2.502  1.00  0.00     0.040 A 
ATOM     87  C   UNL     1       5.996   0.449  -4.172  1.00  0.00     0.040 A 
ATOM     88  F   UNL     1       3.790   0.403  -4.757  1.00  0.00    -0.206 F 
ATOM     89  C   UNL     1       7.040   0.898  -3.402  1.00  0.00     0.006 A 
ENDBRANCH  65  82
ENDBRANCH  39  40
ENDBRANCH  32  34
ENDBRANCH  31  32
ENDBRANCH  30  31
ENDBRANCH  29  30
ENDBRANCH  28  29
ENDBRANCH  27  28
ENDBRANCH  26  27
ENDBRANCH  25  26
ENDBRANCH   1  25
TORSDOF 23
