REMARK SMILES CCC(CC)C[N@H+]1[C@@H]2CC[C@H]1C[C@H](CC(=O)OCCOCCOCCOCCOC(=O)c1ccc(-c3c4nc(c(-c5c(F)cccc5F)c5ccc([nH]5)c(-c5c(F)cccc5F)c5nc(c(-c6c(F)cccc6F)c6ccc3[nH]6)C=C5)C=C4)cc1)C2
REMARK SMILES IDX 22 1 21 2 20 3 19 4 18 5 17 6 15 7 16 8 14 9 13 10 7 11 8 12
REMARK SMILES IDX 11 13 9 15 86 16 10 17 12 18 6 19 3 20 2 21 1 22 4 23 5 24
REMARK SMILES IDX 23 25 24 26 25 27 26 28 27 29 28 30 29 31 30 32 31 33 32 34
REMARK SMILES IDX 33 35 85 36 34 37 84 38 35 39 36 40 37 41 78 42 38 43 83 44
REMARK SMILES IDX 77 45 79 46 39 47 82 48 76 49 75 50 40 52 66 53 49 54 65 55
REMARK SMILES IDX 50 56 53 57 64 58 80 59 51 60 52 61 63 63 81 64 54 65 41 66
REMARK SMILES IDX 42 67 47 68 43 69 44 70 46 71 48 72 45 73 67 74 68 75 73 76
REMARK SMILES IDX 69 77 70 78 72 79 74 80 71 81 55 82 56 83 61 84 57 85 58 86
REMARK SMILES IDX 60 87 62 88 59 89
REMARK H PARENT 7 14 79 51 53 62
REMARK Flexibility Score: inf
ROOT
ATOM      1  C   UNL     1       5.312   1.908   7.305  1.00  0.00     0.188 C 
ENDROOT
BRANCH   1   2
ATOM      2  C   UNL     1       5.498   3.374   7.704  1.00  0.00     0.188 C 
BRANCH   2   3
ATOM      3  O   UNL     1       5.194   3.709   9.038  1.00  0.00    -0.376 OA
BRANCH   3   4
ATOM      4  C   UNL     1       3.882   4.104   9.411  1.00  0.00     0.202 C 
BRANCH   4   5
ATOM      5  C   UNL     1       2.691   4.261   8.447  1.00  0.00     0.261 C 
BRANCH   5   6
ATOM      6  O   UNL     1       2.632   3.355   7.338  1.00  0.00    -0.463 OA
BRANCH   6   7
ATOM      7  C   UNL     1       2.597   3.942   6.119  1.00  0.00     0.306 C 
ATOM      8  O   UNL     1       2.596   5.157   5.934  1.00  0.00    -0.252 OA
BRANCH   7   9
ATOM      9  C   UNL     1       2.644   2.998   4.944  1.00  0.00     0.126 C 
BRANCH   9  10
ATOM     10  C   UNL     1       2.629   1.472   5.108  1.00  0.00     0.012 C 
ATOM     11  N   UNL     1       0.987  -0.572   3.775  1.00  0.00    -0.330 N 
ATOM     12  C   UNL     1       2.423  -0.530   3.473  1.00  0.00     0.184 C 
ATOM     13  C   UNL     1       0.973  -0.491   5.254  1.00  0.00     0.184 C 
ATOM     14  H   UNL     1       0.560  -1.414   3.391  1.00  0.00     0.348 HD
ATOM     15  C   UNL     1       2.978  -1.578   4.438  1.00  0.00     0.071 C 
ATOM     16  C   UNL     1       3.017   0.855   3.745  1.00  0.00     0.069 C 
ATOM     17  C   UNL     1       2.056  -1.508   5.649  1.00  0.00     0.071 C 
ATOM     18  C   UNL     1       1.346   0.920   5.759  1.00  0.00     0.069 C 
BRANCH  11  19
ATOM     19  C   UNL     1       0.137   0.441   3.126  1.00  0.00     0.266 C 
BRANCH  19  20
ATOM     20  C   UNL     1       0.443   0.782   1.647  1.00  0.00     0.044 C 
BRANCH  20  21
ATOM     21  C   UNL     1      -0.035  -0.315   0.690  1.00  0.00     0.006 C 
ATOM     22  C   UNL     1       0.626  -0.193  -0.678  1.00  0.00     0.004 C 
ENDBRANCH  20  21
BRANCH  20  23
ATOM     23  C   UNL     1      -0.058   2.207   1.311  1.00  0.00     0.006 C 
ATOM     24  C   UNL     1      -1.547   2.444   1.506  1.00  0.00     0.004 C 
ENDBRANCH  20  23
ENDBRANCH  19  20
ENDBRANCH  11  19
ENDBRANCH   9  10
ENDBRANCH   7   9
ENDBRANCH   6   7
ENDBRANCH   5   6
ENDBRANCH   4   5
ENDBRANCH   3   4
ENDBRANCH   2   3
ENDBRANCH   1   2
BRANCH   1  25
ATOM     25  O   UNL     1       4.196   1.203   7.820  1.00  0.00    -0.377 OA
BRANCH  25  26
ATOM     26  C   UNL     1       4.113   0.843   9.190  1.00  0.00     0.188 C 
BRANCH  26  27
ATOM     27  C   UNL     1       5.377   0.830  10.062  1.00  0.00     0.188 C 
BRANCH  27  28
ATOM     28  O   UNL     1       6.584   0.610   9.358  1.00  0.00    -0.376 OA
BRANCH  28  29
ATOM     29  C   UNL     1       7.047  -0.721   9.190  1.00  0.00     0.202 C 
BRANCH  29  30
ATOM     30  C   UNL     1       6.114  -1.736   8.511  1.00  0.00     0.261 C 
BRANCH  30  31
ATOM     31  O   UNL     1       4.891  -2.045   9.202  1.00  0.00    -0.460 OA
BRANCH  31  32
ATOM     32  C   UNL     1       4.969  -2.448  10.488  1.00  0.00     0.338 C 
ATOM     33  O   UNL     1       5.968  -2.659  11.143  1.00  0.00    -0.246 OA
BRANCH  32  34
ATOM     34  C   UNL     1       3.603  -2.430  11.045  1.00  0.00     0.060 A 
ATOM     35  C   UNL     1       3.313  -1.558  12.102  1.00  0.00     0.016 A 
ATOM     36  C   UNL     1       2.630  -3.302  10.554  1.00  0.00     0.016 A 
ATOM     37  C   UNL     1       2.058  -1.591  12.707  1.00  0.00     0.010 A 
ATOM     38  C   UNL     1       1.378  -3.348  11.174  1.00  0.00     0.010 A 
ATOM     39  C   UNL     1       1.103  -2.522  12.279  1.00  0.00    -0.014 A 
BRANCH  39  40
ATOM     40  C   UNL     1      -0.089  -2.782  13.121  1.00  0.00     0.031 A 
ATOM     41  C   UNL     1      -0.059  -3.960  14.057  1.00  0.00     0.074 A 
ATOM     42  C   UNL     1      -1.161  -1.972  13.089  1.00  0.00     0.049 A 
ATOM     43  N   UNL     1      -0.986  -4.407  14.865  1.00  0.00    -0.248 NA
ATOM     44  C   UNL     1       1.190  -4.739  14.081  1.00  0.00     0.031 C 
ATOM     45  C   UNL     1      -1.290  -0.769  12.270  1.00  0.00     0.029 A 
ATOM     46  N   UNL     1      -2.350  -2.048  13.770  1.00  0.00    -0.354 N 
ATOM     47  C   UNL     1      -0.433  -5.519  15.490  1.00  0.00     0.074 A 
ATOM     48  C   UNL     1       0.890  -5.703  14.937  1.00  0.00     0.031 C 
ATOM     49  C   UNL     1      -2.495  -0.218  12.496  1.00  0.00     0.029 A 
ATOM     50  C   UNL     1      -3.234  -1.049  13.445  1.00  0.00     0.049 A 
ATOM     51  H   UNL     1      -2.550  -2.752  14.428  1.00  0.00     0.167 HD
ATOM     52  C   UNL     1      -0.974  -6.309  16.449  1.00  0.00     0.037 A 
ATOM     53  C   UNL     1      -4.500  -0.844  13.857  1.00  0.00     0.037 A 
ATOM     54  C   UNL     1      -2.297  -6.133  16.986  1.00  0.00     0.049 A 
ATOM     55  C   UNL     1      -5.122  -1.801  14.843  1.00  0.00     0.074 A 
ATOM     56  C   UNL     1      -2.942  -6.881  17.955  1.00  0.00     0.029 A 
ATOM     57  N   UNL     1      -3.184  -5.144  16.589  1.00  0.00    -0.354 N 
ATOM     58  N   UNL     1      -4.590  -2.841  15.439  1.00  0.00    -0.248 NA
ATOM     59  C   UNL     1      -6.522  -1.550  15.213  1.00  0.00     0.031 C 
ATOM     60  C   UNL     1      -4.240  -6.380  18.102  1.00  0.00     0.029 A 
ATOM     61  C   UNL     1      -4.381  -5.278  17.273  1.00  0.00     0.049 A 
ATOM     62  H   UNL     1      -2.992  -4.448  15.919  1.00  0.00     0.167 HD
ATOM     63  C   UNL     1      -5.575  -3.344  16.282  1.00  0.00     0.074 A 
ATOM     64  C   UNL     1      -6.733  -2.488  16.125  1.00  0.00     0.031 C 
ATOM     65  C   UNL     1      -5.524  -4.413  17.115  1.00  0.00     0.037 A 
BRANCH  52  66
ATOM     66  C   UNL     1      -0.137  -7.455  16.943  1.00  0.00     0.057 A 
ATOM     67  C   UNL     1       1.025  -7.255  17.701  1.00  0.00     0.134 A 
ATOM     68  C   UNL     1      -0.497  -8.778  16.654  1.00  0.00     0.134 A 
ATOM     69  F   UNL     1       1.436  -6.013  18.001  1.00  0.00    -0.206 F 
ATOM     70  C   UNL     1       1.818  -8.325  18.120  1.00  0.00     0.040 A 
ATOM     71  C   UNL     1       0.270  -9.857  17.096  1.00  0.00     0.040 A 
ATOM     72  F   UNL     1      -1.599  -9.044  15.938  1.00  0.00    -0.206 F 
ATOM     73  C   UNL     1       1.438  -9.632  17.821  1.00  0.00     0.006 A 
ENDBRANCH  52  66
BRANCH  53  74
ATOM     74  C   UNL     1      -5.274   0.315  13.342  1.00  0.00     0.057 A 
ATOM     75  C   UNL     1      -5.646   1.368  14.187  1.00  0.00     0.134 A 
ATOM     76  C   UNL     1      -5.685   0.387  12.006  1.00  0.00     0.134 A 
ATOM     77  F   UNL     1      -5.305   1.345  15.484  1.00  0.00    -0.206 F 
ATOM     78  C   UNL     1      -6.412   2.441  13.727  1.00  0.00     0.040 A 
ATOM     79  C   UNL     1      -6.427   1.468  11.525  1.00  0.00     0.040 A 
ATOM     80  F   UNL     1      -5.364  -0.589  11.144  1.00  0.00    -0.206 F 
ATOM     81  C   UNL     1      -6.799   2.495  12.390  1.00  0.00     0.006 A 
ENDBRANCH  53  74
BRANCH  65  82
ATOM     82  C   UNL     1      -6.735  -4.689  17.963  1.00  0.00     0.057 A 
ATOM     83  C   UNL     1      -7.936  -5.164  17.419  1.00  0.00     0.134 A 
ATOM     84  C   UNL     1      -6.684  -4.510  19.352  1.00  0.00     0.134 A 
ATOM     85  F   UNL     1      -8.058  -5.347  16.096  1.00  0.00    -0.206 F 
ATOM     86  C   UNL     1      -9.049  -5.421  18.222  1.00  0.00     0.040 A 
ATOM     87  C   UNL     1      -7.779  -4.795  20.169  1.00  0.00     0.040 A 
ATOM     88  F   UNL     1      -5.562  -4.069  19.942  1.00  0.00    -0.206 F 
ATOM     89  C   UNL     1      -8.970  -5.244  19.602  1.00  0.00     0.006 A 
ENDBRANCH  65  82
ENDBRANCH  39  40
ENDBRANCH  32  34
ENDBRANCH  31  32
ENDBRANCH  30  31
ENDBRANCH  29  30
ENDBRANCH  28  29
ENDBRANCH  27  28
ENDBRANCH  26  27
ENDBRANCH  25  26
ENDBRANCH   1  25
TORSDOF 25
