REMARK SMILES Cc1ncccc1NC(=O)NC[C@H]1CCC[C@H]1C(=O)OCCOCCOCCOCCOC(=O)c1ccc(-c2c3nc(c(-c4c(F)cccc4F)c4ccc([nH]4)c(-c4c(F)cccc4F)c4nc(c(-c5c(F)cccc5F)c5ccc2[nH]5)C=C4)C=C3)cc1
REMARK SMILES IDX 25 1 24 2 23 3 22 4 21 5 20 6 18 7 19 8 17 9 13 10 14 11
REMARK SMILES IDX 15 12 16 13 12 14 11 15 8 16 9 17 10 19 7 21 1 22 2 23 3 24
REMARK SMILES IDX 4 25 6 26 5 27 26 28 27 29 28 30 29 31 30 32 31 33 32 34
REMARK SMILES IDX 33 35 34 36 35 37 36 38 88 39 37 40 87 41 38 42 39 43 40 44
REMARK SMILES IDX 81 45 41 46 86 47 80 48 82 49 42 50 85 51 79 52 78 53 43 55
REMARK SMILES IDX 69 56 52 57 68 58 53 59 56 60 67 61 83 62 54 63 55 64 66 66
REMARK SMILES IDX 84 67 57 68 44 69 45 70 50 71 46 72 47 73 49 74 51 75 48 76
REMARK SMILES IDX 70 77 71 78 76 79 72 80 73 81 75 82 77 83 74 84 58 85 59 86
REMARK SMILES IDX 64 87 60 88 61 89 63 90 65 91 62 92
REMARK H PARENT 8 18 11 20 82 54 56 65
REMARK Flexibility Score: inf
ROOT
ATOM      1  C   UNL     1      -2.446   0.052   0.803  1.00  0.00     0.188 C 
ENDROOT
BRANCH   1   2
ATOM      2  C   UNL     1      -1.966   1.406   0.267  1.00  0.00     0.188 C 
BRANCH   2   3
ATOM      3  O   UNL     1      -2.866   2.452   0.558  1.00  0.00    -0.376 OA
BRANCH   3   4
ATOM      4  C   UNL     1      -3.656   2.996  -0.482  1.00  0.00     0.202 C 
BRANCH   4   5
ATOM      5  C   UNL     1      -4.335   2.126  -1.559  1.00  0.00     0.261 C 
BRANCH   5   6
ATOM      6  O   UNL     1      -3.811   0.805  -1.778  1.00  0.00    -0.463 OA
BRANCH   6   7
ATOM      7  C   UNL     1      -3.026   0.648  -2.868  1.00  0.00     0.309 C 
ATOM      8  O   UNL     1      -2.661   1.574  -3.586  1.00  0.00    -0.252 OA
BRANCH   7   9
ATOM      9  C   UNL     1      -2.600  -0.781  -3.142  1.00  0.00     0.104 C 
ATOM     10  C   UNL     1      -2.716  -1.952  -2.160  1.00  0.00     0.022 C 
ATOM     11  C   UNL     1      -2.289  -3.115  -3.082  1.00  0.00     0.006 C 
ATOM     12  C   UNL     1      -3.034  -2.836  -4.380  1.00  0.00     0.001 C 
ATOM     13  C   UNL     1      -3.211  -1.317  -4.436  1.00  0.00     0.016 C 
BRANCH  10  14
ATOM     14  C   UNL     1      -4.042  -2.348  -1.483  1.00  0.00     0.122 C 
BRANCH  14  15
ATOM     15  N   UNL     1      -5.219  -1.546  -1.675  1.00  0.00    -0.338 N 
ATOM     16  N   UNL     1      -7.006  -3.094  -2.039  1.00  0.00    -0.306 N 
ATOM     17  C   UNL     1      -6.510  -1.846  -1.901  1.00  0.00     0.319 C 
ATOM     18  H   UNL     1      -7.880  -3.095  -2.493  1.00  0.00     0.171 HD
ATOM     19  O   UNL     1      -7.284  -0.903  -2.099  1.00  0.00    -0.249 OA
ATOM     20  H   UNL     1      -5.044  -0.578  -1.631  1.00  0.00     0.165 HD
BRANCH  16  21
ATOM     21  C   UNL     1      -6.588  -4.397  -1.697  1.00  0.00     0.064 A 
ATOM     22  C   UNL     1      -8.086  -5.446  -3.493  1.00  0.00     0.069 C 
ATOM     23  C   UNL     1      -7.017  -5.510  -2.441  1.00  0.00     0.061 A 
ATOM     24  N   UNL     1      -6.526  -6.765  -2.238  1.00  0.00    -0.259 NA
ATOM     25  C   UNL     1      -5.621  -6.938  -1.256  1.00  0.00     0.111 A 
ATOM     26  C   UNL     1      -5.764  -4.657  -0.601  1.00  0.00     0.030 A 
ATOM     27  C   UNL     1      -5.233  -5.930  -0.400  1.00  0.00     0.022 A 
ENDBRANCH  16  21
ENDBRANCH  14  15
ENDBRANCH  10  14
ENDBRANCH   7   9
ENDBRANCH   6   7
ENDBRANCH   5   6
ENDBRANCH   4   5
ENDBRANCH   3   4
ENDBRANCH   2   3
ENDBRANCH   1   2
BRANCH   1  28
ATOM     28  O   UNL     1      -3.832  -0.145   1.036  1.00  0.00    -0.377 OA
BRANCH  28  29
ATOM     29  C   UNL     1      -4.519   0.727   1.931  1.00  0.00     0.188 C 
BRANCH  29  30
ATOM     30  C   UNL     1      -3.775   1.470   3.066  1.00  0.00     0.188 C 
BRANCH  30  31
ATOM     31  O   UNL     1      -2.424   1.091   3.267  1.00  0.00    -0.376 OA
BRANCH  31  32
ATOM     32  C   UNL     1      -2.148   0.206   4.344  1.00  0.00     0.202 C 
BRANCH  32  33
ATOM     33  C   UNL     1      -2.756  -1.204   4.262  1.00  0.00     0.261 C 
BRANCH  33  34
ATOM     34  O   UNL     1      -4.189  -1.261   4.181  1.00  0.00    -0.460 OA
BRANCH  34  35
ATOM     35  C   UNL     1      -4.879  -0.778   5.232  1.00  0.00     0.338 C 
ATOM     36  O   UNL     1      -4.426  -0.306   6.265  1.00  0.00    -0.246 OA
BRANCH  35  37
ATOM     37  C   UNL     1      -6.305  -0.765   4.871  1.00  0.00     0.060 A 
ATOM     38  C   UNL     1      -6.960   0.464   4.724  1.00  0.00     0.016 A 
ATOM     39  C   UNL     1      -6.995  -1.967   4.702  1.00  0.00     0.016 A 
ATOM     40  C   UNL     1      -8.323   0.494   4.437  1.00  0.00     0.010 A 
ATOM     41  C   UNL     1      -8.366  -1.935   4.440  1.00  0.00     0.010 A 
ATOM     42  C   UNL     1      -9.041  -0.705   4.342  1.00  0.00    -0.014 A 
BRANCH  42  43
ATOM     43  C   UNL     1     -10.522  -0.669   4.350  1.00  0.00     0.031 A 
ATOM     44  C   UNL     1     -11.233  -0.886   5.657  1.00  0.00     0.074 A 
ATOM     45  C   UNL     1     -11.222  -0.421   3.230  1.00  0.00     0.049 A 
ATOM     46  N   UNL     1     -12.515  -0.944   5.909  1.00  0.00    -0.248 NA
ATOM     47  C   UNL     1     -10.377  -1.067   6.841  1.00  0.00     0.031 C 
ATOM     48  C   UNL     1     -10.647  -0.145   1.915  1.00  0.00     0.029 A 
ATOM     49  N   UNL     1     -12.578  -0.370   3.025  1.00  0.00    -0.354 N 
ATOM     50  C   UNL     1     -12.619  -1.176   7.275  1.00  0.00     0.074 A 
ATOM     51  C   UNL     1     -11.272  -1.281   7.792  1.00  0.00     0.031 C 
ATOM     52  C   UNL     1     -11.647   0.037   1.035  1.00  0.00     0.029 A 
ATOM     53  C   UNL     1     -12.927  -0.145   1.717  1.00  0.00     0.049 A 
ATOM     54  H   UNL     1     -13.237  -0.484   3.748  1.00  0.00     0.167 HD
ATOM     55  C   UNL     1     -13.736  -1.287   8.031  1.00  0.00     0.037 A 
ATOM     56  C   UNL     1     -14.143  -0.115   1.137  1.00  0.00     0.037 A 
ATOM     57  C   UNL     1     -15.074  -1.189   7.510  1.00  0.00     0.049 A 
ATOM     58  C   UNL     1     -15.372  -0.328   1.984  1.00  0.00     0.074 A 
ATOM     59  C   UNL     1     -16.273  -1.270   8.194  1.00  0.00     0.029 A 
ATOM     60  N   UNL     1     -15.388  -1.003   6.171  1.00  0.00    -0.354 N 
ATOM     61  N   UNL     1     -15.465  -0.523   3.278  1.00  0.00    -0.248 NA
ATOM     62  C   UNL     1     -16.667  -0.316   1.288  1.00  0.00     0.031 C 
ATOM     63  C   UNL     1     -17.313  -1.198   7.262  1.00  0.00     0.029 A 
ATOM     64  C   UNL     1     -16.763  -1.001   6.005  1.00  0.00     0.049 A 
ATOM     65  H   UNL     1     -14.731  -0.889   5.447  1.00  0.00     0.167 HD
ATOM     66  C   UNL     1     -16.824  -0.622   3.555  1.00  0.00     0.074 A 
ATOM     67  C   UNL     1     -17.518  -0.454   2.295  1.00  0.00     0.031 C 
ATOM     68  C   UNL     1     -17.442  -0.828   4.745  1.00  0.00     0.037 A 
BRANCH  55  69
ATOM     69  C   UNL     1     -13.554  -1.569   9.495  1.00  0.00     0.057 A 
ATOM     70  C   UNL     1     -13.021  -0.621  10.377  1.00  0.00     0.134 A 
ATOM     71  C   UNL     1     -13.930  -2.808  10.030  1.00  0.00     0.134 A 
ATOM     72  F   UNL     1     -12.624   0.580   9.928  1.00  0.00    -0.206 F 
ATOM     73  C   UNL     1     -12.840  -0.904  11.733  1.00  0.00     0.040 A 
ATOM     74  C   UNL     1     -13.784  -3.092  11.389  1.00  0.00     0.040 A 
ATOM     75  F   UNL     1     -14.450  -3.761   9.243  1.00  0.00    -0.206 F 
ATOM     76  C   UNL     1     -13.229  -2.141  12.243  1.00  0.00     0.006 A 
ENDBRANCH  55  69
BRANCH  56  77
ATOM     77  C   UNL     1     -14.264   0.114  -0.326  1.00  0.00     0.057 A 
ATOM     78  C   UNL     1     -14.844   1.283  -0.832  1.00  0.00     0.134 A 
ATOM     79  C   UNL     1     -13.822  -0.838  -1.253  1.00  0.00     0.134 A 
ATOM     80  F   UNL     1     -15.312   2.221   0.005  1.00  0.00    -0.206 F 
ATOM     81  C   UNL     1     -14.996   1.490  -2.204  1.00  0.00     0.040 A 
ATOM     82  C   UNL     1     -13.941  -0.632  -2.628  1.00  0.00     0.040 A 
ATOM     83  F   UNL     1     -13.261  -1.982  -0.834  1.00  0.00    -0.206 F 
ATOM     84  C   UNL     1     -14.537   0.533  -3.107  1.00  0.00     0.006 A 
ENDBRANCH  56  77
BRANCH  68  85
ATOM     85  C   UNL     1     -18.945  -0.839   4.753  1.00  0.00     0.057 A 
ATOM     86  C   UNL     1     -19.686  -1.884   4.187  1.00  0.00     0.134 A 
ATOM     87  C   UNL     1     -19.660   0.192   5.379  1.00  0.00     0.134 A 
ATOM     88  F   UNL     1     -19.067  -2.898   3.563  1.00  0.00    -0.206 F 
ATOM     89  C   UNL     1     -21.083  -1.890   4.220  1.00  0.00     0.040 A 
ATOM     90  C   UNL     1     -21.053   0.181   5.446  1.00  0.00     0.040 A 
ATOM     91  F   UNL     1     -19.014   1.218   5.952  1.00  0.00    -0.206 F 
ATOM     92  C   UNL     1     -21.770  -0.859   4.858  1.00  0.00     0.006 A 
ENDBRANCH  68  85
ENDBRANCH  42  43
ENDBRANCH  35  37
ENDBRANCH  34  35
ENDBRANCH  33  34
ENDBRANCH  32  33
ENDBRANCH  31  32
ENDBRANCH  30  31
ENDBRANCH  29  30
ENDBRANCH  28  29
ENDBRANCH   1  28
TORSDOF 23
