REMARK SMILES O=C(OCCOCCOCCOCCOC(=O)c1ccccc1/C=C1/SC(=S)N(C2CCCC2)C1=O)c1ccc(-c2c3nc(c(-c4c(F)cccc4F)c4ccc([nH]4)c(-c4c(F)cccc4F)c4nc(c(-c5c(F)cccc5F)c5ccc2[nH]5)C=C4)C=C3)cc1
REMARK SMILES IDX 9 1 8 2 7 3 6 4 5 5 4 6 3 7 2 8 1 9 37 10 38 11 90 12 39 13
REMARK SMILES IDX 89 14 40 15 41 16 42 17 83 18 43 19 88 20 82 21 84 22 44 23
REMARK SMILES IDX 87 24 81 25 80 26 45 28 71 29 54 30 70 31 55 32 58 33 69 34
REMARK SMILES IDX 85 35 56 36 57 37 68 39 86 40 59 41 46 42 47 43 52 44 48 45
REMARK SMILES IDX 49 46 51 47 53 48 50 49 72 50 73 51 78 52 74 53 75 54 77 55
REMARK SMILES IDX 79 56 76 57 60 58 61 59 66 60 62 61 63 62 65 63 67 64 64 65
REMARK SMILES IDX 10 66 11 67 12 68 13 69 14 70 15 71 16 72 17 73 18 74 19 75
REMARK SMILES IDX 23 76 20 77 22 78 21 79 24 80 25 81 26 82 35 83 27 84 29 85
REMARK SMILES IDX 36 86 28 87 30 88 31 89 34 90 32 91 33 92
REMARK H PARENT 84 27 58 38
REMARK Flexibility Score: inf
ROOT
ATOM      1  O   UNL     1       2.521  -1.448  -3.442  1.00  0.00    -0.377 OA
ENDROOT
BRANCH   1   2
ATOM      2  C   UNL     1       1.762  -0.745  -2.459  1.00  0.00     0.188 C 
BRANCH   2   3
ATOM      3  C   UNL     1       2.116  -1.083  -1.012  1.00  0.00     0.188 C 
BRANCH   3   4
ATOM      4  O   UNL     1       3.427  -0.600  -0.709  1.00  0.00    -0.376 OA
BRANCH   4   5
ATOM      5  C   UNL     1       4.216  -1.444   0.126  1.00  0.00     0.202 C 
BRANCH   5   6
ATOM      6  C   UNL     1       4.083  -1.108   1.609  1.00  0.00     0.261 C 
BRANCH   6   7
ATOM      7  O   UNL     1       2.738  -0.747   1.950  1.00  0.00    -0.460 OA
BRANCH   7   8
ATOM      8  C   UNL     1       2.172   0.485   1.898  1.00  0.00     0.338 C 
ATOM      9  O   UNL     1       0.978   0.582   2.182  1.00  0.00    -0.246 OA
BRANCH   8  10
ATOM     10  C   UNL     1       2.909   1.750   1.571  1.00  0.00     0.060 A 
ATOM     11  C   UNL     1       4.059   1.861   0.784  1.00  0.00     0.016 A 
ATOM     12  C   UNL     1       2.346   2.940   2.070  1.00  0.00     0.016 A 
ATOM     13  C   UNL     1       4.677   3.087   0.561  1.00  0.00     0.010 A 
ATOM     14  C   UNL     1       2.948   4.180   1.840  1.00  0.00     0.010 A 
ATOM     15  C   UNL     1       4.143   4.244   1.116  1.00  0.00    -0.014 A 
BRANCH  15  16
ATOM     16  C   UNL     1       4.974   5.460   1.114  1.00  0.00     0.031 A 
ATOM     17  C   UNL     1       5.737   5.773   2.366  1.00  0.00     0.074 A 
ATOM     18  C   UNL     1       5.145   6.170  -0.013  1.00  0.00     0.049 A 
ATOM     19  N   UNL     1       6.497   6.796   2.645  1.00  0.00    -0.248 NA
ATOM     20  C   UNL     1       5.639   4.781   3.452  1.00  0.00     0.031 C 
ATOM     21  C   UNL     1       4.554   5.846  -1.312  1.00  0.00     0.029 A 
ATOM     22  N   UNL     1       5.889   7.293  -0.251  1.00  0.00    -0.354 N 
ATOM     23  C   UNL     1       6.939   6.586   3.945  1.00  0.00     0.074 A 
ATOM     24  C   UNL     1       6.365   5.343   4.403  1.00  0.00     0.031 C 
ATOM     25  C   UNL     1       4.972   6.747  -2.216  1.00  0.00     0.029 A 
ATOM     26  C   UNL     1       5.805   7.740  -1.546  1.00  0.00     0.049 A 
ATOM     27  H   UNL     1       6.433   7.737   0.440  1.00  0.00     0.167 HD
ATOM     28  C   UNL     1       7.748   7.374   4.689  1.00  0.00     0.037 A 
ATOM     29  C   UNL     1       6.323   8.851  -2.104  1.00  0.00     0.037 A 
ATOM     30  C   UNL     1       8.299   8.609   4.205  1.00  0.00     0.049 A 
ATOM     31  C   UNL     1       7.131   9.770  -1.226  1.00  0.00     0.074 A 
ATOM     32  C   UNL     1       9.069   9.540   4.874  1.00  0.00     0.029 A 
ATOM     33  N   UNL     1       8.125   9.081   2.909  1.00  0.00    -0.354 N 
ATOM     34  N   UNL     1       7.483   9.615   0.030  1.00  0.00    -0.248 NA
ATOM     35  C   UNL     1       7.596  11.024  -1.831  1.00  0.00     0.031 C 
ATOM     36  C   UNL     1       9.327  10.597   3.992  1.00  0.00     0.029 A 
ATOM     37  C   UNL     1       8.758  10.300   2.761  1.00  0.00     0.049 A 
ATOM     38  H   UNL     1       7.624   8.615   2.201  1.00  0.00     0.167 HD
ATOM     39  C   UNL     1       8.220  10.742   0.363  1.00  0.00     0.074 A 
ATOM     40  C   UNL     1       8.280  11.564  -0.831  1.00  0.00     0.031 C 
ATOM     41  C   UNL     1       8.793  11.078   1.547  1.00  0.00     0.037 A 
BRANCH  28  42
ATOM     42  C   UNL     1       7.986   6.946   6.107  1.00  0.00     0.057 A 
ATOM     43  C   UNL     1       8.775   5.833   6.432  1.00  0.00     0.134 A 
ATOM     44  C   UNL     1       7.347   7.612   7.160  1.00  0.00     0.134 A 
ATOM     45  F   UNL     1       9.386   5.128   5.467  1.00  0.00    -0.206 F 
ATOM     46  C   UNL     1       8.887   5.377   7.747  1.00  0.00     0.040 A 
ATOM     47  C   UNL     1       7.472   7.180   8.482  1.00  0.00     0.040 A 
ATOM     48  F   UNL     1       6.570   8.678   6.920  1.00  0.00    -0.206 F 
ATOM     49  C   UNL     1       8.234   6.051   8.777  1.00  0.00     0.006 A 
ENDBRANCH  28  42
BRANCH  29  50
ATOM     50  C   UNL     1       6.055   9.170  -3.530  1.00  0.00     0.057 A 
ATOM     51  C   UNL     1       7.081   9.182  -4.482  1.00  0.00     0.134 A 
ATOM     52  C   UNL     1       4.762   9.471  -3.980  1.00  0.00     0.134 A 
ATOM     53  F   UNL     1       8.345   8.925  -4.116  1.00  0.00    -0.206 F 
ATOM     54  C   UNL     1       6.833   9.486  -5.824  1.00  0.00     0.040 A 
ATOM     55  C   UNL     1       4.495   9.751  -5.321  1.00  0.00     0.040 A 
ATOM     56  F   UNL     1       3.732   9.481  -3.121  1.00  0.00    -0.206 F 
ATOM     57  C   UNL     1       5.535   9.764  -6.248  1.00  0.00     0.006 A 
ENDBRANCH  29  50
BRANCH  41  58
ATOM     58  C   UNL     1       9.551  12.370   1.588  1.00  0.00     0.057 A 
ATOM     59  C   UNL     1       8.896  13.606   1.615  1.00  0.00     0.134 A 
ATOM     60  C   UNL     1      10.949  12.368   1.658  1.00  0.00     0.134 A 
ATOM     61  F   UNL     1       7.558  13.670   1.539  1.00  0.00    -0.206 F 
ATOM     62  C   UNL     1       9.609  14.802   1.695  1.00  0.00     0.040 A 
ATOM     63  C   UNL     1      11.671  13.556   1.764  1.00  0.00     0.040 A 
ATOM     64  F   UNL     1      11.631  11.213   1.646  1.00  0.00    -0.206 F 
ATOM     65  C   UNL     1      11.001  14.777   1.778  1.00  0.00     0.006 A 
ENDBRANCH  41  58
ENDBRANCH  15  16
ENDBRANCH   8  10
ENDBRANCH   7   8
ENDBRANCH   6   7
ENDBRANCH   5   6
ENDBRANCH   4   5
ENDBRANCH   3   4
ENDBRANCH   2   3
ENDBRANCH   1   2
BRANCH   1  66
ATOM     66  C   UNL     1       3.936  -1.443  -3.287  1.00  0.00     0.188 C 
BRANCH  66  67
ATOM     67  C   UNL     1       4.684  -0.090  -3.259  1.00  0.00     0.188 C 
BRANCH  67  68
ATOM     68  O   UNL     1       3.868   1.064  -3.414  1.00  0.00    -0.376 OA
BRANCH  68  69
ATOM     69  C   UNL     1       3.893   1.659  -4.707  1.00  0.00     0.202 C 
BRANCH  69  70
ATOM     70  C   UNL     1       3.150   0.862  -5.779  1.00  0.00     0.261 C 
BRANCH  70  71
ATOM     71  O   UNL     1       3.678  -0.445  -6.071  1.00  0.00    -0.460 OA
BRANCH  71  72
ATOM     72  C   UNL     1       4.974  -0.598  -6.421  1.00  0.00     0.338 C 
ATOM     73  O   UNL     1       5.807   0.284  -6.532  1.00  0.00    -0.246 OA
BRANCH  72  74
ATOM     74  C   UNL     1       5.262  -2.055  -6.503  1.00  0.00     0.067 A 
ATOM     75  C   UNL     1       6.391  -2.495  -5.792  1.00  0.00     0.016 A 
ATOM     76  C   UNL     1       4.399  -2.978  -7.139  1.00  0.00    -0.010 A 
ATOM     77  C   UNL     1       6.620  -3.857  -5.627  1.00  0.00     0.001 A 
ATOM     78  C   UNL     1       4.646  -4.345  -6.949  1.00  0.00     0.009 A 
ATOM     79  C   UNL     1       5.741  -4.779  -6.190  1.00  0.00     0.001 A 
BRANCH  76  80
ATOM     80  C   UNL     1       3.209  -2.589  -7.931  1.00  0.00     0.030 C 
ATOM     81  C   UNL     1       3.193  -1.613  -8.853  1.00  0.00     0.081 C 
ATOM     82  S   UNL     1       1.779  -0.842  -9.445  1.00  0.00    -0.054 SA
ATOM     83  C   UNL     1       4.369  -0.824  -9.287  1.00  0.00     0.266 C 
ATOM     84  C   UNL     1       2.653   0.686  -9.704  1.00  0.00     0.148 C 
ATOM     85  N   UNL     1       3.999   0.499  -9.467  1.00  0.00    -0.290 N 
ATOM     86  O   UNL     1       5.483  -1.302  -9.443  1.00  0.00    -0.268 OA
ATOM     87  S   UNL     1       1.832   2.066 -10.154  1.00  0.00    -0.052 S 
BRANCH  85  88
ATOM     88  C   UNL     1       5.093   1.479  -9.475  1.00  0.00     0.092 C 
ATOM     89  C   UNL     1       5.505   1.973 -10.853  1.00  0.00     0.025 C 
ATOM     90  C   UNL     1       4.933   2.753  -8.635  1.00  0.00     0.025 C 
ATOM     91  C   UNL     1       6.468   3.102 -10.513  1.00  0.00     0.002 C 
ATOM     92  C   UNL     1       5.877   3.774  -9.276  1.00  0.00     0.002 C 
ENDBRANCH  85  88
ENDBRANCH  76  80
ENDBRANCH  72  74
ENDBRANCH  71  72
ENDBRANCH  70  71
ENDBRANCH  69  70
ENDBRANCH  68  69
ENDBRANCH  67  68
ENDBRANCH  66  67
ENDBRANCH   1  66
TORSDOF 22
