REMARK SMILES CCOc1cc2c(cc1/C=C1/C(=O)N(c3cccc(C(=O)OCCOCCOCCOCCOC(=O)c4ccc(-c5c6nc(c(-c7c(F)cccc7F)c7ccc([nH]7)c(-c7c(F)cccc7F)c7nc(c(-c8c(F)cccc8F)c8ccc5[nH]8)C=C7)C=C6)cc4)c3)C(=S)N=C1O)OCO2
REMARK SMILES IDX 27 1 26 2 25 3 24 4 23 5 22 6 20 7 21 8 19 9 15 10 16 11
REMARK SMILES IDX 91 12 17 13 18 14 14 15 10 16 11 17 12 18 95 19 13 20 94 21
REMARK SMILES IDX 92 22 93 23 9 24 4 25 5 26 6 27 8 28 7 29 99 30 97 31 98 32
REMARK SMILES IDX 3 33 2 34 1 35 96 36 28 38 29 39 30 40 31 41 32 42 33 43
REMARK SMILES IDX 34 44 35 45 36 46 37 47 38 48 90 49 39 50 89 51 40 52 41 53
REMARK SMILES IDX 42 54 83 55 43 56 88 57 82 58 84 59 44 60 87 61 81 62 80 63
REMARK SMILES IDX 45 65 71 66 54 67 70 68 55 69 58 70 69 71 85 72 56 73 57 74
REMARK SMILES IDX 68 76 86 77 59 78 46 79 47 80 52 81 48 82 49 83 51 84 53 85
REMARK SMILES IDX 50 86 72 87 73 88 78 89 74 90 75 91 77 92 79 93 76 94 60 95
REMARK SMILES IDX 61 96 66 97 62 98 63 99 65 100 67 101 64 102
REMARK H PARENT 96 37 84 64 58 75
REMARK Flexibility Score: inf
ROOT
ATOM      1  C   UNL     1       0.373 -11.763  -4.016  1.00  0.00     0.188 C 
ENDROOT
BRANCH   1   2
ATOM      2  C   UNL     1      -1.067 -12.309  -4.127  1.00  0.00     0.188 C 
BRANCH   2   3
ATOM      3  O   UNL     1      -1.749 -11.875  -5.292  1.00  0.00    -0.376 OA
BRANCH   3   4
ATOM      4  C   UNL     1      -2.808 -10.945  -5.171  1.00  0.00     0.202 C 
BRANCH   4   5
ATOM      5  C   UNL     1      -2.525  -9.570  -4.550  1.00  0.00     0.261 C 
BRANCH   5   6
ATOM      6  O   UNL     1      -1.728  -9.571  -3.362  1.00  0.00    -0.460 OA
BRANCH   6   7
ATOM      7  C   UNL     1      -2.309 -10.005  -2.221  1.00  0.00     0.338 C 
ATOM      8  O   UNL     1      -3.461 -10.374  -2.083  1.00  0.00    -0.246 OA
BRANCH   7   9
ATOM      9  C   UNL     1      -1.227 -10.189  -1.221  1.00  0.00     0.062 A 
ATOM     10  C   UNL     1       0.922  -9.525  -0.283  1.00  0.00     0.052 A 
ATOM     11  C   UNL     1       0.905 -10.699   0.493  1.00  0.00     0.027 A 
ATOM     12  C   UNL     1      -0.162  -9.281  -1.139  1.00  0.00     0.042 A 
ATOM     13  C   UNL     1      -0.152 -11.611   0.403  1.00  0.00     0.003 A 
ATOM     14  C   UNL     1      -1.223 -11.354  -0.448  1.00  0.00     0.016 A 
BRANCH  10  15
ATOM     15  N   UNL     1       2.006  -8.573  -0.173  1.00  0.00    -0.251 N 
ATOM     16  C   UNL     1       2.499  -4.937   0.053  1.00  0.00     0.031 C 
ATOM     17  C   UNL     1       2.789  -6.259   0.166  1.00  0.00     0.103 C 
ATOM     18  C   UNL     1       1.650  -7.216  -0.044  1.00  0.00     0.270 C 
ATOM     19  C   UNL     1       4.037  -6.934   0.514  1.00  0.00     0.226 C 
ATOM     20  O   UNL     1       0.493  -6.793  -0.056  1.00  0.00    -0.268 OA
ATOM     21  N   UNL     1       4.305  -8.173   0.366  1.00  0.00    -0.184 NA
ATOM     22  C   UNL     1       3.352  -9.002  -0.175  1.00  0.00     0.210 C 
ATOM     23  S   UNL     1       3.902 -10.470  -0.839  1.00  0.00    -0.038 S 
BRANCH  16  24
ATOM     24  C   UNL     1       3.299  -3.696   0.246  1.00  0.00     0.021 A 
ATOM     25  C   UNL     1       2.675  -2.476   0.644  1.00  0.00     0.130 A 
ATOM     26  C   UNL     1       3.427  -1.366   1.054  1.00  0.00     0.097 A 
ATOM     27  C   UNL     1       4.791  -1.441   0.946  1.00  0.00     0.169 A 
ATOM     28  C   UNL     1       4.686  -3.667   0.037  1.00  0.00     0.062 A 
ATOM     29  C   UNL     1       5.402  -2.553   0.429  1.00  0.00     0.166 A 
ATOM     30  O   UNL     1       5.673  -0.472   1.300  1.00  0.00    -0.453 OA
ATOM     31  O   UNL     1       6.756  -2.425   0.391  1.00  0.00    -0.454 OA
ATOM     32  C   UNL     1       6.923  -1.124   0.992  1.00  0.00     0.468 C 
BRANCH  25  33
ATOM     33  O   UNL     1       1.304  -2.360   0.712  1.00  0.00    -0.493 OA
BRANCH  33  34
ATOM     34  C   UNL     1       0.768  -1.590  -0.384  1.00  0.00     0.226 C 
ATOM     35  C   UNL     1       0.764  -0.086  -0.127  1.00  0.00     0.049 C 
ENDBRANCH  33  34
ENDBRANCH  25  33
ENDBRANCH  16  24
BRANCH  19  36
ATOM     36  O   UNL     1       4.989  -6.214   1.103  1.00  0.00    -0.493 OA
ATOM     37  H   UNL     1       4.862  -5.297   1.245  1.00  0.00     0.295 HD
ENDBRANCH  19  36
ENDBRANCH  10  15
ENDBRANCH   7   9
ENDBRANCH   6   7
ENDBRANCH   5   6
ENDBRANCH   4   5
ENDBRANCH   3   4
ENDBRANCH   2   3
ENDBRANCH   1   2
BRANCH   1  38
ATOM     38  O   UNL     1       0.748 -10.691  -4.870  1.00  0.00    -0.377 OA
BRANCH  38  39
ATOM     39  C   UNL     1       0.567 -10.811  -6.280  1.00  0.00     0.188 C 
BRANCH  39  40
ATOM     40  C   UNL     1       0.356 -12.174  -6.988  1.00  0.00     0.188 C 
BRANCH  40  41
ATOM     41  O   UNL     1       0.580 -13.308  -6.172  1.00  0.00    -0.376 OA
BRANCH  41  42
ATOM     42  C   UNL     1       1.723 -14.104  -6.411  1.00  0.00     0.202 C 
BRANCH  42  43
ATOM     43  C   UNL     1       3.097 -13.442  -6.251  1.00  0.00     0.261 C 
BRANCH  43  44
ATOM     44  O   UNL     1       3.274 -12.179  -6.905  1.00  0.00    -0.460 OA
BRANCH  44  45
ATOM     45  C   UNL     1       3.309 -12.171  -8.252  1.00  0.00     0.338 C 
ATOM     46  O   UNL     1       3.180 -13.123  -9.007  1.00  0.00    -0.246 OA
BRANCH  45  47
ATOM     47  C   UNL     1       3.367 -10.758  -8.672  1.00  0.00     0.060 A 
ATOM     48  C   UNL     1       2.323 -10.207  -9.428  1.00  0.00     0.016 A 
ATOM     49  C   UNL     1       4.456  -9.975  -8.285  1.00  0.00     0.016 A 
ATOM     50  C   UNL     1       2.381  -8.869  -9.826  1.00  0.00     0.010 A 
ATOM     51  C   UNL     1       4.525  -8.648  -8.704  1.00  0.00     0.010 A 
ATOM     52  C   UNL     1       3.506  -8.100  -9.503  1.00  0.00    -0.014 A 
BRANCH  52  53
ATOM     53  C   UNL     1       3.764  -6.808 -10.180  1.00  0.00     0.031 A 
ATOM     54  C   UNL     1       4.699  -6.819 -11.357  1.00  0.00     0.074 A 
ATOM     55  C   UNL     1       3.232  -5.654  -9.741  1.00  0.00     0.049 A 
ATOM     56  N   UNL     1       5.249  -5.820 -11.994  1.00  0.00    -0.248 NA
ATOM     57  C   UNL     1       5.072  -8.147 -11.877  1.00  0.00     0.031 C 
ATOM     58  C   UNL     1       2.267  -5.521  -8.652  1.00  0.00     0.029 A 
ATOM     59  N   UNL     1       3.460  -4.363 -10.151  1.00  0.00    -0.354 N 
ATOM     60  C   UNL     1       6.043  -6.397 -12.977  1.00  0.00     0.074 A 
ATOM     61  C   UNL     1       5.928  -7.831 -12.836  1.00  0.00     0.031 C 
ATOM     62  C   UNL     1       2.005  -4.215  -8.461  1.00  0.00     0.029 A 
ATOM     63  C   UNL     1       2.821  -3.422  -9.380  1.00  0.00     0.049 A 
ATOM     64  H   UNL     1       4.026  -4.134 -10.923  1.00  0.00     0.167 HD
ATOM     65  C   UNL     1       6.798  -5.785 -13.918  1.00  0.00     0.037 A 
ATOM     66  C   UNL     1       2.924  -2.078  -9.393  1.00  0.00     0.037 A 
ATOM     67  C   UNL     1       6.916  -4.358 -14.045  1.00  0.00     0.049 A 
ATOM     68  C   UNL     1       3.857  -1.419 -10.382  1.00  0.00     0.074 A 
ATOM     69  C   UNL     1       7.668  -3.633 -14.952  1.00  0.00     0.029 A 
ATOM     70  N   UNL     1       6.262  -3.440 -13.238  1.00  0.00    -0.354 N 
ATOM     71  N   UNL     1       4.611  -1.968 -11.304  1.00  0.00    -0.248 NA
ATOM     72  C   UNL     1       3.956   0.048 -10.328  1.00  0.00     0.031 C 
ATOM     73  C   UNL     1       7.507  -2.276 -14.662  1.00  0.00     0.029 A 
ATOM     74  C   UNL     1       6.602  -2.155 -13.620  1.00  0.00     0.049 A 
ATOM     75  H   UNL     1       5.647  -3.669 -12.504  1.00  0.00     0.167 HD
ATOM     76  C   UNL     1       5.226  -0.914 -11.973  1.00  0.00     0.074 A 
ATOM     77  C   UNL     1       4.762   0.305 -11.349  1.00  0.00     0.031 C 
ATOM     78  C   UNL     1       6.091  -0.952 -13.016  1.00  0.00     0.037 A 
BRANCH  65  79
ATOM     79  C   UNL     1       7.568  -6.653 -14.867  1.00  0.00     0.057 A 
ATOM     80  C   UNL     1       6.931  -7.404 -15.863  1.00  0.00     0.134 A 
ATOM     81  C   UNL     1       8.967  -6.705 -14.813  1.00  0.00     0.134 A 
ATOM     82  F   UNL     1       5.592  -7.412 -15.957  1.00  0.00    -0.206 F 
ATOM     83  C   UNL     1       7.656  -8.188 -16.761  1.00  0.00     0.040 A 
ATOM     84  C   UNL     1       9.704  -7.462 -15.724  1.00  0.00     0.040 A 
ATOM     85  F   UNL     1       9.640  -6.009 -13.884  1.00  0.00    -0.206 F 
ATOM     86  C   UNL     1       9.048  -8.210 -16.700  1.00  0.00     0.006 A 
ENDBRANCH  65  79
BRANCH  66  87
ATOM     87  C   UNL     1       2.153  -1.247  -8.430  1.00  0.00     0.057 A 
ATOM     88  C   UNL     1       1.167  -0.355  -8.873  1.00  0.00     0.134 A 
ATOM     89  C   UNL     1       2.426  -1.269  -7.057  1.00  0.00     0.134 A 
ATOM     90  F   UNL     1       0.875  -0.267 -10.179  1.00  0.00    -0.206 F 
ATOM     91  C   UNL     1       0.510   0.508  -7.994  1.00  0.00     0.040 A 
ATOM     92  C   UNL     1       1.753  -0.434  -6.162  1.00  0.00     0.040 A 
ATOM     93  F   UNL     1       3.356  -2.099  -6.563  1.00  0.00    -0.206 F 
ATOM     94  C   UNL     1       0.802   0.468  -6.632  1.00  0.00     0.006 A 
ENDBRANCH  66  87
BRANCH  78  95
ATOM     95  C   UNL     1       6.522   0.354 -13.619  1.00  0.00     0.057 A 
ATOM     96  C   UNL     1       7.415   1.220 -12.977  1.00  0.00     0.134 A 
ATOM     97  C   UNL     1       6.096   0.704 -14.908  1.00  0.00     0.134 A 
ATOM     98  F   UNL     1       7.854   0.948 -11.739  1.00  0.00    -0.206 F 
ATOM     99  C   UNL     1       7.856   2.395 -13.588  1.00  0.00     0.040 A 
ATOM    100  C   UNL     1       6.553   1.860 -15.541  1.00  0.00     0.040 A 
ATOM    101  F   UNL     1       5.250  -0.088 -15.585  1.00  0.00    -0.206 F 
ATOM    102  C   UNL     1       7.433   2.711 -14.879  1.00  0.00     0.006 A 
ENDBRANCH  78  95
ENDBRANCH  52  53
ENDBRANCH  45  47
ENDBRANCH  44  45
ENDBRANCH  43  44
ENDBRANCH  42  43
ENDBRANCH  41  42
ENDBRANCH  40  41
ENDBRANCH  39  40
ENDBRANCH  38  39
ENDBRANCH   1  38
TORSDOF 25
