REMARK SMILES O=C(OCCOCCOCCOCCOC(=O)c1nsc2c1N=C(O)C[C@@H]2c1ccc(F)cc1Cl)c1ccc(-c2c3nc(c(-c4c(F)cccc4F)c4ccc([nH]4)c(-c4c(F)cccc4F)c4nc(c(-c5c(F)cccc5F)c5ccc2[nH]5)C=C4)C=C3)cc1
REMARK SMILES IDX 8 1 7 2 6 3 5 4 4 5 3 6 2 7 1 8 36 9 37 10 89 11 38 12 88 13
REMARK SMILES IDX 39 14 40 15 41 16 82 17 42 18 87 19 81 20 83 21 43 22 86 23
REMARK SMILES IDX 80 24 79 25 44 27 70 28 53 29 69 30 54 31 57 32 68 33 84 34
REMARK SMILES IDX 55 35 56 36 67 38 85 39 58 40 45 41 46 42 51 43 47 44 48 45
REMARK SMILES IDX 50 46 52 47 49 48 71 49 72 50 77 51 73 52 74 53 76 54 78 55
REMARK SMILES IDX 75 56 59 57 60 58 65 59 61 60 62 61 64 62 66 63 63 64 9 65
REMARK SMILES IDX 10 66 11 67 12 68 13 69 14 70 15 71 16 72 17 73 18 74 19 75
REMARK SMILES IDX 22 76 20 77 21 78 23 79 27 80 24 81 26 82 28 83 29 84 34 85
REMARK SMILES IDX 30 86 33 87 35 88 31 89 32 90 25 91
REMARK H PARENT 83 26 57 37 25 92
REMARK Flexibility Score: inf
ROOT
ATOM      1  C   UNL     1       2.385   0.083   2.023  1.00  0.00     0.188 C 
ENDROOT
BRANCH   1   2
ATOM      2  C   UNL     1       2.960  -1.032   1.136  1.00  0.00     0.188 C 
BRANCH   2   3
ATOM      3  O   UNL     1       4.207  -0.968   0.450  1.00  0.00    -0.376 OA
BRANCH   3   4
ATOM      4  C   UNL     1       4.975   0.200   0.266  1.00  0.00     0.202 C 
BRANCH   4   5
ATOM      5  C   UNL     1       4.478   1.328  -0.634  1.00  0.00     0.261 C 
BRANCH   5   6
ATOM      6  O   UNL     1       3.099   1.669  -0.508  1.00  0.00    -0.460 OA
BRANCH   6   7
ATOM      7  C   UNL     1       2.006   1.110  -1.062  1.00  0.00     0.338 C 
ATOM      8  O   UNL     1       0.908   1.587  -0.770  1.00  0.00    -0.246 OA
BRANCH   7   9
ATOM      9  C   UNL     1       2.017  -0.086  -1.952  1.00  0.00     0.060 A 
ATOM     10  C   UNL     1       3.115  -0.588  -2.649  1.00  0.00     0.016 A 
ATOM     11  C   UNL     1       0.768  -0.722  -2.122  1.00  0.00     0.016 A 
ATOM     12  C   UNL     1       2.946  -1.585  -3.597  1.00  0.00     0.010 A 
ATOM     13  C   UNL     1       0.599  -1.739  -3.050  1.00  0.00     0.010 A 
ATOM     14  C   UNL     1       1.677  -2.104  -3.844  1.00  0.00    -0.014 A 
BRANCH  14  15
ATOM     15  C   UNL     1       1.541  -2.962  -5.010  1.00  0.00     0.031 A 
ATOM     16  C   UNL     1       2.342  -4.213  -5.019  1.00  0.00     0.074 A 
ATOM     17  C   UNL     1       0.754  -2.626  -6.049  1.00  0.00     0.049 A 
ATOM     18  N   UNL     1       3.299  -4.545  -5.826  1.00  0.00    -0.248 NA
ATOM     19  C   UNL     1       2.087  -5.189  -3.952  1.00  0.00     0.031 C 
ATOM     20  C   UNL     1      -0.273  -1.583  -6.122  1.00  0.00     0.029 A 
ATOM     21  N   UNL     1       0.673  -3.226  -7.267  1.00  0.00    -0.354 N 
ATOM     22  C   UNL     1       3.663  -5.843  -5.476  1.00  0.00     0.074 A 
ATOM     23  C   UNL     1       2.955  -6.153  -4.260  1.00  0.00     0.031 C 
ATOM     24  C   UNL     1      -1.015  -1.767  -7.236  1.00  0.00     0.029 A 
ATOM     25  C   UNL     1      -0.420  -2.835  -8.020  1.00  0.00     0.049 A 
ATOM     26  H   UNL     1       1.335  -3.882  -7.586  1.00  0.00     0.167 HD
ATOM     27  C   UNL     1       4.392  -6.641  -6.304  1.00  0.00     0.037 A 
ATOM     28  C   UNL     1      -0.839  -3.395  -9.178  1.00  0.00     0.037 A 
ATOM     29  C   UNL     1       5.117  -5.883  -7.286  1.00  0.00     0.049 A 
ATOM     30  C   UNL     1       0.304  -4.129  -9.771  1.00  0.00     0.074 A 
ATOM     31  C   UNL     1       6.101  -4.915  -7.232  1.00  0.00     0.029 A 
ATOM     32  N   UNL     1       4.644  -5.851  -8.573  1.00  0.00    -0.354 N 
ATOM     33  N   UNL     1       1.359  -3.556 -10.280  1.00  0.00    -0.248 NA
ATOM     34  C   UNL     1       0.462  -5.534  -9.426  1.00  0.00     0.031 C 
ATOM     35  C   UNL     1       5.813  -4.034  -8.314  1.00  0.00     0.029 A 
ATOM     36  C   UNL     1       4.694  -4.541  -8.975  1.00  0.00     0.049 A 
ATOM     37  H   UNL     1       4.331  -6.619  -9.105  1.00  0.00     0.167 HD
ATOM     38  C   UNL     1       2.414  -4.390  -9.941  1.00  0.00     0.074 A 
ATOM     39  C   UNL     1       1.790  -5.636  -9.507  1.00  0.00     0.031 C 
ATOM     40  C   UNL     1       3.681  -3.907  -9.784  1.00  0.00     0.037 A 
BRANCH  27  41
ATOM     41  C   UNL     1       4.209  -8.132  -6.407  1.00  0.00     0.057 A 
ATOM     42  C   UNL     1       5.140  -8.909  -7.120  1.00  0.00     0.134 A 
ATOM     43  C   UNL     1       3.006  -8.788  -6.076  1.00  0.00     0.134 A 
ATOM     44  F   UNL     1       6.309  -8.387  -7.520  1.00  0.00    -0.206 F 
ATOM     45  C   UNL     1       4.870 -10.225  -7.515  1.00  0.00     0.040 A 
ATOM     46  C   UNL     1       2.747 -10.116  -6.423  1.00  0.00     0.040 A 
ATOM     47  F   UNL     1       1.986  -8.149  -5.489  1.00  0.00    -0.206 F 
ATOM     48  C   UNL     1       3.669 -10.832  -7.170  1.00  0.00     0.006 A 
ENDBRANCH  27  41
BRANCH  28  49
ATOM     49  C   UNL     1      -2.232  -3.585  -9.630  1.00  0.00     0.057 A 
ATOM     50  C   UNL     1      -2.530  -3.861 -10.969  1.00  0.00     0.134 A 
ATOM     51  C   UNL     1      -3.280  -3.767  -8.709  1.00  0.00     0.134 A 
ATOM     52  F   UNL     1      -1.583  -3.759 -11.912  1.00  0.00    -0.206 F 
ATOM     53  C   UNL     1      -3.795  -4.312 -11.369  1.00  0.00     0.040 A 
ATOM     54  C   UNL     1      -4.548  -4.207  -9.096  1.00  0.00     0.040 A 
ATOM     55  F   UNL     1      -3.083  -3.608  -7.392  1.00  0.00    -0.206 F 
ATOM     56  C   UNL     1      -4.805  -4.495 -10.429  1.00  0.00     0.006 A 
ENDBRANCH  28  49
BRANCH  40  57
ATOM     57  C   UNL     1       3.961  -2.500 -10.231  1.00  0.00     0.057 A 
ATOM     58  C   UNL     1       3.372  -1.368  -9.647  1.00  0.00     0.134 A 
ATOM     59  C   UNL     1       4.981  -2.274 -11.161  1.00  0.00     0.134 A 
ATOM     60  F   UNL     1       2.460  -1.486  -8.673  1.00  0.00    -0.206 F 
ATOM     61  C   UNL     1       3.754  -0.072 -10.005  1.00  0.00     0.040 A 
ATOM     62  C   UNL     1       5.396  -0.985 -11.503  1.00  0.00     0.040 A 
ATOM     63  F   UNL     1       5.633  -3.309 -11.716  1.00  0.00    -0.206 F 
ATOM     64  C   UNL     1       4.775   0.123 -10.931  1.00  0.00     0.006 A 
ENDBRANCH  40  57
ENDBRANCH  14  15
ENDBRANCH   7   9
ENDBRANCH   6   7
ENDBRANCH   5   6
ENDBRANCH   4   5
ENDBRANCH   3   4
ENDBRANCH   2   3
ENDBRANCH   1   2
BRANCH   1  65
ATOM     65  O   UNL     1       2.838   0.081   3.366  1.00  0.00    -0.377 OA
BRANCH  65  66
ATOM     66  C   UNL     1       4.133   0.606   3.562  1.00  0.00     0.188 C 
BRANCH  66  67
ATOM     67  C   UNL     1       5.232  -0.453   3.779  1.00  0.00     0.188 C 
BRANCH  67  68
ATOM     68  O   UNL     1       4.944  -1.818   4.058  1.00  0.00    -0.376 OA
BRANCH  68  69
ATOM     69  C   UNL     1       3.695  -2.233   4.581  1.00  0.00     0.202 C 
BRANCH  69  70
ATOM     70  C   UNL     1       3.253  -1.742   5.963  1.00  0.00     0.261 C 
BRANCH  70  71
ATOM     71  O   UNL     1       3.592  -0.391   6.269  1.00  0.00    -0.458 OA
BRANCH  71  72
ATOM     72  C   UNL     1       4.784  -0.194   6.902  1.00  0.00     0.360 C 
ATOM     73  O   UNL     1       5.543  -1.097   7.250  1.00  0.00    -0.244 OA
BRANCH  72  74
ATOM     74  C   UNL     1       5.099   1.231   7.029  1.00  0.00     0.188 A 
ATOM     75  N   UNL     1       6.316   1.694   6.691  1.00  0.00    -0.183 NA
ATOM     76  C   UNL     1       4.198   2.242   7.483  1.00  0.00     0.116 A 
ATOM     77  S   UNL     1       6.364   3.340   6.905  1.00  0.00    -0.038 S 
ATOM     78  C   UNL     1       4.773   3.489   7.473  1.00  0.00     0.060 A 
ATOM     79  N   UNL     1       2.902   2.004   7.961  1.00  0.00    -0.214 NA
ATOM     80  C   UNL     1       4.154   4.709   8.048  1.00  0.00     0.074 C 
ATOM     81  C   UNL     1       2.436   2.954   8.701  1.00  0.00     0.187 C 
ATOM     82  C   UNL     1       3.149   4.220   9.121  1.00  0.00     0.111 C 
BRANCH  80  83
ATOM     83  C   UNL     1       3.535   5.778   7.139  1.00  0.00    -0.020 A 
ATOM     84  C   UNL     1       3.219   6.998   7.798  1.00  0.00     0.009 A 
ATOM     85  C   UNL     1       3.246   5.709   5.762  1.00  0.00     0.047 A 
ATOM     86  C   UNL     1       2.626   8.073   7.136  1.00  0.00     0.039 A 
ATOM     87  C   UNL     1       2.667   6.802   5.095  1.00  0.00     0.060 A 
ATOM     88  Cl  UNL     1       3.549   4.333   4.769  1.00  0.00    -0.084 Cl
ATOM     89  C   UNL     1       2.357   7.964   5.786  1.00  0.00     0.124 A 
ATOM     90  F   UNL     1       1.791   8.992   5.141  1.00  0.00    -0.207 F 
ENDBRANCH  80  83
BRANCH  81  91
ATOM     91  O   UNL     1       1.221   2.784   9.256  1.00  0.00    -0.496 OA
ATOM     92  H   UNL     1       0.713   2.025   9.048  1.00  0.00     0.294 HD
ENDBRANCH  81  91
ENDBRANCH  72  74
ENDBRANCH  71  72
ENDBRANCH  70  71
ENDBRANCH  69  70
ENDBRANCH  68  69
ENDBRANCH  67  68
ENDBRANCH  66  67
ENDBRANCH  65  66
ENDBRANCH   1  65
TORSDOF 22
