REMARK SMILES Cn1ccc(-c2n[nH]c(=O)n2-c2ccc(C(=O)OCCOCCOCCOCCOC(=O)c3ccc(-c4c5nc(c(-c6c(F)cccc6F)c6ccc([nH]6)c(-c6c(F)cccc6F)c6nc(c(-c7c(F)cccc7F)c7ccc4[nH]7)C=C6)C=C5)cc3)cc2)n1
REMARK SMILES IDX 24 1 23 2 22 3 21 4 20 5 19 6 18 7 16 8 17 9 15 10 12 11
REMARK SMILES IDX 13 12 88 13 14 14 87 15 11 16 6 17 7 18 8 19 9 20 10 22 5 23
REMARK SMILES IDX 1 24 2 25 3 26 89 27 4 28 25 29 26 30 27 31 28 32 29 33
REMARK SMILES IDX 30 34 31 35 32 36 33 37 34 38 86 39 35 40 85 41 36 42 37 43
REMARK SMILES IDX 38 44 79 45 39 46 84 47 78 48 80 49 40 50 83 51 77 52 76 53
REMARK SMILES IDX 41 55 67 56 50 57 66 58 51 59 54 60 65 61 81 62 52 63 53 64
REMARK SMILES IDX 64 66 82 67 55 68 42 69 43 70 48 71 44 72 45 73 47 74 49 75
REMARK SMILES IDX 46 76 68 77 69 78 74 79 70 80 71 81 73 82 75 83 72 84 56 85
REMARK SMILES IDX 57 86 62 87 58 88 59 89 61 90 63 91 60 92
REMARK H PARENT 8 21 80 54 54 65
REMARK Flexibility Score: inf
ROOT
ATOM      1  O   UNL     1       2.041   2.905   7.838  1.00  0.00    -0.377 OA
ENDROOT
BRANCH   1   2
ATOM      2  C   UNL     1       1.823   3.933   6.880  1.00  0.00     0.188 C 
BRANCH   2   3
ATOM      3  C   UNL     1       0.562   4.826   6.927  1.00  0.00     0.188 C 
BRANCH   3   4
ATOM      4  O   UNL     1      -0.261   4.594   8.053  1.00  0.00    -0.376 OA
BRANCH   4   5
ATOM      5  C   UNL     1      -1.525   3.996   7.896  1.00  0.00     0.202 C 
BRANCH   5   6
ATOM      6  C   UNL     1      -1.603   2.611   7.243  1.00  0.00     0.261 C 
BRANCH   6   7
ATOM      7  O   UNL     1      -0.770   2.413   6.096  1.00  0.00    -0.460 OA
BRANCH   7   8
ATOM      8  C   UNL     1      -1.151   3.016   4.954  1.00  0.00     0.338 C 
ATOM      9  O   UNL     1      -2.159   3.700   4.786  1.00  0.00    -0.246 OA
BRANCH   8  10
ATOM     10  C   UNL     1      -0.055   2.887   3.973  1.00  0.00     0.060 A 
ATOM     11  C   UNL     1       1.920   2.656   2.012  1.00  0.00     0.052 A 
ATOM     12  C   UNL     1       1.357   3.906   2.280  1.00  0.00     0.028 A 
ATOM     13  C   UNL     1       1.585   1.557   2.821  1.00  0.00     0.028 A 
ATOM     14  C   UNL     1       0.341   4.012   3.234  1.00  0.00     0.018 A 
ATOM     15  C   UNL     1       0.610   1.671   3.809  1.00  0.00     0.018 A 
BRANCH  11  16
ATOM     16  N   UNL     1       2.722   2.468   0.877  1.00  0.00    -0.242 N 
ATOM     17  C   UNL     1       2.618   1.479  -0.059  1.00  0.00     0.189 A 
ATOM     18  N   UNL     1       3.545   1.489  -0.978  1.00  0.00    -0.150 NA
ATOM     19  N   UNL     1       4.281   2.605  -0.672  1.00  0.00    -0.226 N 
ATOM     20  C   UNL     1       3.765   3.253   0.454  1.00  0.00     0.348 A 
ATOM     21  H   UNL     1       5.069   2.910  -1.179  1.00  0.00     0.195 HD
ATOM     22  O   UNL     1       4.213   4.280   0.940  1.00  0.00    -0.246 OA
BRANCH  17  23
ATOM     23  C   UNL     1       1.500   0.551  -0.099  1.00  0.00     0.130 A 
ATOM     24  C   UNL     1      -1.957  -0.005  -0.017  1.00  0.00     0.173 C 
ATOM     25  N   UNL     1      -0.519  -0.121  -0.055  1.00  0.00    -0.275 N 
ATOM     26  C   UNL     1       0.218  -1.262  -0.160  1.00  0.00     0.109 A 
ATOM     27  N   UNL     1       0.231   0.990   0.002  1.00  0.00    -0.170 NA
ATOM     28  C   UNL     1       1.532  -0.859  -0.229  1.00  0.00     0.054 A 
ENDBRANCH  17  23
ENDBRANCH  11  16
ENDBRANCH   8  10
ENDBRANCH   7   8
ENDBRANCH   6   7
ENDBRANCH   5   6
ENDBRANCH   4   5
ENDBRANCH   3   4
ENDBRANCH   2   3
ENDBRANCH   1   2
BRANCH   1  29
ATOM     29  C   UNL     1       1.657   3.078   9.197  1.00  0.00     0.188 C 
BRANCH  29  30
ATOM     30  C   UNL     1       1.713   4.458   9.905  1.00  0.00     0.188 C 
BRANCH  30  31
ATOM     31  O   UNL     1       1.973   5.572   9.071  1.00  0.00    -0.376 OA
BRANCH  31  32
ATOM     32  C   UNL     1       3.220   6.229   9.013  1.00  0.00     0.202 C 
BRANCH  32  33
ATOM     33  C   UNL     1       4.492   5.429   8.770  1.00  0.00     0.261 C 
BRANCH  33  34
ATOM     34  O   UNL     1       4.491   4.152   9.370  1.00  0.00    -0.460 OA
BRANCH  34  35
ATOM     35  C   UNL     1       4.610   4.168  10.701  1.00  0.00     0.338 C 
ATOM     36  O   UNL     1       4.501   5.138  11.454  1.00  0.00    -0.246 OA
BRANCH  35  37
ATOM     37  C   UNL     1       5.051   2.850  11.128  1.00  0.00     0.060 A 
ATOM     38  C   UNL     1       5.113   2.645  12.505  1.00  0.00     0.016 A 
ATOM     39  C   UNL     1       5.790   2.091  10.206  1.00  0.00     0.016 A 
ATOM     40  C   UNL     1       6.146   1.880  12.976  1.00  0.00     0.010 A 
ATOM     41  C   UNL     1       6.842   1.360  10.679  1.00  0.00     0.010 A 
ATOM     42  C   UNL     1       7.055   1.348  12.053  1.00  0.00    -0.014 A 
BRANCH  42  43
ATOM     43  C   UNL     1       8.199   0.646  12.575  1.00  0.00     0.031 A 
ATOM     44  C   UNL     1       7.817  -0.677  13.103  1.00  0.00     0.074 A 
ATOM     45  C   UNL     1       9.446   1.140  12.489  1.00  0.00     0.049 A 
ATOM     46  N   UNL     1       7.823  -1.060  14.334  1.00  0.00    -0.248 NA
ATOM     47  C   UNL     1       7.138  -1.606  12.182  1.00  0.00     0.031 C 
ATOM     48  C   UNL     1       9.917   2.308  11.741  1.00  0.00     0.029 A 
ATOM     49  N   UNL     1      10.593   0.622  12.997  1.00  0.00    -0.354 N 
ATOM     50  C   UNL     1       7.359  -2.369  14.307  1.00  0.00     0.074 A 
ATOM     51  C   UNL     1       6.751  -2.564  13.021  1.00  0.00     0.031 C 
ATOM     52  C   UNL     1      11.268   2.269  11.661  1.00  0.00     0.029 A 
ATOM     53  C   UNL     1      11.756   1.152  12.451  1.00  0.00     0.049 A 
ATOM     54  H   UNL     1      10.601  -0.073  13.694  1.00  0.00     0.167 HD
ATOM     55  C   UNL     1       7.792  -3.266  15.231  1.00  0.00     0.037 A 
ATOM     56  C   UNL     1      13.000   0.627  12.594  1.00  0.00     0.037 A 
ATOM     57  C   UNL     1       8.288  -2.588  16.405  1.00  0.00     0.049 A 
ATOM     58  C   UNL     1      12.955  -0.307  13.751  1.00  0.00     0.074 A 
ATOM     59  C   UNL     1       7.739  -1.709  17.320  1.00  0.00     0.029 A 
ATOM     60  N   UNL     1       9.649  -2.477  16.551  1.00  0.00    -0.354 N 
ATOM     61  N   UNL     1      12.830   0.075  14.990  1.00  0.00    -0.248 NA
ATOM     62  C   UNL     1      12.586  -1.691  13.485  1.00  0.00     0.031 C 
ATOM     63  C   UNL     1       8.785  -0.791  17.632  1.00  0.00     0.029 A 
ATOM     64  C   UNL     1       9.930  -1.194  16.945  1.00  0.00     0.049 A 
ATOM     65  H   UNL     1      10.308  -3.193  16.399  1.00  0.00     0.167 HD
ATOM     66  C   UNL     1      11.965  -0.850  15.558  1.00  0.00     0.074 A 
ATOM     67  C   UNL     1      11.918  -1.961  14.610  1.00  0.00     0.031 C 
ATOM     68  C   UNL     1      11.146  -0.498  16.592  1.00  0.00     0.037 A 
BRANCH  55  69
ATOM     69  C   UNL     1       8.172  -4.686  14.878  1.00  0.00     0.057 A 
ATOM     70  C   UNL     1       8.603  -5.538  15.909  1.00  0.00     0.134 A 
ATOM     71  C   UNL     1       8.419  -5.164  13.572  1.00  0.00     0.134 A 
ATOM     72  F   UNL     1       8.427  -5.205  17.197  1.00  0.00    -0.206 F 
ATOM     73  C   UNL     1       9.314  -6.718  15.661  1.00  0.00     0.040 A 
ATOM     74  C   UNL     1       9.084  -6.364  13.314  1.00  0.00     0.040 A 
ATOM     75  F   UNL     1       8.127  -4.469  12.468  1.00  0.00    -0.206 F 
ATOM     76  C   UNL     1       9.569  -7.128  14.359  1.00  0.00     0.006 A 
ENDBRANCH  55  69
BRANCH  56  77
ATOM     77  C   UNL     1      14.132   0.610  11.638  1.00  0.00     0.057 A 
ATOM     78  C   UNL     1      15.412   0.213  12.055  1.00  0.00     0.134 A 
ATOM     79  C   UNL     1      13.934   0.689  10.249  1.00  0.00     0.134 A 
ATOM     80  F   UNL     1      15.693   0.077  13.359  1.00  0.00    -0.206 F 
ATOM     81  C   UNL     1      16.421  -0.132  11.146  1.00  0.00     0.040 A 
ATOM     82  C   UNL     1      14.936   0.356   9.331  1.00  0.00     0.040 A 
ATOM     83  F   UNL     1      12.737   0.997   9.733  1.00  0.00    -0.206 F 
ATOM     84  C   UNL     1      16.179  -0.075   9.777  1.00  0.00     0.006 A 
ENDBRANCH  56  77
BRANCH  68  85
ATOM     85  C   UNL     1      11.401   0.823  17.267  1.00  0.00     0.057 A 
ATOM     86  C   UNL     1      11.328   2.070  16.625  1.00  0.00     0.134 A 
ATOM     87  C   UNL     1      11.611   0.838  18.650  1.00  0.00     0.134 A 
ATOM     88  F   UNL     1      11.027   2.165  15.323  1.00  0.00    -0.206 F 
ATOM     89  C   UNL     1      11.514   3.269  17.321  1.00  0.00     0.040 A 
ATOM     90  C   UNL     1      11.760   2.029  19.362  1.00  0.00     0.040 A 
ATOM     91  F   UNL     1      11.637  -0.313  19.342  1.00  0.00    -0.206 F 
ATOM     92  C   UNL     1      11.726   3.251  18.696  1.00  0.00     0.006 A 
ENDBRANCH  68  85
ENDBRANCH  42  43
ENDBRANCH  35  37
ENDBRANCH  34  35
ENDBRANCH  33  34
ENDBRANCH  32  33
ENDBRANCH  31  32
ENDBRANCH  30  31
ENDBRANCH  29  30
ENDBRANCH   1  29
TORSDOF 22
