REMARK SMILES Cc1cc(Cl)c2c(c1)C=C(C(=O)OCCOCCOCCOCCOC(=O)c1ccc(-c3c4nc(c(-c5c(F)cccc5F)c5ccc([nH]5)c(-c5c(F)cccc5F)c5nc(c(-c6c(F)cccc6F)c6ccc3[nH]6)C=C5)C=C4)cc1)[C@@H](C(F)(F)F)O2
REMARK SMILES IDX 20 1 19 2 18 3 17 4 16 5 15 6 14 7 13 8 11 9 12 10 10 11
REMARK SMILES IDX 1 12 2 13 3 14 8 15 4 16 7 17 5 18 6 19 9 20 87 21 82 22
REMARK SMILES IDX 83 23 84 24 85 25 86 26 21 27 22 28 23 29 24 30 25 31 26 32
REMARK SMILES IDX 27 33 28 34 29 35 81 36 30 37 80 38 31 39 32 40 33 41 74 42
REMARK SMILES IDX 34 43 79 44 73 45 75 46 35 47 78 48 72 49 71 50 36 52 62 53
REMARK SMILES IDX 45 54 61 55 46 56 49 57 60 58 76 59 47 60 48 61 59 63 77 64
REMARK SMILES IDX 50 65 37 66 38 67 43 68 39 69 40 70 42 71 44 72 41 73 63 74
REMARK SMILES IDX 64 75 69 76 65 77 66 78 68 79 70 80 67 81 51 82 52 83 57 84
REMARK SMILES IDX 53 85 54 86 56 87 58 88 55 89
REMARK H PARENT 75 51 49 62
REMARK Flexibility Score: inf
ROOT
ATOM      1  C   UNL     1      -2.453   8.214  -4.707  1.00  0.00     0.188 C 
ENDROOT
BRANCH   1   2
ATOM      2  O   UNL     1      -1.645   7.036  -4.690  1.00  0.00    -0.377 OA
BRANCH   2   3
ATOM      3  C   UNL     1      -1.374   6.442  -3.430  1.00  0.00     0.188 C 
BRANCH   3   4
ATOM      4  C   UNL     1      -0.181   7.090  -2.700  1.00  0.00     0.188 C 
BRANCH   4   5
ATOM      5  O   UNL     1       0.156   8.383  -3.164  1.00  0.00    -0.376 OA
BRANCH   5   6
ATOM      6  C   UNL     1       1.003   8.597  -4.280  1.00  0.00     0.202 C 
BRANCH   6   7
ATOM      7  C   UNL     1       1.227   7.620  -5.452  1.00  0.00     0.261 C 
BRANCH   7   8
ATOM      8  O   UNL     1       0.895   6.249  -5.252  1.00  0.00    -0.460 OA
BRANCH   8   9
ATOM      9  C   UNL     1       1.806   5.480  -4.630  1.00  0.00     0.338 C 
ATOM     10  O   UNL     1       2.907   5.821  -4.239  1.00  0.00    -0.246 OA
BRANCH   9  11
ATOM     11  C   UNL     1       1.167   4.179  -4.339  1.00  0.00     0.087 C 
ATOM     12  C   UNL     1       0.898  -0.110   0.047  1.00  0.00     0.044 C 
ATOM     13  C   UNL     1       0.555   0.521  -1.269  1.00  0.00    -0.049 A 
ATOM     14  C   UNL     1      -0.128  -0.191  -2.261  1.00  0.00     0.028 A 
ATOM     15  C   UNL     1       0.975   1.828  -1.540  1.00  0.00     0.015 A 
ATOM     16  C   UNL     1      -0.403   0.406  -3.496  1.00  0.00     0.084 A 
ATOM     17  C   UNL     1       0.748   2.405  -2.795  1.00  0.00     0.019 A 
ATOM     18  Cl  UNL     1      -1.244  -0.527  -4.683  1.00  0.00    -0.080 Cl
ATOM     19  C   UNL     1       0.032   1.708  -3.771  1.00  0.00     0.146 A 
ATOM     20  C   UNL     1       1.333   3.697  -3.102  1.00  0.00     0.027 C 
ATOM     21  O   UNL     1      -0.256   2.238  -4.999  1.00  0.00    -0.474 OA
ATOM     22  C   UNL     1       0.324   3.510  -5.393  1.00  0.00     0.316 C 
BRANCH  22  23
ATOM     23  C   UNL     1       1.098   3.306  -6.702  1.00  0.00     0.430 C 
ATOM     24  F   UNL     1       0.359   2.637  -7.618  1.00  0.00    -0.167 F 
ATOM     25  F   UNL     1       1.446   4.484  -7.271  1.00  0.00    -0.167 F 
ATOM     26  F   UNL     1       2.237   2.603  -6.505  1.00  0.00    -0.167 F 
ENDBRANCH  22  23
ENDBRANCH   9  11
ENDBRANCH   8   9
ENDBRANCH   7   8
ENDBRANCH   6   7
ENDBRANCH   5   6
ENDBRANCH   4   5
ENDBRANCH   3   4
ENDBRANCH   2   3
ENDBRANCH   1   2
BRANCH   1  27
ATOM     27  C   UNL     1      -2.554   9.144  -3.473  1.00  0.00     0.188 C 
BRANCH  27  28
ATOM     28  O   UNL     1      -2.647   8.459  -2.231  1.00  0.00    -0.376 OA
BRANCH  28  29
ATOM     29  C   UNL     1      -3.899   8.411  -1.570  1.00  0.00     0.202 C 
BRANCH  29  30
ATOM     30  C   UNL     1      -4.995   7.577  -2.245  1.00  0.00     0.261 C 
BRANCH  30  31
ATOM     31  O   UNL     1      -5.307   7.938  -3.598  1.00  0.00    -0.460 OA
BRANCH  31  32
ATOM     32  C   UNL     1      -5.813   9.170  -3.809  1.00  0.00     0.338 C 
ATOM     33  O   UNL     1      -6.073  10.017  -2.970  1.00  0.00    -0.246 OA
BRANCH  32  34
ATOM     34  C   UNL     1      -5.829   9.400  -5.267  1.00  0.00     0.060 A 
ATOM     35  C   UNL     1      -5.084  10.461  -5.799  1.00  0.00     0.016 A 
ATOM     36  C   UNL     1      -6.574   8.565  -6.102  1.00  0.00     0.016 A 
ATOM     37  C   UNL     1      -5.113  10.713  -7.170  1.00  0.00     0.010 A 
ATOM     38  C   UNL     1      -6.624   8.835  -7.470  1.00  0.00     0.010 A 
ATOM     39  C   UNL     1      -5.923   9.931  -8.003  1.00  0.00    -0.014 A 
BRANCH  39  40
ATOM     40  C   UNL     1      -6.218  10.382  -9.382  1.00  0.00     0.031 A 
ATOM     41  C   UNL     1      -7.482  11.163  -9.613  1.00  0.00     0.074 A 
ATOM     42  C   UNL     1      -5.388  10.113 -10.404  1.00  0.00     0.049 A 
ATOM     43  N   UNL     1      -8.011  11.576 -10.735  1.00  0.00    -0.248 NA
ATOM     44  C   UNL     1      -8.253  11.527  -8.412  1.00  0.00     0.031 C 
ATOM     45  C   UNL     1      -4.106   9.422 -10.294  1.00  0.00     0.029 A 
ATOM     46  N   UNL     1      -5.513  10.386 -11.743  1.00  0.00    -0.354 N 
ATOM     47  C   UNL     1      -9.176  12.241 -10.376  1.00  0.00     0.074 A 
ATOM     48  C   UNL     1      -9.294  12.155  -8.938  1.00  0.00     0.031 C 
ATOM     49  C   UNL     1      -3.568   9.310 -11.521  1.00  0.00     0.029 A 
ATOM     50  C   UNL     1      -4.486   9.884 -12.504  1.00  0.00     0.049 A 
ATOM     51  H   UNL     1      -6.267  10.893 -12.122  1.00  0.00     0.167 HD
ATOM     52  C   UNL     1     -10.065  12.873 -11.176  1.00  0.00     0.037 A 
ATOM     53  C   UNL     1      -4.326   9.865 -13.842  1.00  0.00     0.037 A 
ATOM     54  C   UNL     1      -9.945  12.951 -12.607  1.00  0.00     0.049 A 
ATOM     55  C   UNL     1      -5.380  10.490 -14.721  1.00  0.00     0.074 A 
ATOM     56  C   UNL     1     -10.796  13.566 -13.508  1.00  0.00     0.029 A 
ATOM     57  N   UNL     1      -8.914  12.392 -13.346  1.00  0.00    -0.354 N 
ATOM     58  N   UNL     1      -6.482  11.113 -14.378  1.00  0.00    -0.248 NA
ATOM     59  C   UNL     1      -5.168  10.408 -16.174  1.00  0.00     0.031 C 
ATOM     60  C   UNL     1     -10.309  13.331 -14.797  1.00  0.00     0.029 A 
ATOM     61  C   UNL     1      -9.120  12.627 -14.694  1.00  0.00     0.049 A 
ATOM     62  H   UNL     1      -8.149  11.901 -12.967  1.00  0.00     0.167 HD
ATOM     63  C   UNL     1      -7.077  11.522 -15.566  1.00  0.00     0.074 A 
ATOM     64  C   UNL     1      -6.207  11.088 -16.638  1.00  0.00     0.031 C 
ATOM     65  C   UNL     1      -8.239  12.196 -15.752  1.00  0.00     0.037 A 
BRANCH  52  66
ATOM     66  C   UNL     1     -11.257  13.514 -10.529  1.00  0.00     0.057 A 
ATOM     67  C   UNL     1     -11.144  14.682  -9.764  1.00  0.00     0.134 A 
ATOM     68  C   UNL     1     -12.541  12.992 -10.727  1.00  0.00     0.134 A 
ATOM     69  F   UNL     1      -9.941  15.223  -9.520  1.00  0.00    -0.206 F 
ATOM     70  C   UNL     1     -12.267  15.306  -9.216  1.00  0.00     0.040 A 
ATOM     71  C   UNL     1     -13.673  13.621 -10.207  1.00  0.00     0.040 A 
ATOM     72  F   UNL     1     -12.719  11.874 -11.447  1.00  0.00    -0.206 F 
ATOM     73  C   UNL     1     -13.537  14.781  -9.447  1.00  0.00     0.006 A 
ENDBRANCH  52  66
BRANCH  53  74
ATOM     74  C   UNL     1      -3.125   9.222 -14.437  1.00  0.00     0.057 A 
ATOM     75  C   UNL     1      -2.151   9.979 -15.097  1.00  0.00     0.134 A 
ATOM     76  C   UNL     1      -2.925   7.838 -14.365  1.00  0.00     0.134 A 
ATOM     77  F   UNL     1      -2.298  11.306 -15.223  1.00  0.00    -0.206 F 
ATOM     78  C   UNL     1      -1.025   9.384 -15.670  1.00  0.00     0.040 A 
ATOM     79  C   UNL     1      -1.791   7.233 -14.909  1.00  0.00     0.040 A 
ATOM     80  F   UNL     1      -3.823   7.054 -13.751  1.00  0.00    -0.206 F 
ATOM     81  C   UNL     1      -0.839   8.007 -15.569  1.00  0.00     0.006 A 
ENDBRANCH  53  74
BRANCH  65  82
ATOM     82  C   UNL     1      -8.629  12.542 -17.161  1.00  0.00     0.057 A 
ATOM     83  C   UNL     1      -9.059  11.569 -18.072  1.00  0.00     0.134 A 
ATOM     84  C   UNL     1      -8.639  13.877 -17.590  1.00  0.00     0.134 A 
ATOM     85  F   UNL     1      -9.068  10.273 -17.729  1.00  0.00    -0.206 F 
ATOM     86  C   UNL     1      -9.464  11.909 -19.364  1.00  0.00     0.040 A 
ATOM     87  C   UNL     1      -9.072  14.231 -18.868  1.00  0.00     0.040 A 
ATOM     88  F   UNL     1      -8.254  14.861 -16.763  1.00  0.00    -0.206 F 
ATOM     89  C   UNL     1      -9.480  13.244 -19.762  1.00  0.00     0.006 A 
ENDBRANCH  65  82
ENDBRANCH  39  40
ENDBRANCH  32  34
ENDBRANCH  31  32
ENDBRANCH  30  31
ENDBRANCH  29  30
ENDBRANCH  28  29
ENDBRANCH  27  28
ENDBRANCH   1  27
TORSDOF 21
