REMARK SMILES CC(C)CCOCC[N@@H+]1[C@@H](C(=O)OCCOCCOCCOCCOC(=O)c2ccc(-c3c4nc(c(-c5c(F)cccc5F)c5ccc([nH]5)c(-c5c(F)cccc5F)c5nc(c(-c6c(F)cccc6F)c6ccc3[nH]6)C=C5)C=C4)cc2)CC[C@H]2CCCC[C@H]21
REMARK SMILES IDX 17 1 16 2 15 3 14 4 13 5 11 6 12 7 10 8 9 9 89 10 82 12
REMARK SMILES IDX 84 13 88 14 83 15 85 16 87 17 86 18 8 19 7 20 6 21 5 22 4 23
REMARK SMILES IDX 2 24 1 25 3 26 18 27 19 28 20 29 21 30 22 31 23 32 24 33
REMARK SMILES IDX 25 34 26 35 27 36 28 37 29 38 81 39 30 40 80 41 31 42 32 43
REMARK SMILES IDX 33 44 74 45 34 46 79 47 73 48 75 49 35 50 78 51 72 52 71 53
REMARK SMILES IDX 36 55 62 56 45 57 61 58 46 59 49 60 60 61 76 62 47 63 48 64
REMARK SMILES IDX 59 66 77 67 50 68 37 69 38 70 43 71 39 72 40 73 42 74 44 75
REMARK SMILES IDX 41 76 63 77 64 78 69 79 65 80 66 81 68 82 70 83 67 84 51 85
REMARK SMILES IDX 52 86 57 87 53 88 54 89 56 90 58 91 55 92
REMARK H PARENT 9 11 75 54 49 65
REMARK Flexibility Score: inf
ROOT
ATOM      1  C   UNL     1      -2.333   5.492   1.198  1.00  0.00     0.188 C 
ENDROOT
BRANCH   1   2
ATOM      2  O   UNL     1      -3.425   5.549   0.306  1.00  0.00    -0.376 OA
BRANCH   2   3
ATOM      3  C   UNL     1      -3.791   4.462  -0.526  1.00  0.00     0.202 C 
BRANCH   3   4
ATOM      4  C   UNL     1      -2.867   3.333  -1.003  1.00  0.00     0.261 C 
BRANCH   4   5
ATOM      5  O   UNL     1      -2.007   2.685  -0.057  1.00  0.00    -0.459 OA
BRANCH   5   6
ATOM      6  C   UNL     1      -0.705   3.046  -0.146  1.00  0.00     0.364 C 
ATOM      7  O   UNL     1      -0.311   3.983  -0.842  1.00  0.00    -0.245 OA
BRANCH   6   8
ATOM      8  C   UNL     1       0.274   2.216   0.713  1.00  0.00     0.295 C 
ATOM      9  N   UNL     1       1.058   1.170  -0.055  1.00  0.00    -0.319 N 
ATOM     10  C   UNL     1       2.212   0.722   0.810  1.00  0.00     0.187 C 
ATOM     11  H   UNL     1       0.489   0.350  -0.267  1.00  0.00     0.349 HD
ATOM     12  C   UNL     1      -0.292   1.568   1.978  1.00  0.00     0.078 C 
ATOM     13  C   UNL     1       1.844   0.282   2.261  1.00  0.00     0.048 C 
ATOM     14  C   UNL     1       3.140  -0.354   0.197  1.00  0.00     0.065 C 
ATOM     15  C   UNL     1       0.866   1.255   2.923  1.00  0.00     0.016 C 
ATOM     16  C   UNL     1       1.271  -1.130   2.401  1.00  0.00     0.010 C 
ATOM     17  C   UNL     1       2.983  -1.827   0.580  1.00  0.00     0.006 C 
ATOM     18  C   UNL     1       2.037  -2.232   1.700  1.00  0.00     0.001 C 
BRANCH   9  19
ATOM     19  C   UNL     1       1.489   1.736  -1.364  1.00  0.00     0.291 C 
BRANCH  19  20
ATOM     20  C   UNL     1       0.684   1.378  -2.660  1.00  0.00     0.221 C 
BRANCH  20  21
ATOM     21  O   UNL     1      -0.720   1.561  -2.746  1.00  0.00    -0.376 OA
BRANCH  21  22
ATOM     22  C   UNL     1      -1.665   0.558  -2.394  1.00  0.00     0.160 C 
BRANCH  22  23
ATOM     23  C   UNL     1      -1.488  -0.917  -2.797  1.00  0.00     0.031 C 
BRANCH  23  24
ATOM     24  C   UNL     1      -0.376  -1.676  -2.070  1.00  0.00    -0.015 C 
ATOM     25  C   UNL     1      -0.442  -1.475  -0.571  1.00  0.00     0.007 C 
ATOM     26  C   UNL     1      -0.358  -3.177  -2.352  1.00  0.00     0.007 C 
ENDBRANCH  23  24
ENDBRANCH  22  23
ENDBRANCH  21  22
ENDBRANCH  20  21
ENDBRANCH  19  20
ENDBRANCH   9  19
ENDBRANCH   6   8
ENDBRANCH   5   6
ENDBRANCH   4   5
ENDBRANCH   3   4
ENDBRANCH   2   3
ENDBRANCH   1   2
BRANCH   1  27
ATOM     27  C   UNL     1      -2.309   4.452   2.321  1.00  0.00     0.188 C 
BRANCH  27  28
ATOM     28  O   UNL     1      -3.145   3.325   2.155  1.00  0.00    -0.377 OA
BRANCH  28  29
ATOM     29  C   UNL     1      -4.522   3.414   2.495  1.00  0.00     0.188 C 
BRANCH  29  30
ATOM     30  C   UNL     1      -5.158   4.786   2.778  1.00  0.00     0.188 C 
BRANCH  30  31
ATOM     31  O   UNL     1      -4.353   5.660   3.553  1.00  0.00    -0.376 OA
BRANCH  31  32
ATOM     32  C   UNL     1      -4.492   5.654   4.966  1.00  0.00     0.202 C 
BRANCH  32  33
ATOM     33  C   UNL     1      -4.244   4.334   5.713  1.00  0.00     0.261 C 
BRANCH  33  34
ATOM     34  O   UNL     1      -5.149   3.253   5.429  1.00  0.00    -0.460 OA
BRANCH  34  35
ATOM     35  C   UNL     1      -6.476   3.485   5.513  1.00  0.00     0.338 C 
ATOM     36  O   UNL     1      -7.032   4.490   5.900  1.00  0.00    -0.246 OA
BRANCH  35  37
ATOM     37  C   UNL     1      -7.164   2.351   4.863  1.00  0.00     0.060 A 
ATOM     38  C   UNL     1      -7.997   2.602   3.765  1.00  0.00     0.016 A 
ATOM     39  C   UNL     1      -7.006   1.054   5.355  1.00  0.00     0.016 A 
ATOM     40  C   UNL     1      -8.718   1.560   3.186  1.00  0.00     0.010 A 
ATOM     41  C   UNL     1      -7.746   0.014   4.789  1.00  0.00     0.010 A 
ATOM     42  C   UNL     1      -8.636   0.273   3.732  1.00  0.00    -0.014 A 
BRANCH  42  43
ATOM     43  C   UNL     1      -9.649  -0.742   3.361  1.00  0.00     0.031 A 
ATOM     44  C   UNL     1     -10.842  -0.910   4.262  1.00  0.00     0.074 A 
ATOM     45  C   UNL     1      -9.531  -1.481   2.246  1.00  0.00     0.049 A 
ATOM     46  N   UNL     1     -11.829  -1.764   4.188  1.00  0.00    -0.248 NA
ATOM     47  C   UNL     1     -10.927   0.013   5.406  1.00  0.00     0.031 C 
ATOM     48  C   UNL     1      -8.452  -1.372   1.268  1.00  0.00     0.029 A 
ATOM     49  N   UNL     1     -10.334  -2.480   1.757  1.00  0.00    -0.354 N 
ATOM     50  C   UNL     1     -12.646  -1.487   5.278  1.00  0.00     0.074 A 
ATOM     51  C   UNL     1     -12.022  -0.411   6.015  1.00  0.00     0.031 C 
ATOM     52  C   UNL     1      -8.654  -2.281   0.297  1.00  0.00     0.029 A 
ATOM     53  C   UNL     1      -9.855  -3.055   0.607  1.00  0.00     0.049 A 
ATOM     54  H   UNL     1     -11.173  -2.758   2.190  1.00  0.00     0.167 HD
ATOM     55  C   UNL     1     -13.815  -2.072   5.628  1.00  0.00     0.037 A 
ATOM     56  C   UNL     1     -10.323  -4.104  -0.098  1.00  0.00     0.037 A 
ATOM     57  C   UNL     1     -14.426  -3.149   4.897  1.00  0.00     0.049 A 
ATOM     58  C   UNL     1     -11.578  -4.801   0.362  1.00  0.00     0.074 A 
ATOM     59  C   UNL     1     -15.613  -3.808   5.162  1.00  0.00     0.029 A 
ATOM     60  N   UNL     1     -13.889  -3.734   3.760  1.00  0.00    -0.354 N 
ATOM     61  N   UNL     1     -12.354  -4.526   1.383  1.00  0.00    -0.248 NA
ATOM     62  C   UNL     1     -12.022  -5.957  -0.431  1.00  0.00     0.031 C 
ATOM     63  C   UNL     1     -15.764  -4.830   4.219  1.00  0.00     0.029 A 
ATOM     64  C   UNL     1     -14.705  -4.766   3.328  1.00  0.00     0.049 A 
ATOM     65  H   UNL     1     -13.050  -3.456   3.324  1.00  0.00     0.167 HD
ATOM     66  C   UNL     1     -13.393  -5.449   1.335  1.00  0.00     0.074 A 
ATOM     67  C   UNL     1     -13.151  -6.287   0.179  1.00  0.00     0.031 C 
ATOM     68  C   UNL     1     -14.453  -5.588   2.170  1.00  0.00     0.037 A 
BRANCH  55  69
ATOM     69  C   UNL     1     -14.480  -1.579   6.881  1.00  0.00     0.057 A 
ATOM     70  C   UNL     1     -15.059  -0.305   6.965  1.00  0.00     0.134 A 
ATOM     71  C   UNL     1     -14.541  -2.391   8.021  1.00  0.00     0.134 A 
ATOM     72  F   UNL     1     -15.019   0.531   5.916  1.00  0.00    -0.206 F 
ATOM     73  C   UNL     1     -15.643   0.155   8.147  1.00  0.00     0.040 A 
ATOM     74  C   UNL     1     -15.149  -1.953   9.198  1.00  0.00     0.040 A 
ATOM     75  F   UNL     1     -14.009  -3.622   8.010  1.00  0.00    -0.206 F 
ATOM     76  C   UNL     1     -15.694  -0.673   9.266  1.00  0.00     0.006 A 
ENDBRANCH  55  69
BRANCH  56  77
ATOM     77  C   UNL     1      -9.600  -4.567  -1.309  1.00  0.00     0.057 A 
ATOM     78  C   UNL     1     -10.158  -4.426  -2.585  1.00  0.00     0.134 A 
ATOM     79  C   UNL     1      -8.342  -5.176  -1.220  1.00  0.00     0.134 A 
ATOM     80  F   UNL     1     -11.371  -3.875  -2.733  1.00  0.00    -0.206 F 
ATOM     81  C   UNL     1      -9.498  -4.884  -3.727  1.00  0.00     0.040 A 
ATOM     82  C   UNL     1      -7.659  -5.614  -2.356  1.00  0.00     0.040 A 
ATOM     83  F   UNL     1      -7.753  -5.343  -0.027  1.00  0.00    -0.206 F 
ATOM     84  C   UNL     1      -8.241  -5.474  -3.614  1.00  0.00     0.006 A 
ENDBRANCH  56  77
BRANCH  68  85
ATOM     85  C   UNL     1     -15.458  -6.655   1.841  1.00  0.00     0.057 A 
ATOM     86  C   UNL     1     -15.175  -8.018   1.995  1.00  0.00     0.134 A 
ATOM     87  C   UNL     1     -16.746  -6.309   1.410  1.00  0.00     0.134 A 
ATOM     88  F   UNL     1     -13.959  -8.419   2.394  1.00  0.00    -0.206 F 
ATOM     89  C   UNL     1     -16.128  -8.998   1.708  1.00  0.00     0.040 A 
ATOM     90  C   UNL     1     -17.716  -7.277   1.149  1.00  0.00     0.040 A 
ATOM     91  F   UNL     1     -17.089  -5.021   1.252  1.00  0.00    -0.206 F 
ATOM     92  C   UNL     1     -17.405  -8.628   1.292  1.00  0.00     0.006 A 
ENDBRANCH  68  85
ENDBRANCH  42  43
ENDBRANCH  35  37
ENDBRANCH  34  35
ENDBRANCH  33  34
ENDBRANCH  32  33
ENDBRANCH  31  32
ENDBRANCH  30  31
ENDBRANCH  29  30
ENDBRANCH  28  29
ENDBRANCH  27  28
ENDBRANCH   1  27
TORSDOF 26
