REMARK SMILES O=C(OCCOCCOCCOCCOC(=O)[C@H]1CCCN(c2cc(-c3ccccn3)nc(-c3ccccc3F)n2)C1)c1ccc(-c2c3nc(c(-c4c(F)cccc4F)c4ccc([nH]4)c(-c4c(F)cccc4F)c4nc(c(-c5c(F)cccc5F)c5ccc2[nH]5)C=C4)C=C3)cc1
REMARK SMILES IDX 9 1 8 2 7 3 6 4 5 5 4 6 3 7 2 8 1 9 43 10 44 11 96 12 45 13
REMARK SMILES IDX 95 14 46 15 47 16 48 17 89 18 49 19 94 20 88 21 90 22 50 23
REMARK SMILES IDX 93 24 87 25 86 26 51 28 77 29 60 30 76 31 61 32 64 33 75 34
REMARK SMILES IDX 91 35 62 36 63 37 74 39 92 40 65 41 52 42 53 43 58 44 54 45
REMARK SMILES IDX 55 46 57 47 59 48 56 49 78 50 79 51 84 52 80 53 81 54 83 55
REMARK SMILES IDX 85 56 82 57 66 58 67 59 72 60 68 61 69 62 71 63 73 64 70 65
REMARK SMILES IDX 10 66 11 67 12 68 13 69 14 70 15 71 16 72 17 73 18 74 19 75
REMARK SMILES IDX 42 76 20 77 22 78 21 79 23 80 24 81 41 82 25 83 33 84 32 85
REMARK SMILES IDX 26 86 27 87 31 88 28 89 30 90 29 91 34 92 35 93 39 94 36 95
REMARK SMILES IDX 38 96 40 97 37 98
REMARK H PARENT 90 27 64 38
REMARK Flexibility Score: inf
ROOT
ATOM      1  O   UNL     1       7.219  -1.026   7.424  1.00  0.00    -0.377 OA
ENDROOT
BRANCH   1   2
ATOM      2  C   UNL     1       8.120  -0.922   8.523  1.00  0.00     0.188 C 
BRANCH   2   3
ATOM      3  C   UNL     1       8.602   0.505   8.771  1.00  0.00     0.188 C 
BRANCH   3   4
ATOM      4  O   UNL     1       7.494   1.301   9.200  1.00  0.00    -0.376 OA
BRANCH   4   5
ATOM      5  C   UNL     1       7.490   2.639   8.707  1.00  0.00     0.202 C 
BRANCH   5   6
ATOM      6  C   UNL     1       8.148   3.625   9.669  1.00  0.00     0.261 C 
BRANCH   6   7
ATOM      7  O   UNL     1       9.290   3.050  10.318  1.00  0.00    -0.460 OA
BRANCH   7   8
ATOM      8  C   UNL     1       9.326   2.385  11.499  1.00  0.00     0.338 C 
ATOM      9  O   UNL     1      10.418   1.981  11.899  1.00  0.00    -0.246 OA
BRANCH   8  10
ATOM     10  C   UNL     1       8.134   2.127  12.375  1.00  0.00     0.060 A 
ATOM     11  C   UNL     1       6.803   2.044  11.954  1.00  0.00     0.016 A 
ATOM     12  C   UNL     1       8.400   1.865  13.732  1.00  0.00     0.016 A 
ATOM     13  C   UNL     1       5.772   1.736  12.834  1.00  0.00     0.010 A 
ATOM     14  C   UNL     1       7.372   1.551  14.626  1.00  0.00     0.010 A 
ATOM     15  C   UNL     1       6.051   1.496  14.174  1.00  0.00    -0.014 A 
BRANCH  15  16
ATOM     16  C   UNL     1       4.923   1.325  15.102  1.00  0.00     0.031 A 
ATOM     17  C   UNL     1       4.481   2.516  15.893  1.00  0.00     0.074 A 
ATOM     18  C   UNL     1       4.249   0.162  15.139  1.00  0.00     0.049 A 
ATOM     19  N   UNL     1       3.583   2.595  16.835  1.00  0.00    -0.248 NA
ATOM     20  C   UNL     1       5.124   3.801  15.560  1.00  0.00     0.031 C 
ATOM     21  C   UNL     1       4.526  -0.999  14.291  1.00  0.00     0.029 A 
ATOM     22  N   UNL     1       3.186  -0.230  15.907  1.00  0.00    -0.354 N 
ATOM     23  C   UNL     1       3.575   3.926  17.228  1.00  0.00     0.074 A 
ATOM     24  C   UNL     1       4.540   4.627  16.415  1.00  0.00     0.031 C 
ATOM     25  C   UNL     1       3.653  -1.976  14.590  1.00  0.00     0.029 A 
ATOM     26  C   UNL     1       2.807  -1.533  15.694  1.00  0.00     0.049 A 
ATOM     27  H   UNL     1       2.736   0.365  16.550  1.00  0.00     0.167 HD
ATOM     28  C   UNL     1       2.829   4.496  18.199  1.00  0.00     0.037 A 
ATOM     29  C   UNL     1       1.911  -2.288  16.359  1.00  0.00     0.037 A 
ATOM     30  C   UNL     1       1.877   3.768  18.988  1.00  0.00     0.049 A 
ATOM     31  C   UNL     1       1.181  -1.660  17.517  1.00  0.00     0.074 A 
ATOM     32  C   UNL     1       1.103   4.218  20.039  1.00  0.00     0.029 A 
ATOM     33  N   UNL     1       1.577   2.426  18.803  1.00  0.00    -0.354 N 
ATOM     34  N   UNL     1       1.222  -0.417  17.939  1.00  0.00    -0.248 NA
ATOM     35  C   UNL     1       0.311  -2.535  18.313  1.00  0.00     0.031 C 
ATOM     36  C   UNL     1       0.362   3.134  20.518  1.00  0.00     0.029 A 
ATOM     37  C   UNL     1       0.648   2.020  19.741  1.00  0.00     0.049 A 
ATOM     38  H   UNL     1       1.967   1.849  18.108  1.00  0.00     0.167 HD
ATOM     39  C   UNL     1       0.393  -0.362  19.050  1.00  0.00     0.074 A 
ATOM     40  C   UNL     1      -0.162  -1.690  19.220  1.00  0.00     0.031 C 
ATOM     41  C   UNL     1       0.123   0.685  19.867  1.00  0.00     0.037 A 
BRANCH  28  42
ATOM     42  C   UNL     1       3.068   5.942  18.497  1.00  0.00     0.057 A 
ATOM     43  C   UNL     1       3.804   6.315  19.629  1.00  0.00     0.134 A 
ATOM     44  C   UNL     1       2.563   6.963  17.685  1.00  0.00     0.134 A 
ATOM     45  F   UNL     1       4.325   5.382  20.440  1.00  0.00    -0.206 F 
ATOM     46  C   UNL     1       4.018   7.656  19.951  1.00  0.00     0.040 A 
ATOM     47  C   UNL     1       2.783   8.309  17.988  1.00  0.00     0.040 A 
ATOM     48  F   UNL     1       1.875   6.669  16.571  1.00  0.00    -0.206 F 
ATOM     49  C   UNL     1       3.506   8.657  19.128  1.00  0.00     0.006 A 
ENDBRANCH  28  42
BRANCH  29  50
ATOM     50  C   UNL     1       1.727  -3.722  16.010  1.00  0.00     0.057 A 
ATOM     51  C   UNL     1       2.763  -4.651  16.183  1.00  0.00     0.134 A 
ATOM     52  C   UNL     1       0.515  -4.205  15.505  1.00  0.00     0.134 A 
ATOM     53  F   UNL     1       3.950  -4.259  16.671  1.00  0.00    -0.206 F 
ATOM     54  C   UNL     1       2.610  -5.997  15.847  1.00  0.00     0.040 A 
ATOM     55  C   UNL     1       0.339  -5.556  15.190  1.00  0.00     0.040 A 
ATOM     56  F   UNL     1      -0.526  -3.377  15.339  1.00  0.00    -0.206 F 
ATOM     57  C   UNL     1       1.391  -6.455  15.354  1.00  0.00     0.006 A 
ENDBRANCH  29  50
BRANCH  41  58
ATOM     58  C   UNL     1      -0.799   0.437  21.019  1.00  0.00     0.057 A 
ATOM     59  C   UNL     1      -2.102   0.947  21.013  1.00  0.00     0.134 A 
ATOM     60  C   UNL     1      -0.346  -0.196  22.182  1.00  0.00     0.134 A 
ATOM     61  F   UNL     1      -2.582   1.576  19.929  1.00  0.00    -0.206 F 
ATOM     62  C   UNL     1      -2.918   0.860  22.139  1.00  0.00     0.040 A 
ATOM     63  C   UNL     1      -1.161  -0.307  23.308  1.00  0.00     0.040 A 
ATOM     64  F   UNL     1       0.892  -0.709  22.240  1.00  0.00    -0.206 F 
ATOM     65  C   UNL     1      -2.446   0.233  23.292  1.00  0.00     0.006 A 
ENDBRANCH  41  58
ENDBRANCH  15  16
ENDBRANCH   8  10
ENDBRANCH   7   8
ENDBRANCH   6   7
ENDBRANCH   5   6
ENDBRANCH   4   5
ENDBRANCH   3   4
ENDBRANCH   2   3
ENDBRANCH   1   2
BRANCH   1  66
ATOM     66  C   UNL     1       6.002  -0.296   7.526  1.00  0.00     0.188 C 
BRANCH  66  67
ATOM     67  C   UNL     1       5.039  -0.622   8.673  1.00  0.00     0.188 C 
BRANCH  67  68
ATOM     68  O   UNL     1       5.357  -1.794   9.411  1.00  0.00    -0.376 OA
BRANCH  68  69
ATOM     69  C   UNL     1       4.621  -2.961   9.048  1.00  0.00     0.202 C 
BRANCH  69  70
ATOM     70  C   UNL     1       5.217  -3.726   7.863  1.00  0.00     0.261 C 
BRANCH  70  71
ATOM     71  O   UNL     1       5.183  -3.010   6.615  1.00  0.00    -0.463 OA
BRANCH  71  72
ATOM     72  C   UNL     1       4.000  -2.838   5.981  1.00  0.00     0.310 C 
ATOM     73  O   UNL     1       2.930  -3.263   6.406  1.00  0.00    -0.252 OA
BRANCH  72  74
ATOM     74  C   UNL     1       4.129  -1.969   4.728  1.00  0.00     0.118 C 
ATOM     75  C   UNL     1       3.324  -0.671   4.937  1.00  0.00     0.019 C 
ATOM     76  C   UNL     1       5.596  -1.744   4.316  1.00  0.00     0.133 C 
ATOM     77  C   UNL     1       3.624   0.404   3.895  1.00  0.00     0.022 C 
ATOM     78  N   UNL     1       5.783  -0.584   3.440  1.00  0.00    -0.356 N 
ATOM     79  C   UNL     1       5.122   0.662   3.777  1.00  0.00     0.118 C 
BRANCH  78  80
ATOM     80  C   UNL     1       6.186  -0.834   2.149  1.00  0.00     0.133 A 
ATOM     81  C   UNL     1       7.035   0.011   1.472  1.00  0.00     0.077 A 
ATOM     82  N   UNL     1       5.770  -1.972   1.598  1.00  0.00    -0.211 NA
ATOM     83  C   UNL     1       7.471  -0.395   0.220  1.00  0.00     0.095 A 
ATOM     84  C   UNL     1       6.223  -2.294   0.379  1.00  0.00     0.165 A 
ATOM     85  N   UNL     1       7.072  -1.558  -0.346  1.00  0.00    -0.226 NA
BRANCH  83  86
ATOM     86  C   UNL     1       8.432   0.422  -0.536  1.00  0.00     0.089 A 
ATOM     87  C   UNL     1       9.733   0.636  -0.073  1.00  0.00     0.030 A 
ATOM     88  N   UNL     1       7.971   1.000  -1.675  1.00  0.00    -0.255 NA
ATOM     89  C   UNL     1      10.589   1.456  -0.806  1.00  0.00     0.004 A 
ATOM     90  C   UNL     1       8.828   1.779  -2.372  1.00  0.00     0.112 A 
ATOM     91  C   UNL     1      10.131   2.037  -1.980  1.00  0.00     0.020 A 
ENDBRANCH  83  86
BRANCH  84  92
ATOM     92  C   UNL     1       5.691  -3.547  -0.134  1.00  0.00     0.055 A 
ATOM     93  C   UNL     1       4.297  -3.768  -0.128  1.00  0.00     0.015 A 
ATOM     94  C   UNL     1       6.518  -4.606  -0.507  1.00  0.00     0.134 A 
ATOM     95  C   UNL     1       3.758  -5.007  -0.475  1.00  0.00     0.001 A 
ATOM     96  C   UNL     1       5.986  -5.850  -0.851  1.00  0.00     0.040 A 
ATOM     97  F   UNL     1       7.853  -4.476  -0.473  1.00  0.00    -0.206 F 
ATOM     98  C   UNL     1       4.606  -6.051  -0.832  1.00  0.00     0.003 A 
ENDBRANCH  84  92
ENDBRANCH  78  80
ENDBRANCH  72  74
ENDBRANCH  71  72
ENDBRANCH  70  71
ENDBRANCH  69  70
ENDBRANCH  68  69
ENDBRANCH  67  68
ENDBRANCH  66  67
ENDBRANCH   1  66
TORSDOF 23
