REMARK SMILES [NH3+][C@@H](Cc1c[nH]c2ccccc12)C(=O)N[C@@H](CS)C(=O)N[C@@H](CO)C(=O)OCCOCCOCCOCCOC(=O)c1ccc(-c2c3nc(c(-c4c(F)cccc4F)c4ccc([nH]4)c(-c4c(F)cccc4F)c4nc(c(-c5c(F)cccc5F)c5ccc2[nH]5)C=C4)C=C3)cc1
REMARK SMILES IDX 31 1 30 2 29 3 28 4 27 5 25 6 26 7 22 8 21 9 19 10 20 11
REMARK SMILES IDX 16 13 15 14 13 15 14 16 2 18 1 19 3 23 4 24 5 25 12 26 6 27
REMARK SMILES IDX 7 28 11 29 8 31 10 32 9 33 17 34 18 35 23 37 24 38 32 40
REMARK SMILES IDX 33 41 34 42 35 43 36 44 37 45 38 46 39 47 40 48 41 49 42 50
REMARK SMILES IDX 43 51 95 52 44 53 94 54 45 55 46 56 47 57 88 58 48 59 93 60
REMARK SMILES IDX 87 61 89 62 49 63 92 64 86 65 85 66 50 68 76 69 59 70 75 71
REMARK SMILES IDX 60 72 63 73 74 74 90 75 61 76 62 77 73 79 91 80 64 81 51 82
REMARK SMILES IDX 52 83 57 84 53 85 54 86 56 87 58 88 55 89 77 90 78 91 83 92
REMARK SMILES IDX 79 93 80 94 82 95 84 96 81 97 65 98 66 99 71 100 67 101
REMARK SMILES IDX 68 102 70 103 72 104 69 105
REMARK H PARENT 21 12 15 17 1 20 1 21 1 22 6 30 18 36 24 39 89 67 63 78
REMARK Flexibility Score: inf
ROOT
ATOM      1  C   UNL     1      -3.544   0.608  -5.201  1.00  0.00     0.188 C 
ENDROOT
BRANCH   1   2
ATOM      2  O   UNL     1      -4.516   0.252  -6.169  1.00  0.00    -0.376 OA
BRANCH   2   3
ATOM      3  C   UNL     1      -5.665   1.060  -6.381  1.00  0.00     0.202 C 
BRANCH   3   4
ATOM      4  C   UNL     1      -6.356   1.879  -5.271  1.00  0.00     0.261 C 
BRANCH   4   5
ATOM      5  O   UNL     1      -5.564   2.191  -4.121  1.00  0.00    -0.462 OA
BRANCH   5   6
ATOM      6  C   UNL     1      -5.928   1.611  -2.946  1.00  0.00     0.331 C 
ATOM      7  O   UNL     1      -6.910   0.894  -2.792  1.00  0.00    -0.250 OA
BRANCH   6   8
ATOM      8  C   UNL     1      -4.976   1.983  -1.799  1.00  0.00     0.218 C 
BRANCH   8   9
ATOM      9  N   UNL     1      -3.735   2.644  -2.207  1.00  0.00    -0.339 N 
ATOM     10  C   UNL     1      -2.557   2.626  -1.537  1.00  0.00     0.244 C 
ATOM     11  O   UNL     1      -2.131   3.719  -1.155  1.00  0.00    -0.273 OA
ATOM     12  H   UNL     1      -3.759   3.151  -3.051  1.00  0.00     0.164 HD
BRANCH  10  13
ATOM     13  C   UNL     1      -1.815   1.312  -1.185  1.00  0.00     0.181 C 
BRANCH  13  14
ATOM     14  N   UNL     1      -1.864   1.028   0.232  1.00  0.00    -0.338 N 
ATOM     15  C   UNL     1      -0.861   1.141   1.152  1.00  0.00     0.279 C 
ATOM     16  O   UNL     1      -1.226   1.194   2.333  1.00  0.00    -0.268 OA
ATOM     17  H   UNL     1      -2.731   0.714   0.578  1.00  0.00     0.164 HD
BRANCH  15  18
ATOM     18  C   UNL     1       0.664   1.120   0.803  1.00  0.00     0.275 C 
BRANCH  18  19
ATOM     19  N   UNL     1       1.042  -0.168   0.181  1.00  0.00    -0.347 N 
ATOM     20  H   UNL     1       2.038  -0.161  -0.038  1.00  0.00     0.345 HD
ATOM     21  H   UNL     1       0.506  -0.302  -0.677  1.00  0.00     0.345 HD
ATOM     22  H   UNL     1       0.842  -0.930   0.829  1.00  0.00     0.345 HD
ENDBRANCH  18  19
BRANCH  18  23
ATOM     23  C   UNL     1       1.325   2.396   0.219  1.00  0.00     0.113 C 
BRANCH  23  24
ATOM     24  C   UNL     1       1.281   2.669  -1.268  1.00  0.00    -0.016 A 
ATOM     25  C   UNL     1       1.474   1.801  -2.330  1.00  0.00     0.087 A 
ATOM     26  C   UNL     1       1.024   3.957  -1.861  1.00  0.00     0.003 A 
ATOM     27  N   UNL     1       1.112   2.446  -3.486  1.00  0.00    -0.361 N 
ATOM     28  C   UNL     1       0.816   3.761  -3.226  1.00  0.00     0.046 A 
ATOM     29  C   UNL     1       0.889   5.265  -1.348  1.00  0.00     0.010 A 
ATOM     30  H   UNL     1       1.070   2.026  -4.375  1.00  0.00     0.166 HD
ATOM     31  C   UNL     1       0.385   4.784  -4.082  1.00  0.00     0.026 A 
ATOM     32  C   UNL     1       0.517   6.310  -2.201  1.00  0.00     0.001 A 
ATOM     33  C   UNL     1       0.241   6.065  -3.542  1.00  0.00     0.002 A 
ENDBRANCH  23  24
ENDBRANCH  18  23
ENDBRANCH  15  18
ENDBRANCH  13  14
BRANCH  13  34
ATOM     34  C   UNL     1      -1.858   0.098  -2.117  1.00  0.00     0.101 C 
BRANCH  34  35
ATOM     35  S   UNL     1      -3.226  -1.081  -1.938  1.00  0.00    -0.177 SA
ATOM     36  H   UNL     1      -3.147  -1.685  -0.722  1.00  0.00     0.102 HD
ENDBRANCH  34  35
ENDBRANCH  13  34
ENDBRANCH  10  13
ENDBRANCH   8   9
BRANCH   8  37
ATOM     37  C   UNL     1      -5.732   2.911  -0.842  1.00  0.00     0.193 C 
BRANCH  37  38
ATOM     38  O   UNL     1      -5.920   4.204  -1.425  1.00  0.00    -0.394 OA
ATOM     39  H   UNL     1      -5.056   4.603  -1.613  1.00  0.00     0.210 HD
ENDBRANCH  37  38
ENDBRANCH   8  37
ENDBRANCH   6   8
ENDBRANCH   5   6
ENDBRANCH   4   5
ENDBRANCH   3   4
ENDBRANCH   2   3
ENDBRANCH   1   2
BRANCH   1  40
ATOM     40  C   UNL     1      -2.877   1.993  -5.246  1.00  0.00     0.188 C 
BRANCH  40  41
ATOM     41  O   UNL     1      -3.611   2.943  -5.987  1.00  0.00    -0.377 OA
BRANCH  41  42
ATOM     42  C   UNL     1      -3.143   3.161  -7.313  1.00  0.00     0.188 C 
BRANCH  42  43
ATOM     43  C   UNL     1      -2.638   1.939  -8.118  1.00  0.00     0.188 C 
BRANCH  43  44
ATOM     44  O   UNL     1      -1.658   1.167  -7.432  1.00  0.00    -0.376 OA
BRANCH  44  45
ATOM     45  C   UNL     1      -0.297   1.285  -7.810  1.00  0.00     0.202 C 
BRANCH  45  46
ATOM     46  C   UNL     1       0.413   2.621  -7.545  1.00  0.00     0.261 C 
BRANCH  46  47
ATOM     47  O   UNL     1      -0.264   3.807  -7.978  1.00  0.00    -0.460 OA
BRANCH  47  48
ATOM     48  C   UNL     1      -0.375   3.999  -9.309  1.00  0.00     0.338 C 
ATOM     49  O   UNL     1       0.076   3.284 -10.189  1.00  0.00    -0.246 OA
BRANCH  48  50
ATOM     50  C   UNL     1      -1.332   5.106  -9.528  1.00  0.00     0.060 A 
ATOM     51  C   UNL     1      -2.509   4.842 -10.241  1.00  0.00     0.016 A 
ATOM     52  C   UNL     1      -1.096   6.380  -9.004  1.00  0.00     0.016 A 
ATOM     53  C   UNL     1      -3.447   5.853 -10.445  1.00  0.00     0.010 A 
ATOM     54  C   UNL     1      -2.022   7.402  -9.239  1.00  0.00     0.010 A 
ATOM     55  C   UNL     1      -3.191   7.148  -9.980  1.00  0.00    -0.014 A 
BRANCH  55  56
ATOM     56  C   UNL     1      -4.061   8.267 -10.413  1.00  0.00     0.031 A 
ATOM     57  C   UNL     1      -3.627   9.099 -11.588  1.00  0.00     0.074 A 
ATOM     58  C   UNL     1      -5.225   8.527  -9.793  1.00  0.00     0.049 A 
ATOM     59  N   UNL     1      -4.190  10.157 -12.111  1.00  0.00    -0.248 NA
ATOM     60  C   UNL     1      -2.390   8.677 -12.264  1.00  0.00     0.031 C 
ATOM     61  C   UNL     1      -5.778   7.763  -8.677  1.00  0.00     0.029 A 
ATOM     62  N   UNL     1      -6.146   9.522 -10.011  1.00  0.00    -0.354 N 
ATOM     63  C   UNL     1      -3.374  10.531 -13.172  1.00  0.00     0.074 A 
ATOM     64  C   UNL     1      -2.264   9.603 -13.202  1.00  0.00     0.031 C 
ATOM     65  C   UNL     1      -6.937   8.328  -8.296  1.00  0.00     0.029 A 
ATOM     66  C   UNL     1      -7.186   9.514  -9.114  1.00  0.00     0.049 A 
ATOM     67  H   UNL     1      -6.068  10.177 -10.742  1.00  0.00     0.167 HD
ATOM     68  C   UNL     1      -3.539  11.553 -14.044  1.00  0.00     0.037 A 
ATOM     69  C   UNL     1      -8.202  10.384  -8.954  1.00  0.00     0.037 A 
ATOM     70  C   UNL     1      -4.640  12.479 -14.004  1.00  0.00     0.049 A 
ATOM     71  C   UNL     1      -8.311  11.571  -9.879  1.00  0.00     0.074 A 
ATOM     72  C   UNL     1      -4.905  13.538 -14.855  1.00  0.00     0.029 A 
ATOM     73  N   UNL     1      -5.650  12.466 -13.054  1.00  0.00    -0.354 N 
ATOM     74  N   UNL     1      -7.552  11.902 -10.896  1.00  0.00    -0.248 NA
ATOM     75  C   UNL     1      -9.418  12.506  -9.631  1.00  0.00     0.031 C 
ATOM     76  C   UNL     1      -6.040  14.204 -14.381  1.00  0.00     0.029 A 
ATOM     77  C   UNL     1      -6.519  13.521 -13.275  1.00  0.00     0.049 A 
ATOM     78  H   UNL     1      -5.736  11.804 -12.330  1.00  0.00     0.167 HD
ATOM     79  C   UNL     1      -8.103  13.064 -11.423  1.00  0.00     0.074 A 
ATOM     80  C   UNL     1      -9.272  13.370 -10.626  1.00  0.00     0.031 C 
ATOM     81  C   UNL     1      -7.681  13.813 -12.472  1.00  0.00     0.037 A 
BRANCH  68  82
ATOM     82  C   UNL     1      -2.484  11.745 -15.095  1.00  0.00     0.057 A 
ATOM     83  C   UNL     1      -2.329  10.855 -16.165  1.00  0.00     0.134 A 
ATOM     84  C   UNL     1      -1.635  12.859 -15.053  1.00  0.00     0.134 A 
ATOM     85  F   UNL     1      -3.098   9.759 -16.256  1.00  0.00    -0.206 F 
ATOM     86  C   UNL     1      -1.354  11.055 -17.145  1.00  0.00     0.040 A 
ATOM     87  C   UNL     1      -0.676  13.084 -16.042  1.00  0.00     0.040 A 
ATOM     88  F   UNL     1      -1.731  13.752 -14.056  1.00  0.00    -0.206 F 
ATOM     89  C   UNL     1      -0.530  12.178 -17.089  1.00  0.00     0.006 A 
ENDBRANCH  68  82
BRANCH  69  90
ATOM     90  C   UNL     1      -9.185  10.194  -7.856  1.00  0.00     0.057 A 
ATOM     91  C   UNL     1     -10.529   9.904  -8.123  1.00  0.00     0.134 A 
ATOM     92  C   UNL     1      -8.813  10.333  -6.513  1.00  0.00     0.134 A 
ATOM     93  F   UNL     1     -10.954   9.785  -9.389  1.00  0.00    -0.206 F 
ATOM     94  C   UNL     1     -11.469   9.781  -7.098  1.00  0.00     0.040 A 
ATOM     95  C   UNL     1      -9.736  10.183  -5.477  1.00  0.00     0.040 A 
ATOM     96  F   UNL     1      -7.542  10.614  -6.188  1.00  0.00    -0.206 F 
ATOM     97  C   UNL     1     -11.071   9.915  -5.769  1.00  0.00     0.006 A 
ENDBRANCH  69  90
BRANCH  81  98
ATOM     98  C   UNL     1      -8.502  15.017 -12.839  1.00  0.00     0.057 A 
ATOM     99  C   UNL     1      -8.541  16.162 -12.032  1.00  0.00     0.134 A 
ATOM    100  C   UNL     1      -9.230  15.047 -14.036  1.00  0.00     0.134 A 
ATOM    101  F   UNL     1      -7.876  16.196 -10.867  1.00  0.00    -0.206 F 
ATOM    102  C   UNL     1      -9.296  17.281 -12.389  1.00  0.00     0.040 A 
ATOM    103  C   UNL     1      -9.961  16.172 -14.419  1.00  0.00     0.040 A 
ATOM    104  F   UNL     1      -9.227  13.991 -14.863  1.00  0.00    -0.206 F 
ATOM    105  C   UNL     1     -10.002  17.291 -13.590  1.00  0.00     0.006 A 
ENDBRANCH  81  98
ENDBRANCH  55  56
ENDBRANCH  48  50
ENDBRANCH  47  48
ENDBRANCH  46  47
ENDBRANCH  45  46
ENDBRANCH  44  45
ENDBRANCH  43  44
ENDBRANCH  42  43
ENDBRANCH  41  42
ENDBRANCH  40  41
ENDBRANCH   1  40
TORSDOF 31
