REMARK SMILES Cc1ccc(C)c(N2C(=O)S[C@H](CC(=O)Nc3ccc(C(=O)OCCOCCOCCOCCOC(=O)c4ccc(-c5c6nc(c(-c7c(F)cccc7F)c7ccc([nH]7)c(-c7c(F)cccc7F)c7nc(c(-c8c(F)cccc8F)c8ccc5[nH]8)C=C7)C=C6)cc4)c(O)c3)C2=O)c1
REMARK SMILES IDX 28 1 27 2 26 3 25 4 24 5 23 6 21 7 22 8 20 9 17 10 18 11
REMARK SMILES IDX 94 12 19 13 92 14 16 15 14 16 15 17 13 19 12 20 8 21 9 22
REMARK SMILES IDX 95 23 10 24 11 25 96 26 7 27 1 28 2 29 3 30 97 31 4 32 5 33
REMARK SMILES IDX 6 34 93 35 29 37 30 38 31 39 32 40 33 41 34 42 35 43 36 44
REMARK SMILES IDX 37 45 38 46 39 47 91 48 40 49 90 50 41 51 42 52 43 53 84 54
REMARK SMILES IDX 44 55 89 56 83 57 85 58 45 59 88 60 82 61 81 62 46 64 72 65
REMARK SMILES IDX 55 66 71 67 56 68 59 69 70 70 86 71 57 72 58 73 69 75 87 76
REMARK SMILES IDX 60 77 47 78 48 79 53 80 49 81 50 82 52 83 54 84 51 85 73 86
REMARK SMILES IDX 74 87 79 88 75 89 76 90 78 91 80 92 77 93 61 94 62 95 67 96
REMARK SMILES IDX 63 97 64 98 66 99 68 100 65 101
REMARK H PARENT 16 18 93 36 85 63 59 74
REMARK Flexibility Score: inf
ROOT
ATOM      1  C   UNL     1       3.075   6.000  -0.483  1.00  0.00     0.188 C 
ENDROOT
BRANCH   1   2
ATOM      2  C   UNL     1       2.941   5.463  -1.932  1.00  0.00     0.188 C 
BRANCH   2   3
ATOM      3  O   UNL     1       3.970   5.888  -2.802  1.00  0.00    -0.376 OA
BRANCH   3   4
ATOM      4  C   UNL     1       3.639   6.304  -4.109  1.00  0.00     0.202 C 
BRANCH   4   5
ATOM      5  C   UNL     1       2.792   7.574  -4.262  1.00  0.00     0.261 C 
BRANCH   5   6
ATOM      6  O   UNL     1       2.151   8.027  -3.045  1.00  0.00    -0.460 OA
BRANCH   6   7
ATOM      7  C   UNL     1       0.844   7.684  -2.970  1.00  0.00     0.341 C 
ATOM      8  O   UNL     1       0.216   7.164  -3.874  1.00  0.00    -0.246 OA
BRANCH   7   9
ATOM      9  C   UNL     1       0.278   7.805  -1.606  1.00  0.00     0.101 A 
ATOM     10  C   UNL     1      -1.292   7.682   0.763  1.00  0.00     0.044 A 
ATOM     11  C   UNL     1      -0.600   6.594   0.323  1.00  0.00     0.027 A 
ATOM     12  C   UNL     1      -1.032   8.910   0.102  1.00  0.00     0.073 A 
ATOM     13  C   UNL     1       0.062   6.636  -0.886  1.00  0.00     0.022 A 
ATOM     14  C   UNL     1      -0.193   8.975  -1.042  1.00  0.00     0.132 A 
BRANCH  10  15
ATOM     15  N   UNL     1      -2.341   7.524   1.701  1.00  0.00    -0.326 N 
ATOM     16  C   UNL     1      -2.875   6.412   2.336  1.00  0.00     0.226 C 
ATOM     17  O   UNL     1      -4.076   6.475   2.635  1.00  0.00    -0.275 OA
ATOM     18  H   UNL     1      -2.776   8.370   1.954  1.00  0.00     0.169 HD
BRANCH  16  19
ATOM     19  C   UNL     1      -2.079   5.146   2.789  1.00  0.00     0.125 C 
BRANCH  19  20
ATOM     20  C   UNL     1      -2.584   3.796   2.226  1.00  0.00     0.156 C 
ATOM     21  N   UNL     1      -1.260   1.892   1.408  1.00  0.00    -0.240 N 
ATOM     22  C   UNL     1      -1.215   2.709   0.322  1.00  0.00     0.293 C 
ATOM     23  C   UNL     1      -1.833   2.459   2.540  1.00  0.00     0.248 C 
ATOM     24  O   UNL     1      -0.381   2.708  -0.547  1.00  0.00    -0.261 OA
ATOM     25  S   UNL     1      -2.475   3.893   0.461  1.00  0.00    -0.050 SA
ATOM     26  O   UNL     1      -1.790   1.984   3.671  1.00  0.00    -0.273 OA
BRANCH  21  27
ATOM     27  C   UNL     1      -0.659   0.602   1.265  1.00  0.00     0.056 A 
ATOM     28  C   UNL     1       2.860  -0.850   0.665  1.00  0.00     0.044 C 
ATOM     29  C   UNL     1       1.369  -0.700   0.754  1.00  0.00    -0.049 A 
ATOM     30  C   UNL     1       0.584  -1.766   0.315  1.00  0.00     0.004 A 
ATOM     31  C   UNL     1       0.747   0.480   1.220  1.00  0.00     0.030 A 
ATOM     32  C   UNL     1      -0.798  -1.654   0.318  1.00  0.00     0.006 A 
ATOM     33  C   UNL     1      -1.429  -0.473   0.758  1.00  0.00    -0.027 A 
ATOM     34  C   UNL     1      -2.918  -0.422   0.579  1.00  0.00     0.046 C 
ENDBRANCH  21  27
ENDBRANCH  19  20
ENDBRANCH  16  19
ENDBRANCH  10  15
BRANCH  14  35
ATOM     35  O   UNL     1       0.113  10.195  -1.573  1.00  0.00    -0.507 OA
ATOM     36  H   UNL     1       0.665  10.253  -2.328  1.00  0.00     0.293 HD
ENDBRANCH  14  35
ENDBRANCH   7   9
ENDBRANCH   6   7
ENDBRANCH   5   6
ENDBRANCH   4   5
ENDBRANCH   3   4
ENDBRANCH   2   3
ENDBRANCH   1   2
BRANCH   1  37
ATOM     37  O   UNL     1       4.101   6.928  -0.160  1.00  0.00    -0.377 OA
BRANCH  37  38
ATOM     38  C   UNL     1       5.387   6.670  -0.703  1.00  0.00     0.188 C 
BRANCH  38  39
ATOM     39  C   UNL     1       5.963   5.264  -0.475  1.00  0.00     0.188 C 
BRANCH  39  40
ATOM     40  O   UNL     1       5.005   4.224  -0.629  1.00  0.00    -0.376 OA
BRANCH  40  41
ATOM     41  C   UNL     1       4.913   3.299   0.445  1.00  0.00     0.202 C 
BRANCH  41  42
ATOM     42  C   UNL     1       6.048   2.285   0.360  1.00  0.00     0.261 C 
BRANCH  42  43
ATOM     43  O   UNL     1       5.952   1.426  -0.804  1.00  0.00    -0.460 OA
BRANCH  43  44
ATOM     44  C   UNL     1       5.947   2.036  -2.028  1.00  0.00     0.338 C 
ATOM     45  O   UNL     1       6.936   2.510  -2.561  1.00  0.00    -0.246 OA
BRANCH  44  46
ATOM     46  C   UNL     1       4.553   2.063  -2.589  1.00  0.00     0.060 A 
ATOM     47  C   UNL     1       4.222   2.790  -3.728  1.00  0.00     0.016 A 
ATOM     48  C   UNL     1       3.512   1.469  -1.874  1.00  0.00     0.016 A 
ATOM     49  C   UNL     1       2.858   2.996  -4.052  1.00  0.00     0.010 A 
ATOM     50  C   UNL     1       2.169   1.755  -2.135  1.00  0.00     0.010 A 
ATOM     51  C   UNL     1       1.806   2.575  -3.204  1.00  0.00    -0.014 A 
BRANCH  51  52
ATOM     52  C   UNL     1       0.389   2.467  -3.674  1.00  0.00     0.031 A 
ATOM     53  C   UNL     1       0.435   1.585  -4.825  1.00  0.00     0.074 A 
ATOM     54  C   UNL     1      -0.808   3.069  -3.396  1.00  0.00     0.049 A 
ATOM     55  N   UNL     1       0.438   2.075  -6.022  1.00  0.00    -0.248 NA
ATOM     56  C   UNL     1       0.864   0.186  -4.735  1.00  0.00     0.031 C 
ATOM     57  C   UNL     1      -0.935   4.361  -2.784  1.00  0.00     0.029 A 
ATOM     58  N   UNL     1      -2.171   2.753  -3.620  1.00  0.00    -0.354 N 
ATOM     59  C   UNL     1       0.320   0.959  -6.803  1.00  0.00     0.074 A 
ATOM     60  C   UNL     1       0.886  -0.128  -6.034  1.00  0.00     0.031 C 
ATOM     61  C   UNL     1      -2.204   4.625  -2.421  1.00  0.00     0.029 A 
ATOM     62  C   UNL     1      -3.059   3.484  -2.759  1.00  0.00     0.049 A 
ATOM     63  H   UNL     1      -2.476   2.102  -4.293  1.00  0.00     0.167 HD
ATOM     64  C   UNL     1      -0.767   0.977  -7.613  1.00  0.00     0.037 A 
ATOM     65  C   UNL     1      -4.419   3.687  -2.740  1.00  0.00     0.037 A 
ATOM     66  C   UNL     1      -1.159   2.326  -7.986  1.00  0.00     0.049 A 
ATOM     67  C   UNL     1      -4.894   3.875  -4.108  1.00  0.00     0.074 A 
ATOM     68  C   UNL     1      -0.559   3.378  -8.655  1.00  0.00     0.029 A 
ATOM     69  N   UNL     1      -2.184   2.874  -7.259  1.00  0.00    -0.354 N 
ATOM     70  N   UNL     1      -4.665   4.956  -4.796  1.00  0.00    -0.248 NA
ATOM     71  C   UNL     1      -5.213   2.678  -4.872  1.00  0.00     0.031 C 
ATOM     72  C   UNL     1      -1.263   4.567  -8.304  1.00  0.00     0.029 A 
ATOM     73  C   UNL     1      -2.317   4.227  -7.470  1.00  0.00     0.049 A 
ATOM     74  H   UNL     1      -2.761   2.356  -6.653  1.00  0.00     0.167 HD
ATOM     75  C   UNL     1      -4.284   4.449  -6.019  1.00  0.00     0.074 A 
ATOM     76  C   UNL     1      -4.790   3.084  -6.068  1.00  0.00     0.031 C 
ATOM     77  C   UNL     1      -3.259   5.013  -6.707  1.00  0.00     0.037 A 
BRANCH  64  78
ATOM     78  C   UNL     1      -1.736  -0.165  -7.555  1.00  0.00     0.057 A 
ATOM     79  C   UNL     1      -2.551  -0.417  -8.654  1.00  0.00     0.134 A 
ATOM     80  C   UNL     1      -2.044  -0.897  -6.383  1.00  0.00     0.134 A 
ATOM     81  F   UNL     1      -2.414   0.299  -9.779  1.00  0.00    -0.206 F 
ATOM     82  C   UNL     1      -3.568  -1.375  -8.608  1.00  0.00     0.040 A 
ATOM     83  C   UNL     1      -2.998  -1.908  -6.346  1.00  0.00     0.040 A 
ATOM     84  F   UNL     1      -1.518  -0.599  -5.190  1.00  0.00    -0.206 F 
ATOM     85  C   UNL     1      -3.775  -2.143  -7.463  1.00  0.00     0.006 A 
ENDBRANCH  64  78
BRANCH  65  86
ATOM     86  C   UNL     1      -5.352   3.703  -1.567  1.00  0.00     0.057 A 
ATOM     87  C   UNL     1      -6.448   4.560  -1.387  1.00  0.00     0.134 A 
ATOM     88  C   UNL     1      -5.243   2.689  -0.604  1.00  0.00     0.134 A 
ATOM     89  F   UNL     1      -6.745   5.492  -2.303  1.00  0.00    -0.206 F 
ATOM     90  C   UNL     1      -7.305   4.469  -0.266  1.00  0.00     0.040 A 
ATOM     91  C   UNL     1      -6.051   2.607   0.541  1.00  0.00     0.040 A 
ATOM     92  F   UNL     1      -4.336   1.721  -0.782  1.00  0.00    -0.206 F 
ATOM     93  C   UNL     1      -7.087   3.510   0.721  1.00  0.00     0.006 A 
ENDBRANCH  65  86
BRANCH  77  94
ATOM     94  C   UNL     1      -3.095   6.495  -6.603  1.00  0.00     0.057 A 
ATOM     95  C   UNL     1      -2.500   7.169  -5.536  1.00  0.00     0.134 A 
ATOM     96  C   UNL     1      -3.531   7.277  -7.676  1.00  0.00     0.134 A 
ATOM     97  F   UNL     1      -2.118   6.500  -4.446  1.00  0.00    -0.206 F 
ATOM     98  C   UNL     1      -2.288   8.554  -5.558  1.00  0.00     0.040 A 
ATOM     99  C   UNL     1      -3.344   8.661  -7.709  1.00  0.00     0.040 A 
ATOM    100  F   UNL     1      -4.137   6.699  -8.724  1.00  0.00    -0.206 F 
ATOM    101  C   UNL     1      -2.707   9.305  -6.652  1.00  0.00     0.006 A 
ENDBRANCH  77  94
ENDBRANCH  51  52
ENDBRANCH  44  46
ENDBRANCH  43  44
ENDBRANCH  42  43
ENDBRANCH  41  42
ENDBRANCH  40  41
ENDBRANCH  39  40
ENDBRANCH  38  39
ENDBRANCH  37  38
ENDBRANCH   1  37
TORSDOF 25
