REMARK SMILES C[C@@H]1[C@@H](C(=O)OCCOCCOCCOCCOC(=O)c2ccc(-c3c4nc(c(-c5c(F)cccc5F)c5ccc([nH]5)c(-c5c(F)cccc5F)c5nc(c(-c6c(F)cccc6F)c6ccc3[nH]6)C=C5)C=C4)cc2)CCN1C(=O)CCCSc1ccccc1
REMARK SMILES IDX 10 1 9 2 8 3 7 4 6 5 4 6 5 7 3 8 1 9 2 10 77 11 75 12 76 13
REMARK SMILES IDX 78 14 79 15 80 16 81 17 82 18 83 19 84 20 85 21 89 22 86 23
REMARK SMILES IDX 88 24 87 25 11 26 12 27 13 28 14 29 15 30 16 31 17 32 18 33
REMARK SMILES IDX 19 34 20 35 21 36 22 37 74 38 23 39 73 40 24 41 25 42 26 43
REMARK SMILES IDX 67 44 27 45 72 46 66 47 68 48 28 49 71 50 65 51 64 52 29 54
REMARK SMILES IDX 55 55 38 56 54 57 39 58 42 59 53 60 69 61 40 62 41 63 52 65
REMARK SMILES IDX 70 66 43 67 30 68 31 69 36 70 32 71 33 72 35 73 37 74 34 75
REMARK SMILES IDX 56 76 57 77 62 78 58 79 59 80 61 81 63 82 60 83 44 84 45 85
REMARK SMILES IDX 50 86 46 87 47 88 49 89 51 90 48 91
REMARK H PARENT 68 53 42 64
REMARK Flexibility Score: inf
ROOT
ATOM      1  C   UNL     1       0.520   2.052  -3.227  1.00  0.00     0.188 C 
ENDROOT
BRANCH   1   2
ATOM      2  O   UNL     1      -0.151   2.093  -4.467  1.00  0.00    -0.376 OA
BRANCH   2   3
ATOM      3  C   UNL     1      -1.525   1.811  -4.678  1.00  0.00     0.202 C 
BRANCH   3   4
ATOM      4  C   UNL     1      -2.616   1.438  -3.656  1.00  0.00     0.261 C 
BRANCH   4   5
ATOM      5  O   UNL     1      -2.326   1.564  -2.273  1.00  0.00    -0.463 OA
BRANCH   5   6
ATOM      6  C   UNL     1      -1.717   0.476  -1.758  1.00  0.00     0.311 C 
ATOM      7  O   UNL     1      -1.466  -0.533  -2.404  1.00  0.00    -0.252 OA
BRANCH   6   8
ATOM      8  C   UNL     1      -1.300   0.723  -0.318  1.00  0.00     0.123 C 
ATOM      9  C   UNL     1       0.718   0.282   1.174  1.00  0.00     0.032 C 
ATOM     10  C   UNL     1      -0.108  -0.183  -0.018  1.00  0.00     0.096 C 
ATOM     11  N   UNL     1      -0.756  -1.471   0.206  1.00  0.00    -0.339 N 
ATOM     12  C   UNL     1      -2.355   0.226   0.655  1.00  0.00     0.039 C 
ATOM     13  C   UNL     1      -2.136  -1.285   0.642  1.00  0.00     0.121 C 
BRANCH  11  14
ATOM     14  C   UNL     1      -0.383  -2.634  -0.464  1.00  0.00     0.222 C 
ATOM     15  O   UNL     1      -1.185  -3.525  -0.744  1.00  0.00    -0.275 OA
BRANCH  14  16
ATOM     16  C   UNL     1       1.107  -2.822  -0.705  1.00  0.00     0.101 C 
BRANCH  16  17
ATOM     17  C   UNL     1       1.709  -2.503  -2.075  1.00  0.00     0.021 C 
BRANCH  17  18
ATOM     18  C   UNL     1       2.700  -1.321  -2.155  1.00  0.00     0.075 C 
BRANCH  18  19
ATOM     19  S   UNL     1       4.366  -1.393  -1.349  1.00  0.00    -0.126 SA
BRANCH  19  20
ATOM     20  C   UNL     1       4.042  -1.784   0.357  1.00  0.00     0.007 A 
ATOM     21  C   UNL     1       4.012  -0.809   1.360  1.00  0.00     0.015 A 
ATOM     22  C   UNL     1       3.843  -3.123   0.711  1.00  0.00     0.015 A 
ATOM     23  C   UNL     1       3.693  -1.164   2.679  1.00  0.00     0.001 A 
ATOM     24  C   UNL     1       3.482  -3.471   2.013  1.00  0.00     0.001 A 
ATOM     25  C   UNL     1       3.397  -2.490   2.997  1.00  0.00     0.000 A 
ENDBRANCH  19  20
ENDBRANCH  18  19
ENDBRANCH  17  18
ENDBRANCH  16  17
ENDBRANCH  14  16
ENDBRANCH  11  14
ENDBRANCH   6   8
ENDBRANCH   5   6
ENDBRANCH   4   5
ENDBRANCH   3   4
ENDBRANCH   2   3
ENDBRANCH   1   2
BRANCH   1  26
ATOM     26  C   UNL     1       0.296   3.207  -2.239  1.00  0.00     0.188 C 
BRANCH  26  27
ATOM     27  O   UNL     1      -0.981   3.801  -2.328  1.00  0.00    -0.377 OA
BRANCH  27  28
ATOM     28  C   UNL     1      -1.183   4.826  -3.298  1.00  0.00     0.188 C 
BRANCH  28  29
ATOM     29  C   UNL     1      -0.223   5.018  -4.498  1.00  0.00     0.188 C 
BRANCH  29  30
ATOM     30  O   UNL     1       1.147   4.799  -4.205  1.00  0.00    -0.376 OA
BRANCH  30  31
ATOM     31  C   UNL     1       1.992   5.930  -4.079  1.00  0.00     0.202 C 
BRANCH  31  32
ATOM     32  C   UNL     1       1.740   6.834  -2.864  1.00  0.00     0.261 C 
BRANCH  32  33
ATOM     33  O   UNL     1       0.411   7.367  -2.743  1.00  0.00    -0.460 OA
BRANCH  33  34
ATOM     34  C   UNL     1      -0.020   8.189  -3.722  1.00  0.00     0.338 C 
ATOM     35  O   UNL     1       0.613   8.573  -4.693  1.00  0.00    -0.246 OA
BRANCH  34  36
ATOM     36  C   UNL     1      -1.470   8.399  -3.535  1.00  0.00     0.060 A 
ATOM     37  C   UNL     1      -2.350   8.020  -4.558  1.00  0.00     0.016 A 
ATOM     38  C   UNL     1      -1.961   8.962  -2.354  1.00  0.00     0.016 A 
ATOM     39  C   UNL     1      -3.721   8.242  -4.419  1.00  0.00     0.010 A 
ATOM     40  C   UNL     1      -3.331   9.204  -2.226  1.00  0.00     0.010 A 
ATOM     41  C   UNL     1      -4.213   8.879  -3.273  1.00  0.00    -0.014 A 
BRANCH  41  42
ATOM     42  C   UNL     1      -5.603   9.398  -3.258  1.00  0.00     0.031 A 
ATOM     43  C   UNL     1      -5.823  10.853  -3.570  1.00  0.00     0.074 A 
ATOM     44  C   UNL     1      -6.652   8.599  -2.994  1.00  0.00     0.049 A 
ATOM     45  N   UNL     1      -6.930  11.550  -3.562  1.00  0.00    -0.248 NA
ATOM     46  C   UNL     1      -4.626  11.628  -3.939  1.00  0.00     0.031 C 
ATOM     47  C   UNL     1      -6.579   7.166  -2.723  1.00  0.00     0.029 A 
ATOM     48  N   UNL     1      -7.991   8.893  -2.903  1.00  0.00    -0.354 N 
ATOM     49  C   UNL     1      -6.562  12.843  -3.914  1.00  0.00     0.074 A 
ATOM     50  C   UNL     1      -5.127  12.843  -4.096  1.00  0.00     0.031 C 
ATOM     51  C   UNL     1      -7.820   6.706  -2.481  1.00  0.00     0.029 A 
ATOM     52  C   UNL     1      -8.767   7.818  -2.545  1.00  0.00     0.049 A 
ATOM     53  H   UNL     1      -8.358   9.790  -3.077  1.00  0.00     0.167 HD
ATOM     54  C   UNL     1      -7.350  13.932  -4.080  1.00  0.00     0.037 A 
ATOM     55  C   UNL     1     -10.086   7.750  -2.276  1.00  0.00     0.037 A 
ATOM     56  C   UNL     1      -8.776  13.932  -3.893  1.00  0.00     0.049 A 
ATOM     57  C   UNL     1     -10.930   8.995  -2.383  1.00  0.00     0.074 A 
ATOM     58  C   UNL     1      -9.665  14.981  -4.050  1.00  0.00     0.029 A 
ATOM     59  N   UNL     1      -9.521  12.832  -3.498  1.00  0.00    -0.354 N 
ATOM     60  N   UNL     1     -10.579  10.208  -2.739  1.00  0.00    -0.248 NA
ATOM     61  C   UNL     1     -12.357   8.861  -2.052  1.00  0.00     0.031 C 
ATOM     62  C   UNL     1     -10.939  14.531  -3.691  1.00  0.00     0.029 A 
ATOM     63  C   UNL     1     -10.855  13.184  -3.376  1.00  0.00     0.049 A 
ATOM     64  H   UNL     1      -9.156  11.933  -3.329  1.00  0.00     0.167 HD
ATOM     65  C   UNL     1     -11.744  10.968  -2.710  1.00  0.00     0.074 A 
ATOM     66  C   UNL     1     -12.813  10.077  -2.313  1.00  0.00     0.031 C 
ATOM     67  C   UNL     1     -11.913  12.284  -2.990  1.00  0.00     0.037 A 
BRANCH  54  68
ATOM     68  C   UNL     1      -6.677  15.223  -4.451  1.00  0.00     0.057 A 
ATOM     69  C   UNL     1      -6.104  15.427  -5.713  1.00  0.00     0.134 A 
ATOM     70  C   UNL     1      -6.628  16.286  -3.540  1.00  0.00     0.134 A 
ATOM     71  F   UNL     1      -6.101  14.444  -6.626  1.00  0.00    -0.206 F 
ATOM     72  C   UNL     1      -5.484  16.633  -6.047  1.00  0.00     0.040 A 
ATOM     73  C   UNL     1      -6.038  17.506  -3.873  1.00  0.00     0.040 A 
ATOM     74  F   UNL     1      -7.160  16.160  -2.315  1.00  0.00    -0.206 F 
ATOM     75  C   UNL     1      -5.457  17.680  -5.128  1.00  0.00     0.006 A 
ENDBRANCH  54  68
BRANCH  55  76
ATOM     76  C   UNL     1     -10.699   6.462  -1.858  1.00  0.00     0.057 A 
ATOM     77  C   UNL     1     -11.633   5.803  -2.667  1.00  0.00     0.134 A 
ATOM     78  C   UNL     1     -10.395   5.876  -0.622  1.00  0.00     0.134 A 
ATOM     79  F   UNL     1     -11.987   6.326  -3.851  1.00  0.00    -0.206 F 
ATOM     80  C   UNL     1     -12.258   4.625  -2.256  1.00  0.00     0.040 A 
ATOM     81  C   UNL     1     -10.990   4.682  -0.211  1.00  0.00     0.040 A 
ATOM     82  F   UNL     1      -9.510   6.455   0.203  1.00  0.00    -0.206 F 
ATOM     83  C   UNL     1     -11.932   4.058  -1.025  1.00  0.00     0.006 A 
ENDBRANCH  55  76
BRANCH  67  84
ATOM     84  C   UNL     1     -13.311  12.834  -2.926  1.00  0.00     0.057 A 
ATOM     85  C   UNL     1     -13.992  13.004  -1.714  1.00  0.00     0.134 A 
ATOM     86  C   UNL     1     -13.967  13.242  -4.096  1.00  0.00     0.134 A 
ATOM     87  F   UNL     1     -13.427  12.626  -0.558  1.00  0.00    -0.206 F 
ATOM     88  C   UNL     1     -15.284  13.532  -1.671  1.00  0.00     0.040 A 
ATOM     89  C   UNL     1     -15.245  13.801  -4.062  1.00  0.00     0.040 A 
ATOM     90  F   UNL     1     -13.369  13.120  -5.291  1.00  0.00    -0.206 F 
ATOM     91  C   UNL     1     -15.911  13.940  -2.847  1.00  0.00     0.006 A 
ENDBRANCH  67  84
ENDBRANCH  41  42
ENDBRANCH  34  36
ENDBRANCH  33  34
ENDBRANCH  32  33
ENDBRANCH  31  32
ENDBRANCH  30  31
ENDBRANCH  29  30
ENDBRANCH  28  29
ENDBRANCH  27  28
ENDBRANCH  26  27
ENDBRANCH   1  26
TORSDOF 26
