REMARK SMILES COc1ccc2c(c1)[C@H]([NH2+][C@H]1CCC[C@H](C(=O)OCCOCCOCCOCCOC(=O)c3ccc(-c4c5nc(c(-c6c(F)cccc6F)c6ccc([nH]6)c(-c6c(F)cccc6F)c6nc(c(-c7c(F)cccc7F)c7ccc4[nH]7)C=C6)C=C5)cc3)C1)CC2
REMARK SMILES IDX 23 1 22 2 21 3 20 4 19 5 18 6 16 7 17 8 15 9 11 10 12 11
REMARK SMILES IDX 87 12 13 13 14 14 10 15 9 18 3 19 4 20 8 21 5 22 7 23 6 24
REMARK SMILES IDX 89 25 88 26 2 27 1 28 24 29 25 30 26 31 27 32 28 33 29 34
REMARK SMILES IDX 30 35 31 36 32 37 33 38 34 39 86 40 35 41 85 42 36 43 37 44
REMARK SMILES IDX 38 45 79 46 39 47 84 48 78 49 80 50 40 51 83 52 77 53 76 54
REMARK SMILES IDX 41 56 67 57 50 58 66 59 51 60 54 61 65 62 81 63 52 64 53 65
REMARK SMILES IDX 64 67 82 68 55 69 42 70 43 71 48 72 44 73 45 74 47 75 49 76
REMARK SMILES IDX 46 77 68 78 69 79 74 80 70 81 71 82 73 83 75 84 72 85 56 86
REMARK SMILES IDX 57 87 62 88 58 89 59 90 61 91 63 92 60 93
REMARK H PARENT 10 16 10 17 80 55 54 66
REMARK Flexibility Score: inf
ROOT
ATOM      1  C   UNL     1      -6.694  -2.212   1.236  1.00  0.00     0.188 C 
ENDROOT
BRANCH   1   2
ATOM      2  C   UNL     1      -5.950  -2.983   0.134  1.00  0.00     0.188 C 
BRANCH   2   3
ATOM      3  O   UNL     1      -6.481  -4.196  -0.380  1.00  0.00    -0.376 OA
BRANCH   3   4
ATOM      4  C   UNL     1      -6.684  -5.340   0.442  1.00  0.00     0.202 C 
BRANCH   4   5
ATOM      5  C   UNL     1      -5.758  -5.736   1.601  1.00  0.00     0.261 C 
BRANCH   5   6
ATOM      6  O   UNL     1      -5.396  -4.668   2.477  1.00  0.00    -0.463 OA
BRANCH   6   7
ATOM      7  C   UNL     1      -4.085  -4.321   2.496  1.00  0.00     0.309 C 
ATOM      8  O   UNL     1      -3.207  -4.900   1.870  1.00  0.00    -0.252 OA
BRANCH   7   9
ATOM      9  C   UNL     1      -3.851  -3.027   3.269  1.00  0.00     0.105 C 
ATOM     10  C   UNL     1      -2.064  -1.906   4.803  1.00  0.00     0.183 C 
ATOM     11  C   UNL     1      -3.179  -1.752   5.845  1.00  0.00     0.065 C 
ATOM     12  C   UNL     1      -2.428  -3.054   3.842  1.00  0.00     0.080 C 
ATOM     13  C   UNL     1      -4.562  -1.581   5.234  1.00  0.00     0.007 C 
ATOM     14  C   UNL     1      -4.909  -2.768   4.354  1.00  0.00     0.016 C 
BRANCH  10  15
ATOM     15  N   UNL     1      -1.524  -0.682   4.183  1.00  0.00    -0.338 N 
ATOM     16  H   UNL     1      -1.198  -0.091   4.949  1.00  0.00     0.347 HD
ATOM     17  H   UNL     1      -0.836  -1.053   3.527  1.00  0.00     0.347 HD
BRANCH  15  18
ATOM     18  C   UNL     1      -2.343   0.161   3.335  1.00  0.00     0.214 C 
ATOM     19  C   UNL     1      -4.499   2.577   5.364  1.00  0.00     0.119 A 
ATOM     20  C   UNL     1      -4.747   3.509   4.353  1.00  0.00     0.047 A 
ATOM     21  C   UNL     1      -3.563   1.562   5.191  1.00  0.00     0.056 A 
ATOM     22  C   UNL     1      -4.064   3.417   3.138  1.00  0.00     0.008 A 
ATOM     23  C   UNL     1      -3.002   1.379   3.941  1.00  0.00     0.016 A 
ATOM     24  C   UNL     1      -3.199   2.348   2.945  1.00  0.00    -0.038 A 
ATOM     25  C   UNL     1      -2.435   1.995   1.704  1.00  0.00     0.042 C 
ATOM     26  C   UNL     1      -1.528   0.861   2.223  1.00  0.00     0.075 C 
BRANCH  19  27
ATOM     27  O   UNL     1      -5.195   2.591   6.543  1.00  0.00    -0.497 OA
ATOM     28  C   UNL     1      -6.558   2.216   6.320  1.00  0.00     0.278 C 
ENDBRANCH  19  27
ENDBRANCH  15  18
ENDBRANCH  10  15
ENDBRANCH   7   9
ENDBRANCH   6   7
ENDBRANCH   5   6
ENDBRANCH   4   5
ENDBRANCH   3   4
ENDBRANCH   2   3
ENDBRANCH   1   2
BRANCH   1  29
ATOM     29  O   UNL     1      -7.435  -3.035   2.112  1.00  0.00    -0.377 OA
BRANCH  29  30
ATOM     30  C   UNL     1      -8.818  -3.238   1.861  1.00  0.00     0.188 C 
BRANCH  30  31
ATOM     31  C   UNL     1      -9.378  -3.098   0.431  1.00  0.00     0.188 C 
BRANCH  31  32
ATOM     32  O   UNL     1      -8.914  -1.961  -0.280  1.00  0.00    -0.376 OA
BRANCH  32  33
ATOM     33  C   UNL     1      -9.737  -0.805  -0.312  1.00  0.00     0.202 C 
BRANCH  33  34
ATOM     34  C   UNL     1      -9.972  -0.073   1.020  1.00  0.00     0.261 C 
BRANCH  34  35
ATOM     35  O   UNL     1     -10.612  -0.833   2.059  1.00  0.00    -0.460 OA
BRANCH  35  36
ATOM     36  C   UNL     1     -11.827  -1.351   1.797  1.00  0.00     0.338 C 
ATOM     37  O   UNL     1     -12.496  -1.190   0.786  1.00  0.00    -0.246 OA
BRANCH  36  38
ATOM     38  C   UNL     1     -12.162  -2.315   2.863  1.00  0.00     0.060 A 
ATOM     39  C   UNL     1     -12.406  -3.649   2.514  1.00  0.00     0.016 A 
ATOM     40  C   UNL     1     -12.280  -1.897   4.191  1.00  0.00     0.016 A 
ATOM     41  C   UNL     1     -12.836  -4.557   3.480  1.00  0.00     0.010 A 
ATOM     42  C   UNL     1     -12.732  -2.803   5.156  1.00  0.00     0.010 A 
ATOM     43  C   UNL     1     -13.063  -4.122   4.792  1.00  0.00    -0.014 A 
BRANCH  43  44
ATOM     44  C   UNL     1     -13.891  -4.957   5.696  1.00  0.00     0.031 A 
ATOM     45  C   UNL     1     -15.358  -4.626   5.811  1.00  0.00     0.074 A 
ATOM     46  C   UNL     1     -13.384  -6.015   6.353  1.00  0.00     0.049 A 
ATOM     47  N   UNL     1     -16.279  -5.166   6.567  1.00  0.00    -0.248 NA
ATOM     48  C   UNL     1     -15.851  -3.535   4.951  1.00  0.00     0.031 C 
ATOM     49  C   UNL     1     -11.999  -6.477   6.279  1.00  0.00     0.029 A 
ATOM     50  N   UNL     1     -13.986  -6.892   7.221  1.00  0.00    -0.354 N 
ATOM     51  C   UNL     1     -17.454  -4.484   6.272  1.00  0.00     0.074 A 
ATOM     52  C   UNL     1     -17.125  -3.463   5.303  1.00  0.00     0.031 C 
ATOM     53  C   UNL     1     -11.853  -7.544   7.085  1.00  0.00     0.029 A 
ATOM     54  C   UNL     1     -13.123  -7.819   7.755  1.00  0.00     0.049 A 
ATOM     55  H   UNL     1     -14.945  -6.860   7.440  1.00  0.00     0.167 HD
ATOM     56  C   UNL     1     -18.701  -4.700   6.750  1.00  0.00     0.037 A 
ATOM     57  C   UNL     1     -13.335  -8.759   8.697  1.00  0.00     0.037 A 
ATOM     58  C   UNL     1     -19.029  -5.712   7.717  1.00  0.00     0.049 A 
ATOM     59  C   UNL     1     -14.717  -8.915   9.287  1.00  0.00     0.074 A 
ATOM     60  C   UNL     1     -20.258  -5.993   8.288  1.00  0.00     0.029 A 
ATOM     61  N   UNL     1     -18.122  -6.613   8.252  1.00  0.00    -0.354 N 
ATOM     62  N   UNL     1     -15.820  -8.262   9.006  1.00  0.00    -0.248 NA
ATOM     63  C   UNL     1     -14.885  -9.946  10.322  1.00  0.00     0.031 C 
ATOM     64  C   UNL     1     -20.086  -7.037   9.202  1.00  0.00     0.029 A 
ATOM     65  C   UNL     1     -18.764  -7.447   9.152  1.00  0.00     0.049 A 
ATOM     66  H   UNL     1     -17.165  -6.654   8.026  1.00  0.00     0.167 HD
ATOM     67  C   UNL     1     -16.816  -8.838   9.788  1.00  0.00     0.074 A 
ATOM     68  C   UNL     1     -16.189  -9.897  10.548  1.00  0.00     0.031 C 
ATOM     69  C   UNL     1     -18.131  -8.522   9.871  1.00  0.00     0.037 A 
BRANCH  56  70
ATOM     70  C   UNL     1     -19.804  -3.819   6.241  1.00  0.00     0.057 A 
ATOM     71  C   UNL     1     -20.294  -3.933   4.934  1.00  0.00     0.134 A 
ATOM     72  C   UNL     1     -20.418  -2.882   7.082  1.00  0.00     0.134 A 
ATOM     73  F   UNL     1     -19.737  -4.798   4.072  1.00  0.00    -0.206 F 
ATOM     74  C   UNL     1     -21.347  -3.139   4.477  1.00  0.00     0.040 A 
ATOM     75  C   UNL     1     -21.490  -2.102   6.646  1.00  0.00     0.040 A 
ATOM     76  F   UNL     1     -19.997  -2.722   8.346  1.00  0.00    -0.206 F 
ATOM     77  C   UNL     1     -21.955  -2.228   5.338  1.00  0.00     0.006 A 
ENDBRANCH  56  70
BRANCH  57  78
ATOM     78  C   UNL     1     -12.220  -9.617   9.181  1.00  0.00     0.057 A 
ATOM     79  C   UNL     1     -12.231 -11.006   8.994  1.00  0.00     0.134 A 
ATOM     80  C   UNL     1     -11.158  -9.079   9.917  1.00  0.00     0.134 A 
ATOM     81  F   UNL     1     -13.232 -11.588   8.318  1.00  0.00    -0.206 F 
ATOM     82  C   UNL     1     -11.254 -11.829   9.558  1.00  0.00     0.040 A 
ATOM     83  C   UNL     1     -10.156  -9.887  10.458  1.00  0.00     0.040 A 
ATOM     84  F   UNL     1     -11.083  -7.757  10.133  1.00  0.00    -0.206 F 
ATOM     85  C   UNL     1     -10.212 -11.269  10.293  1.00  0.00     0.006 A 
ENDBRANCH  57  78
BRANCH  69  86
ATOM     86  C   UNL     1     -19.000  -9.381  10.746  1.00  0.00     0.057 A 
ATOM     87  C   UNL     1     -18.906  -9.366  12.143  1.00  0.00     0.134 A 
ATOM     88  C   UNL     1     -19.972 -10.213  10.174  1.00  0.00     0.134 A 
ATOM     89  F   UNL     1     -17.992  -8.599  12.756  1.00  0.00    -0.206 F 
ATOM     90  C   UNL     1     -19.724 -10.173  12.938  1.00  0.00     0.040 A 
ATOM     91  C   UNL     1     -20.818 -10.998  10.959  1.00  0.00     0.040 A 
ATOM     92  F   UNL     1     -20.127 -10.265   8.842  1.00  0.00    -0.206 F 
ATOM     93  C   UNL     1     -20.688 -10.986  12.345  1.00  0.00     0.006 A 
ENDBRANCH  69  86
ENDBRANCH  43  44
ENDBRANCH  36  38
ENDBRANCH  35  36
ENDBRANCH  34  35
ENDBRANCH  33  34
ENDBRANCH  32  33
ENDBRANCH  31  32
ENDBRANCH  30  31
ENDBRANCH  29  30
ENDBRANCH   1  29
TORSDOF 23
