REMARK SMILES CCc1cccc2c3c([nH]c12)[C@](CC)(CC(=O)OCCOCCOCCOCCOC(=O)c1ccc(-c2c4nc(c(-c5c(F)cccc5F)c5ccc([nH]5)c(-c5c(F)cccc5F)c5nc(c(-c6c(F)cccc6F)c6ccc2[nH]6)C=C5)C=C4)cc1)OCC3
REMARK SMILES IDX 24 1 23 2 22 3 21 4 20 5 19 6 18 7 16 8 17 9 15 10 12 11
REMARK SMILES IDX 3 12 4 13 11 14 5 15 7 16 10 17 6 18 8 19 9 20 89 22 88 23
REMARK SMILES IDX 87 24 2 25 1 26 13 27 14 28 25 29 26 30 27 31 28 32 29 33
REMARK SMILES IDX 30 34 31 35 32 36 33 37 34 38 86 39 35 40 85 41 36 42 37 43
REMARK SMILES IDX 38 44 79 45 39 46 84 47 78 48 80 49 40 50 83 51 77 52 76 53
REMARK SMILES IDX 41 55 67 56 50 57 66 58 51 59 54 60 65 61 81 62 52 63 53 64
REMARK SMILES IDX 64 66 82 67 55 68 42 69 43 70 48 71 44 72 45 73 47 74 49 75
REMARK SMILES IDX 46 76 68 77 69 78 74 79 70 80 71 81 73 82 75 83 72 84 56 85
REMARK SMILES IDX 57 86 62 87 58 88 59 89 61 90 63 91 60 92
REMARK H PARENT 10 21 80 54 54 65
REMARK Flexibility Score: inf
ROOT
ATOM      1  O   UNL     1       5.221   4.387  -3.190  1.00  0.00    -0.377 OA
ENDROOT
BRANCH   1   2
ATOM      2  C   UNL     1       4.903   3.669  -2.030  1.00  0.00     0.188 C 
BRANCH   2   3
ATOM      3  C   UNL     1       6.069   3.531  -1.051  1.00  0.00     0.188 C 
BRANCH   3   4
ATOM      4  O   UNL     1       7.430   3.622  -1.477  1.00  0.00    -0.376 OA
BRANCH   4   5
ATOM      5  C   UNL     1       7.755   4.232  -2.717  1.00  0.00     0.202 C 
BRANCH   5   6
ATOM      6  C   UNL     1       7.727   3.289  -3.950  1.00  0.00     0.261 C 
BRANCH   6   7
ATOM      7  O   UNL     1       6.556   2.442  -4.145  1.00  0.00    -0.463 OA
BRANCH   7   8
ATOM      8  C   UNL     1       6.511   1.316  -3.401  1.00  0.00     0.309 C 
ATOM      9  O   UNL     1       7.425   0.973  -2.649  1.00  0.00    -0.252 OA
BRANCH   8  10
ATOM     10  C   UNL     1       5.367   0.341  -3.660  1.00  0.00     0.164 C 
BRANCH  10  11
ATOM     11  C   UNL     1       3.858   0.495  -3.998  1.00  0.00     0.118 C 
ATOM     12  C   UNL     1       0.962   1.375   0.133  1.00  0.00    -0.024 A 
ATOM     13  C   UNL     1       0.225   2.511   0.534  1.00  0.00     0.006 A 
ATOM     14  C   UNL     1       1.624   1.463  -1.119  1.00  0.00     0.049 A 
ATOM     15  C   UNL     1      -0.129   3.493  -0.370  1.00  0.00     0.001 A 
ATOM     16  C   UNL     1       1.290   2.454  -2.049  1.00  0.00     0.003 A 
ATOM     17  N   UNL     1       2.586   0.667  -1.726  1.00  0.00    -0.356 N 
ATOM     18  C   UNL     1       0.285   3.381  -1.695  1.00  0.00     0.010 A 
ATOM     19  C   UNL     1       2.080   2.222  -3.218  1.00  0.00    -0.014 A 
ATOM     20  C   UNL     1       2.910   1.140  -2.982  1.00  0.00     0.052 A 
ATOM     21  H   UNL     1       2.987  -0.132  -1.314  1.00  0.00     0.166 HD
ATOM     22  C   UNL     1       2.115   2.916  -4.532  1.00  0.00     0.066 C 
ATOM     23  C   UNL     1       3.372   2.509  -5.318  1.00  0.00     0.166 C 
ATOM     24  O   UNL     1       3.633   1.103  -5.293  1.00  0.00    -0.368 OA
BRANCH  12  25
ATOM     25  C   UNL     1       0.854   0.180   1.056  1.00  0.00     0.034 C 
ATOM     26  C   UNL     1       1.106  -1.173   0.417  1.00  0.00     0.009 C 
ENDBRANCH  12  25
BRANCH  11  27
ATOM     27  C   UNL     1       3.302  -0.969  -4.190  1.00  0.00     0.039 C 
ATOM     28  C   UNL     1       3.971  -1.790  -5.290  1.00  0.00     0.007 C 
ENDBRANCH  11  27
ENDBRANCH  10  11
ENDBRANCH   8  10
ENDBRANCH   7   8
ENDBRANCH   6   7
ENDBRANCH   5   6
ENDBRANCH   4   5
ENDBRANCH   3   4
ENDBRANCH   2   3
ENDBRANCH   1   2
BRANCH   1  29
ATOM     29  C   UNL     1       4.651   5.638  -3.448  1.00  0.00     0.188 C 
BRANCH  29  30
ATOM     30  C   UNL     1       4.530   6.612  -2.284  1.00  0.00     0.188 C 
BRANCH  30  31
ATOM     31  O   UNL     1       3.706   6.118  -1.250  1.00  0.00    -0.376 OA
BRANCH  31  32
ATOM     32  C   UNL     1       2.296   6.290  -1.302  1.00  0.00     0.202 C 
BRANCH  32  33
ATOM     33  C   UNL     1       1.463   6.312  -2.598  1.00  0.00     0.261 C 
BRANCH  33  34
ATOM     34  O   UNL     1       2.102   6.892  -3.716  1.00  0.00    -0.460 OA
BRANCH  34  35
ATOM     35  C   UNL     1       1.688   8.046  -4.276  1.00  0.00     0.338 C 
ATOM     36  O   UNL     1       0.748   8.734  -4.003  1.00  0.00    -0.246 OA
BRANCH  35  37
ATOM     37  C   UNL     1       2.912   8.380  -5.033  1.00  0.00     0.060 A 
ATOM     38  C   UNL     1       3.408   7.467  -5.972  1.00  0.00     0.016 A 
ATOM     39  C   UNL     1       3.738   9.323  -4.408  1.00  0.00     0.016 A 
ATOM     40  C   UNL     1       4.776   7.438  -6.193  1.00  0.00     0.010 A 
ATOM     41  C   UNL     1       5.110   9.267  -4.608  1.00  0.00     0.010 A 
ATOM     42  C   UNL     1       5.633   8.307  -5.474  1.00  0.00    -0.014 A 
BRANCH  42  43
ATOM     43  C   UNL     1       6.989   8.471  -6.003  1.00  0.00     0.031 A 
ATOM     44  C   UNL     1       6.843   8.972  -7.394  1.00  0.00     0.074 A 
ATOM     45  C   UNL     1       8.183   8.363  -5.382  1.00  0.00     0.049 A 
ATOM     46  N   UNL     1       7.054   8.303  -8.476  1.00  0.00    -0.248 NA
ATOM     47  C   UNL     1       6.060  10.210  -7.595  1.00  0.00     0.031 C 
ATOM     48  C   UNL     1       8.449   8.119  -3.963  1.00  0.00     0.029 A 
ATOM     49  N   UNL     1       9.444   8.535  -5.896  1.00  0.00    -0.354 N 
ATOM     50  C   UNL     1       6.661   9.157  -9.499  1.00  0.00     0.074 A 
ATOM     51  C   UNL     1       5.826  10.160  -8.906  1.00  0.00     0.031 C 
ATOM     52  C   UNL     1       9.753   8.379  -3.696  1.00  0.00     0.029 A 
ATOM     53  C   UNL     1      10.446   8.693  -4.936  1.00  0.00     0.049 A 
ATOM     54  H   UNL     1       9.627   8.546  -6.863  1.00  0.00     0.167 HD
ATOM     55  C   UNL     1       7.391   9.201 -10.642  1.00  0.00     0.037 A 
ATOM     56  C   UNL     1      11.734   9.078  -5.149  1.00  0.00     0.037 A 
ATOM     57  C   UNL     1       8.191   8.009 -10.777  1.00  0.00     0.049 A 
ATOM     58  C   UNL     1      12.044   8.836  -6.573  1.00  0.00     0.074 A 
ATOM     59  C   UNL     1       7.968   6.679 -11.059  1.00  0.00     0.029 A 
ATOM     60  N   UNL     1       9.402   8.095 -10.145  1.00  0.00    -0.354 N 
ATOM     61  N   UNL     1      12.192   7.645  -7.077  1.00  0.00    -0.248 NA
ATOM     62  C   UNL     1      11.861   9.910  -7.544  1.00  0.00     0.031 C 
ATOM     63  C   UNL     1       9.034   5.955 -10.446  1.00  0.00     0.029 A 
ATOM     64  C   UNL     1       9.904   6.860  -9.845  1.00  0.00     0.049 A 
ATOM     65  H   UNL     1       9.855   8.942  -9.932  1.00  0.00     0.167 HD
ATOM     66  C   UNL     1      11.665   7.753  -8.346  1.00  0.00     0.074 A 
ATOM     67  C   UNL     1      11.659   9.180  -8.645  1.00  0.00     0.031 C 
ATOM     68  C   UNL     1      10.972   6.712  -8.886  1.00  0.00     0.037 A 
BRANCH  55  69
ATOM     69  C   UNL     1       7.828  10.513 -11.264  1.00  0.00     0.057 A 
ATOM     70  C   UNL     1       7.893  11.751 -10.582  1.00  0.00     0.134 A 
ATOM     71  C   UNL     1       8.518  10.475 -12.485  1.00  0.00     0.134 A 
ATOM     72  F   UNL     1       7.381  11.944  -9.363  1.00  0.00    -0.206 F 
ATOM     73  C   UNL     1       8.595  12.855 -11.066  1.00  0.00     0.040 A 
ATOM     74  C   UNL     1       9.268  11.562 -12.955  1.00  0.00     0.040 A 
ATOM     75  F   UNL     1       8.555   9.352 -13.217  1.00  0.00    -0.206 F 
ATOM     76  C   UNL     1       9.313  12.754 -12.242  1.00  0.00     0.006 A 
ENDBRANCH  55  69
BRANCH  56  77
ATOM     77  C   UNL     1      12.715   9.783  -4.286  1.00  0.00     0.057 A 
ATOM     78  C   UNL     1      12.296  10.758  -3.369  1.00  0.00     0.134 A 
ATOM     79  C   UNL     1      14.097   9.749  -4.554  1.00  0.00     0.134 A 
ATOM     80  F   UNL     1      10.995  10.921  -3.090  1.00  0.00    -0.206 F 
ATOM     81  C   UNL     1      13.187  11.666  -2.780  1.00  0.00     0.040 A 
ATOM     82  C   UNL     1      14.999  10.652  -3.973  1.00  0.00     0.040 A 
ATOM     83  F   UNL     1      14.599   8.880  -5.444  1.00  0.00    -0.206 F 
ATOM     84  C   UNL     1      14.541  11.627  -3.093  1.00  0.00     0.006 A 
ENDBRANCH  56  77
BRANCH  68  85
ATOM     85  C   UNL     1      11.262   5.354  -8.334  1.00  0.00     0.057 A 
ATOM     86  C   UNL     1      11.873   4.424  -9.181  1.00  0.00     0.134 A 
ATOM     87  C   UNL     1      10.941   4.928  -7.037  1.00  0.00     0.134 A 
ATOM     88  F   UNL     1      12.175   4.760 -10.445  1.00  0.00    -0.206 F 
ATOM     89  C   UNL     1      12.167   3.128  -8.761  1.00  0.00     0.040 A 
ATOM     90  C   UNL     1      11.262   3.642  -6.592  1.00  0.00     0.040 A 
ATOM     91  F   UNL     1      10.291   5.731  -6.182  1.00  0.00    -0.206 F 
ATOM     92  C   UNL     1      11.874   2.737  -7.457  1.00  0.00     0.006 A 
ENDBRANCH  68  85
ENDBRANCH  42  43
ENDBRANCH  35  37
ENDBRANCH  34  35
ENDBRANCH  33  34
ENDBRANCH  32  33
ENDBRANCH  31  32
ENDBRANCH  30  31
ENDBRANCH  29  30
ENDBRANCH   1  29
TORSDOF 23
