REMARK SMILES CN1C(=O)C[C@@H](C(=O)OCCOCCOCCOCCOC(=O)c2ccc(-c3c4nc(c(-c5c(F)cccc5F)c5ccc([nH]5)c(-c5c(F)cccc5F)c5nc(c(-c6c(F)cccc6F)c6ccc3[nH]6)C=C5)C=C4)cc2)C12CCN(C(=O)c1cccc3ccccc13)CC2
REMARK SMILES IDX 16 1 15 2 14 3 13 4 12 5 11 6 10 7 9 8 7 9 8 10 6 11 1 12
REMARK SMILES IDX 2 13 3 14 78 15 4 16 5 17 79 18 95 19 80 20 94 21 81 22
REMARK SMILES IDX 82 23 83 24 84 25 85 26 93 27 86 28 88 29 92 30 87 31 89 32
REMARK SMILES IDX 91 33 90 34 17 35 18 36 19 37 20 38 21 39 22 40 23 41 24 42
REMARK SMILES IDX 25 43 77 44 26 45 76 46 27 47 28 48 29 49 70 50 30 51 75 52
REMARK SMILES IDX 69 53 71 54 31 55 74 56 68 57 67 58 32 60 58 61 41 62 57 63
REMARK SMILES IDX 42 64 45 65 56 66 72 67 43 68 44 69 55 71 73 72 46 73 33 74
REMARK SMILES IDX 34 75 39 76 35 77 36 78 38 79 40 80 37 81 59 82 60 83 65 84
REMARK SMILES IDX 61 85 62 86 64 87 66 88 63 89 47 90 48 91 53 92 49 93 50 94
REMARK SMILES IDX 52 95 54 96 51 97
REMARK H PARENT 71 59 45 70
REMARK Flexibility Score: inf
ROOT
ATOM      1  C   UNL     1       0.877  -3.639  -5.046  1.00  0.00     0.188 C 
ENDROOT
BRANCH   1   2
ATOM      2  O   UNL     1       0.017  -2.502  -4.987  1.00  0.00    -0.377 OA
BRANCH   2   3
ATOM      3  C   UNL     1      -0.967  -2.296  -5.985  1.00  0.00     0.188 C 
BRANCH   3   4
ATOM      4  C   UNL     1      -0.561  -1.366  -7.125  1.00  0.00     0.188 C 
BRANCH   4   5
ATOM      5  O   UNL     1       0.764  -1.495  -7.600  1.00  0.00    -0.376 OA
BRANCH   5   6
ATOM      6  C   UNL     1       1.838  -0.979  -6.813  1.00  0.00     0.202 C 
BRANCH   6   7
ATOM      7  C   UNL     1       1.664   0.221  -5.859  1.00  0.00     0.261 C 
BRANCH   7   8
ATOM      8  O   UNL     1       1.044  -0.049  -4.566  1.00  0.00    -0.463 OA
BRANCH   8   9
ATOM      9  C   UNL     1      -0.154   0.542  -4.364  1.00  0.00     0.311 C 
ATOM     10  O   UNL     1      -0.761   1.153  -5.247  1.00  0.00    -0.252 OA
BRANCH   9  11
ATOM     11  C   UNL     1      -0.705   0.625  -2.949  1.00  0.00     0.134 C 
ATOM     12  C   UNL     1       1.393   0.107   0.140  1.00  0.00     0.147 C 
ATOM     13  N   UNL     1       0.735   0.479  -1.100  1.00  0.00    -0.339 N 
ATOM     14  C   UNL     1       0.795   1.807  -1.509  1.00  0.00     0.223 C 
ATOM     15  C   UNL     1      -0.399  -0.252  -1.700  1.00  0.00     0.060 C 
ATOM     16  O   UNL     1       1.542   2.667  -1.073  1.00  0.00    -0.275 OA
ATOM     17  C   UNL     1      -0.304   2.046  -2.502  1.00  0.00     0.118 C 
ATOM     18  C   UNL     1      -0.076  -1.745  -1.929  1.00  0.00     0.051 C 
ATOM     19  C   UNL     1      -1.603  -0.159  -0.704  1.00  0.00     0.051 C 
ATOM     20  C   UNL     1      -1.287  -2.655  -2.195  1.00  0.00     0.122 C 
ATOM     21  C   UNL     1      -2.773  -1.064  -1.066  1.00  0.00     0.122 C 
ATOM     22  N   UNL     1      -2.354  -2.447  -1.223  1.00  0.00    -0.338 N 
ATOM     23  C   UNL     1      -3.121  -3.436  -0.600  1.00  0.00     0.254 C 
ATOM     24  O   UNL     1      -3.947  -3.191   0.278  1.00  0.00    -0.269 OA
BRANCH  23  25
ATOM     25  C   UNL     1      -3.072  -4.839  -1.071  1.00  0.00     0.047 A 
ATOM     26  C   UNL     1      -4.063  -5.195  -2.000  1.00  0.00     0.014 A 
ATOM     27  C   UNL     1      -2.195  -5.811  -0.528  1.00  0.00    -0.006 A 
ATOM     28  C   UNL     1      -4.196  -6.517  -2.413  1.00  0.00     0.001 A 
ATOM     29  C   UNL     1      -2.335  -7.153  -0.974  1.00  0.00    -0.018 A 
ATOM     30  C   UNL     1      -1.177  -5.529   0.410  1.00  0.00     0.009 A 
ATOM     31  C   UNL     1      -3.344  -7.490  -1.895  1.00  0.00     0.009 A 
ATOM     32  C   UNL     1      -1.428  -8.134  -0.541  1.00  0.00     0.009 A 
ATOM     33  C   UNL     1      -0.286  -6.521   0.833  1.00  0.00     0.001 A 
ATOM     34  C   UNL     1      -0.399  -7.816   0.343  1.00  0.00     0.001 A 
ENDBRANCH  23  25
ENDBRANCH   9  11
ENDBRANCH   8   9
ENDBRANCH   7   8
ENDBRANCH   6   7
ENDBRANCH   5   6
ENDBRANCH   4   5
ENDBRANCH   3   4
ENDBRANCH   2   3
ENDBRANCH   1   2
BRANCH   1  35
ATOM     35  C   UNL     1       0.625  -4.730  -6.094  1.00  0.00     0.188 C 
BRANCH  35  36
ATOM     36  O   UNL     1      -0.664  -5.349  -6.087  1.00  0.00    -0.376 OA
BRANCH  36  37
ATOM     37  C   UNL     1      -1.265  -5.567  -4.813  1.00  0.00     0.202 C 
BRANCH  37  38
ATOM     38  C   UNL     1      -0.602  -6.677  -4.020  1.00  0.00     0.261 C 
BRANCH  38  39
ATOM     39  O   UNL     1       0.735  -6.330  -3.659  1.00  0.00    -0.460 OA
BRANCH  39  40
ATOM     40  C   UNL     1       1.523  -7.396  -3.423  1.00  0.00     0.338 C 
ATOM     41  O   UNL     1       1.231  -8.575  -3.442  1.00  0.00    -0.246 OA
BRANCH  40  42
ATOM     42  C   UNL     1       2.876  -6.897  -3.186  1.00  0.00     0.060 A 
ATOM     43  C   UNL     1       3.765  -6.858  -4.262  1.00  0.00     0.016 A 
ATOM     44  C   UNL     1       3.285  -6.610  -1.882  1.00  0.00     0.016 A 
ATOM     45  C   UNL     1       5.111  -6.620  -4.015  1.00  0.00     0.010 A 
ATOM     46  C   UNL     1       4.633  -6.361  -1.639  1.00  0.00     0.010 A 
ATOM     47  C   UNL     1       5.553  -6.431  -2.697  1.00  0.00    -0.014 A 
BRANCH  47  48
ATOM     48  C   UNL     1       7.002  -6.522  -2.422  1.00  0.00     0.031 A 
ATOM     49  C   UNL     1       7.564  -7.843  -1.978  1.00  0.00     0.074 A 
ATOM     50  C   UNL     1       7.797  -5.462  -2.634  1.00  0.00     0.049 A 
ATOM     51  N   UNL     1       8.806  -8.182  -1.753  1.00  0.00    -0.248 NA
ATOM     52  C   UNL     1       6.595  -8.931  -1.760  1.00  0.00     0.031 C 
ATOM     53  C   UNL     1       7.343  -4.146  -3.079  1.00  0.00     0.029 A 
ATOM     54  N   UNL     1       9.153  -5.331  -2.509  1.00  0.00    -0.354 N 
ATOM     55  C   UNL     1       8.768  -9.519  -1.378  1.00  0.00     0.074 A 
ATOM     56  C   UNL     1       7.380  -9.921  -1.365  1.00  0.00     0.031 C 
ATOM     57  C   UNL     1       8.408  -3.334  -3.188  1.00  0.00     0.029 A 
ATOM     58  C   UNL     1       9.610  -4.073  -2.807  1.00  0.00     0.049 A 
ATOM     59  H   UNL     1       9.744  -6.069  -2.232  1.00  0.00     0.167 HD
ATOM     60  C   UNL     1       9.803 -10.342  -1.087  1.00  0.00     0.037 A 
ATOM     61  C   UNL     1      10.861  -3.579  -2.769  1.00  0.00     0.037 A 
ATOM     62  C   UNL     1      11.179  -9.924  -1.095  1.00  0.00     0.049 A 
ATOM     63  C   UNL     1      11.993  -4.499  -2.406  1.00  0.00     0.074 A 
ATOM     64  C   UNL     1      12.312 -10.669  -0.825  1.00  0.00     0.029 A 
ATOM     65  N   UNL     1      11.603  -8.634  -1.381  1.00  0.00    -0.354 N 
ATOM     66  N   UNL     1      11.952  -5.773  -2.093  1.00  0.00    -0.248 NA
ATOM     67  C   UNL     1      13.343  -3.922  -2.402  1.00  0.00     0.031 C 
ATOM     68  C   UNL     1      13.421  -9.817  -0.909  1.00  0.00     0.029 A 
ATOM     69  C   UNL     1      12.980  -8.554  -1.273  1.00  0.00     0.049 A 
ATOM     70  H   UNL     1      11.012  -7.886  -1.626  1.00  0.00     0.167 HD
ATOM     71  C   UNL     1      13.268  -6.154  -1.869  1.00  0.00     0.074 A 
ATOM     72  C   UNL     1      14.085  -4.979  -2.100  1.00  0.00     0.031 C 
ATOM     73  C   UNL     1      13.761  -7.364  -1.504  1.00  0.00     0.037 A 
BRANCH  60  74
ATOM     74  C   UNL     1       9.472 -11.758  -0.716  1.00  0.00     0.057 A 
ATOM     75  C   UNL     1       9.010 -12.682  -1.662  1.00  0.00     0.134 A 
ATOM     76  C   UNL     1       9.612 -12.202   0.605  1.00  0.00     0.134 A 
ATOM     77  F   UNL     1       8.835 -12.316  -2.941  1.00  0.00    -0.206 F 
ATOM     78  C   UNL     1       8.674 -13.990  -1.304  1.00  0.00     0.040 A 
ATOM     79  C   UNL     1       9.301 -13.513   0.971  1.00  0.00     0.040 A 
ATOM     80  F   UNL     1      10.047 -11.369   1.561  1.00  0.00    -0.206 F 
ATOM     81  C   UNL     1       8.823 -14.409   0.017  1.00  0.00     0.006 A 
ENDBRANCH  60  74
BRANCH  61  82
ATOM     82  C   UNL     1      11.093  -2.149  -3.087  1.00  0.00     0.057 A 
ATOM     83  C   UNL     1      11.726  -1.756  -4.272  1.00  0.00     0.134 A 
ATOM     84  C   UNL     1      10.656  -1.137  -2.223  1.00  0.00     0.134 A 
ATOM     85  F   UNL     1      12.180  -2.678  -5.133  1.00  0.00    -0.206 F 
ATOM     86  C   UNL     1      11.921  -0.409  -4.583  1.00  0.00     0.040 A 
ATOM     87  C   UNL     1      10.824   0.213  -2.531  1.00  0.00     0.040 A 
ATOM     88  F   UNL     1      10.037  -1.450  -1.075  1.00  0.00    -0.206 F 
ATOM     89  C   UNL     1      11.462   0.580  -3.714  1.00  0.00     0.006 A 
ENDBRANCH  61  82
BRANCH  73  90
ATOM     90  C   UNL     1      15.247  -7.470  -1.343  1.00  0.00     0.057 A 
ATOM     91  C   UNL     1      15.906  -6.923  -0.236  1.00  0.00     0.134 A 
ATOM     92  C   UNL     1      16.019  -8.162  -2.285  1.00  0.00     0.134 A 
ATOM     93  F   UNL     1      15.222  -6.239   0.693  1.00  0.00    -0.206 F 
ATOM     94  C   UNL     1      17.288  -7.043  -0.081  1.00  0.00     0.040 A 
ATOM     95  C   UNL     1      17.397  -8.309  -2.128  1.00  0.00     0.040 A 
ATOM     96  F   UNL     1      15.444  -8.718  -3.362  1.00  0.00    -0.206 F 
ATOM     97  C   UNL     1      18.036  -7.743  -1.026  1.00  0.00     0.006 A 
ENDBRANCH  73  90
ENDBRANCH  47  48
ENDBRANCH  40  42
ENDBRANCH  39  40
ENDBRANCH  38  39
ENDBRANCH  37  38
ENDBRANCH  36  37
ENDBRANCH  35  36
ENDBRANCH   1  35
TORSDOF 21
