REMARK SMILES Cc1ccc(NC(=O)C[C@H]([NH2+]Cc2cccnc2)C(=O)OCCOCCOCCOCCOC(=O)c2ccc(-c3c4nc(c(-c5c(F)cccc5F)c5ccc([nH]5)c(-c5c(F)cccc5F)c5nc(c(-c6c(F)cccc6F)c6ccc3[nH]6)C=C5)C=C4)cc2)cc1Cl
REMARK SMILES IDX 26 1 25 2 24 3 23 4 22 5 21 6 19 7 20 8 10 9 9 10 7 11 6 12
REMARK SMILES IDX 8 14 5 15 1 16 2 17 3 18 91 19 4 20 90 21 92 22 11 23 12 26
REMARK SMILES IDX 13 27 14 28 18 29 15 30 17 31 16 32 27 33 28 34 29 35 30 36
REMARK SMILES IDX 31 37 32 38 33 39 34 40 35 41 36 42 37 43 89 44 38 45 88 46
REMARK SMILES IDX 39 47 40 48 41 49 82 50 42 51 87 52 81 53 83 54 43 55 86 56
REMARK SMILES IDX 80 57 79 58 44 60 70 61 53 62 69 63 54 64 57 65 68 66 84 67
REMARK SMILES IDX 55 68 56 69 67 71 85 72 58 73 45 74 46 75 51 76 47 77 48 78
REMARK SMILES IDX 50 79 52 80 49 81 71 82 72 83 77 84 73 85 74 86 76 87 78 88
REMARK SMILES IDX 75 89 59 90 60 91 65 92 61 93 62 94 64 95 66 96 63 97
REMARK H PARENT 6 13 11 24 11 25 83 59 57 70
REMARK Flexibility Score: inf
ROOT
ATOM      1  C   UNL     1       2.209  -5.381  -0.784  1.00  0.00     0.188 C 
ENDROOT
BRANCH   1   2
ATOM      2  C   UNL     1       2.937  -5.330  -2.123  1.00  0.00     0.188 C 
BRANCH   2   3
ATOM      3  O   UNL     1       3.933  -4.354  -2.400  1.00  0.00    -0.376 OA
BRANCH   3   4
ATOM      4  C   UNL     1       4.183  -3.294  -1.495  1.00  0.00     0.202 C 
BRANCH   4   5
ATOM      5  C   UNL     1       3.154  -2.154  -1.463  1.00  0.00     0.261 C 
BRANCH   5   6
ATOM      6  O   UNL     1       1.810  -2.442  -1.021  1.00  0.00    -0.459 OA
BRANCH   6   7
ATOM      7  C   UNL     1       0.847  -2.571  -1.977  1.00  0.00     0.365 C 
ATOM      8  O   UNL     1       1.078  -2.799  -3.160  1.00  0.00    -0.245 OA
BRANCH   7   9
ATOM      9  C   UNL     1      -0.589  -2.313  -1.447  1.00  0.00     0.303 C 
BRANCH   9  10
ATOM     10  C   UNL     1      -0.620  -0.973  -0.725  1.00  0.00     0.177 C 
BRANCH  10  11
ATOM     11  C   UNL     1       0.188  -0.544   0.495  1.00  0.00     0.231 C 
ATOM     12  N   UNL     1       0.338  -1.124   1.708  1.00  0.00    -0.326 N 
ATOM     13  H   UNL     1       0.598  -0.447   2.373  1.00  0.00     0.169 HD
ATOM     14  O   UNL     1       0.621   0.626   0.458  1.00  0.00    -0.274 OA
BRANCH  12  15
ATOM     15  C   UNL     1       0.240  -2.383   2.320  1.00  0.00     0.042 A 
ATOM     16  C   UNL     1      -0.244  -6.129   4.474  1.00  0.00     0.046 C 
ATOM     17  C   UNL     1      -0.015  -4.847   3.732  1.00  0.00    -0.032 A 
ATOM     18  C   UNL     1       0.095  -3.633   4.417  1.00  0.00     0.007 A 
ATOM     19  C   UNL     1       0.043  -4.811   2.341  1.00  0.00     0.046 A 
ATOM     20  C   UNL     1       0.211  -2.420   3.718  1.00  0.00     0.026 A 
ATOM     21  C   UNL     1       0.242  -3.598   1.667  1.00  0.00     0.047 A 
ATOM     22  Cl  UNL     1      -0.190  -6.254   1.410  1.00  0.00    -0.084 Cl
ENDBRANCH  12  15
ENDBRANCH  10  11
ENDBRANCH   9  10
BRANCH   9  23
ATOM     23  N   UNL     1      -1.262  -3.465  -0.794  1.00  0.00    -0.330 N 
ATOM     24  H   UNL     1      -0.748  -3.689   0.058  1.00  0.00     0.347 HD
ATOM     25  H   UNL     1      -1.262  -4.220  -1.480  1.00  0.00     0.347 HD
BRANCH  23  26
ATOM     26  C   UNL     1      -2.670  -3.240  -0.432  1.00  0.00     0.299 C 
BRANCH  26  27
ATOM     27  C   UNL     1      -3.085  -3.924   0.851  1.00  0.00     0.024 A 
ATOM     28  C   UNL     1      -3.428  -5.277   0.908  1.00  0.00     0.013 A 
ATOM     29  C   UNL     1      -3.159  -3.212   2.050  1.00  0.00     0.120 A 
ATOM     30  C   UNL     1      -3.809  -5.849   2.123  1.00  0.00     0.021 A 
ATOM     31  N   UNL     1      -3.536  -3.736   3.243  1.00  0.00    -0.264 NA
ATOM     32  C   UNL     1      -3.847  -5.047   3.252  1.00  0.00     0.111 A 
ENDBRANCH  26  27
ENDBRANCH  23  26
ENDBRANCH   9  23
ENDBRANCH   7   9
ENDBRANCH   6   7
ENDBRANCH   5   6
ENDBRANCH   4   5
ENDBRANCH   3   4
ENDBRANCH   2   3
ENDBRANCH   1   2
BRANCH   1  33
ATOM     33  O   UNL     1       2.929  -4.859   0.310  1.00  0.00    -0.377 OA
BRANCH  33  34
ATOM     34  C   UNL     1       3.454  -5.785   1.243  1.00  0.00     0.188 C 
BRANCH  34  35
ATOM     35  C   UNL     1       4.346  -6.892   0.675  1.00  0.00     0.188 C 
BRANCH  35  36
ATOM     36  O   UNL     1       3.773  -7.935  -0.096  1.00  0.00    -0.376 OA
BRANCH  36  37
ATOM     37  C   UNL     1       2.631  -8.681   0.290  1.00  0.00     0.202 C 
BRANCH  37  38
ATOM     38  C   UNL     1       2.271  -9.088   1.727  1.00  0.00     0.261 C 
BRANCH  38  39
ATOM     39  O   UNL     1       2.615  -8.175   2.767  1.00  0.00    -0.460 OA
BRANCH  39  40
ATOM     40  C   UNL     1       3.727  -8.495   3.452  1.00  0.00     0.338 C 
ATOM     41  O   UNL     1       4.454  -9.472   3.273  1.00  0.00    -0.246 OA
BRANCH  40  42
ATOM     42  C   UNL     1       4.070  -7.414   4.384  1.00  0.00     0.060 A 
ATOM     43  C   UNL     1       5.348  -6.855   4.287  1.00  0.00     0.016 A 
ATOM     44  C   UNL     1       3.201  -7.037   5.411  1.00  0.00     0.016 A 
ATOM     45  C   UNL     1       5.795  -5.979   5.267  1.00  0.00     0.010 A 
ATOM     46  C   UNL     1       3.650  -6.153   6.396  1.00  0.00     0.010 A 
ATOM     47  C   UNL     1       4.973  -5.678   6.360  1.00  0.00    -0.014 A 
BRANCH  47  48
ATOM     48  C   UNL     1       5.602  -5.094   7.567  1.00  0.00     0.031 A 
ATOM     49  C   UNL     1       5.974  -6.018   8.697  1.00  0.00     0.074 A 
ATOM     50  C   UNL     1       5.928  -3.792   7.618  1.00  0.00     0.049 A 
ATOM     51  N   UNL     1       6.583  -5.752   9.824  1.00  0.00    -0.248 NA
ATOM     52  C   UNL     1       5.613  -7.437   8.532  1.00  0.00     0.031 C 
ATOM     53  C   UNL     1       5.663  -2.812   6.566  1.00  0.00     0.029 A 
ATOM     54  N   UNL     1       6.568  -3.076   8.597  1.00  0.00    -0.354 N 
ATOM     55  C   UNL     1       6.673  -6.965  10.498  1.00  0.00     0.074 A 
ATOM     56  C   UNL     1       6.019  -7.958   9.678  1.00  0.00     0.031 C 
ATOM     57  C   UNL     1       6.142  -1.618   6.957  1.00  0.00     0.029 A 
ATOM     58  C   UNL     1       6.722  -1.747   8.292  1.00  0.00     0.049 A 
ATOM     59  H   UNL     1       6.887  -3.477   9.437  1.00  0.00     0.167 HD
ATOM     60  C   UNL     1       7.265  -7.231  11.686  1.00  0.00     0.037 A 
ATOM     61  C   UNL     1       7.263  -0.750   9.018  1.00  0.00     0.037 A 
ATOM     62  C   UNL     1       7.921  -6.242  12.498  1.00  0.00     0.049 A 
ATOM     63  C   UNL     1       7.855  -1.059  10.369  1.00  0.00     0.074 A 
ATOM     64  C   UNL     1       8.560  -6.409  13.713  1.00  0.00     0.029 A 
ATOM     65  N   UNL     1       8.017  -4.896  12.176  1.00  0.00    -0.354 N 
ATOM     66  N   UNL     1       7.956  -2.211  10.987  1.00  0.00    -0.248 NA
ATOM     67  C   UNL     1       8.419   0.073  11.118  1.00  0.00     0.031 C 
ATOM     68  C   UNL     1       8.993  -5.154  14.154  1.00  0.00     0.029 A 
ATOM     69  C   UNL     1       8.682  -4.216  13.183  1.00  0.00     0.049 A 
ATOM     70  H   UNL     1       7.664  -4.485  11.354  1.00  0.00     0.167 HD
ATOM     71  C   UNL     1       8.625  -1.949  12.178  1.00  0.00     0.074 A 
ATOM     72  C   UNL     1       8.916  -0.531  12.187  1.00  0.00     0.031 C 
ATOM     73  C   UNL     1       8.971  -2.804  13.172  1.00  0.00     0.037 A 
BRANCH  60  74
ATOM     74  C   UNL     1       7.200  -8.645  12.189  1.00  0.00     0.057 A 
ATOM     75  C   UNL     1       7.919  -9.684  11.585  1.00  0.00     0.134 A 
ATOM     76  C   UNL     1       6.420  -8.966  13.308  1.00  0.00     0.134 A 
ATOM     77  F   UNL     1       8.671  -9.450  10.499  1.00  0.00    -0.206 F 
ATOM     78  C   UNL     1       7.845 -10.996  12.059  1.00  0.00     0.040 A 
ATOM     79  C   UNL     1       6.361 -10.267  13.809  1.00  0.00     0.040 A 
ATOM     80  F   UNL     1       5.707  -8.018  13.935  1.00  0.00    -0.206 F 
ATOM     81  C   UNL     1       7.069 -11.288  13.180  1.00  0.00     0.006 A 
ENDBRANCH  60  74
BRANCH  61  82
ATOM     82  C   UNL     1       7.269   0.638   8.488  1.00  0.00     0.057 A 
ATOM     83  C   UNL     1       8.463   1.284   8.147  1.00  0.00     0.134 A 
ATOM     84  C   UNL     1       6.080   1.362   8.339  1.00  0.00     0.134 A 
ATOM     85  F   UNL     1       9.637   0.651   8.289  1.00  0.00    -0.206 F 
ATOM     86  C   UNL     1       8.477   2.606   7.700  1.00  0.00     0.040 A 
ATOM     87  C   UNL     1       6.077   2.675   7.865  1.00  0.00     0.040 A 
ATOM     88  F   UNL     1       4.901   0.800   8.646  1.00  0.00    -0.206 F 
ATOM     89  C   UNL     1       7.280   3.304   7.553  1.00  0.00     0.006 A 
ENDBRANCH  61  82
BRANCH  73  90
ATOM     90  C   UNL     1       9.746  -2.239  14.329  1.00  0.00     0.057 A 
ATOM     91  C   UNL     1       9.165  -1.372  15.263  1.00  0.00     0.134 A 
ATOM     92  C   UNL     1      11.087  -2.596  14.527  1.00  0.00     0.134 A 
ATOM     93  F   UNL     1       7.888  -0.983  15.129  1.00  0.00    -0.206 F 
ATOM     94  C   UNL     1       9.900  -0.852  16.331  1.00  0.00     0.040 A 
ATOM     95  C   UNL     1      11.821  -2.110  15.609  1.00  0.00     0.040 A 
ATOM     96  F   UNL     1      11.702  -3.434  13.679  1.00  0.00    -0.206 F 
ATOM     97  C   UNL     1      11.230  -1.227  16.510  1.00  0.00     0.006 A 
ENDBRANCH  73  90
ENDBRANCH  47  48
ENDBRANCH  40  42
ENDBRANCH  39  40
ENDBRANCH  38  39
ENDBRANCH  37  38
ENDBRANCH  36  37
ENDBRANCH  35  36
ENDBRANCH  34  35
ENDBRANCH  33  34
ENDBRANCH   1  33
TORSDOF 26
