REMARK SMILES C[C@H](NS(=O)(=O)c1ccc(-c2cc(-c3ccccc3)c3cc([N+](=O)[O-])ccc3n2)cc1)C(=O)OCCOCCOCCOCCOC(=O)c1ccc(-c2c3nc(c(-c4c(F)cccc4F)c4ccc([nH]4)c(-c4c(F)cccc4F)c4nc(c(-c5c(F)cccc5F)c5ccc2[nH]5)C=C4)C=C3)cc1
REMARK SMILES IDX 38 1 37 2 36 3 35 4 34 5 32 6 33 7 2 8 1 9 3 10 4 12 5 13
REMARK SMILES IDX 6 14 7 15 8 16 31 17 9 18 30 19 10 20 11 21 12 22 29 23
REMARK SMILES IDX 13 24 28 25 20 26 27 27 21 28 26 29 22 30 14 31 15 32 19 33
REMARK SMILES IDX 16 34 18 35 17 36 23 37 24 38 25 39 39 40 40 41 41 42 42 43
REMARK SMILES IDX 43 44 44 45 45 46 46 47 47 48 48 49 49 50 50 51 102 52 51 53
REMARK SMILES IDX 101 54 52 55 53 56 54 57 95 58 55 59 100 60 94 61 96 62
REMARK SMILES IDX 56 63 99 64 93 65 92 66 57 68 83 69 66 70 82 71 67 72 70 73
REMARK SMILES IDX 81 74 97 75 68 76 69 77 80 79 98 80 71 81 58 82 59 83 64 84
REMARK SMILES IDX 60 85 61 86 63 87 65 88 62 89 84 90 85 91 90 92 86 93 87 94
REMARK SMILES IDX 89 95 91 96 88 97 72 98 73 99 78 100 74 101 75 102 77 103
REMARK SMILES IDX 79 104 76 105
REMARK H PARENT 3 11 96 67 70 78
REMARK Flexibility Score: inf
ROOT
ATOM      1  C   UNL     1      -2.063   1.915  -1.055  1.00  0.00     0.188 C 
ENDROOT
BRANCH   1   2
ATOM      2  O   UNL     1      -3.331   1.419  -1.456  1.00  0.00    -0.376 OA
BRANCH   2   3
ATOM      3  C   UNL     1      -3.599   0.023  -1.413  1.00  0.00     0.202 C 
BRANCH   3   4
ATOM      4  C   UNL     1      -2.589  -0.996  -1.968  1.00  0.00     0.261 C 
BRANCH   4   5
ATOM      5  O   UNL     1      -1.245  -0.921  -1.436  1.00  0.00    -0.462 OA
BRANCH   5   6
ATOM      6  C   UNL     1      -0.276  -0.598  -2.333  1.00  0.00     0.323 C 
ATOM      7  O   UNL     1      -0.512  -0.391  -3.520  1.00  0.00    -0.250 OA
BRANCH   6   8
ATOM      8  C   UNL     1       1.151  -0.574  -1.769  1.00  0.00     0.176 C 
ATOM      9  C   UNL     1       1.775  -1.905  -2.162  1.00  0.00     0.038 C 
BRANCH   8  10
ATOM     10  N   UNL     1       1.317  -0.294  -0.334  1.00  0.00    -0.197 NA
ATOM     11  H   UNL     1       1.131  -1.174   0.146  1.00  0.00     0.142 HD
BRANCH  10  12
ATOM     12  S   UNL     1       2.742   0.303   0.333  1.00  0.00     0.241 S 
ATOM     13  O   UNL     1       2.560   0.265   1.766  1.00  0.00    -0.207 OA
ATOM     14  O   UNL     1       3.848  -0.378  -0.305  1.00  0.00    -0.207 OA
BRANCH  12  15
ATOM     15  C   UNL     1       2.835   2.031  -0.124  1.00  0.00     0.082 A 
ATOM     16  C   UNL     1       1.954   2.962   0.432  1.00  0.00     0.022 A 
ATOM     17  C   UNL     1       3.812   2.466  -1.023  1.00  0.00     0.022 A 
ATOM     18  C   UNL     1       1.882   4.260  -0.106  1.00  0.00     0.012 A 
ATOM     19  C   UNL     1       3.773   3.779  -1.518  1.00  0.00     0.012 A 
ATOM     20  C   UNL     1       2.690   4.634  -1.201  1.00  0.00     0.000 A 
BRANCH  20  21
ATOM     21  C   UNL     1       2.037   5.403  -2.341  1.00  0.00     0.072 A 
ATOM     22  C   UNL     1       2.775   6.098  -3.302  1.00  0.00     0.038 A 
ATOM     23  N   UNL     1       1.054   4.586  -2.800  1.00  0.00    -0.248 NA
ATOM     24  C   UNL     1       2.873   5.509  -4.566  1.00  0.00    -0.007 A 
ATOM     25  C   UNL     1       1.436   3.787  -3.795  1.00  0.00     0.072 A 
ATOM     26  C   UNL     1       2.500   4.157  -4.612  1.00  0.00     0.015 A 
ATOM     27  C   UNL     1       0.921   2.513  -3.924  1.00  0.00     0.036 A 
ATOM     28  C   UNL     1       3.211   3.184  -5.348  1.00  0.00     0.096 A 
ATOM     29  C   UNL     1       1.610   1.538  -4.652  1.00  0.00     0.088 A 
ATOM     30  C   UNL     1       2.811   1.859  -5.273  1.00  0.00     0.270 A 
BRANCH  24  31
ATOM     31  C   UNL     1       3.243   6.153  -5.846  1.00  0.00    -0.018 A 
ATOM     32  C   UNL     1       2.498   5.780  -7.000  1.00  0.00     0.009 A 
ATOM     33  C   UNL     1       4.292   7.051  -6.029  1.00  0.00     0.009 A 
ATOM     34  C   UNL     1       2.849   6.181  -8.284  1.00  0.00     0.001 A 
ATOM     35  C   UNL     1       4.632   7.481  -7.323  1.00  0.00     0.001 A 
ATOM     36  C   UNL     1       3.933   7.027  -8.446  1.00  0.00     0.000 A 
ENDBRANCH  24  31
BRANCH  30  37
ATOM     37  N   UNL     1       3.711   0.792  -5.716  1.00  0.00     0.062 N 
ATOM     38  O   UNL     1       4.720   1.118  -6.356  1.00  0.00    -0.258 OA
ATOM     39  O   UNL     1       3.438  -0.366  -5.367  1.00  0.00    -0.258 OA
ENDBRANCH  30  37
ENDBRANCH  20  21
ENDBRANCH  12  15
ENDBRANCH  10  12
ENDBRANCH   8  10
ENDBRANCH   6   8
ENDBRANCH   5   6
ENDBRANCH   4   5
ENDBRANCH   3   4
ENDBRANCH   2   3
ENDBRANCH   1   2
BRANCH   1  40
ATOM     40  C   UNL     1      -1.428   1.453   0.262  1.00  0.00     0.188 C 
BRANCH  40  41
ATOM     41  O   UNL     1      -1.995   0.287   0.824  1.00  0.00    -0.377 OA
BRANCH  41  42
ATOM     42  C   UNL     1      -2.936   0.478   1.875  1.00  0.00     0.188 C 
BRANCH  42  43
ATOM     43  C   UNL     1      -3.848   1.720   1.826  1.00  0.00     0.188 C 
BRANCH  43  44
ATOM     44  O   UNL     1      -3.143   2.957   1.748  1.00  0.00    -0.376 OA
BRANCH  44  45
ATOM     45  C   UNL     1      -2.884   3.651   2.964  1.00  0.00     0.202 C 
BRANCH  45  46
ATOM     46  C   UNL     1      -1.833   3.018   3.893  1.00  0.00     0.261 C 
BRANCH  46  47
ATOM     47  O   UNL     1      -2.203   1.763   4.489  1.00  0.00    -0.460 OA
BRANCH  47  48
ATOM     48  C   UNL     1      -3.368   1.709   5.163  1.00  0.00     0.338 C 
ATOM     49  O   UNL     1      -4.097   2.641   5.450  1.00  0.00    -0.246 OA
BRANCH  48  50
ATOM     50  C   UNL     1      -3.744   0.291   5.337  1.00  0.00     0.060 A 
ATOM     51  C   UNL     1      -5.030  -0.102   4.944  1.00  0.00     0.016 A 
ATOM     52  C   UNL     1      -2.870  -0.626   5.928  1.00  0.00     0.016 A 
ATOM     53  C   UNL     1      -5.480  -1.389   5.226  1.00  0.00     0.010 A 
ATOM     54  C   UNL     1      -3.328  -1.913   6.226  1.00  0.00     0.010 A 
ATOM     55  C   UNL     1      -4.655  -2.274   5.934  1.00  0.00    -0.014 A 
BRANCH  55  56
ATOM     56  C   UNL     1      -5.282  -3.433   6.614  1.00  0.00     0.031 A 
ATOM     57  C   UNL     1      -5.721  -3.252   8.044  1.00  0.00     0.074 A 
ATOM     58  C   UNL     1      -5.523  -4.589   5.973  1.00  0.00     0.049 A 
ATOM     59  N   UNL     1      -6.334  -4.088   8.841  1.00  0.00    -0.248 NA
ATOM     60  C   UNL     1      -5.427  -1.945   8.656  1.00  0.00     0.031 C 
ATOM     61  C   UNL     1      -5.186  -4.874   4.581  1.00  0.00     0.029 A 
ATOM     62  N   UNL     1      -6.121  -5.740   6.421  1.00  0.00    -0.354 N 
ATOM     63  C   UNL     1      -6.494  -3.411  10.044  1.00  0.00     0.074 A 
ATOM     64  C   UNL     1      -5.884  -2.110   9.887  1.00  0.00     0.031 C 
ATOM     65  C   UNL     1      -5.586  -6.124   4.286  1.00  0.00     0.029 A 
ATOM     66  C   UNL     1      -6.190  -6.730   5.472  1.00  0.00     0.049 A 
ATOM     67  H   UNL     1      -6.468  -5.846   7.336  1.00  0.00     0.167 HD
ATOM     68  C   UNL     1      -7.105  -3.827  11.178  1.00  0.00     0.037 A 
ATOM     69  C   UNL     1      -6.683  -7.980   5.560  1.00  0.00     0.037 A 
ATOM     70  C   UNL     1      -7.713  -5.119  11.338  1.00  0.00     0.049 A 
ATOM     71  C   UNL     1      -7.306  -8.443   6.853  1.00  0.00     0.074 A 
ATOM     72  C   UNL     1      -8.371  -5.633  12.442  1.00  0.00     0.029 A 
ATOM     73  N   UNL     1      -7.730  -6.106  10.364  1.00  0.00    -0.354 N 
ATOM     74  N   UNL     1      -7.484  -7.783   7.972  1.00  0.00    -0.248 NA
ATOM     75  C   UNL     1      -7.806  -9.825   6.887  1.00  0.00     0.031 C 
ATOM     76  C   UNL     1      -8.745  -6.949  12.151  1.00  0.00     0.029 A 
ATOM     77  C   UNL     1      -8.369  -7.235  10.848  1.00  0.00     0.049 A 
ATOM     78  H   UNL     1      -7.345  -6.017   9.463  1.00  0.00     0.167 HD
ATOM     79  C   UNL     1      -8.155  -8.653   8.825  1.00  0.00     0.074 A 
ATOM     80  C   UNL     1      -8.352  -9.886   8.093  1.00  0.00     0.031 C 
ATOM     81  C   UNL     1      -8.576  -8.447  10.098  1.00  0.00     0.037 A 
BRANCH  68  82
ATOM     82  C   UNL     1      -7.110  -2.879  12.341  1.00  0.00     0.057 A 
ATOM     83  C   UNL     1      -7.891  -1.715  12.348  1.00  0.00     0.134 A 
ATOM     84  C   UNL     1      -6.320  -3.134  13.469  1.00  0.00     0.134 A 
ATOM     85  F   UNL     1      -8.653  -1.402  11.289  1.00  0.00    -0.206 F 
ATOM     86  C   UNL     1      -7.864  -0.826  13.423  1.00  0.00     0.040 A 
ATOM     87  C   UNL     1      -6.306  -2.266  14.561  1.00  0.00     0.040 A 
ATOM     88  F   UNL     1      -5.548  -4.229  13.526  1.00  0.00    -0.206 F 
ATOM     89  C   UNL     1      -7.074  -1.103  14.537  1.00  0.00     0.006 A 
ENDBRANCH  68  82
BRANCH  69  90
ATOM     90  C   UNL     1      -6.629  -8.889   4.387  1.00  0.00     0.057 A 
ATOM     91  C   UNL     1      -7.795  -9.273   3.714  1.00  0.00     0.134 A 
ATOM     92  C   UNL     1      -5.417  -9.422   3.933  1.00  0.00     0.134 A 
ATOM     93  F   UNL     1      -8.989  -8.815   4.117  1.00  0.00    -0.206 F 
ATOM     94  C   UNL     1      -7.760 -10.171   2.645  1.00  0.00     0.040 A 
ATOM     95  C   UNL     1      -5.365 -10.302   2.850  1.00  0.00     0.040 A 
ATOM     96  F   UNL     1      -4.265  -9.094   4.536  1.00  0.00    -0.206 F 
ATOM     97  C   UNL     1      -6.541 -10.684   2.208  1.00  0.00     0.006 A 
ENDBRANCH  69  90
BRANCH  81  98
ATOM     98  C   UNL     1      -9.348  -9.553  10.758  1.00  0.00     0.057 A 
ATOM     99  C   UNL     1      -8.740 -10.743  11.174  1.00  0.00     0.134 A 
ATOM    100  C   UNL     1     -10.719  -9.404  11.012  1.00  0.00     0.134 A 
ATOM    101  F   UNL     1      -7.434 -10.953  10.953  1.00  0.00    -0.206 F 
ATOM    102  C   UNL     1      -9.473 -11.758  11.793  1.00  0.00     0.040 A 
ATOM    103  C   UNL     1     -11.455 -10.399  11.655  1.00  0.00     0.040 A 
ATOM    104  F   UNL     1     -11.361  -8.283  10.651  1.00  0.00    -0.206 F 
ATOM    105  C   UNL     1     -10.834 -11.585  12.040  1.00  0.00     0.006 A 
ENDBRANCH  81  98
ENDBRANCH  55  56
ENDBRANCH  48  50
ENDBRANCH  47  48
ENDBRANCH  46  47
ENDBRANCH  45  46
ENDBRANCH  44  45
ENDBRANCH  43  44
ENDBRANCH  42  43
ENDBRANCH  41  42
ENDBRANCH  40  41
ENDBRANCH   1  40
TORSDOF 26
