REMARK SMILES Cc1ccc(NC(=O)c2cnn3c2NC2=C(C(=O)CCC2)[C@H]3c2ccc(C(=O)OCCOCCOCCOCCOC(=O)c3ccc(-c4c5nc(c(-c6c(F)cccc6F)c6ccc([nH]6)c(-c6c(F)cccc6F)c6nc(c(-c7c(F)cccc7F)c7ccc4[nH]7)C=C6)C=C5)cc3)cc2)cc1
REMARK SMILES IDX 34 1 33 2 32 3 31 4 30 5 29 6 27 7 28 8 26 9 23 10 24 11
REMARK SMILES IDX 99 12 25 13 98 14 22 15 9 16 10 17 13 18 11 19 12 20 14 21
REMARK SMILES IDX 15 22 16 24 21 25 17 26 20 27 18 28 19 29 7 30 6 31 8 33
REMARK SMILES IDX 5 34 1 35 2 36 3 37 101 38 4 39 100 40 35 41 36 42 37 43
REMARK SMILES IDX 38 44 39 45 40 46 41 47 42 48 43 49 44 50 45 51 97 52 46 53
REMARK SMILES IDX 96 54 47 55 48 56 49 57 90 58 50 59 95 60 89 61 91 62 51 63
REMARK SMILES IDX 94 64 88 65 87 66 52 68 78 69 61 70 77 71 62 72 65 73 76 74
REMARK SMILES IDX 92 75 63 76 64 77 75 79 93 80 66 81 53 82 54 83 59 84 55 85
REMARK SMILES IDX 56 86 58 87 60 88 57 89 79 90 80 91 85 92 81 93 82 94 84 95
REMARK SMILES IDX 86 96 83 97 67 98 68 99 73 100 69 101 70 102 72 103 74 104
REMARK SMILES IDX 71 105
REMARK H PARENT 14 23 6 32 91 67 65 78
REMARK Flexibility Score: inf
ROOT
ATOM      1  C   UNL     1       0.830  -4.633  -5.666  1.00  0.00     0.188 C 
ENDROOT
BRANCH   1   2
ATOM      2  C   UNL     1       0.323  -6.142  -6.539  1.00  0.00     0.188 C 
BRANCH   2   3
ATOM      3  O   UNL     1      -1.077  -6.770  -6.770  1.00  0.00    -0.376 OA
BRANCH   3   4
ATOM      4  C   UNL     1      -2.296  -6.364  -7.553  1.00  0.00     0.202 C 
BRANCH   4   5
ATOM      5  C   UNL     1      -3.440  -5.375  -7.058  1.00  0.00     0.261 C 
BRANCH   5   6
ATOM      6  O   UNL     1      -4.438  -5.927  -6.250  1.00  0.00    -0.460 OA
BRANCH   6   7
ATOM      7  C   UNL     1      -3.909  -7.021  -5.706  1.00  0.00     0.338 C 
ATOM      8  O   UNL     1      -4.064  -8.148  -6.142  1.00  0.00    -0.246 OA
BRANCH   7   9
ATOM      9  C   UNL     1      -3.041  -6.670  -4.569  1.00  0.00     0.060 A 
ATOM     10  C   UNL     1      -1.964  -6.353  -2.070  1.00  0.00    -0.019 A 
ATOM     11  C   UNL     1      -1.862  -7.598  -2.718  1.00  0.00     0.007 A 
ATOM     12  C   UNL     1      -2.217  -5.212  -2.864  1.00  0.00     0.007 A 
ATOM     13  C   UNL     1      -2.360  -7.736  -4.002  1.00  0.00     0.016 A 
ATOM     14  C   UNL     1      -2.912  -5.382  -4.048  1.00  0.00     0.016 A 
BRANCH  10  15
ATOM     15  C   UNL     1      -2.421  -6.365  -0.542  1.00  0.00     0.175 C 
ATOM     16  C   UNL     1      -3.587  -3.037  -0.136  1.00  0.00     0.102 A 
ATOM     17  C   UNL     1      -2.655  -3.220   0.931  1.00  0.00     0.151 A 
ATOM     18  C   UNL     1      -3.850  -4.335  -0.553  1.00  0.00     0.142 A 
ATOM     19  N   UNL     1      -2.051  -4.405   0.894  1.00  0.00    -0.178 NA
ATOM     20  N   UNL     1      -2.717  -5.014  -0.090  1.00  0.00    -0.237 N 
ATOM     21  N   UNL     1      -4.746  -5.073  -1.327  1.00  0.00    -0.343 N 
ATOM     22  C   UNL     1      -4.708  -6.502  -1.283  1.00  0.00     0.026 C 
ATOM     23  H   UNL     1      -5.401  -4.613  -1.900  1.00  0.00     0.168 HD
ATOM     24  C   UNL     1      -3.783  -7.046  -0.460  1.00  0.00     0.044 C 
ATOM     25  C   UNL     1      -5.845  -7.434  -1.584  1.00  0.00     0.055 C 
ATOM     26  C   UNL     1      -4.503  -7.088   0.886  1.00  0.00     0.163 C 
ATOM     27  C   UNL     1      -6.664  -7.647  -0.313  1.00  0.00     0.014 C 
ATOM     28  O   UNL     1      -3.865  -7.122   1.934  1.00  0.00    -0.294 OA
ATOM     29  C   UNL     1      -6.044  -6.897   0.871  1.00  0.00     0.081 C 
BRANCH  16  30
ATOM     30  C   UNL     1      -4.123  -1.767  -0.567  1.00  0.00     0.261 C 
ATOM     31  N   UNL     1      -3.304  -0.639  -0.522  1.00  0.00    -0.322 N 
ATOM     32  H   UNL     1      -3.805   0.208  -0.546  1.00  0.00     0.170 HD
ATOM     33  O   UNL     1      -5.293  -1.646  -0.925  1.00  0.00    -0.269 OA
BRANCH  31  34
ATOM     34  C   UNL     1      -1.895  -0.462  -0.448  1.00  0.00     0.041 A 
ATOM     35  C   UNL     1       2.370   0.237   0.031  1.00  0.00     0.044 C 
ATOM     36  C   UNL     1       0.896   0.024  -0.158  1.00  0.00    -0.051 A 
ATOM     37  C   UNL     1       0.421  -1.237  -0.515  1.00  0.00     0.005 A 
ATOM     38  C   UNL     1      -0.031   1.053   0.024  1.00  0.00     0.005 A 
ATOM     39  C   UNL     1      -0.950  -1.458  -0.705  1.00  0.00     0.026 A 
ATOM     40  C   UNL     1      -1.410   0.811  -0.118  1.00  0.00     0.026 A 
ENDBRANCH  31  34
ENDBRANCH  16  30
ENDBRANCH  10  15
ENDBRANCH   7   9
ENDBRANCH   6   7
ENDBRANCH   5   6
ENDBRANCH   4   5
ENDBRANCH   3   4
ENDBRANCH   2   3
ENDBRANCH   1   2
BRANCH   1  41
ATOM     41  O   UNL     1       1.221  -2.982  -6.294  1.00  0.00    -0.377 OA
BRANCH  41  42
ATOM     42  C   UNL     1       2.958  -1.912  -6.562  1.00  0.00     0.188 C 
BRANCH  42  43
ATOM     43  C   UNL     1       4.521  -2.712  -7.242  1.00  0.00     0.188 C 
BRANCH  43  44
ATOM     44  O   UNL     1       4.811  -4.088  -7.686  1.00  0.00    -0.376 OA
BRANCH  44  45
ATOM     45  C   UNL     1       4.621  -5.394  -7.104  1.00  0.00     0.202 C 
BRANCH  45  46
ATOM     46  C   UNL     1       5.849  -6.231  -7.394  1.00  0.00     0.261 C 
BRANCH  46  47
ATOM     47  O   UNL     1       6.112  -6.466  -8.805  1.00  0.00    -0.460 OA
BRANCH  47  48
ATOM     48  C   UNL     1       5.809  -5.492  -9.722  1.00  0.00     0.338 C 
ATOM     49  O   UNL     1       6.610  -4.649 -10.092  1.00  0.00    -0.246 OA
BRANCH  48  50
ATOM     50  C   UNL     1       4.374  -5.571 -10.198  1.00  0.00     0.060 A 
ATOM     51  C   UNL     1       3.700  -4.432 -10.670  1.00  0.00     0.016 A 
ATOM     52  C   UNL     1       3.612  -6.695  -9.908  1.00  0.00     0.016 A 
ATOM     53  C   UNL     1       2.271  -4.349 -10.617  1.00  0.00     0.010 A 
ATOM     54  C   UNL     1       2.222  -6.555  -9.742  1.00  0.00     0.010 A 
ATOM     55  C   UNL     1       1.511  -5.344  -9.982  1.00  0.00    -0.014 A 
BRANCH  55  56
ATOM     56  C   UNL     1       0.028  -5.314  -9.506  1.00  0.00     0.031 A 
ATOM     57  C   UNL     1      -0.766  -6.421 -10.283  1.00  0.00     0.074 A 
ATOM     58  C   UNL     1      -0.702  -4.375  -8.712  1.00  0.00     0.049 A 
ATOM     59  N   UNL     1      -2.024  -6.671 -10.141  1.00  0.00    -0.248 NA
ATOM     60  C   UNL     1      -0.223  -7.270 -11.361  1.00  0.00     0.031 C 
ATOM     61  C   UNL     1      -1.157  -4.279  -7.141  1.00  0.00     0.029 A 
ATOM     62  N   UNL     1      -0.553  -3.026  -8.710  1.00  0.00    -0.354 N 
ATOM     63  C   UNL     1      -2.424  -7.768 -10.844  1.00  0.00     0.074 A 
ATOM     64  C   UNL     1      -1.255  -8.087 -11.637  1.00  0.00     0.031 C 
ATOM     65  C   UNL     1      -1.446  -3.095  -6.607  1.00  0.00     0.029 A 
ATOM     66  C   UNL     1      -1.206  -2.263  -7.717  1.00  0.00     0.049 A 
ATOM     67  H   UNL     1       0.003  -2.584  -9.392  1.00  0.00     0.167 HD
ATOM     68  C   UNL     1      -3.689  -8.246 -10.607  1.00  0.00     0.037 A 
ATOM     69  C   UNL     1      -1.156  -0.955  -7.490  1.00  0.00     0.037 A 
ATOM     70  C   UNL     1      -4.587  -7.240  -9.872  1.00  0.00     0.049 A 
ATOM     71  C   UNL     1      -2.742  -1.417  -8.181  1.00  0.00     0.074 A 
ATOM     72  C   UNL     1      -5.444  -7.315  -8.783  1.00  0.00     0.029 A 
ATOM     73  N   UNL     1      -4.598  -5.848 -10.186  1.00  0.00    -0.354 N 
ATOM     74  N   UNL     1      -3.515  -2.545  -8.136  1.00  0.00    -0.248 NA
ATOM     75  C   UNL     1      -3.443  -0.427  -9.002  1.00  0.00     0.031 C 
ATOM     76  C   UNL     1      -5.997  -6.011  -8.493  1.00  0.00     0.029 A 
ATOM     77  C   UNL     1      -5.362  -5.046  -9.289  1.00  0.00     0.049 A 
ATOM     78  H   UNL     1      -4.118  -5.473 -10.959  1.00  0.00     0.167 HD
ATOM     79  C   UNL     1      -4.609  -2.513  -9.021  1.00  0.00     0.074 A 
ATOM     80  C   UNL     1      -4.515  -1.106  -9.464  1.00  0.00     0.031 C 
ATOM     81  C   UNL     1      -5.497  -3.533  -9.476  1.00  0.00     0.037 A 
BRANCH  68  82
ATOM     82  C   UNL     1      -4.091  -9.731 -10.883  1.00  0.00     0.057 A 
ATOM     83  C   UNL     1      -5.299 -10.273 -10.384  1.00  0.00     0.134 A 
ATOM     84  C   UNL     1      -3.303 -10.717 -11.528  1.00  0.00     0.134 A 
ATOM     85  F   UNL     1      -6.243  -9.509  -9.828  1.00  0.00    -0.206 F 
ATOM     86  C   UNL     1      -5.642 -11.641 -10.438  1.00  0.00     0.040 A 
ATOM     87  C   UNL     1      -3.655 -12.082 -11.632  1.00  0.00     0.040 A 
ATOM     88  F   UNL     1      -2.133 -10.444 -12.106  1.00  0.00    -0.206 F 
ATOM     89  C   UNL     1      -4.819 -12.556 -11.064  1.00  0.00     0.006 A 
ENDBRANCH  68  82
BRANCH  69  90
ATOM     90  C   UNL     1       0.584  -1.167  -7.111  1.00  0.00     0.057 A 
ATOM     91  C   UNL     1       0.983  -1.215  -5.394  1.00  0.00     0.134 A 
ATOM     92  C   UNL     1       1.570  -2.231  -8.135  1.00  0.00     0.134 A 
ATOM     93  F   UNL     1       0.423  -0.297  -4.589  1.00  0.00    -0.206 F 
ATOM     94  C   UNL     1       2.076  -2.393  -4.616  1.00  0.00     0.040 A 
ATOM     95  C   UNL     1       2.473  -3.656  -7.459  1.00  0.00     0.040 A 
ATOM     96  F   UNL     1       1.470  -2.059  -9.460  1.00  0.00    -0.206 F 
ATOM     97  C   UNL     1       2.881  -3.655  -5.625  1.00  0.00     0.006 A 
ENDBRANCH  69  90
BRANCH  81  98
ATOM     98  C   UNL     1      -6.711  -3.196 -10.359  1.00  0.00     0.057 A 
ATOM     99  C   UNL     1      -7.419  -1.988 -10.329  1.00  0.00     0.134 A 
ATOM    100  C   UNL     1      -7.248  -4.155 -11.255  1.00  0.00     0.134 A 
ATOM    101  F   UNL     1      -7.215  -1.080  -9.363  1.00  0.00    -0.206 F 
ATOM    102  C   UNL     1      -8.392  -1.670 -11.288  1.00  0.00     0.040 A 
ATOM    103  C   UNL     1      -8.257  -3.875 -12.172  1.00  0.00     0.040 A 
ATOM    104  F   UNL     1      -6.835  -5.428 -11.299  1.00  0.00    -0.206 F 
ATOM    105  C   UNL     1      -8.790  -2.605 -12.235  1.00  0.00     0.006 A 
ENDBRANCH  81  98
ENDBRANCH  55  56
ENDBRANCH  48  50
ENDBRANCH  47  48
ENDBRANCH  46  47
ENDBRANCH  45  46
ENDBRANCH  44  45
ENDBRANCH  43  44
ENDBRANCH  42  43
ENDBRANCH  41  42
ENDBRANCH   1  41
TORSDOF 23
