REMARK SMILES Cc1ccc(C)c(S(=O)(=O)N[C@@H](CC2=c3ccccc3=NC2)C(=O)OCCOCCOCCOCCOC(=O)c2ccc(-c3c4nc(c(-c5c(F)cccc5F)c5ccc([nH]5)c(-c5c(F)cccc5F)c5nc(c(-c6c(F)cccc6F)c6ccc3[nH]6)C=C5)C=C4)cc2)c1
REMARK SMILES IDX 30 1 29 2 28 3 27 4 26 5 25 6 23 7 24 8 12 9 11 10 8 12 9 13
REMARK SMILES IDX 10 14 7 15 1 16 2 17 3 18 94 19 4 20 5 21 6 22 13 23 14 24
REMARK SMILES IDX 15 25 22 26 16 27 20 28 21 29 17 30 19 31 18 32 31 33 32 34
REMARK SMILES IDX 33 35 34 36 35 37 36 38 37 39 38 40 39 41 40 42 41 43 93 44
REMARK SMILES IDX 42 45 92 46 43 47 44 48 45 49 86 50 46 51 91 52 85 53 87 54
REMARK SMILES IDX 47 55 90 56 84 57 83 58 48 60 74 61 57 62 73 63 58 64 61 65
REMARK SMILES IDX 72 66 88 67 59 68 60 69 71 71 89 72 62 73 49 74 50 75 55 76
REMARK SMILES IDX 51 77 52 78 54 79 56 80 53 81 75 82 76 83 81 84 77 85 78 86
REMARK SMILES IDX 80 87 82 88 79 89 63 90 64 91 69 92 65 93 66 94 68 95 70 96
REMARK SMILES IDX 67 97
REMARK H PARENT 11 11 87 59 61 70
REMARK Flexibility Score: inf
ROOT
ATOM      1  C   UNL     1       0.481   6.822   2.134  1.00  0.00     0.188 C 
ENDROOT
BRANCH   1   2
ATOM      2  C   UNL     1       1.575   7.222   1.168  1.00  0.00     0.188 C 
BRANCH   2   3
ATOM      3  O   UNL     1       1.665   8.458   0.494  1.00  0.00    -0.376 OA
BRANCH   3   4
ATOM      4  C   UNL     1       0.655   8.785  -0.440  1.00  0.00     0.202 C 
BRANCH   4   5
ATOM      5  C   UNL     1       0.729   8.116  -1.826  1.00  0.00     0.261 C 
BRANCH   5   6
ATOM      6  O   UNL     1      -0.402   7.278  -2.180  1.00  0.00    -0.462 OA
BRANCH   6   7
ATOM      7  C   UNL     1      -0.604   6.247  -1.351  1.00  0.00     0.324 C 
ATOM      8  O   UNL     1      -0.085   6.076  -0.272  1.00  0.00    -0.250 OA
BRANCH   7   9
ATOM      9  C   UNL     1      -1.466   5.159  -1.784  1.00  0.00     0.183 C 
BRANCH   9  10
ATOM     10  N   UNL     1      -0.567   4.094  -2.585  1.00  0.00    -0.197 NA
ATOM     11  H   UNL     1      -0.739   3.182  -2.163  1.00  0.00     0.142 HD
BRANCH  10  12
ATOM     12  S   UNL     1       1.470   4.348  -2.655  1.00  0.00     0.241 S 
ATOM     13  O   UNL     1       1.715   5.392  -1.774  1.00  0.00    -0.207 OA
ATOM     14  O   UNL     1       1.579   4.697  -4.089  1.00  0.00    -0.207 OA
BRANCH  12  15
ATOM     15  C   UNL     1       2.716   2.392  -2.160  1.00  0.00     0.085 A 
ATOM     16  C   UNL     1       2.050   0.199   1.089  1.00  0.00     0.044 C 
ATOM     17  C   UNL     1       2.700   0.431  -0.273  1.00  0.00    -0.050 A 
ATOM     18  C   UNL     1       2.594  -0.396  -1.312  1.00  0.00     0.004 A 
ATOM     19  C   UNL     1       3.104   1.672  -0.751  1.00  0.00     0.025 A 
ATOM     20  C   UNL     1       2.759   0.152  -2.648  1.00  0.00     0.005 A 
ATOM     21  C   UNL     1       2.708   1.500  -3.083  1.00  0.00    -0.031 A 
ATOM     22  C   UNL     1       2.109   2.088  -4.227  1.00  0.00     0.046 C 
ENDBRANCH  12  15
ENDBRANCH  10  12
ENDBRANCH   9  10
BRANCH   9  23
ATOM     23  C   UNL     1      -2.219   4.614  -0.404  1.00  0.00     0.065 C 
BRANCH  23  24
ATOM     24  C   UNL     1      -2.610   5.551   0.813  1.00  0.00    -0.037 C 
ATOM     25  C   UNL     1      -2.443   5.382   2.146  1.00  0.00     0.001 A 
ATOM     26  C   UNL     1      -3.072   6.976   0.587  1.00  0.00     0.174 C 
ATOM     27  C   UNL     1      -1.915   4.359   3.012  1.00  0.00     0.010 A 
ATOM     28  C   UNL     1      -2.730   6.726   2.725  1.00  0.00     0.065 A 
ATOM     29  N   UNL     1      -3.182   7.632   1.915  1.00  0.00    -0.280 NA
ATOM     30  C   UNL     1      -1.587   4.654   4.287  1.00  0.00     0.001 A 
ATOM     31  C   UNL     1      -2.375   6.963   4.154  1.00  0.00     0.028 A 
ATOM     32  C   UNL     1      -1.772   5.982   4.845  1.00  0.00     0.002 A 
ENDBRANCH  23  24
ENDBRANCH   9  23
ENDBRANCH   7   9
ENDBRANCH   6   7
ENDBRANCH   5   6
ENDBRANCH   4   5
ENDBRANCH   3   4
ENDBRANCH   2   3
ENDBRANCH   1   2
BRANCH   1  33
ATOM     33  O   UNL     1      -0.023   7.890   2.897  1.00  0.00    -0.377 OA
BRANCH  33  34
ATOM     34  C   UNL     1       0.981   8.662   3.525  1.00  0.00     0.188 C 
BRANCH  34  35
ATOM     35  C   UNL     1       1.782   7.859   4.552  1.00  0.00     0.188 C 
BRANCH  35  36
ATOM     36  O   UNL     1       2.508   6.804   3.931  1.00  0.00    -0.376 OA
BRANCH  36  37
ATOM     37  C   UNL     1       2.802   5.699   4.759  1.00  0.00     0.202 C 
BRANCH  37  38
ATOM     38  C   UNL     1       4.104   5.928   5.520  1.00  0.00     0.261 C 
BRANCH  38  39
ATOM     39  O   UNL     1       5.341   6.138   4.782  1.00  0.00    -0.460 OA
BRANCH  39  40
ATOM     40  C   UNL     1       5.338   6.774   3.585  1.00  0.00     0.338 C 
ATOM     41  O   UNL     1       5.595   7.958   3.436  1.00  0.00    -0.246 OA
BRANCH  40  42
ATOM     42  C   UNL     1       4.994   5.832   2.483  1.00  0.00     0.060 A 
ATOM     43  C   UNL     1       4.617   6.378   1.293  1.00  0.00     0.016 A 
ATOM     44  C   UNL     1       4.725   4.467   2.705  1.00  0.00     0.016 A 
ATOM     45  C   UNL     1       3.664   5.654   0.578  1.00  0.00     0.010 A 
ATOM     46  C   UNL     1       3.698   3.769   1.993  1.00  0.00     0.010 A 
ATOM     47  C   UNL     1       2.997   4.397   0.966  1.00  0.00    -0.014 A 
BRANCH  47  48
ATOM     48  C   UNL     1       2.165   3.688  -0.247  1.00  0.00     0.031 A 
ATOM     49  C   UNL     1       3.780   4.087  -1.284  1.00  0.00     0.074 A 
ATOM     50  C   UNL     1       0.879   2.676  -0.689  1.00  0.00     0.049 A 
ATOM     51  N   UNL     1       3.945   4.627  -2.492  1.00  0.00    -0.248 NA
ATOM     52  C   UNL     1       5.172   3.701  -0.797  1.00  0.00     0.031 C 
ATOM     53  C   UNL     1      -0.167   1.683  -0.131  1.00  0.00     0.029 A 
ATOM     54  N   UNL     1       0.421   2.059  -2.200  1.00  0.00    -0.354 N 
ATOM     55  C   UNL     1       5.259   4.520  -2.926  1.00  0.00     0.074 A 
ATOM     56  C   UNL     1       5.993   4.159  -1.748  1.00  0.00     0.031 C 
ATOM     57  C   UNL     1      -0.557   0.622  -1.021  1.00  0.00     0.029 A 
ATOM     58  C   UNL     1      -0.025   0.661  -2.468  1.00  0.00     0.049 A 
ATOM     59  H   UNL     1       0.452   2.676  -2.967  1.00  0.00     0.167 HD
ATOM     60  C   UNL     1       5.664   4.546  -4.240  1.00  0.00     0.037 A 
ATOM     61  C   UNL     1       0.185  -0.293  -3.702  1.00  0.00     0.037 A 
ATOM     62  C   UNL     1       4.625   4.796  -5.229  1.00  0.00     0.049 A 
ATOM     63  C   UNL     1       0.850   0.060  -5.408  1.00  0.00     0.074 A 
ATOM     64  C   UNL     1       3.959   5.929  -5.618  1.00  0.00     0.029 A 
ATOM     65  N   UNL     1       4.149   3.754  -6.040  1.00  0.00    -0.354 N 
ATOM     66  N   UNL     1       0.463   1.004  -6.290  1.00  0.00    -0.248 NA
ATOM     67  C   UNL     1       2.305  -0.275  -5.741  1.00  0.00     0.031 C 
ATOM     68  C   UNL     1       2.910   5.489  -6.475  1.00  0.00     0.029 A 
ATOM     69  C   UNL     1       2.913   4.075  -6.620  1.00  0.00     0.049 A 
ATOM     70  H   UNL     1       4.624   2.904  -6.185  1.00  0.00     0.167 HD
ATOM     71  C   UNL     1       1.656   1.704  -6.798  1.00  0.00     0.074 A 
ATOM     72  C   UNL     1       2.737   0.758  -6.503  1.00  0.00     0.031 C 
ATOM     73  C   UNL     1       1.732   3.105  -6.976  1.00  0.00     0.037 A 
BRANCH  60  74
ATOM     74  C   UNL     1       7.027   4.132  -4.770  1.00  0.00     0.057 A 
ATOM     75  C   UNL     1       7.771   3.069  -4.236  1.00  0.00     0.134 A 
ATOM     76  C   UNL     1       7.445   4.574  -6.046  1.00  0.00     0.134 A 
ATOM     77  F   UNL     1       7.514   2.551  -3.031  1.00  0.00    -0.206 F 
ATOM     78  C   UNL     1       8.760   2.404  -4.965  1.00  0.00     0.040 A 
ATOM     79  C   UNL     1       8.398   3.881  -6.804  1.00  0.00     0.040 A 
ATOM     80  F   UNL     1       6.886   5.646  -6.629  1.00  0.00    -0.206 F 
ATOM     81  C   UNL     1       9.032   2.766  -6.275  1.00  0.00     0.006 A 
ENDBRANCH  60  74
BRANCH  61  82
ATOM     82  C   UNL     1       0.333  -1.960  -3.615  1.00  0.00     0.057 A 
ATOM     83  C   UNL     1       1.469  -2.687  -3.112  1.00  0.00     0.134 A 
ATOM     84  C   UNL     1      -0.455  -2.856  -4.358  1.00  0.00     0.134 A 
ATOM     85  F   UNL     1       2.724  -2.224  -3.149  1.00  0.00    -0.206 F 
ATOM     86  C   UNL     1       1.583  -4.067  -2.909  1.00  0.00     0.040 A 
ATOM     87  C   UNL     1      -0.267  -4.283  -4.326  1.00  0.00     0.040 A 
ATOM     88  F   UNL     1      -1.349  -2.399  -5.245  1.00  0.00    -0.206 F 
ATOM     89  C   UNL     1       0.693  -4.894  -3.523  1.00  0.00     0.006 A 
ENDBRANCH  61  82
BRANCH  73  90
ATOM     90  C   UNL     1       0.415   3.871  -7.176  1.00  0.00     0.057 A 
ATOM     91  C   UNL     1       0.383   4.977  -8.055  1.00  0.00     0.134 A 
ATOM     92  C   UNL     1      -0.700   3.749  -6.334  1.00  0.00     0.134 A 
ATOM     93  F   UNL     1       1.401   5.211  -8.903  1.00  0.00    -0.206 F 
ATOM     94  C   UNL     1      -0.616   5.961  -7.994  1.00  0.00     0.040 A 
ATOM     95  C   UNL     1      -1.743   4.681  -6.326  1.00  0.00     0.040 A 
ATOM     96  F   UNL     1      -0.797   2.807  -5.388  1.00  0.00    -0.206 F 
ATOM     97  C   UNL     1      -1.682   5.817  -7.118  1.00  0.00     0.006 A 
ENDBRANCH  73  90
ENDBRANCH  47  48
ENDBRANCH  40  42
ENDBRANCH  39  40
ENDBRANCH  38  39
ENDBRANCH  37  38
ENDBRANCH  36  37
ENDBRANCH  35  36
ENDBRANCH  34  35
ENDBRANCH  33  34
ENDBRANCH   1  33
TORSDOF 25
