REMARK SMILES Cc1cc(C(=O)N[C@H](CC(C)C)C(=O)OCCOCCOCCOCCOC(=O)c2ccc(-c3c4nc(c(-c5c(F)cccc5F)c5ccc([nH]5)c(-c5c(F)cccc5F)c5nc(c(-c6c(F)cccc6F)c6ccc3[nH]6)C=C5)C=C4)cc2)sc1Br
REMARK SMILES IDX 21 1 20 2 19 3 18 4 17 5 16 6 15 7 13 8 14 9 8 10 7 11 5 12
REMARK SMILES IDX 6 13 4 15 1 16 2 17 3 18 85 19 84 20 86 21 9 22 10 23 11 24
REMARK SMILES IDX 12 25 22 26 23 27 24 28 25 29 26 30 27 31 28 32 29 33 30 34
REMARK SMILES IDX 31 35 83 36 32 37 82 38 33 39 34 40 35 41 76 42 36 43 81 44
REMARK SMILES IDX 75 45 77 46 37 47 80 48 74 49 73 50 38 52 64 53 47 54 63 55
REMARK SMILES IDX 48 56 51 57 62 58 78 59 49 60 50 61 61 63 79 64 52 65 39 66
REMARK SMILES IDX 40 67 45 68 41 69 42 70 44 71 46 72 43 73 65 74 66 75 71 76
REMARK SMILES IDX 67 77 68 78 70 79 72 80 69 81 53 82 54 83 59 84 55 85 56 86
REMARK SMILES IDX 58 87 60 88 57 89
REMARK H PARENT 7 14 77 51 51 62
REMARK Flexibility Score: inf
ROOT
ATOM      1  O   UNL     1      -3.742  -3.787   4.080  1.00  0.00    -0.377 OA
ENDROOT
BRANCH   1   2
ATOM      2  C   UNL     1      -3.369  -3.098   2.893  1.00  0.00     0.188 C 
BRANCH   2   3
ATOM      3  C   UNL     1      -3.653  -3.793   1.551  1.00  0.00     0.188 C 
BRANCH   3   4
ATOM      4  O   UNL     1      -4.122  -5.123   1.711  1.00  0.00    -0.376 OA
BRANCH   4   5
ATOM      5  C   UNL     1      -3.130  -6.129   1.669  1.00  0.00     0.202 C 
BRANCH   5   6
ATOM      6  C   UNL     1      -2.304  -6.380   2.933  1.00  0.00     0.261 C 
BRANCH   6   7
ATOM      7  O   UNL     1      -1.165  -5.575   3.310  1.00  0.00    -0.462 OA
BRANCH   7   8
ATOM      8  C   UNL     1      -0.569  -4.615   2.580  1.00  0.00     0.328 C 
ATOM      9  O   UNL     1      -0.957  -4.118   1.535  1.00  0.00    -0.250 OA
BRANCH   8  10
ATOM     10  C   UNL     1       0.736  -4.167   3.195  1.00  0.00     0.192 C 
BRANCH  10  11
ATOM     11  N   UNL     1       1.650  -5.300   3.358  1.00  0.00    -0.338 N 
ATOM     12  C   UNL     1       2.160  -6.197   2.430  1.00  0.00     0.262 C 
ATOM     13  O   UNL     1       3.333  -6.516   2.653  1.00  0.00    -0.268 OA
ATOM     14  H   UNL     1       1.953  -5.451   4.283  1.00  0.00     0.164 HD
BRANCH  12  15
ATOM     15  C   UNL     1       1.356  -6.867   1.395  1.00  0.00     0.093 A 
ATOM     16  C   UNL     1      -1.462  -7.462  -1.096  1.00  0.00     0.046 C 
ATOM     17  C   UNL     1      -0.246  -7.582  -0.225  1.00  0.00    -0.025 A 
ATOM     18  C   UNL     1       0.407  -6.483   0.458  1.00  0.00     0.030 A 
ATOM     19  C   UNL     1       0.438  -8.743   0.043  1.00  0.00     0.074 A 
ATOM     20  S   UNL     1       1.679  -8.559   1.175  1.00  0.00    -0.123 S 
ATOM     21  Br  UNL     1       0.061 -10.403  -0.756  1.00  0.00    -0.039 Br
ENDBRANCH  12  15
ENDBRANCH  10  11
BRANCH  10  22
ATOM     22  C   UNL     1       0.380  -3.459   4.534  1.00  0.00     0.040 C 
BRANCH  22  23
ATOM     23  C   UNL     1       1.308  -2.327   5.027  1.00  0.00    -0.015 C 
ATOM     24  C   UNL     1       1.440  -1.174   4.029  1.00  0.00     0.007 C 
ATOM     25  C   UNL     1       0.756  -1.755   6.346  1.00  0.00     0.007 C 
ENDBRANCH  22  23
ENDBRANCH  10  22
ENDBRANCH   8  10
ENDBRANCH   7   8
ENDBRANCH   6   7
ENDBRANCH   5   6
ENDBRANCH   4   5
ENDBRANCH   3   4
ENDBRANCH   2   3
ENDBRANCH   1   2
BRANCH   1  26
ATOM     26  C   UNL     1      -5.060  -4.322   4.185  1.00  0.00     0.188 C 
BRANCH  26  27
ATOM     27  C   UNL     1      -6.223  -3.863   3.261  1.00  0.00     0.188 C 
BRANCH  27  28
ATOM     28  O   UNL     1      -5.963  -2.769   2.397  1.00  0.00    -0.376 OA
BRANCH  28  29
ATOM     29  C   UNL     1      -6.374  -1.437   2.635  1.00  0.00     0.202 C 
BRANCH  29  30
ATOM     30  C   UNL     1      -5.829  -0.720   3.870  1.00  0.00     0.261 C 
BRANCH  30  31
ATOM     31  O   UNL     1      -5.877  -1.527   5.026  1.00  0.00    -0.460 OA
BRANCH  31  32
ATOM     32  C   UNL     1      -7.118  -1.941   5.341  1.00  0.00     0.338 C 
ATOM     33  O   UNL     1      -8.162  -1.664   4.782  1.00  0.00    -0.246 OA
BRANCH  32  34
ATOM     34  C   UNL     1      -7.024  -2.778   6.537  1.00  0.00     0.060 A 
ATOM     35  C   UNL     1      -8.247  -3.275   6.971  1.00  0.00     0.016 A 
ATOM     36  C   UNL     1      -5.915  -2.593   7.377  1.00  0.00     0.016 A 
ATOM     37  C   UNL     1      -8.500  -3.136   8.302  1.00  0.00     0.010 A 
ATOM     38  C   UNL     1      -6.166  -2.457   8.707  1.00  0.00     0.010 A 
ATOM     39  C   UNL     1      -7.491  -2.584   9.102  1.00  0.00    -0.014 A 
BRANCH  39  40
ATOM     40  C   UNL     1      -7.903  -2.079  10.379  1.00  0.00     0.031 A 
ATOM     41  C   UNL     1      -8.178  -3.157  11.331  1.00  0.00     0.074 A 
ATOM     42  C   UNL     1      -8.004  -0.760  10.612  1.00  0.00     0.049 A 
ATOM     43  N   UNL     1      -9.320  -3.512  11.808  1.00  0.00    -0.248 NA
ATOM     44  C   UNL     1      -7.069  -4.078  11.622  1.00  0.00     0.031 C 
ATOM     45  C   UNL     1      -7.501   0.357   9.805  1.00  0.00     0.029 A 
ATOM     46  N   UNL     1      -8.512  -0.148  11.707  1.00  0.00    -0.354 N 
ATOM     47  C   UNL     1      -9.036  -4.581  12.641  1.00  0.00     0.074 A 
ATOM     48  C   UNL     1      -7.694  -5.006  12.341  1.00  0.00     0.031 C 
ATOM     49  C   UNL     1      -7.524   1.483  10.555  1.00  0.00     0.029 A 
ATOM     50  C   UNL     1      -8.157   1.183  11.829  1.00  0.00     0.049 A 
ATOM     51  H   UNL     1      -9.084  -0.610  12.361  1.00  0.00     0.167 HD
ATOM     52  C   UNL     1      -9.817  -4.841  13.717  1.00  0.00     0.037 A 
ATOM     53  C   UNL     1      -8.293   1.927  12.951  1.00  0.00     0.037 A 
ATOM     54  C   UNL     1     -11.128  -4.263  13.580  1.00  0.00     0.049 A 
ATOM     55  C   UNL     1      -9.271   1.235  13.833  1.00  0.00     0.074 A 
ATOM     56  C   UNL     1     -12.162  -4.412  12.676  1.00  0.00     0.029 A 
ATOM     57  N   UNL     1     -11.388  -3.099  14.261  1.00  0.00    -0.354 N 
ATOM     58  N   UNL     1     -10.545   1.134  13.574  1.00  0.00    -0.248 NA
ATOM     59  C   UNL     1      -8.759   0.270  14.798  1.00  0.00     0.031 C 
ATOM     60  C   UNL     1     -12.754  -3.121  12.561  1.00  0.00     0.029 A 
ATOM     61  C   UNL     1     -12.068  -2.259  13.417  1.00  0.00     0.049 A 
ATOM     62  H   UNL     1     -11.131  -2.902  15.191  1.00  0.00     0.167 HD
ATOM     63  C   UNL     1     -10.902  -0.135  14.011  1.00  0.00     0.074 A 
ATOM     64  C   UNL     1      -9.794  -0.574  14.851  1.00  0.00     0.031 C 
ATOM     65  C   UNL     1     -11.926  -0.820  13.419  1.00  0.00     0.037 A 
BRANCH  52  66
ATOM     66  C   UNL     1      -9.233  -5.259  15.036  1.00  0.00     0.057 A 
ATOM     67  C   UNL     1     -10.087  -5.724  16.043  1.00  0.00     0.134 A 
ATOM     68  C   UNL     1      -7.914  -4.960  15.446  1.00  0.00     0.134 A 
ATOM     69  F   UNL     1     -11.371  -6.007  15.777  1.00  0.00    -0.206 F 
ATOM     70  C   UNL     1      -9.673  -5.833  17.375  1.00  0.00     0.040 A 
ATOM     71  C   UNL     1      -7.474  -5.122  16.758  1.00  0.00     0.040 A 
ATOM     72  F   UNL     1      -7.013  -4.399  14.630  1.00  0.00    -0.206 F 
ATOM     73  C   UNL     1      -8.364  -5.531  17.736  1.00  0.00     0.006 A 
ENDBRANCH  52  66
BRANCH  53  74
ATOM     74  C   UNL     1      -7.397   2.998  13.438  1.00  0.00     0.057 A 
ATOM     75  C   UNL     1      -7.815   3.887  14.436  1.00  0.00     0.134 A 
ATOM     76  C   UNL     1      -6.026   3.018  13.126  1.00  0.00     0.134 A 
ATOM     77  F   UNL     1      -9.096   3.910  14.833  1.00  0.00    -0.206 F 
ATOM     78  C   UNL     1      -6.918   4.735  15.099  1.00  0.00     0.040 A 
ATOM     79  C   UNL     1      -5.122   3.867  13.771  1.00  0.00     0.040 A 
ATOM     80  F   UNL     1      -5.499   2.154  12.247  1.00  0.00    -0.206 F 
ATOM     81  C   UNL     1      -5.565   4.721  14.772  1.00  0.00     0.006 A 
ENDBRANCH  53  74
BRANCH  65  82
ATOM     82  C   UNL     1     -12.818  -0.048  12.487  1.00  0.00     0.057 A 
ATOM     83  C   UNL     1     -12.385   0.497  11.269  1.00  0.00     0.134 A 
ATOM     84  C   UNL     1     -14.186   0.034  12.768  1.00  0.00     0.134 A 
ATOM     85  F   UNL     1     -11.113   0.374  10.870  1.00  0.00    -0.206 F 
ATOM     86  C   UNL     1     -13.266   1.142  10.395  1.00  0.00     0.040 A 
ATOM     87  C   UNL     1     -15.082   0.646  11.888  1.00  0.00     0.040 A 
ATOM     88  F   UNL     1     -14.681  -0.520  13.885  1.00  0.00    -0.206 F 
ATOM     89  C   UNL     1     -14.621   1.214  10.703  1.00  0.00     0.006 A 
ENDBRANCH  65  82
ENDBRANCH  39  40
ENDBRANCH  32  34
ENDBRANCH  31  32
ENDBRANCH  30  31
ENDBRANCH  29  30
ENDBRANCH  28  29
ENDBRANCH  27  28
ENDBRANCH  26  27
ENDBRANCH   1  26
TORSDOF 24
