REMARK SMILES Cc1ccc(C2=NN(C(=O)CCC(=O)OCCOCCOCCOCCOC(=O)c3ccc(-c4c5nc(c(-c6c(F)cccc6F)c6ccc([nH]6)c(-c6c(F)cccc6F)c6nc(c(-c7c(F)cccc7F)c7ccc4[nH]7)C=C6)C=C5)cc3)[C@H](C[C@H]3C=c4cccc(C)c4=NC3=O)C2)cc1
REMARK SMILES IDX 19 1 18 2 17 3 16 4 15 5 13 6 14 7 12 8 11 9 9 10 10 11 8 12
REMARK SMILES IDX 6 13 7 14 98 15 84 16 5 17 1 18 2 19 3 20 100 21 4 22 99 23
REMARK SMILES IDX 85 24 86 25 87 26 96 27 88 28 95 29 97 30 89 31 94 32 90 33
REMARK SMILES IDX 92 34 91 35 93 36 20 37 21 38 22 39 23 40 24 41 25 42 26 43
REMARK SMILES IDX 27 44 28 45 29 46 30 47 31 48 83 49 32 50 82 51 33 52 34 53
REMARK SMILES IDX 35 54 76 55 36 56 81 57 75 58 77 59 37 60 80 61 74 62 73 63
REMARK SMILES IDX 38 65 64 66 47 67 63 68 48 69 51 70 62 71 78 72 49 73 50 74
REMARK SMILES IDX 61 76 79 77 52 78 39 79 40 80 45 81 41 82 42 83 44 84 46 85
REMARK SMILES IDX 43 86 65 87 66 88 71 89 67 90 68 91 70 92 72 93 69 94 53 95
REMARK SMILES IDX 54 96 59 97 55 98 56 99 58 100 60 101 57 102
REMARK H PARENT 77 64 51 75
REMARK Flexibility Score: inf
ROOT
ATOM      1  C   UNL     1      -9.089   0.106  -1.369  1.00  0.00     0.188 C 
ENDROOT
BRANCH   1   2
ATOM      2  O   UNL     1      -8.913   0.856  -2.589  1.00  0.00    -0.376 OA
BRANCH   2   3
ATOM      3  C   UNL     1      -8.212   2.086  -2.500  1.00  0.00     0.202 C 
BRANCH   3   4
ATOM      4  C   UNL     1      -8.529   2.931  -1.305  1.00  0.00     0.261 C 
BRANCH   4   5
ATOM      5  O   UNL     1      -8.166   2.148  -0.143  1.00  0.00    -0.463 OA
BRANCH   5   6
ATOM      6  C   UNL     1      -8.892   2.105   0.971  1.00  0.00     0.306 C 
ATOM      7  O   UNL     1      -9.919   2.759   1.115  1.00  0.00    -0.252 OA
BRANCH   6   8
ATOM      8  C   UNL     1      -8.419   1.033   1.998  1.00  0.00     0.132 C 
BRANCH   8   9
ATOM      9  C   UNL     1      -7.222  -0.064   2.223  1.00  0.00     0.114 C 
BRANCH   9  10
ATOM     10  C   UNL     1      -5.960  -1.179   1.746  1.00  0.00     0.243 C 
ATOM     11  O   UNL     1      -6.103  -2.230   2.418  1.00  0.00    -0.273 OA
BRANCH  10  12
ATOM     12  N   UNL     1      -4.804  -1.061   0.697  1.00  0.00    -0.230 N 
ATOM     13  C   UNL     1      -1.880  -0.923  -0.259  1.00  0.00     0.070 C 
ATOM     14  N   UNL     1      -2.764  -1.298   1.025  1.00  0.00    -0.174 NA
ATOM     15  C   UNL     1      -3.046  -0.444  -1.808  1.00  0.00     0.086 C 
ATOM     16  C   UNL     1      -4.985  -0.637  -1.250  1.00  0.00     0.118 C 
BRANCH  13  17
ATOM     17  C   UNL     1      -0.478  -0.587  -0.190  1.00  0.00    -0.002 A 
ATOM     18  C   UNL     1       3.683   0.185   0.029  1.00  0.00     0.044 C 
ATOM     19  C   UNL     1       2.207  -0.049   0.038  1.00  0.00    -0.051 A 
ATOM     20  C   UNL     1       1.738  -1.371   0.104  1.00  0.00     0.004 A 
ATOM     21  C   UNL     1       1.304   1.016  -0.070  1.00  0.00     0.004 A 
ATOM     22  C   UNL     1       0.386  -1.643   0.012  1.00  0.00     0.010 A 
ATOM     23  C   UNL     1      -0.053   0.747  -0.193  1.00  0.00     0.010 A 
ENDBRANCH  13  17
BRANCH  16  24
ATOM     24  C   UNL     1      -6.682  -0.918  -2.265  1.00  0.00     0.045 C 
BRANCH  24  25
ATOM     25  C   UNL     1      -8.153  -2.246  -1.944  1.00  0.00     0.106 C 
ATOM     26  C   UNL     1      -8.540  -2.796  -0.370  1.00  0.00    -0.003 C 
ATOM     27  C   UNL     1      -9.577  -2.595  -2.568  1.00  0.00     0.253 C 
ATOM     28  C   UNL     1      -9.511  -3.523   0.145  1.00  0.00    -0.003 A 
ATOM     29  N   UNL     1     -10.042  -3.897  -2.225  1.00  0.00    -0.212 NA
ATOM     30  O   UNL     1     -10.151  -1.901  -3.396  1.00  0.00    -0.272 OA
ATOM     31  C   UNL     1      -9.308  -3.990   1.515  1.00  0.00     0.010 A 
ATOM     32  C   UNL     1      -9.918  -4.329  -0.996  1.00  0.00     0.077 A 
ATOM     33  C   UNL     1      -9.234  -5.305   1.730  1.00  0.00     0.001 A 
ATOM     34  C   UNL     1      -9.895  -5.793  -0.601  1.00  0.00    -0.025 A 
ATOM     35  C   UNL     1      -9.539  -6.204   0.641  1.00  0.00     0.005 A 
ATOM     36  C   UNL     1     -10.050  -6.728  -1.735  1.00  0.00     0.047 C 
ENDBRANCH  24  25
ENDBRANCH  16  24
ENDBRANCH  10  12
ENDBRANCH   9  10
ENDBRANCH   8   9
ENDBRANCH   6   8
ENDBRANCH   5   6
ENDBRANCH   4   5
ENDBRANCH   3   4
ENDBRANCH   2   3
ENDBRANCH   1   2
BRANCH   1  37
ATOM     37  C   UNL     1      -7.792  -0.526  -0.396  1.00  0.00     0.188 C 
BRANCH  37  38
ATOM     38  O   UNL     1      -6.568  -1.827  -0.469  1.00  0.00    -0.377 OA
BRANCH  38  39
ATOM     39  C   UNL     1      -5.974  -3.028  -1.532  1.00  0.00     0.188 C 
BRANCH  39  40
ATOM     40  C   UNL     1      -5.513  -2.805  -3.079  1.00  0.00     0.188 C 
BRANCH  40  41
ATOM     41  O   UNL     1      -6.521  -2.447  -4.049  1.00  0.00    -0.376 OA
BRANCH  41  42
ATOM     42  C   UNL     1      -7.207  -3.344  -4.877  1.00  0.00     0.202 C 
BRANCH  42  43
ATOM     43  C   UNL     1      -6.132  -4.206  -5.443  1.00  0.00     0.261 C 
BRANCH  43  44
ATOM     44  O   UNL     1      -5.298  -3.227  -6.236  1.00  0.00    -0.460 OA
BRANCH  44  45
ATOM     45  C   UNL     1      -4.184  -2.537  -5.779  1.00  0.00     0.338 C 
ATOM     46  O   UNL     1      -3.116  -3.122  -5.612  1.00  0.00    -0.246 OA
BRANCH  45  47
ATOM     47  C   UNL     1      -4.272  -0.987  -5.431  1.00  0.00     0.060 A 
ATOM     48  C   UNL     1      -3.193  -0.266  -4.882  1.00  0.00     0.016 A 
ATOM     49  C   UNL     1      -5.427  -0.228  -5.397  1.00  0.00     0.016 A 
ATOM     50  C   UNL     1      -3.355   0.966  -4.060  1.00  0.00     0.010 A 
ATOM     51  C   UNL     1      -5.582   0.885  -4.447  1.00  0.00     0.010 A 
ATOM     52  C   UNL     1      -4.602   1.367  -3.528  1.00  0.00    -0.014 A 
BRANCH  52  53
ATOM     53  C   UNL     1      -5.009   2.495  -2.249  1.00  0.00     0.031 A 
ATOM     54  C   UNL     1      -5.385   3.744  -3.022  1.00  0.00     0.074 A 
ATOM     55  C   UNL     1      -5.340   2.482  -0.776  1.00  0.00     0.049 A 
ATOM     56  N   UNL     1      -5.894   4.782  -2.490  1.00  0.00    -0.248 NA
ATOM     57  C   UNL     1      -5.451   3.847  -4.489  1.00  0.00     0.031 C 
ATOM     58  C   UNL     1      -6.045   3.377   0.227  1.00  0.00     0.029 A 
ATOM     59  N   UNL     1      -5.225   1.564   0.282  1.00  0.00    -0.354 N 
ATOM     60  C   UNL     1      -6.781   5.339  -3.396  1.00  0.00     0.074 A 
ATOM     61  C   UNL     1      -6.387   4.789  -4.663  1.00  0.00     0.031 C 
ATOM     62  C   UNL     1      -5.957   3.079   1.565  1.00  0.00     0.029 A 
ATOM     63  C   UNL     1      -5.109   1.960   1.625  1.00  0.00     0.049 A 
ATOM     64  H   UNL     1      -5.226   0.602   0.073  1.00  0.00     0.167 HD
ATOM     65  C   UNL     1      -7.825   6.059  -2.876  1.00  0.00     0.037 A 
ATOM     66  C   UNL     1      -3.898   1.841   2.240  1.00  0.00     0.037 A 
ATOM     67  C   UNL     1      -7.655   6.208  -1.392  1.00  0.00     0.049 A 
ATOM     68  C   UNL     1      -3.291   3.257   1.850  1.00  0.00     0.074 A 
ATOM     69  C   UNL     1      -8.429   6.004  -0.261  1.00  0.00     0.029 A 
ATOM     70  N   UNL     1      -6.356   6.384  -0.892  1.00  0.00    -0.354 N 
ATOM     71  N   UNL     1      -3.749   4.017   0.860  1.00  0.00    -0.248 NA
ATOM     72  C   UNL     1      -2.431   4.079   2.698  1.00  0.00     0.031 C 
ATOM     73  C   UNL     1      -7.543   5.984   0.890  1.00  0.00     0.029 A 
ATOM     74  C   UNL     1      -6.210   6.119   0.460  1.00  0.00     0.049 A 
ATOM     75  H   UNL     1      -5.605   6.673  -1.459  1.00  0.00     0.167 HD
ATOM     76  C   UNL     1      -3.833   5.327   1.283  1.00  0.00     0.074 A 
ATOM     77  C   UNL     1      -2.682   5.313   2.196  1.00  0.00     0.031 C 
ATOM     78  C   UNL     1      -4.858   6.280   1.077  1.00  0.00     0.037 A 
BRANCH  65  79
ATOM     79  C   UNL     1      -9.079   6.526  -3.626  1.00  0.00     0.057 A 
ATOM     80  C   UNL     1      -9.990   7.385  -2.973  1.00  0.00     0.134 A 
ATOM     81  C   UNL     1      -9.487   6.180  -4.935  1.00  0.00     0.134 A 
ATOM     82  F   UNL     1      -9.766   7.820  -1.727  1.00  0.00    -0.206 F 
ATOM     83  C   UNL     1     -11.173   7.868  -3.554  1.00  0.00     0.040 A 
ATOM     84  C   UNL     1     -10.652   6.695  -5.549  1.00  0.00     0.040 A 
ATOM     85  F   UNL     1      -8.807   5.308  -5.687  1.00  0.00    -0.206 F 
ATOM     86  C   UNL     1     -11.501   7.545  -4.858  1.00  0.00     0.006 A 
ENDBRANCH  65  79
BRANCH  66  87
ATOM     87  C   UNL     1      -3.514   0.393   1.905  1.00  0.00     0.057 A 
ATOM     88  C   UNL     1      -3.646  -1.051   2.873  1.00  0.00     0.134 A 
ATOM     89  C   UNL     1      -3.483   0.090   0.186  1.00  0.00     0.134 A 
ATOM     90  F   UNL     1      -3.786  -0.947   4.205  1.00  0.00    -0.206 F 
ATOM     91  C   UNL     1      -3.710  -2.704   2.271  1.00  0.00     0.040 A 
ATOM     92  C   UNL     1      -3.593  -1.861  -0.457  1.00  0.00     0.040 A 
ATOM     93  F   UNL     1      -2.983   1.198  -0.411  1.00  0.00    -0.206 F 
ATOM     94  C   UNL     1      -3.711  -3.120   0.678  1.00  0.00     0.006 A 
ENDBRANCH  66  87
BRANCH  78  95
ATOM     95  C   UNL     1      -4.613   7.729   1.366  1.00  0.00     0.057 A 
ATOM     96  C   UNL     1      -3.819   8.160   2.406  1.00  0.00     0.134 A 
ATOM     97  C   UNL     1      -5.133   8.750   0.528  1.00  0.00     0.134 A 
ATOM     98  F   UNL     1      -3.568   7.377   3.463  1.00  0.00    -0.206 F 
ATOM     99  C   UNL     1      -3.271   9.434   2.393  1.00  0.00     0.040 A 
ATOM    100  C   UNL     1      -4.663  10.043   0.550  1.00  0.00     0.040 A 
ATOM    101  F   UNL     1      -6.121   8.582  -0.357  1.00  0.00    -0.206 F 
ATOM    102  C   UNL     1      -3.660  10.365   1.434  1.00  0.00     0.006 A 
ENDBRANCH  78  95
ENDBRANCH  52  53
ENDBRANCH  45  47
ENDBRANCH  44  45
ENDBRANCH  43  44
ENDBRANCH  42  43
ENDBRANCH  41  42
ENDBRANCH  40  41
ENDBRANCH  39  40
ENDBRANCH  38  39
ENDBRANCH  37  38
ENDBRANCH   1  37
TORSDOF 26
