REMARK SMILES CC(C)(C)OC(=O)N[C@@H](C(=O)OCCOCCOCCOCCOC(=O)c1ccc(-c2c3nc(c(-c4c(F)cccc4F)c4ccc([nH]4)c(-c4c(F)cccc4F)c4nc(c(-c5c(F)cccc5F)c5ccc2[nH]5)C=C4)C=C3)cc1)[C@H](O)c1ccccc1F
REMARK SMILES IDX 17 1 16 2 15 3 14 4 13 5 12 6 10 7 11 8 9 9 8 10 6 11 7 12
REMARK SMILES IDX 5 14 2 15 1 16 3 17 4 18 81 19 83 20 84 21 88 22 85 23 87 24
REMARK SMILES IDX 89 25 86 26 82 27 18 29 19 30 20 31 21 32 22 33 23 34 24 35
REMARK SMILES IDX 25 36 26 37 27 38 28 39 80 40 29 41 79 42 30 43 31 44 32 45
REMARK SMILES IDX 73 46 33 47 78 48 72 49 74 50 34 51 77 52 71 53 70 54 35 56
REMARK SMILES IDX 61 57 44 58 60 59 45 60 48 61 59 62 75 63 46 64 47 65 58 67
REMARK SMILES IDX 76 68 49 69 36 70 37 71 42 72 38 73 39 74 41 75 43 76 40 77
REMARK SMILES IDX 62 78 63 79 68 80 64 81 65 82 67 83 69 84 66 85 50 86 51 87
REMARK SMILES IDX 56 88 52 89 53 90 55 91 57 92 54 93
REMARK H PARENT 8 13 82 28 74 55 48 66
REMARK Flexibility Score: inf
ROOT
ATOM      1  C   UNL     1      -0.619  -0.704   6.874  1.00  0.00     0.188 C 
ENDROOT
BRANCH   1   2
ATOM      2  C   UNL     1       0.056   0.144   7.968  1.00  0.00     0.188 C 
BRANCH   2   3
ATOM      3  O   UNL     1      -0.673   0.584   9.104  1.00  0.00    -0.376 OA
BRANCH   3   4
ATOM      4  C   UNL     1      -2.019   0.994   8.942  1.00  0.00     0.202 C 
BRANCH   4   5
ATOM      5  C   UNL     1      -2.419   1.966   7.810  1.00  0.00     0.261 C 
BRANCH   5   6
ATOM      6  O   UNL     1      -1.705   1.856   6.560  1.00  0.00    -0.462 OA
BRANCH   6   7
ATOM      7  C   UNL     1      -0.824   2.847   6.250  1.00  0.00     0.331 C 
ATOM      8  O   UNL     1      -0.652   3.844   6.943  1.00  0.00    -0.250 OA
BRANCH   7   9
ATOM      9  C   UNL     1      -0.054   2.611   4.925  1.00  0.00     0.228 C 
BRANCH   9  10
ATOM     10  N   UNL     1      -0.263   1.346   4.204  1.00  0.00    -0.305 N 
ATOM     11  C   UNL     1      -1.068   1.061   3.151  1.00  0.00     0.408 C 
ATOM     12  O   UNL     1      -1.050  -0.060   2.661  1.00  0.00    -0.225 OA
ATOM     13  H   UNL     1       0.265   0.586   4.539  1.00  0.00     0.168 HD
BRANCH  11  14
ATOM     14  O   UNL     1      -1.792   2.112   2.714  1.00  0.00    -0.444 OA
BRANCH  14  15
ATOM     15  C   UNL     1      -2.513   2.004   1.457  1.00  0.00     0.106 C 
ATOM     16  C   UNL     1      -3.137   3.391   1.251  1.00  0.00     0.056 C 
ATOM     17  C   UNL     1      -3.638   0.963   1.519  1.00  0.00     0.056 C 
ATOM     18  C   UNL     1      -1.551   1.726   0.292  1.00  0.00     0.056 C 
ENDBRANCH  14  15
ENDBRANCH  11  14
ENDBRANCH   9  10
BRANCH   9  19
ATOM     19  C   UNL     1       1.470   2.909   5.138  1.00  0.00     0.181 C 
BRANCH  19  20
ATOM     20  C   UNL     1       2.304   1.941   5.965  1.00  0.00     0.019 A 
ATOM     21  C   UNL     1       2.639   0.644   5.532  1.00  0.00     0.009 A 
ATOM     22  C   UNL     1       2.802   2.346   7.213  1.00  0.00     0.129 A 
ATOM     23  C   UNL     1       3.376  -0.226   6.349  1.00  0.00     0.001 A 
ATOM     24  C   UNL     1       3.554   1.493   8.023  1.00  0.00     0.039 A 
ATOM     25  F   UNL     1       2.550   3.583   7.660  1.00  0.00    -0.207 F 
ATOM     26  C   UNL     1       3.831   0.198   7.597  1.00  0.00     0.003 A 
ENDBRANCH  19  20
BRANCH  19  27
ATOM     27  O   UNL     1       2.098   3.016   3.849  1.00  0.00    -0.386 OA
ATOM     28  H   UNL     1       2.062   2.158   3.399  1.00  0.00     0.211 HD
ENDBRANCH  19  27
ENDBRANCH   9  19
ENDBRANCH   7   9
ENDBRANCH   6   7
ENDBRANCH   5   6
ENDBRANCH   4   5
ENDBRANCH   3   4
ENDBRANCH   2   3
ENDBRANCH   1   2
BRANCH   1  29
ATOM     29  O   UNL     1      -1.966  -1.037   7.141  1.00  0.00    -0.377 OA
BRANCH  29  30
ATOM     30  C   UNL     1      -2.151  -2.354   7.628  1.00  0.00     0.188 C 
BRANCH  30  31
ATOM     31  C   UNL     1      -1.234  -2.765   8.796  1.00  0.00     0.188 C 
BRANCH  31  32
ATOM     32  O   UNL     1       0.155  -2.657   8.492  1.00  0.00    -0.376 OA
BRANCH  32  33
ATOM     33  C   UNL     1       0.881  -3.816   8.115  1.00  0.00     0.202 C 
BRANCH  33  34
ATOM     34  C   UNL     1       0.585  -4.417   6.731  1.00  0.00     0.261 C 
BRANCH  34  35
ATOM     35  O   UNL     1      -0.771  -4.815   6.487  1.00  0.00    -0.460 OA
BRANCH  35  36
ATOM     36  C   UNL     1      -1.342  -5.692   7.339  1.00  0.00     0.338 C 
ATOM     37  O   UNL     1      -0.807  -6.275   8.267  1.00  0.00    -0.246 OA
BRANCH  36  38
ATOM     38  C   UNL     1      -2.800  -5.642   7.102  1.00  0.00     0.060 A 
ATOM     39  C   UNL     1      -3.645  -5.323   8.174  1.00  0.00     0.016 A 
ATOM     40  C   UNL     1      -3.323  -5.841   5.822  1.00  0.00     0.016 A 
ATOM     41  C   UNL     1      -5.019  -5.217   7.973  1.00  0.00     0.010 A 
ATOM     42  C   UNL     1      -4.704  -5.773   5.628  1.00  0.00     0.010 A 
ATOM     43  C   UNL     1      -5.557  -5.490   6.709  1.00  0.00    -0.014 A 
BRANCH  43  44
ATOM     44  C   UNL     1      -7.012  -5.724   6.578  1.00  0.00     0.031 A 
ATOM     45  C   UNL     1      -7.498  -7.143   6.663  1.00  0.00     0.074 A 
ATOM     46  C   UNL     1      -7.879  -4.711   6.413  1.00  0.00     0.049 A 
ATOM     47  N   UNL     1      -8.706  -7.620   6.518  1.00  0.00    -0.248 NA
ATOM     48  C   UNL     1      -6.476  -8.165   6.950  1.00  0.00     0.031 C 
ATOM     49  C   UNL     1      -7.529  -3.293   6.370  1.00  0.00     0.029 A 
ATOM     50  N   UNL     1      -9.240  -4.731   6.240  1.00  0.00    -0.354 N 
ATOM     51  C   UNL     1      -8.587  -8.994   6.685  1.00  0.00     0.074 A 
ATOM     52  C   UNL     1      -7.189  -9.279   6.915  1.00  0.00     0.031 C 
ATOM     53  C   UNL     1      -8.649  -2.577   6.162  1.00  0.00     0.029 A 
ATOM     54  C   UNL     1      -9.784  -3.489   6.022  1.00  0.00     0.049 A 
ATOM     55  H   UNL     1      -9.776  -5.556   6.270  1.00  0.00     0.167 HD
ATOM     56  C   UNL     1      -9.559  -9.934   6.653  1.00  0.00     0.037 A 
ATOM     57  C   UNL     1     -11.048  -3.139   5.715  1.00  0.00     0.037 A 
ATOM     58  C   UNL     1     -10.947  -9.642   6.416  1.00  0.00     0.049 A 
ATOM     59  C   UNL     1     -12.101  -4.213   5.601  1.00  0.00     0.074 A 
ATOM     60  C   UNL     1     -12.015 -10.519   6.376  1.00  0.00     0.029 A 
ATOM     61  N   UNL     1     -11.454  -8.376   6.168  1.00  0.00    -0.354 N 
ATOM     62  N   UNL     1     -11.988  -5.508   5.780  1.00  0.00    -0.248 NA
ATOM     63  C   UNL     1     -13.459  -3.777   5.243  1.00  0.00     0.031 C 
ATOM     64  C   UNL     1     -13.161  -9.791   6.041  1.00  0.00     0.029 A 
ATOM     65  C   UNL     1     -12.818  -8.451   5.941  1.00  0.00     0.049 A 
ATOM     66  H   UNL     1     -10.924  -7.546   6.154  1.00  0.00     0.167 HD
ATOM     67  C   UNL     1     -13.260  -6.035   5.589  1.00  0.00     0.074 A 
ATOM     68  C   UNL     1     -14.132  -4.918   5.291  1.00  0.00     0.031 C 
ATOM     69  C   UNL     1     -13.671  -7.325   5.657  1.00  0.00     0.037 A 
BRANCH  56  70
ATOM     70  C   UNL     1      -9.145 -11.364   6.840  1.00  0.00     0.057 A 
ATOM     71  C   UNL     1      -8.698 -11.855   8.073  1.00  0.00     0.134 A 
ATOM     72  C   UNL     1      -9.216 -12.267   5.771  1.00  0.00     0.134 A 
ATOM     73  F   UNL     1      -8.586 -11.038   9.132  1.00  0.00    -0.206 F 
ATOM     74  C   UNL     1      -8.316 -13.189   8.232  1.00  0.00     0.040 A 
ATOM     75  C   UNL     1      -8.865 -13.608   5.925  1.00  0.00     0.040 A 
ATOM     76  F   UNL     1      -9.634 -11.861   4.563  1.00  0.00    -0.206 F 
ATOM     77  C   UNL     1      -8.408 -14.071   7.157  1.00  0.00     0.006 A 
ENDBRANCH  56  70
BRANCH  57  78
ATOM     78  C   UNL     1     -11.390  -1.714   5.465  1.00  0.00     0.057 A 
ATOM     79  C   UNL     1     -12.236  -1.005   6.325  1.00  0.00     0.134 A 
ATOM     80  C   UNL     1     -10.900  -1.035   4.342  1.00  0.00     0.134 A 
ATOM     81  F   UNL     1     -12.760  -1.606   7.404  1.00  0.00    -0.206 F 
ATOM     82  C   UNL     1     -12.598   0.319   6.069  1.00  0.00     0.040 A 
ATOM     83  C   UNL     1     -11.230   0.297   4.089  1.00  0.00     0.040 A 
ATOM     84  F   UNL     1     -10.087  -1.657   3.475  1.00  0.00    -0.206 F 
ATOM     85  C   UNL     1     -12.089   0.976   4.950  1.00  0.00     0.006 A 
ENDBRANCH  57  78
BRANCH  69  86
ATOM     86  C   UNL     1     -15.134  -7.601   5.453  1.00  0.00     0.057 A 
ATOM     87  C   UNL     1     -15.744  -7.489   4.198  1.00  0.00     0.134 A 
ATOM     88  C   UNL     1     -15.927  -8.043   6.520  1.00  0.00     0.134 A 
ATOM     89  F   UNL     1     -15.044  -7.063   3.136  1.00  0.00    -0.206 F 
ATOM     90  C   UNL     1     -17.096  -7.788   4.016  1.00  0.00     0.040 A 
ATOM     91  C   UNL     1     -17.271  -8.374   6.344  1.00  0.00     0.040 A 
ATOM     92  F   UNL     1     -15.402  -8.185   7.747  1.00  0.00    -0.206 F 
ATOM     93  C   UNL     1     -17.861  -8.241   5.090  1.00  0.00     0.006 A 
ENDBRANCH  69  86
ENDBRANCH  43  44
ENDBRANCH  36  38
ENDBRANCH  35  36
ENDBRANCH  34  35
ENDBRANCH  33  34
ENDBRANCH  32  33
ENDBRANCH  31  32
ENDBRANCH  30  31
ENDBRANCH  29  30
ENDBRANCH   1  29
TORSDOF 26
