REMARK SMILES C[C@H](C(=O)OCCOCCOCCOCCOC(=O)c1ccc(-c2c3nc(c(-c4c(F)cccc4F)c4ccc([nH]4)c(-c4c(F)cccc4F)c4nc(c(-c5c(F)cccc5F)c5ccc2[nH]5)C=C4)C=C3)cc1)[C@@H](C)[N@@H+](C)CCC[NH+](C)C
REMARK SMILES IDX 9 1 8 2 7 3 6 4 5 5 3 6 4 7 2 8 1 9 74 10 75 11 76 12 77 13
REMARK SMILES IDX 78 15 79 16 80 17 81 18 82 19 83 20 10 22 11 23 12 24 13 25
REMARK SMILES IDX 14 26 15 27 16 28 17 29 18 30 19 31 20 32 21 33 73 34 22 35
REMARK SMILES IDX 72 36 23 37 24 38 25 39 66 40 26 41 71 42 65 43 67 44 27 45
REMARK SMILES IDX 70 46 64 47 63 48 28 50 54 51 37 52 53 53 38 54 41 55 52 56
REMARK SMILES IDX 68 57 39 58 40 59 51 61 69 62 42 63 29 64 30 65 35 66 31 67
REMARK SMILES IDX 32 68 34 69 36 70 33 71 55 72 56 73 61 74 57 75 58 76 60 77
REMARK SMILES IDX 62 78 59 79 43 80 44 81 49 82 45 83 46 84 48 85 50 86 47 87
REMARK H PARENT 76 14 81 21 67 49 41 60
REMARK Flexibility Score: inf
ROOT
ATOM      1  C   UNL     1       1.275  -2.517   0.951  1.00  0.00     0.188 C 
ENDROOT
BRANCH   1   2
ATOM      2  O   UNL     1       1.737  -2.217   2.250  1.00  0.00    -0.376 OA
BRANCH   2   3
ATOM      3  C   UNL     1       2.064  -0.888   2.617  1.00  0.00     0.202 C 
BRANCH   3   4
ATOM      4  C   UNL     1       1.991   0.341   1.691  1.00  0.00     0.261 C 
BRANCH   4   5
ATOM      5  O   UNL     1       1.078   0.278   0.587  1.00  0.00    -0.463 OA
BRANCH   5   6
ATOM      6  C   UNL     1       1.607   0.347  -0.651  1.00  0.00     0.314 C 
ATOM      7  O   UNL     1       2.816   0.443  -0.858  1.00  0.00    -0.252 OA
BRANCH   6   8
ATOM      8  C   UNL     1       0.620   0.220  -1.816  1.00  0.00     0.154 C 
ATOM      9  C   UNL     1       0.945  -1.085  -2.589  1.00  0.00     0.026 C 
BRANCH   8  10
ATOM     10  C   UNL     1      -0.933   0.472  -1.718  1.00  0.00     0.194 C 
ATOM     11  C   UNL     1      -1.623   0.885  -0.412  1.00  0.00     0.076 C 
BRANCH  10  12
ATOM     12  N   UNL     1      -1.446   1.225  -2.888  1.00  0.00    -0.334 N 
ATOM     13  C   UNL     1      -2.882   1.068  -3.113  1.00  0.00     0.332 C 
ATOM     14  H   UNL     1      -0.958   0.724  -3.631  1.00  0.00     0.348 HD
BRANCH  12  15
ATOM     15  C   UNL     1      -0.953   2.588  -3.148  1.00  0.00     0.268 C 
BRANCH  15  16
ATOM     16  C   UNL     1      -1.301   3.812  -2.269  1.00  0.00     0.123 C 
BRANCH  16  17
ATOM     17  C   UNL     1      -0.695   4.027  -0.866  1.00  0.00     0.267 C 
BRANCH  17  18
ATOM     18  N   UNL     1       0.727   4.337  -0.636  1.00  0.00    -0.340 N 
ATOM     19  C   UNL     1       1.088   3.989   0.746  1.00  0.00     0.332 C 
ATOM     20  C   UNL     1       1.671   3.748  -1.565  1.00  0.00     0.332 C 
ATOM     21  H   UNL     1       0.808   5.340  -0.805  1.00  0.00     0.347 HD
ENDBRANCH  17  18
ENDBRANCH  16  17
ENDBRANCH  15  16
ENDBRANCH  12  15
ENDBRANCH  10  12
ENDBRANCH   8  10
ENDBRANCH   6   8
ENDBRANCH   5   6
ENDBRANCH   4   5
ENDBRANCH   3   4
ENDBRANCH   2   3
ENDBRANCH   1   2
BRANCH   1  22
ATOM     22  C   UNL     1      -0.191  -2.186   0.647  1.00  0.00     0.188 C 
BRANCH  22  23
ATOM     23  O   UNL     1      -0.863  -1.286   1.503  1.00  0.00    -0.377 OA
BRANCH  23  24
ATOM     24  C   UNL     1      -1.174  -1.652   2.834  1.00  0.00     0.188 C 
BRANCH  24  25
ATOM     25  C   UNL     1      -0.985  -3.099   3.317  1.00  0.00     0.188 C 
BRANCH  25  26
ATOM     26  O   UNL     1      -0.999  -4.086   2.302  1.00  0.00    -0.376 OA
BRANCH  26  27
ATOM     27  C   UNL     1      -2.229  -4.718   1.978  1.00  0.00     0.202 C 
BRANCH  27  28
ATOM     28  C   UNL     1      -3.384  -3.848   1.453  1.00  0.00     0.261 C 
BRANCH  28  29
ATOM     29  O   UNL     1      -3.865  -2.821   2.334  1.00  0.00    -0.460 OA
BRANCH  29  30
ATOM     30  C   UNL     1      -4.289  -3.195   3.561  1.00  0.00     0.338 C 
ATOM     31  O   UNL     1      -4.356  -4.316   4.015  1.00  0.00    -0.246 OA
BRANCH  30  32
ATOM     32  C   UNL     1      -4.511  -1.963   4.343  1.00  0.00     0.060 A 
ATOM     33  C   UNL     1      -3.703  -1.714   5.461  1.00  0.00     0.016 A 
ATOM     34  C   UNL     1      -5.520  -1.071   3.979  1.00  0.00     0.016 A 
ATOM     35  C   UNL     1      -3.932  -0.586   6.246  1.00  0.00     0.010 A 
ATOM     36  C   UNL     1      -5.765   0.045   4.781  1.00  0.00     0.010 A 
ATOM     37  C   UNL     1      -4.997   0.270   5.938  1.00  0.00    -0.014 A 
BRANCH  37  38
ATOM     38  C   UNL     1      -5.447   1.262   6.941  1.00  0.00     0.031 A 
ATOM     39  C   UNL     1      -6.597   0.892   7.835  1.00  0.00     0.074 A 
ATOM     40  C   UNL     1      -4.836   2.452   7.073  1.00  0.00     0.049 A 
ATOM     41  N   UNL     1      -7.205   1.604   8.748  1.00  0.00    -0.248 NA
ATOM     42  C   UNL     1      -7.135  -0.470   7.675  1.00  0.00     0.031 C 
ATOM     43  C   UNL     1      -3.680   2.902   6.303  1.00  0.00     0.029 A 
ATOM     44  N   UNL     1      -5.118   3.504   7.908  1.00  0.00    -0.354 N 
ATOM     45  C   UNL     1      -8.203   0.784   9.260  1.00  0.00     0.074 A 
ATOM     46  C   UNL     1      -8.138  -0.468   8.539  1.00  0.00     0.031 C 
ATOM     47  C   UNL     1      -3.356   4.147   6.693  1.00  0.00     0.029 A 
ATOM     48  C   UNL     1      -4.305   4.593   7.713  1.00  0.00     0.049 A 
ATOM     49  H   UNL     1      -5.835   3.480   8.583  1.00  0.00     0.167 HD
ATOM     50  C   UNL     1      -9.091   1.049  10.247  1.00  0.00     0.037 A 
ATOM     51  C   UNL     1      -4.344   5.816   8.277  1.00  0.00     0.037 A 
ATOM     52  C   UNL     1      -9.152   2.297  10.959  1.00  0.00     0.049 A 
ATOM     53  C   UNL     1      -5.397   6.117   9.313  1.00  0.00     0.074 A 
ATOM     54  C   UNL     1     -10.001   2.661  11.989  1.00  0.00     0.029 A 
ATOM     55  N   UNL     1      -8.337   3.391  10.705  1.00  0.00    -0.354 N 
ATOM     56  N   UNL     1      -6.322   5.329   9.810  1.00  0.00    -0.248 NA
ATOM     57  C   UNL     1      -5.412   7.478   9.868  1.00  0.00     0.031 C 
ATOM     58  C   UNL     1      -9.743   3.996  12.315  1.00  0.00     0.029 A 
ATOM     59  C   UNL     1      -8.687   4.442  11.536  1.00  0.00     0.049 A 
ATOM     60  H   UNL     1      -7.618   3.416  10.034  1.00  0.00     0.167 HD
ATOM     61  C   UNL     1      -7.001   6.087  10.758  1.00  0.00     0.074 A 
ATOM     62  C   UNL     1      -6.375   7.392  10.774  1.00  0.00     0.031 C 
ATOM     63  C   UNL     1      -8.046   5.733  11.547  1.00  0.00     0.037 A 
BRANCH  50  64
ATOM     64  C   UNL     1     -10.091  -0.018  10.584  1.00  0.00     0.057 A 
ATOM     65  C   UNL     1      -9.725  -1.212  11.218  1.00  0.00     0.134 A 
ATOM     66  C   UNL     1     -11.448   0.164  10.288  1.00  0.00     0.134 A 
ATOM     67  F   UNL     1      -8.439  -1.459  11.514  1.00  0.00    -0.206 F 
ATOM     68  C   UNL     1     -10.667  -2.196  11.523  1.00  0.00     0.040 A 
ATOM     69  C   UNL     1     -12.404  -0.798  10.616  1.00  0.00     0.040 A 
ATOM     70  F   UNL     1     -11.869   1.285   9.682  1.00  0.00    -0.206 F 
ATOM     71  C   UNL     1     -12.013  -1.986  11.229  1.00  0.00     0.006 A 
ENDBRANCH  50  64
BRANCH  51  72
ATOM     72  C   UNL     1      -3.368   6.860   7.870  1.00  0.00     0.057 A 
ATOM     73  C   UNL     1      -2.403   7.340   8.763  1.00  0.00     0.134 A 
ATOM     74  C   UNL     1      -3.397   7.426   6.589  1.00  0.00     0.134 A 
ATOM     75  F   UNL     1      -2.340   6.856  10.012  1.00  0.00    -0.206 F 
ATOM     76  C   UNL     1      -1.518   8.359   8.407  1.00  0.00     0.040 A 
ATOM     77  C   UNL     1      -2.498   8.425   6.210  1.00  0.00     0.040 A 
ATOM     78  F   UNL     1      -4.296   7.013   5.685  1.00  0.00    -0.206 F 
ATOM     79  C   UNL     1      -1.561   8.901   7.124  1.00  0.00     0.006 A 
ENDBRANCH  51  72
BRANCH  63  80
ATOM     80  C   UNL     1      -8.549   6.753  12.530  1.00  0.00     0.057 A 
ATOM     81  C   UNL     1      -9.244   7.899  12.125  1.00  0.00     0.134 A 
ATOM     82  C   UNL     1      -8.373   6.558  13.907  1.00  0.00     0.134 A 
ATOM     83  F   UNL     1      -9.439   8.153  10.822  1.00  0.00    -0.206 F 
ATOM     84  C   UNL     1      -9.723   8.828  13.052  1.00  0.00     0.040 A 
ATOM     85  C   UNL     1      -8.875   7.462  14.844  1.00  0.00     0.040 A 
ATOM     86  F   UNL     1      -7.728   5.475  14.365  1.00  0.00    -0.206 F 
ATOM     87  C   UNL     1      -9.546   8.606  14.416  1.00  0.00     0.006 A 
ENDBRANCH  63  80
ENDBRANCH  37  38
ENDBRANCH  30  32
ENDBRANCH  29  30
ENDBRANCH  28  29
ENDBRANCH  27  28
ENDBRANCH  26  27
ENDBRANCH  25  26
ENDBRANCH  24  25
ENDBRANCH  23  24
ENDBRANCH  22  23
ENDBRANCH   1  22
TORSDOF 26
