REMARK SMILES O=C(Cn1c(-c2nc(-c3ccc(C(F)(F)F)cc3)no2)cc2ccccc21)OCCOCCOCCOCCOC(=O)c1ccc(-c2c3nc(c(-c4c(F)cccc4F)c4ccc([nH]4)c(-c4c(F)cccc4F)c4nc(c(-c5c(F)cccc5F)c5ccc2[nH]5)C=C4)C=C3)cc1
REMARK SMILES IDX 33 1 32 2 31 3 30 4 29 5 28 6 2 7 1 8 3 9 4 10 5 11 27 12
REMARK SMILES IDX 21 13 22 14 26 15 23 16 25 17 24 18 6 19 7 20 20 21 8 22
REMARK SMILES IDX 19 23 9 24 10 25 18 26 11 27 17 28 12 29 13 30 14 31 15 32
REMARK SMILES IDX 16 33 34 34 35 35 36 36 37 37 38 38 39 39 40 40 41 41 42 42
REMARK SMILES IDX 43 43 44 44 96 45 45 46 95 47 46 48 47 49 48 50 89 51 49 52
REMARK SMILES IDX 94 53 88 54 90 55 50 56 93 57 87 58 86 59 51 61 77 62 60 63
REMARK SMILES IDX 76 64 61 65 64 66 75 67 91 68 62 69 63 70 74 72 92 73 65 74
REMARK SMILES IDX 52 75 53 76 58 77 54 78 55 79 57 80 59 81 56 82 78 83 79 84
REMARK SMILES IDX 84 85 80 86 81 87 83 88 85 89 82 90 66 91 67 92 72 93 68 94
REMARK SMILES IDX 69 95 71 96 73 97 70 98
REMARK H PARENT 90 60 64 71
REMARK Flexibility Score: inf
ROOT
ATOM      1  C   UNL     1       1.791   1.974  -0.722  1.00  0.00     0.188 C 
ENDROOT
BRANCH   1   2
ATOM      2  C   UNL     1       2.538   2.046   0.601  1.00  0.00     0.188 C 
BRANCH   2   3
ATOM      3  O   UNL     1       3.817   1.443   0.804  1.00  0.00    -0.376 OA
BRANCH   3   4
ATOM      4  C   UNL     1       4.454   0.433   0.043  1.00  0.00     0.202 C 
BRANCH   4   5
ATOM      5  C   UNL     1       3.755  -0.877  -0.271  1.00  0.00     0.261 C 
BRANCH   5   6
ATOM      6  O   UNL     1       2.393  -0.979   0.149  1.00  0.00    -0.462 OA
BRANCH   6   7
ATOM      7  C   UNL     1       1.901  -0.822   1.392  1.00  0.00     0.326 C 
ATOM      8  O   UNL     1       0.674  -0.798   1.523  1.00  0.00    -0.250 OA
BRANCH   7   9
ATOM      9  C   UNL     1       2.785  -0.587   2.598  1.00  0.00     0.245 C 
BRANCH   9  10
ATOM     10  N   UNL     1       3.936  -1.461   2.742  1.00  0.00    -0.325 N 
ATOM     11  C   UNL     1       5.253  -1.106   3.015  1.00  0.00     0.109 A 
ATOM     12  C   UNL     1       3.798  -2.838   2.674  1.00  0.00     0.049 A 
ATOM     13  C   UNL     1       5.962  -2.296   3.074  1.00  0.00     0.042 A 
ATOM     14  C   UNL     1       5.059  -3.383   2.890  1.00  0.00     0.000 A 
ATOM     15  C   UNL     1       2.664  -3.639   2.433  1.00  0.00     0.027 A 
ATOM     16  C   UNL     1       5.188  -4.786   2.892  1.00  0.00     0.010 A 
ATOM     17  C   UNL     1       2.819  -5.021   2.418  1.00  0.00     0.002 A 
ATOM     18  C   UNL     1       4.063  -5.590   2.656  1.00  0.00     0.001 A 
BRANCH  11  19
ATOM     19  C   UNL     1       5.765   0.239   3.193  1.00  0.00     0.274 A 
ATOM     20  N   UNL     1       6.970   0.656   2.826  1.00  0.00    -0.185 NA
ATOM     21  O   UNL     1       5.032   1.248   3.761  1.00  0.00    -0.332 OA
ATOM     22  C   UNL     1       6.965   1.992   3.191  1.00  0.00     0.202 A 
ATOM     23  N   UNL     1       5.822   2.388   3.768  1.00  0.00    -0.057 NA
BRANCH  22  24
ATOM     24  C   UNL     1       8.093   2.914   3.045  1.00  0.00     0.023 A 
ATOM     25  C   UNL     1       8.699   3.445   4.194  1.00  0.00     0.013 A 
ATOM     26  C   UNL     1       8.498   3.399   1.793  1.00  0.00     0.013 A 
ATOM     27  C   UNL     1       9.662   4.460   4.102  1.00  0.00     0.014 A 
ATOM     28  C   UNL     1       9.459   4.425   1.701  1.00  0.00     0.014 A 
ATOM     29  C   UNL     1      10.038   4.978   2.855  1.00  0.00     0.056 A 
BRANCH  29  30
ATOM     30  C   UNL     1      11.010   6.137   2.788  1.00  0.00     0.416 C 
ATOM     31  F   UNL     1      10.527   7.256   3.398  1.00  0.00    -0.166 F 
ATOM     32  F   UNL     1      12.195   5.864   3.403  1.00  0.00    -0.166 F 
ATOM     33  F   UNL     1      11.328   6.515   1.519  1.00  0.00    -0.166 F 
ENDBRANCH  29  30
ENDBRANCH  22  24
ENDBRANCH  11  19
ENDBRANCH   9  10
ENDBRANCH   7   9
ENDBRANCH   6   7
ENDBRANCH   5   6
ENDBRANCH   4   5
ENDBRANCH   3   4
ENDBRANCH   2   3
ENDBRANCH   1   2
BRANCH   1  34
ATOM     34  O   UNL     1       2.254   2.933  -1.648  1.00  0.00    -0.377 OA
BRANCH  34  35
ATOM     35  C   UNL     1       3.596   2.731  -2.030  1.00  0.00     0.188 C 
BRANCH  35  36
ATOM     36  C   UNL     1       4.646   3.532  -1.218  1.00  0.00     0.188 C 
BRANCH  36  37
ATOM     37  O   UNL     1       4.314   4.783  -0.637  1.00  0.00    -0.376 OA
BRANCH  37  38
ATOM     38  C   UNL     1       3.365   5.597  -1.302  1.00  0.00     0.202 C 
BRANCH  38  39
ATOM     39  C   UNL     1       3.652   6.025  -2.759  1.00  0.00     0.261 C 
BRANCH  39  40
ATOM     40  O   UNL     1       4.186   4.981  -3.599  1.00  0.00    -0.460 OA
BRANCH  40  41
ATOM     41  C   UNL     1       5.422   5.148  -4.149  1.00  0.00     0.338 C 
ATOM     42  O   UNL     1       6.018   6.188  -4.290  1.00  0.00    -0.246 OA
BRANCH  41  43
ATOM     43  C   UNL     1       6.062   3.793  -4.225  1.00  0.00     0.060 A 
ATOM     44  C   UNL     1       5.391   2.673  -4.722  1.00  0.00     0.016 A 
ATOM     45  C   UNL     1       7.248   3.620  -3.489  1.00  0.00     0.016 A 
ATOM     46  C   UNL     1       5.836   1.395  -4.364  1.00  0.00     0.010 A 
ATOM     47  C   UNL     1       7.687   2.339  -3.127  1.00  0.00     0.010 A 
ATOM     48  C   UNL     1       6.967   1.216  -3.535  1.00  0.00    -0.014 A 
BRANCH  48  49
ATOM     49  C   UNL     1       7.509  -0.156  -3.413  1.00  0.00     0.031 A 
ATOM     50  C   UNL     1       7.835  -0.731  -4.753  1.00  0.00     0.074 A 
ATOM     51  C   UNL     1       7.911  -0.849  -2.321  1.00  0.00     0.049 A 
ATOM     52  N   UNL     1       7.362  -1.792  -5.321  1.00  0.00    -0.248 NA
ATOM     53  C   UNL     1       8.711   0.083  -5.614  1.00  0.00     0.031 C 
ATOM     54  C   UNL     1       8.026  -0.386  -0.939  1.00  0.00     0.029 A 
ATOM     55  N   UNL     1       8.401  -2.134  -2.252  1.00  0.00    -0.354 N 
ATOM     56  C   UNL     1       8.004  -1.866  -6.556  1.00  0.00     0.074 A 
ATOM     57  C   UNL     1       8.690  -0.617  -6.745  1.00  0.00     0.031 C 
ATOM     58  C   UNL     1       8.715  -1.300  -0.214  1.00  0.00     0.029 A 
ATOM     59  C   UNL     1       9.021  -2.455  -1.047  1.00  0.00     0.049 A 
ATOM     60  H   UNL     1       8.320  -2.775  -2.996  1.00  0.00     0.167 HD
ATOM     61  C   UNL     1       8.116  -3.029  -7.250  1.00  0.00     0.037 A 
ATOM     62  C   UNL     1       9.780  -3.549  -0.766  1.00  0.00     0.037 A 
ATOM     63  C   UNL     1       7.150  -4.005  -6.830  1.00  0.00     0.049 A 
ATOM     64  C   UNL     1       9.544  -4.572  -1.812  1.00  0.00     0.074 A 
ATOM     65  C   UNL     1       5.771  -4.066  -6.769  1.00  0.00     0.029 A 
ATOM     66  N   UNL     1       7.601  -5.084  -6.114  1.00  0.00    -0.354 N 
ATOM     67  N   UNL     1       8.485  -5.322  -1.898  1.00  0.00    -0.248 NA
ATOM     68  C   UNL     1      10.400  -4.563  -2.989  1.00  0.00     0.031 C 
ATOM     69  C   UNL     1       5.481  -4.903  -5.653  1.00  0.00     0.029 A 
ATOM     70  C   UNL     1       6.700  -5.307  -5.112  1.00  0.00     0.049 A 
ATOM     71  H   UNL     1       8.420  -5.601  -6.290  1.00  0.00     0.167 HD
ATOM     72  C   UNL     1       8.317  -5.532  -3.256  1.00  0.00     0.074 A 
ATOM     73  C   UNL     1       9.586  -5.154  -3.864  1.00  0.00     0.031 C 
ATOM     74  C   UNL     1       7.074  -5.717  -3.783  1.00  0.00     0.037 A 
BRANCH  61  75
ATOM     75  C   UNL     1       9.353  -3.412  -8.031  1.00  0.00     0.057 A 
ATOM     76  C   UNL     1      10.635  -2.872  -7.796  1.00  0.00     0.134 A 
ATOM     77  C   UNL     1       9.333  -4.585  -8.806  1.00  0.00     0.134 A 
ATOM     78  F   UNL     1      10.837  -1.796  -7.026  1.00  0.00    -0.206 F 
ATOM     79  C   UNL     1      11.807  -3.476  -8.256  1.00  0.00     0.040 A 
ATOM     80  C   UNL     1      10.504  -5.230  -9.220  1.00  0.00     0.040 A 
ATOM     81  F   UNL     1       8.175  -5.198  -9.097  1.00  0.00    -0.206 F 
ATOM     82  C   UNL     1      11.747  -4.681  -8.934  1.00  0.00     0.006 A 
ENDBRANCH  61  75
BRANCH  62  83
ATOM     83  C   UNL     1      10.850  -3.759   0.245  1.00  0.00     0.057 A 
ATOM     84  C   UNL     1      11.673  -2.705   0.673  1.00  0.00     0.134 A 
ATOM     85  C   UNL     1      11.269  -5.049   0.620  1.00  0.00     0.134 A 
ATOM     86  F   UNL     1      11.422  -1.441   0.304  1.00  0.00    -0.206 F 
ATOM     87  C   UNL     1      12.839  -2.915   1.420  1.00  0.00     0.040 A 
ATOM     88  C   UNL     1      12.442  -5.274   1.357  1.00  0.00     0.040 A 
ATOM     89  F   UNL     1      10.584  -6.133   0.231  1.00  0.00    -0.206 F 
ATOM     90  C   UNL     1      13.236  -4.205   1.752  1.00  0.00     0.006 A 
ENDBRANCH  62  83
BRANCH  74  91
ATOM     91  C   UNL     1       5.962  -6.070  -2.848  1.00  0.00     0.057 A 
ATOM     92  C   UNL     1       5.237  -7.244  -3.085  1.00  0.00     0.134 A 
ATOM     93  C   UNL     1       5.503  -5.223  -1.831  1.00  0.00     0.134 A 
ATOM     94  F   UNL     1       5.589  -8.066  -4.087  1.00  0.00    -0.206 F 
ATOM     95  C   UNL     1       4.110  -7.574  -2.333  1.00  0.00     0.040 A 
ATOM     96  C   UNL     1       4.395  -5.559  -1.052  1.00  0.00     0.040 A 
ATOM     97  F   UNL     1       6.074  -4.029  -1.606  1.00  0.00    -0.206 F 
ATOM     98  C   UNL     1       3.692  -6.735  -1.304  1.00  0.00     0.006 A 
ENDBRANCH  74  91
ENDBRANCH  48  49
ENDBRANCH  41  43
ENDBRANCH  40  41
ENDBRANCH  39  40
ENDBRANCH  38  39
ENDBRANCH  37  38
ENDBRANCH  36  37
ENDBRANCH  35  36
ENDBRANCH  34  35
ENDBRANCH   1  34
TORSDOF 24
