REMARK SMILES NS(=O)(=O)c1ccc(-n2nc(C(=O)OCCOCCOCCOCCOC(=O)c3ccc(-c4c5nc(c(-c6c(F)cccc6F)c6ccc([nH]6)c(-c6c(F)cccc6F)c6nc(c(-c7c(F)cccc7F)c7ccc4[nH]7)C=C6)C=C5)cc3)cc2-c2cc3ccccc3s2)cc1
REMARK SMILES IDX 19 1 18 2 17 3 16 4 15 5 14 6 12 7 13 8 11 9 9 10 10 11
REMARK SMILES IDX 84 12 83 13 8 14 5 15 6 16 95 17 7 18 94 19 2 20 3 21 4 22
REMARK SMILES IDX 1 23 85 26 86 27 93 28 87 29 92 30 88 31 91 32 89 33 90 34
REMARK SMILES IDX 20 35 21 36 22 37 23 38 24 39 25 40 26 41 27 42 28 43 29 44
REMARK SMILES IDX 30 45 82 46 31 47 81 48 32 49 33 50 34 51 75 52 35 53 80 54
REMARK SMILES IDX 74 55 76 56 36 57 79 58 73 59 72 60 37 62 63 63 46 64 62 65
REMARK SMILES IDX 47 66 50 67 61 68 77 69 48 70 49 71 60 73 78 74 51 75 38 76
REMARK SMILES IDX 39 77 44 78 40 79 41 80 43 81 45 82 42 83 64 84 65 85 70 86
REMARK SMILES IDX 66 87 67 88 69 89 71 90 68 91 52 92 53 93 58 94 54 95 55 96
REMARK SMILES IDX 57 97 59 98 56 99
REMARK H PARENT 1 24 1 25 76 61 50 72
REMARK Flexibility Score: inf
ROOT
ATOM      1  C   UNL     1       1.778   7.916   7.695  1.00  0.00     0.188 C 
ENDROOT
BRANCH   1   2
ATOM      2  C   UNL     1       0.241   7.804   7.764  1.00  0.00     0.188 C 
BRANCH   2   3
ATOM      3  O   UNL     1      -0.380   8.248   8.956  1.00  0.00    -0.376 OA
BRANCH   3   4
ATOM      4  C   UNL     1      -0.387   7.541  10.181  1.00  0.00     0.202 C 
BRANCH   4   5
ATOM      5  C   UNL     1       0.366   6.243  10.508  1.00  0.00     0.261 C 
BRANCH   5   6
ATOM      6  O   UNL     1       1.053   5.600   9.451  1.00  0.00    -0.458 OA
BRANCH   6   7
ATOM      7  C   UNL     1       0.304   4.880   8.574  1.00  0.00     0.358 C 
ATOM      8  O   UNL     1      -0.889   4.639   8.709  1.00  0.00    -0.244 OA
BRANCH   7   9
ATOM      9  C   UNL     1       1.127   4.512   7.419  1.00  0.00     0.171 A 
ATOM     10  N   UNL     1       1.728   3.691   5.545  1.00  0.00    -0.231 N 
ATOM     11  N   UNL     1       0.665   4.253   6.185  1.00  0.00    -0.160 NA
ATOM     12  C   UNL     1       2.826   3.604   6.370  1.00  0.00     0.085 A 
ATOM     13  C   UNL     1       2.531   4.441   7.428  1.00  0.00     0.068 A 
BRANCH  10  14
ATOM     14  C   UNL     1       1.554   3.236   4.230  1.00  0.00     0.065 A 
ATOM     15  C   UNL     1       0.986   2.334   1.678  1.00  0.00     0.082 A 
ATOM     16  C   UNL     1       1.429   1.431   2.653  1.00  0.00     0.024 A 
ATOM     17  C   UNL     1       0.837   3.694   1.969  1.00  0.00     0.024 A 
ATOM     18  C   UNL     1       1.741   1.887   3.932  1.00  0.00     0.030 A 
ATOM     19  C   UNL     1       1.090   4.142   3.263  1.00  0.00     0.030 A 
BRANCH  15  20
ATOM     20  S   UNL     1       0.607   1.788   0.042  1.00  0.00     0.238 S 
ATOM     21  O   UNL     1       1.340   2.601  -0.894  1.00  0.00    -0.207 OA
ATOM     22  O   UNL     1      -0.822   1.575  -0.049  1.00  0.00    -0.207 OA
BRANCH  20  23
ATOM     23  N   UNL     1       1.303   0.261  -0.054  1.00  0.00    -0.225 NA
ATOM     24  H   UNL     1       1.130  -0.134  -0.979  1.00  0.00     0.137 HD
ATOM     25  H   UNL     1       0.892  -0.345   0.656  1.00  0.00     0.137 HD
ENDBRANCH  20  23
ENDBRANCH  15  20
ENDBRANCH  10  14
BRANCH  12  26
ATOM     26  C   UNL     1       3.966   2.721   6.360  1.00  0.00     0.054 A 
ATOM     27  C   UNL     1       5.308   3.099   6.389  1.00  0.00     0.031 A 
ATOM     28  S   UNL     1       3.882   1.429   7.553  1.00  0.00    -0.134 S 
ATOM     29  C   UNL     1       5.677   3.219   7.797  1.00  0.00    -0.007 A 
ATOM     30  C   UNL     1       4.788   2.488   8.600  1.00  0.00     0.035 A 
ATOM     31  C   UNL     1       6.619   4.051   8.440  1.00  0.00     0.009 A 
ATOM     32  C   UNL     1       4.682   2.687   9.985  1.00  0.00     0.019 A 
ATOM     33  C   UNL     1       6.506   4.276   9.819  1.00  0.00     0.001 A 
ATOM     34  C   UNL     1       5.520   3.641  10.568  1.00  0.00     0.001 A 
ENDBRANCH  12  26
ENDBRANCH   7   9
ENDBRANCH   6   7
ENDBRANCH   5   6
ENDBRANCH   4   5
ENDBRANCH   3   4
ENDBRANCH   2   3
ENDBRANCH   1   2
BRANCH   1  35
ATOM     35  O   UNL     1       2.403   8.041   8.959  1.00  0.00    -0.377 OA
BRANCH  35  36
ATOM     36  C   UNL     1       2.437   9.340   9.548  1.00  0.00     0.188 C 
BRANCH  36  37
ATOM     37  C   UNL     1       1.454  10.481   9.143  1.00  0.00     0.188 C 
BRANCH  37  38
ATOM     38  O   UNL     1       0.876  10.367   7.853  1.00  0.00    -0.376 OA
BRANCH  38  39
ATOM     39  C   UNL     1       1.113  11.263   6.786  1.00  0.00     0.202 C 
BRANCH  39  40
ATOM     40  C   UNL     1       2.487  11.193   6.124  1.00  0.00     0.261 C 
BRANCH  40  41
ATOM     41  O   UNL     1       3.525  11.016   7.066  1.00  0.00    -0.460 OA
BRANCH  41  42
ATOM     42  C   UNL     1       3.695  12.061   7.891  1.00  0.00     0.338 C 
ATOM     43  O   UNL     1       3.065  13.111   7.899  1.00  0.00    -0.246 OA
BRANCH  42  44
ATOM     44  C   UNL     1       4.835  11.773   8.761  1.00  0.00     0.060 A 
ATOM     45  C   UNL     1       5.171  12.801   9.637  1.00  0.00     0.016 A 
ATOM     46  C   UNL     1       5.745  10.787   8.345  1.00  0.00     0.016 A 
ATOM     47  C   UNL     1       6.499  13.103   9.733  1.00  0.00     0.010 A 
ATOM     48  C   UNL     1       7.070  11.091   8.438  1.00  0.00     0.010 A 
ATOM     49  C   UNL     1       7.391  12.323   8.992  1.00  0.00    -0.014 A 
BRANCH  49  50
ATOM     50  C   UNL     1       8.676  12.895   8.707  1.00  0.00     0.031 A 
ATOM     51  C   UNL     1       9.613  12.764   9.826  1.00  0.00     0.074 A 
ATOM     52  C   UNL     1       8.951  13.407   7.495  1.00  0.00     0.049 A 
ATOM     53  N   UNL     1      10.045  13.699  10.601  1.00  0.00    -0.248 NA
ATOM     54  C   UNL     1       9.937  11.399  10.264  1.00  0.00     0.031 C 
ATOM     55  C   UNL     1       8.174  13.325   6.253  1.00  0.00     0.029 A 
ATOM     56  N   UNL     1      10.093  14.022   7.104  1.00  0.00    -0.354 N 
ATOM     57  C   UNL     1      10.880  13.054  11.500  1.00  0.00     0.074 A 
ATOM     58  C   UNL     1      10.601  11.646  11.391  1.00  0.00     0.031 C 
ATOM     59  C   UNL     1       8.976  13.645   5.211  1.00  0.00     0.029 A 
ATOM     60  C   UNL     1      10.265  14.067   5.727  1.00  0.00     0.049 A 
ATOM     61  H   UNL     1      10.742  14.403   7.739  1.00  0.00     0.167 HD
ATOM     62  C   UNL     1      11.941  13.693  12.054  1.00  0.00     0.037 A 
ATOM     63  C   UNL     1      11.463  14.287   5.131  1.00  0.00     0.037 A 
ATOM     64  C   UNL     1      11.829  15.124  11.939  1.00  0.00     0.049 A 
ATOM     65  C   UNL     1      12.338  14.943   6.151  1.00  0.00     0.074 A 
ATOM     66  C   UNL     1      10.891  16.051  12.355  1.00  0.00     0.029 A 
ATOM     67  N   UNL     1      12.566  15.755  10.965  1.00  0.00    -0.354 N 
ATOM     68  N   UNL     1      12.124  16.146   6.619  1.00  0.00    -0.248 NA
ATOM     69  C   UNL     1      13.130  14.075   7.016  1.00  0.00     0.031 C 
ATOM     70  C   UNL     1      10.790  16.982  11.280  1.00  0.00     0.029 A 
ATOM     71  C   UNL     1      11.709  16.600  10.303  1.00  0.00     0.049 A 
ATOM     72  H   UNL     1      13.524  15.626  10.777  1.00  0.00     0.167 HD
ATOM     73  C   UNL     1      12.398  16.061   7.979  1.00  0.00     0.074 A 
ATOM     74  C   UNL     1      13.066  14.773   8.155  1.00  0.00     0.031 C 
ATOM     75  C   UNL     1      11.801  16.888   8.890  1.00  0.00     0.037 A 
BRANCH  62  76
ATOM     76  C   UNL     1      13.235  12.993  12.345  1.00  0.00     0.057 A 
ATOM     77  C   UNL     1      14.182  13.617  13.167  1.00  0.00     0.134 A 
ATOM     78  C   UNL     1      13.692  11.857  11.641  1.00  0.00     0.134 A 
ATOM     79  F   UNL     1      13.869  14.724  13.856  1.00  0.00    -0.206 F 
ATOM     80  C   UNL     1      15.504  13.167  13.248  1.00  0.00     0.040 A 
ATOM     81  C   UNL     1      14.989  11.363  11.762  1.00  0.00     0.040 A 
ATOM     82  F   UNL     1      12.944  11.229  10.724  1.00  0.00    -0.206 F 
ATOM     83  C   UNL     1      15.910  12.037  12.545  1.00  0.00     0.006 A 
ENDBRANCH  62  76
BRANCH  63  84
ATOM     84  C   UNL     1      11.990  13.598   3.929  1.00  0.00     0.057 A 
ATOM     85  C   UNL     1      13.123  14.077   3.259  1.00  0.00     0.134 A 
ATOM     86  C   UNL     1      11.546  12.317   3.547  1.00  0.00     0.134 A 
ATOM     87  F   UNL     1      13.654  15.264   3.585  1.00  0.00    -0.206 F 
ATOM     88  C   UNL     1      13.778  13.324   2.273  1.00  0.00     0.040 A 
ATOM     89  C   UNL     1      12.184  11.562   2.559  1.00  0.00     0.040 A 
ATOM     90  F   UNL     1      10.529  11.713   4.178  1.00  0.00    -0.206 F 
ATOM     91  C   UNL     1      13.312  12.060   1.925  1.00  0.00     0.006 A 
ENDBRANCH  63  84
BRANCH  75  92
ATOM     92  C   UNL     1      10.957  18.023   8.378  1.00  0.00     0.057 A 
ATOM     93  C   UNL     1       9.782  17.841   7.631  1.00  0.00     0.134 A 
ATOM     94  C   UNL     1      11.230  19.325   8.811  1.00  0.00     0.134 A 
ATOM     95  F   UNL     1       9.377  16.618   7.270  1.00  0.00    -0.206 F 
ATOM     96  C   UNL     1       8.944  18.909   7.294  1.00  0.00     0.040 A 
ATOM     97  C   UNL     1      10.384  20.396   8.509  1.00  0.00     0.040 A 
ATOM     98  F   UNL     1      12.299  19.569   9.585  1.00  0.00    -0.206 F 
ATOM     99  C   UNL     1       9.241  20.192   7.740  1.00  0.00     0.006 A 
ENDBRANCH  75  92
ENDBRANCH  49  50
ENDBRANCH  42  44
ENDBRANCH  41  42
ENDBRANCH  40  41
ENDBRANCH  39  40
ENDBRANCH  38  39
ENDBRANCH  37  38
ENDBRANCH  36  37
ENDBRANCH  35  36
ENDBRANCH   1  35
TORSDOF 24
