REMARK SMILES N#C/C(=C\c1ccc(Oc2ccccc2)cc1Cl)C(=O)OCCOCCOCCOCCOC(=O)c1ccc(-c2c3nc(c(-c4c(F)cccc4F)c4ccc([nH]4)c(-c4c(F)cccc4F)c4nc(c(-c5c(F)cccc5F)c5ccc2[nH]5)C=C4)C=C3)cc1
REMARK SMILES IDX 26 1 25 2 24 3 23 4 22 5 21 6 19 7 20 8 3 9 4 10 2 11 1 12
REMARK SMILES IDX 5 13 6 14 17 15 7 16 16 17 18 18 8 19 9 20 10 21 11 22 15 23
REMARK SMILES IDX 12 24 14 25 13 26 27 27 28 28 29 29 30 30 31 31 32 32 33 33
REMARK SMILES IDX 34 34 35 35 36 36 37 37 89 38 38 39 88 40 39 41 40 42 41 43
REMARK SMILES IDX 82 44 42 45 87 46 81 47 83 48 43 49 86 50 80 51 79 52 44 54
REMARK SMILES IDX 70 55 53 56 69 57 54 58 57 59 68 60 84 61 55 62 56 63 67 65
REMARK SMILES IDX 85 66 58 67 45 68 46 69 51 70 47 71 48 72 50 73 52 74 49 75
REMARK SMILES IDX 71 76 72 77 77 78 73 79 74 80 76 81 78 82 75 83 59 84 60 85
REMARK SMILES IDX 65 86 61 87 62 88 64 89 66 90 63 91
REMARK H PARENT 83 53 57 64
REMARK Flexibility Score: inf
ROOT
ATOM      1  C   UNL     1       4.601  -1.714   2.345  1.00  0.00     0.188 C 
ENDROOT
BRANCH   1   2
ATOM      2  C   UNL     1       3.954  -2.831   1.500  1.00  0.00     0.188 C 
BRANCH   2   3
ATOM      3  O   UNL     1       4.730  -3.885   0.954  1.00  0.00    -0.376 OA
BRANCH   3   4
ATOM      4  C   UNL     1       5.884  -3.726   0.141  1.00  0.00     0.202 C 
BRANCH   4   5
ATOM      5  C   UNL     1       6.176  -2.553  -0.811  1.00  0.00     0.261 C 
BRANCH   5   6
ATOM      6  O   UNL     1       5.702  -1.286  -0.381  1.00  0.00    -0.459 OA
BRANCH   6   7
ATOM      7  C   UNL     1       4.478  -0.980  -0.849  1.00  0.00     0.348 C 
ATOM      8  O   UNL     1       3.893  -1.547  -1.759  1.00  0.00    -0.245 OA
BRANCH   7   9
ATOM      9  C   UNL     1       3.851   0.068  -0.019  1.00  0.00     0.138 C 
ATOM     10  C   UNL     1       4.529   1.225   0.186  1.00  0.00     0.036 C 
BRANCH   9  11
ATOM     11  C   UNL     1       2.331   0.068  -0.019  1.00  0.00     0.107 C 
ATOM     12  N   UNL     1       1.070   0.068  -0.019  1.00  0.00    -0.192 NA
ENDBRANCH   9  11
BRANCH  10  13
ATOM     13  C   UNL     1       3.843   2.533   0.337  1.00  0.00    -0.005 A 
ATOM     14  C   UNL     1       4.088   3.487  -0.667  1.00  0.00     0.013 A 
ATOM     15  C   UNL     1       2.878   2.839   1.311  1.00  0.00     0.052 A 
ATOM     16  C   UNL     1       3.343   4.672  -0.733  1.00  0.00     0.048 A 
ATOM     17  C   UNL     1       2.081   3.985   1.193  1.00  0.00     0.068 A 
ATOM     18  Cl  UNL     1       2.624   1.838   2.701  1.00  0.00    -0.084 Cl
ATOM     19  C   UNL     1       2.313   4.915   0.177  1.00  0.00     0.128 A 
BRANCH  19  20
ATOM     20  O   UNL     1       1.613   6.087  -0.033  1.00  0.00    -0.457 OA
BRANCH  20  21
ATOM     21  C   UNL     1       0.497   6.348   0.724  1.00  0.00     0.127 A 
ATOM     22  C   UNL     1      -0.728   6.464   0.065  1.00  0.00     0.047 A 
ATOM     23  C   UNL     1       0.576   6.566   2.101  1.00  0.00     0.047 A 
ATOM     24  C   UNL     1      -1.889   6.711   0.799  1.00  0.00     0.004 A 
ATOM     25  C   UNL     1      -0.589   6.779   2.837  1.00  0.00     0.004 A 
ATOM     26  C   UNL     1      -1.822   6.845   2.187  1.00  0.00     0.000 A 
ENDBRANCH  20  21
ENDBRANCH  19  20
ENDBRANCH  10  13
ENDBRANCH   7   9
ENDBRANCH   6   7
ENDBRANCH   5   6
ENDBRANCH   4   5
ENDBRANCH   3   4
ENDBRANCH   2   3
ENDBRANCH   1   2
BRANCH   1  27
ATOM     27  O   UNL     1       5.995  -1.599   2.178  1.00  0.00    -0.377 OA
BRANCH  27  28
ATOM     28  C   UNL     1       6.802  -2.362   3.063  1.00  0.00     0.188 C 
BRANCH  28  29
ATOM     29  C   UNL     1       6.234  -3.650   3.707  1.00  0.00     0.188 C 
BRANCH  29  30
ATOM     30  O   UNL     1       4.879  -3.590   4.125  1.00  0.00    -0.376 OA
BRANCH  30  31
ATOM     31  C   UNL     1       4.555  -3.272   5.471  1.00  0.00     0.202 C 
BRANCH  31  32
ATOM     32  C   UNL     1       4.969  -1.899   6.032  1.00  0.00     0.261 C 
BRANCH  32  33
ATOM     33  O   UNL     1       6.361  -1.572   5.934  1.00  0.00    -0.460 OA
BRANCH  33  34
ATOM     34  C   UNL     1       7.233  -2.392   6.554  1.00  0.00     0.338 C 
ATOM     35  O   UNL     1       6.972  -3.365   7.242  1.00  0.00    -0.246 OA
BRANCH  34  36
ATOM     36  C   UNL     1       8.588  -2.035   6.094  1.00  0.00     0.060 A 
ATOM     37  C   UNL     1       9.357  -3.006   5.437  1.00  0.00     0.016 A 
ATOM     38  C   UNL     1       9.090  -0.747   6.294  1.00  0.00     0.016 A 
ATOM     39  C   UNL     1      10.649  -2.703   5.014  1.00  0.00     0.010 A 
ATOM     40  C   UNL     1      10.396  -0.453   5.896  1.00  0.00     0.010 A 
ATOM     41  C   UNL     1      11.191  -1.442   5.290  1.00  0.00    -0.014 A 
BRANCH  41  42
ATOM     42  C   UNL     1      12.651  -1.234   5.154  1.00  0.00     0.031 A 
ATOM     43  C   UNL     1      13.503  -1.375   6.385  1.00  0.00     0.074 A 
ATOM     44  C   UNL     1      13.213  -0.952   3.967  1.00  0.00     0.049 A 
ATOM     45  N   UNL     1      14.789  -1.194   6.534  1.00  0.00    -0.248 NA
ATOM     46  C   UNL     1      12.802  -1.772   7.618  1.00  0.00     0.031 C 
ATOM     47  C   UNL     1      12.501  -0.842   2.697  1.00  0.00     0.029 A 
ATOM     48  N   UNL     1      14.523  -0.699   3.646  1.00  0.00    -0.354 N 
ATOM     49  C   UNL     1      15.049  -1.442   7.876  1.00  0.00     0.074 A 
ATOM     50  C   UNL     1      13.785  -1.755   8.504  1.00  0.00     0.031 C 
ATOM     51  C   UNL     1      13.383  -0.532   1.731  1.00  0.00     0.029 A 
ATOM     52  C   UNL     1      14.713  -0.387   2.322  1.00  0.00     0.049 A 
ATOM     53  H   UNL     1      15.256  -0.738   4.301  1.00  0.00     0.167 HD
ATOM     54  C   UNL     1      16.237  -1.417   8.525  1.00  0.00     0.037 A 
ATOM     55  C   UNL     1      15.830  -0.004   1.674  1.00  0.00     0.037 A 
ATOM     56  C   UNL     1      17.490  -1.099   7.895  1.00  0.00     0.049 A 
ATOM     57  C   UNL     1      17.126   0.102   2.436  1.00  0.00     0.074 A 
ATOM     58  C   UNL     1      18.753  -1.065   8.459  1.00  0.00     0.029 A 
ATOM     59  N   UNL     1      17.636  -0.746   6.562  1.00  0.00    -0.354 N 
ATOM     60  N   UNL     1      17.371  -0.157   3.698  1.00  0.00    -0.248 NA
ATOM     61  C   UNL     1      18.303   0.555   1.680  1.00  0.00     0.031 C 
ATOM     62  C   UNL     1      19.654  -0.628   7.482  1.00  0.00     0.029 A 
ATOM     63  C   UNL     1      18.964  -0.458   6.292  1.00  0.00     0.049 A 
ATOM     64  H   UNL     1      16.905  -0.706   5.904  1.00  0.00     0.167 HD
ATOM     65  C   UNL     1      18.731   0.066   3.879  1.00  0.00     0.074 A 
ATOM     66  C   UNL     1      19.260   0.473   2.593  1.00  0.00     0.031 C 
ATOM     67  C   UNL     1      19.477  -0.059   5.005  1.00  0.00     0.037 A 
BRANCH  54  68
ATOM     68  C   UNL     1      16.222  -1.699  10.000  1.00  0.00     0.057 A 
ATOM     69  C   UNL     1      15.938  -2.971  10.514  1.00  0.00     0.134 A 
ATOM     70  C   UNL     1      16.505  -0.680  10.919  1.00  0.00     0.134 A 
ATOM     71  F   UNL     1      15.639  -3.987   9.691  1.00  0.00    -0.206 F 
ATOM     72  C   UNL     1      15.905  -3.212  11.889  1.00  0.00     0.040 A 
ATOM     73  C   UNL     1      16.507  -0.916  12.294  1.00  0.00     0.040 A 
ATOM     74  F   UNL     1      16.788   0.561  10.495  1.00  0.00    -0.206 F 
ATOM     75  C   UNL     1      16.197  -2.183  12.783  1.00  0.00     0.006 A 
ENDBRANCH  54  68
BRANCH  55  76
ATOM     76  C   UNL     1      15.775   0.319   0.225  1.00  0.00     0.057 A 
ATOM     77  C   UNL     1      16.421  -0.485  -0.721  1.00  0.00     0.134 A 
ATOM     78  C   UNL     1      15.094   1.448  -0.247  1.00  0.00     0.134 A 
ATOM     79  F   UNL     1      17.111  -1.566  -0.330  1.00  0.00    -0.206 F 
ATOM     80  C   UNL     1      16.407  -0.170  -2.081  1.00  0.00     0.040 A 
ATOM     81  C   UNL     1      15.048   1.760  -1.607  1.00  0.00     0.040 A 
ATOM     82  F   UNL     1      14.455   2.260   0.608  1.00  0.00    -0.206 F 
ATOM     83  C   UNL     1      15.712   0.953  -2.528  1.00  0.00     0.006 A 
ENDBRANCH  55  76
BRANCH  67  84
ATOM     84  C   UNL     1      20.953   0.204   4.893  1.00  0.00     0.057 A 
ATOM     85  C   UNL     1      21.468   1.491   4.695  1.00  0.00     0.134 A 
ATOM     86  C   UNL     1      21.873  -0.845   5.030  1.00  0.00     0.134 A 
ATOM     87  F   UNL     1      20.644   2.539   4.545  1.00  0.00    -0.206 F 
ATOM     88  C   UNL     1      22.843   1.722   4.613  1.00  0.00     0.040 A 
ATOM     89  C   UNL     1      23.250  -0.622   4.982  1.00  0.00     0.040 A 
ATOM     90  F   UNL     1      21.449  -2.101   5.234  1.00  0.00    -0.206 F 
ATOM     91  C   UNL     1      23.738   0.664   4.765  1.00  0.00     0.006 A 
ENDBRANCH  67  84
ENDBRANCH  41  42
ENDBRANCH  34  36
ENDBRANCH  33  34
ENDBRANCH  32  33
ENDBRANCH  31  32
ENDBRANCH  30  31
ENDBRANCH  29  30
ENDBRANCH  28  29
ENDBRANCH  27  28
ENDBRANCH   1  27
TORSDOF 24
