REMARK SMILES O=C(OCCOCCOCCOCCOC(=O)c1nnn(-c2cccc(C(F)(F)F)c2)c1[C@@H]1COc2ccccc2O1)c1ccc(-c2c3nc(c(-c4c(F)cccc4F)c4ccc([nH]4)c(-c4c(F)cccc4F)c4nc(c(-c5c(F)cccc5F)c5ccc2[nH]5)C=C4)C=C3)cc1
REMARK SMILES IDX 9 1 8 2 7 3 6 4 5 5 4 6 3 7 2 8 1 9 43 10 44 11 96 12 45 13
REMARK SMILES IDX 95 14 46 15 47 16 48 17 89 18 49 19 94 20 88 21 90 22 50 23
REMARK SMILES IDX 93 24 87 25 86 26 51 28 77 29 60 30 76 31 61 32 64 33 75 34
REMARK SMILES IDX 91 35 62 36 63 37 74 39 92 40 65 41 52 42 53 43 58 44 54 45
REMARK SMILES IDX 55 46 57 47 59 48 56 49 78 50 79 51 84 52 80 53 81 54 83 55
REMARK SMILES IDX 85 56 82 57 66 58 67 59 72 60 68 61 69 62 71 63 73 64 70 65
REMARK SMILES IDX 10 66 11 67 12 68 13 69 14 70 15 71 16 72 17 73 18 74 19 75
REMARK SMILES IDX 32 76 20 77 21 78 33 79 34 80 42 81 35 82 41 83 36 84 40 85
REMARK SMILES IDX 37 86 39 87 38 88 22 89 23 90 31 91 24 92 26 93 25 94 27 95
REMARK SMILES IDX 28 96 29 97 30 98
REMARK H PARENT 90 27 64 38
REMARK Flexibility Score: inf
ROOT
ATOM      1  O   UNL     1       2.979  -3.094  -1.335  1.00  0.00    -0.377 OA
ENDROOT
BRANCH   1   2
ATOM      2  C   UNL     1       2.459  -1.897  -0.774  1.00  0.00     0.188 C 
BRANCH   2   3
ATOM      3  C   UNL     1       3.013  -0.582  -1.350  1.00  0.00     0.188 C 
BRANCH   3   4
ATOM      4  O   UNL     1       4.212   0.067  -0.942  1.00  0.00    -0.376 OA
BRANCH   4   5
ATOM      5  C   UNL     1       5.047  -0.293   0.135  1.00  0.00     0.202 C 
BRANCH   5   6
ATOM      6  C   UNL     1       4.568  -0.162   1.583  1.00  0.00     0.261 C 
BRANCH   6   7
ATOM      7  O   UNL     1       3.199  -0.486   1.819  1.00  0.00    -0.460 OA
BRANCH   7   8
ATOM      8  C   UNL     1       2.086   0.238   1.585  1.00  0.00     0.338 C 
ATOM      9  O   UNL     1       1.000  -0.300   1.803  1.00  0.00    -0.246 OA
BRANCH   8  10
ATOM     10  C   UNL     1       2.073   1.623   1.034  1.00  0.00     0.060 A 
ATOM     11  C   UNL     1       3.183   2.445   0.834  1.00  0.00     0.016 A 
ATOM     12  C   UNL     1       0.796   2.134   0.722  1.00  0.00     0.016 A 
ATOM     13  C   UNL     1       3.023   3.777   0.500  1.00  0.00     0.010 A 
ATOM     14  C   UNL     1       0.628   3.460   0.361  1.00  0.00     0.010 A 
ATOM     15  C   UNL     1       1.743   4.289   0.340  1.00  0.00    -0.014 A 
BRANCH  15  16
ATOM     16  C   UNL     1       1.630   5.732   0.265  1.00  0.00     0.031 A 
ATOM     17  C   UNL     1       2.157   6.390  -0.954  1.00  0.00     0.074 A 
ATOM     18  C   UNL     1       1.058   6.418   1.271  1.00  0.00     0.049 A 
ATOM     19  N   UNL     1       3.089   7.283  -1.043  1.00  0.00    -0.248 NA
ATOM     20  C   UNL     1       1.613   5.953  -2.247  1.00  0.00     0.031 C 
ATOM     21  C   UNL     1       0.285   5.886   2.399  1.00  0.00     0.029 A 
ATOM     22  N   UNL     1       0.960   7.763   1.432  1.00  0.00    -0.354 N 
ATOM     23  C   UNL     1       3.138   7.652  -2.385  1.00  0.00     0.074 A 
ATOM     24  C   UNL     1       2.287   6.729  -3.095  1.00  0.00     0.031 C 
ATOM     25  C   UNL     1      -0.394   6.897   2.980  1.00  0.00     0.029 A 
ATOM     26  C   UNL     1      -0.001   8.146   2.351  1.00  0.00     0.049 A 
ATOM     27  H   UNL     1       1.520   8.406   0.940  1.00  0.00     0.167 HD
ATOM     28  C   UNL     1       3.721   8.809  -2.799  1.00  0.00     0.037 A 
ATOM     29  C   UNL     1      -0.502   9.392   2.513  1.00  0.00     0.037 A 
ATOM     30  C   UNL     1       4.630   9.341  -1.823  1.00  0.00     0.049 A 
ATOM     31  C   UNL     1       0.454  10.352   1.911  1.00  0.00     0.074 A 
ATOM     32  C   UNL     1       5.792   8.890  -1.227  1.00  0.00     0.029 A 
ATOM     33  N   UNL     1       4.231  10.424  -1.081  1.00  0.00    -0.354 N 
ATOM     34  N   UNL     1       1.629  10.627   2.406  1.00  0.00    -0.248 NA
ATOM     35  C   UNL     1       0.271  10.712   0.512  1.00  0.00     0.031 C 
ATOM     36  C   UNL     1       5.758   9.415   0.098  1.00  0.00     0.029 A 
ATOM     37  C   UNL     1       4.590  10.168   0.216  1.00  0.00     0.049 A 
ATOM     38  H   UNL     1       3.776  11.230  -1.417  1.00  0.00     0.167 HD
ATOM     39  C   UNL     1       2.449  10.801   1.301  1.00  0.00     0.074 A 
ATOM     40  C   UNL     1       1.539  10.950   0.170  1.00  0.00     0.031 C 
ATOM     41  C   UNL     1       3.786  10.528   1.360  1.00  0.00     0.037 A 
BRANCH  28  42
ATOM     42  C   UNL     1       3.222   9.627  -3.959  1.00  0.00     0.057 A 
ATOM     43  C   UNL     1       4.015  10.666  -4.477  1.00  0.00     0.134 A 
ATOM     44  C   UNL     1       1.881   9.618  -4.390  1.00  0.00     0.134 A 
ATOM     45  F   UNL     1       5.300  10.797  -4.114  1.00  0.00    -0.206 F 
ATOM     46  C   UNL     1       3.495  11.653  -5.323  1.00  0.00     0.040 A 
ATOM     47  C   UNL     1       1.365  10.569  -5.274  1.00  0.00     0.040 A 
ATOM     48  F   UNL     1       0.982   8.754  -3.900  1.00  0.00    -0.206 F 
ATOM     49  C   UNL     1       2.165  11.608  -5.721  1.00  0.00     0.006 A 
ENDBRANCH  28  42
BRANCH  29  50
ATOM     50  C   UNL     1      -1.884   9.755   2.888  1.00  0.00     0.057 A 
ATOM     51  C   UNL     1      -2.195  11.039   3.349  1.00  0.00     0.134 A 
ATOM     52  C   UNL     1      -2.979   8.926   2.576  1.00  0.00     0.134 A 
ATOM     53  F   UNL     1      -1.221  11.917   3.626  1.00  0.00    -0.206 F 
ATOM     54  C   UNL     1      -3.518  11.479   3.483  1.00  0.00     0.040 A 
ATOM     55  C   UNL     1      -4.303   9.347   2.720  1.00  0.00     0.040 A 
ATOM     56  F   UNL     1      -2.802   7.710   2.041  1.00  0.00    -0.206 F 
ATOM     57  C   UNL     1      -4.577  10.633   3.163  1.00  0.00     0.006 A 
ENDBRANCH  29  50
BRANCH  41  58
ATOM     58  C   UNL     1       4.396  10.297   2.712  1.00  0.00     0.057 A 
ATOM     59  C   UNL     1       4.053   9.222   3.545  1.00  0.00     0.134 A 
ATOM     60  C   UNL     1       5.473  11.095   3.116  1.00  0.00     0.134 A 
ATOM     61  F   UNL     1       3.110   8.341   3.186  1.00  0.00    -0.206 F 
ATOM     62  C   UNL     1       4.719   8.983   4.750  1.00  0.00     0.040 A 
ATOM     63  C   UNL     1       6.168  10.846   4.302  1.00  0.00     0.040 A 
ATOM     64  F   UNL     1       5.900  12.101   2.337  1.00  0.00    -0.206 F 
ATOM     65  C   UNL     1       5.784   9.794   5.130  1.00  0.00     0.006 A 
ENDBRANCH  41  58
ENDBRANCH  15  16
ENDBRANCH   8  10
ENDBRANCH   7   8
ENDBRANCH   6   7
ENDBRANCH   5   6
ENDBRANCH   4   5
ENDBRANCH   3   4
ENDBRANCH   2   3
ENDBRANCH   1   2
BRANCH   1  66
ATOM     66  C   UNL     1       4.305  -3.389  -0.962  1.00  0.00     0.188 C 
BRANCH  66  67
ATOM     67  C   UNL     1       5.367  -3.138  -2.047  1.00  0.00     0.188 C 
BRANCH  67  68
ATOM     68  O   UNL     1       5.035  -2.829  -3.395  1.00  0.00    -0.376 OA
BRANCH  68  69
ATOM     69  C   UNL     1       3.778  -3.146  -3.963  1.00  0.00     0.202 C 
BRANCH  69  70
ATOM     70  C   UNL     1       3.390  -4.618  -4.134  1.00  0.00     0.261 C 
BRANCH  70  71
ATOM     71  O   UNL     1       3.688  -5.451  -3.011  1.00  0.00    -0.458 OA
BRANCH  71  72
ATOM     72  C   UNL     1       4.881  -6.108  -3.066  1.00  0.00     0.361 C 
ATOM     73  O   UNL     1       5.644  -6.080  -4.025  1.00  0.00    -0.244 OA
BRANCH  72  74
ATOM     74  C   UNL     1       5.200  -6.775  -1.812  1.00  0.00     0.198 A 
ATOM     75  N   UNL     1       6.495  -6.838  -1.360  1.00  0.00    -0.122 NA
ATOM     76  C   UNL     1       4.361  -7.318  -0.843  1.00  0.00     0.123 A 
ATOM     77  N   UNL     1       6.494  -7.414  -0.170  1.00  0.00    -0.061 NA
ATOM     78  N   UNL     1       5.249  -7.895   0.054  1.00  0.00    -0.213 N 
BRANCH  76  79
ATOM     79  C   UNL     1       2.869  -7.280  -0.671  1.00  0.00     0.262 C 
ATOM     80  C   UNL     1       2.397  -6.448   0.531  1.00  0.00     0.281 C 
ATOM     81  O   UNL     1       2.334  -8.608  -0.700  1.00  0.00    -0.477 OA
ATOM     82  O   UNL     1       2.604  -7.127   1.771  1.00  0.00    -0.485 OA
ATOM     83  C   UNL     1       1.866  -9.060   0.507  1.00  0.00     0.162 A 
ATOM     84  C   UNL     1       2.027  -8.367   1.710  1.00  0.00     0.161 A 
ATOM     85  C   UNL     1       1.270 -10.319   0.510  1.00  0.00     0.050 A 
ATOM     86  C   UNL     1       1.654  -8.952   2.918  1.00  0.00     0.050 A 
ATOM     87  C   UNL     1       0.868 -10.896   1.716  1.00  0.00     0.004 A 
ATOM     88  C   UNL     1       1.071 -10.219   2.920  1.00  0.00     0.004 A 
ENDBRANCH  76  79
BRANCH  78  89
ATOM     89  C   UNL     1       5.150  -9.157   0.666  1.00  0.00     0.067 A 
ATOM     90  C   UNL     1       5.286  -9.277   2.047  1.00  0.00     0.028 A 
ATOM     91  C   UNL     1       4.966 -10.279  -0.151  1.00  0.00     0.041 A 
ATOM     92  C   UNL     1       5.140 -10.537   2.625  1.00  0.00     0.003 A 
ATOM     93  C   UNL     1       4.873 -11.550   0.422  1.00  0.00     0.058 A 
ATOM     94  C   UNL     1       4.930 -11.664   1.821  1.00  0.00     0.013 A 
BRANCH  93  95
ATOM     95  C   UNL     1       4.687 -12.765  -0.450  1.00  0.00     0.416 C 
ATOM     96  F   UNL     1       5.433 -13.828  -0.041  1.00  0.00    -0.166 F 
ATOM     97  F   UNL     1       3.396 -13.197  -0.472  1.00  0.00    -0.166 F 
ATOM     98  F   UNL     1       5.029 -12.552  -1.752  1.00  0.00    -0.166 F 
ENDBRANCH  93  95
ENDBRANCH  78  89
ENDBRANCH  72  74
ENDBRANCH  71  72
ENDBRANCH  70  71
ENDBRANCH  69  70
ENDBRANCH  68  69
ENDBRANCH  67  68
ENDBRANCH  66  67
ENDBRANCH   1  66
TORSDOF 23
