REMARK SMILES CN(CC(=O)OCCOCCOCCOCCOC(=O)c1ccc(-c2c3nc(c(-c4c(F)cccc4F)c4ccc([nH]4)c(-c4c(F)cccc4F)c4nc(c(-c5c(F)cccc5F)c5ccc2[nH]5)C=C4)C=C3)cc1)c1nc2cc(N)ccc2[nH]1
REMARK SMILES IDX 11 1 10 2 9 3 8 4 7 5 6 6 4 7 5 8 3 9 2 10 1 11 75 12 76 13
REMARK SMILES IDX 84 14 77 15 83 16 78 18 82 19 79 20 81 21 80 22 12 25 13 26
REMARK SMILES IDX 14 27 15 28 16 29 17 30 18 31 19 32 20 33 21 34 22 35 74 36
REMARK SMILES IDX 23 37 73 38 24 39 25 40 26 41 67 42 27 43 72 44 66 45 68 46
REMARK SMILES IDX 28 47 71 48 65 49 64 50 29 52 55 53 38 54 54 55 39 56 42 57
REMARK SMILES IDX 53 58 69 59 40 60 41 61 52 63 70 64 43 65 30 66 31 67 36 68
REMARK SMILES IDX 32 69 33 70 35 71 37 72 34 73 56 74 57 75 62 76 58 77 59 78
REMARK SMILES IDX 61 79 63 80 60 81 44 82 45 83 50 84 46 85 47 86 49 87 51 88
REMARK SMILES IDX 48 89
REMARK H PARENT 84 17 80 23 80 24 68 51 42 62
REMARK Flexibility Score: inf
ROOT
ATOM      1  C   UNL     1      -1.807  -1.156  -3.033  1.00  0.00     0.188 C 
ENDROOT
BRANCH   1   2
ATOM      2  C   UNL     1      -2.440  -2.552  -3.158  1.00  0.00     0.188 C 
BRANCH   2   3
ATOM      3  O   UNL     1      -3.763  -2.797  -2.699  1.00  0.00    -0.376 OA
BRANCH   3   4
ATOM      4  C   UNL     1      -4.335  -1.911  -1.757  1.00  0.00     0.202 C 
BRANCH   4   5
ATOM      5  C   UNL     1      -3.689  -1.804  -0.361  1.00  0.00     0.261 C 
BRANCH   5   6
ATOM      6  O   UNL     1      -2.247  -1.660  -0.301  1.00  0.00    -0.462 OA
BRANCH   6   7
ATOM      7  C   UNL     1      -1.532  -2.772   0.033  1.00  0.00     0.325 C 
ATOM      8  O   UNL     1      -2.068  -3.825   0.379  1.00  0.00    -0.250 OA
BRANCH   7   9
ATOM      9  C   UNL     1      -0.004  -2.595   0.128  1.00  0.00     0.241 C 
BRANCH   9  10
ATOM     10  N   UNL     1       0.724  -1.701  -0.809  1.00  0.00    -0.334 N 
ATOM     11  C   UNL     1       1.005  -0.340  -0.389  1.00  0.00     0.147 C 
BRANCH  10  12
ATOM     12  C   UNL     1       1.131  -2.179  -2.018  1.00  0.00     0.204 A 
ATOM     13  N   UNL     1       0.651  -3.217  -2.664  1.00  0.00    -0.213 NA
ATOM     14  N   UNL     1       2.071  -1.538  -2.800  1.00  0.00    -0.324 N 
ATOM     15  C   UNL     1       1.090  -3.088  -3.963  1.00  0.00     0.093 A 
ATOM     16  C   UNL     1       2.019  -2.062  -4.070  1.00  0.00     0.067 A 
ATOM     17  H   UNL     1       2.678  -0.824  -2.498  1.00  0.00     0.170 HD
ATOM     18  C   UNL     1       0.648  -3.739  -5.127  1.00  0.00     0.056 A 
ATOM     19  C   UNL     1       2.625  -1.706  -5.278  1.00  0.00     0.030 A 
ATOM     20  C   UNL     1       1.084  -3.267  -6.374  1.00  0.00     0.034 A 
ATOM     21  C   UNL     1       2.131  -2.338  -6.433  1.00  0.00     0.028 A 
BRANCH  20  22
ATOM     22  N   UNL     1       0.511  -3.758  -7.543  1.00  0.00    -0.399 N 
ATOM     23  H   UNL     1      -0.224  -4.410  -7.494  1.00  0.00     0.156 HD
ATOM     24  H   UNL     1       0.842  -3.453  -8.418  1.00  0.00     0.156 HD
ENDBRANCH  20  22
ENDBRANCH  10  12
ENDBRANCH   9  10
ENDBRANCH   7   9
ENDBRANCH   6   7
ENDBRANCH   5   6
ENDBRANCH   4   5
ENDBRANCH   3   4
ENDBRANCH   2   3
ENDBRANCH   1   2
BRANCH   1  25
ATOM     25  O   UNL     1      -2.674  -0.043  -2.989  1.00  0.00    -0.377 OA
BRANCH  25  26
ATOM     26  C   UNL     1      -2.965   0.653  -4.186  1.00  0.00     0.188 C 
BRANCH  26  27
ATOM     27  C   UNL     1      -3.128  -0.194  -5.446  1.00  0.00     0.188 C 
BRANCH  27  28
ATOM     28  O   UNL     1      -1.993  -0.520  -6.248  1.00  0.00    -0.376 OA
BRANCH  28  29
ATOM     29  C   UNL     1      -0.682  -0.130  -5.869  1.00  0.00     0.202 C 
BRANCH  29  30
ATOM     30  C   UNL     1       0.047   0.587  -6.997  1.00  0.00     0.261 C 
BRANCH  30  31
ATOM     31  O   UNL     1      -0.339   1.966  -6.941  1.00  0.00    -0.460 OA
BRANCH  31  32
ATOM     32  C   UNL     1      -1.564   2.199  -7.473  1.00  0.00     0.338 C 
ATOM     33  O   UNL     1      -2.116   1.571  -8.345  1.00  0.00    -0.246 OA
BRANCH  32  34
ATOM     34  C   UNL     1      -2.227   3.240  -6.656  1.00  0.00     0.060 A 
ATOM     35  C   UNL     1      -3.625   3.199  -6.589  1.00  0.00     0.016 A 
ATOM     36  C   UNL     1      -1.508   4.216  -5.955  1.00  0.00     0.016 A 
ATOM     37  C   UNL     1      -4.315   4.176  -5.887  1.00  0.00     0.010 A 
ATOM     38  C   UNL     1      -2.198   5.209  -5.265  1.00  0.00     0.010 A 
ATOM     39  C   UNL     1      -3.601   5.217  -5.284  1.00  0.00    -0.014 A 
BRANCH  39  40
ATOM     40  C   UNL     1      -4.331   6.449  -4.940  1.00  0.00     0.031 A 
ATOM     41  C   UNL     1      -4.388   7.528  -5.986  1.00  0.00     0.074 A 
ATOM     42  C   UNL     1      -4.968   6.565  -3.765  1.00  0.00     0.049 A 
ATOM     43  N   UNL     1      -4.960   8.700  -5.939  1.00  0.00    -0.248 NA
ATOM     44  C   UNL     1      -3.705   7.244  -7.263  1.00  0.00     0.031 C 
ATOM     45  C   UNL     1      -5.004   5.545  -2.718  1.00  0.00     0.029 A 
ATOM     46  N   UNL     1      -5.707   7.599  -3.259  1.00  0.00    -0.354 N 
ATOM     47  C   UNL     1      -4.706   9.288  -7.172  1.00  0.00     0.074 A 
ATOM     48  C   UNL     1      -3.905   8.364  -7.938  1.00  0.00     0.031 C 
ATOM     49  C   UNL     1      -5.721   6.014  -1.681  1.00  0.00     0.029 A 
ATOM     50  C   UNL     1      -6.165   7.372  -1.985  1.00  0.00     0.049 A 
ATOM     51  H   UNL     1      -5.892   8.426  -3.760  1.00  0.00     0.167 HD
ATOM     52  C   UNL     1      -5.116  10.495  -7.623  1.00  0.00     0.037 A 
ATOM     53  C   UNL     1      -6.846   8.191  -1.162  1.00  0.00     0.037 A 
ATOM     54  C   UNL     1      -5.913  11.399  -6.841  1.00  0.00     0.049 A 
ATOM     55  C   UNL     1      -7.229   9.558  -1.667  1.00  0.00     0.074 A 
ATOM     56  C   UNL     1      -6.397  12.645  -7.191  1.00  0.00     0.029 A 
ATOM     57  N   UNL     1      -6.334  11.150  -5.543  1.00  0.00    -0.354 N 
ATOM     58  N   UNL     1      -7.009  10.100  -2.843  1.00  0.00    -0.248 NA
ATOM     59  C   UNL     1      -7.958  10.427  -0.735  1.00  0.00     0.031 C 
ATOM     60  C   UNL     1      -7.065  13.174  -6.083  1.00  0.00     0.029 A 
ATOM     61  C   UNL     1      -7.049  12.232  -5.065  1.00  0.00     0.049 A 
ATOM     62  H   UNL     1      -6.151  10.325  -5.037  1.00  0.00     0.167 HD
ATOM     63  C   UNL     1      -7.599  11.356  -2.802  1.00  0.00     0.074 A 
ATOM     64  C   UNL     1      -8.201  11.488  -1.490  1.00  0.00     0.031 C 
ATOM     65  C   UNL     1      -7.643  12.320  -3.756  1.00  0.00     0.037 A 
BRANCH  52  66
ATOM     66  C   UNL     1      -4.685  10.913  -8.996  1.00  0.00     0.057 A 
ATOM     67  C   UNL     1      -5.212  10.328 -10.154  1.00  0.00     0.134 A 
ATOM     68  C   UNL     1      -3.753  11.946  -9.162  1.00  0.00     0.134 A 
ATOM     69  F   UNL     1      -6.090   9.316 -10.066  1.00  0.00    -0.206 F 
ATOM     70  C   UNL     1      -4.823  10.749 -11.427  1.00  0.00     0.040 A 
ATOM     71  C   UNL     1      -3.376  12.393 -10.429  1.00  0.00     0.040 A 
ATOM     72  F   UNL     1      -3.203  12.544  -8.095  1.00  0.00    -0.206 F 
ATOM     73  C   UNL     1      -3.910  11.792 -11.567  1.00  0.00     0.006 A 
ENDBRANCH  52  66
BRANCH  53  74
ATOM     74  C   UNL     1      -7.184   7.761   0.219  1.00  0.00     0.057 A 
ATOM     75  C   UNL     1      -8.511   7.586   0.628  1.00  0.00     0.134 A 
ATOM     76  C   UNL     1      -6.184   7.556   1.180  1.00  0.00     0.134 A 
ATOM     77  F   UNL     1      -9.515   7.784  -0.238  1.00  0.00    -0.206 F 
ATOM     78  C   UNL     1      -8.834   7.255   1.946  1.00  0.00     0.040 A 
ATOM     79  C   UNL     1      -6.491   7.196   2.493  1.00  0.00     0.040 A 
ATOM     80  F   UNL     1      -4.891   7.702   0.855  1.00  0.00    -0.206 F 
ATOM     81  C   UNL     1      -7.821   7.056   2.882  1.00  0.00     0.006 A 
ENDBRANCH  53  74
BRANCH  65  82
ATOM     82  C   UNL     1      -8.400  13.572  -3.427  1.00  0.00     0.057 A 
ATOM     83  C   UNL     1      -7.914  14.511  -2.508  1.00  0.00     0.134 A 
ATOM     84  C   UNL     1      -9.608  13.861  -4.073  1.00  0.00     0.134 A 
ATOM     85  F   UNL     1      -6.767  14.288  -1.849  1.00  0.00    -0.206 F 
ATOM     86  C   UNL     1      -8.620  15.680  -2.222  1.00  0.00     0.040 A 
ATOM     87  C   UNL     1     -10.306  15.042  -3.820  1.00  0.00     0.040 A 
ATOM     88  F   UNL     1     -10.120  13.010  -4.976  1.00  0.00    -0.206 F 
ATOM     89  C   UNL     1      -9.815  15.951  -2.886  1.00  0.00     0.006 A 
ENDBRANCH  65  82
ENDBRANCH  39  40
ENDBRANCH  32  34
ENDBRANCH  31  32
ENDBRANCH  30  31
ENDBRANCH  29  30
ENDBRANCH  28  29
ENDBRANCH  27  28
ENDBRANCH  26  27
ENDBRANCH  25  26
ENDBRANCH   1  25
TORSDOF 23
