REMARK SMILES COc1ccc(-n2ccnc2C[N@@H+]2Cc3[nH]cnc3C[C@@H]2C(=O)OCCOCCOCCOCCOC(=O)c2ccc(-c3c4nc(c(-c5c(F)cccc5F)c5ccc([nH]5)c(-c5c(F)cccc5F)c5nc(c(-c6c(F)cccc6F)c6ccc3[nH]6)C=C5)C=C4)cc2)cc1
REMARK SMILES IDX 29 1 28 2 27 3 26 4 25 5 24 6 22 7 23 8 21 9 13 10 14 11
REMARK SMILES IDX 15 13 20 14 16 15 19 16 17 17 18 19 12 20 11 21 7 22 8 23
REMARK SMILES IDX 9 24 10 25 6 26 3 27 4 28 94 29 5 30 93 31 2 32 1 33 30 34
REMARK SMILES IDX 31 35 32 36 33 37 34 38 35 39 36 40 37 41 38 42 39 43 40 44
REMARK SMILES IDX 92 45 41 46 91 47 42 48 43 49 44 50 85 51 45 52 90 53 84 54
REMARK SMILES IDX 86 55 46 56 89 57 83 58 82 59 47 61 73 62 56 63 72 64 57 65
REMARK SMILES IDX 60 66 71 67 87 68 58 69 59 70 70 72 88 73 61 74 48 75 49 76
REMARK SMILES IDX 54 77 50 78 51 79 53 80 55 81 52 82 74 83 75 84 80 85 76 86
REMARK SMILES IDX 77 87 79 88 81 89 78 90 62 91 63 92 68 93 64 94 65 95 67 96
REMARK SMILES IDX 69 97 66 98
REMARK H PARENT 13 12 16 18 86 60 60 71
REMARK Flexibility Score: inf
ROOT
ATOM      1  C   UNL     1      -2.781   5.089   4.492  1.00  0.00     0.188 C 
ENDROOT
BRANCH   1   2
ATOM      2  C   UNL     1      -3.398   4.844   5.868  1.00  0.00     0.188 C 
BRANCH   2   3
ATOM      3  O   UNL     1      -4.356   5.780   6.330  1.00  0.00    -0.376 OA
BRANCH   3   4
ATOM      4  C   UNL     1      -3.945   7.135   6.472  1.00  0.00     0.202 C 
BRANCH   4   5
ATOM      5  C   UNL     1      -2.601   7.473   7.149  1.00  0.00     0.261 C 
BRANCH   5   6
ATOM      6  O   UNL     1      -1.393   6.902   6.571  1.00  0.00    -0.459 OA
BRANCH   6   7
ATOM      7  C   UNL     1      -0.691   6.095   7.396  1.00  0.00     0.365 C 
ATOM      8  O   UNL     1      -1.100   5.821   8.531  1.00  0.00    -0.245 OA
BRANCH   7   9
ATOM      9  C   UNL     1       0.631   5.476   6.929  1.00  0.00     0.301 C 
ATOM     10  N   UNL     1       1.409   5.847   5.651  1.00  0.00    -0.312 N 
ATOM     11  C   UNL     1       2.354   4.752   5.310  1.00  0.00     0.320 C 
ATOM     12  H   UNL     1       1.852   6.716   5.949  1.00  0.00     0.349 HD
ATOM     13  C   UNL     1       1.571   3.506   5.187  1.00  0.00     0.093 A 
ATOM     14  C   UNL     1       0.561   3.948   7.360  1.00  0.00     0.136 C 
ATOM     15  N   UNL     1       1.324   2.677   4.141  1.00  0.00    -0.344 N 
ATOM     16  C   UNL     1       0.706   3.108   6.164  1.00  0.00     0.074 A 
ATOM     17  C   UNL     1       0.350   1.800   4.547  1.00  0.00     0.197 A 
ATOM     18  H   UNL     1       1.761   2.700   3.259  1.00  0.00     0.167 HD
ATOM     19  N   UNL     1      -0.045   2.043   5.779  1.00  0.00    -0.241 NA
BRANCH  10  20
ATOM     20  C   UNL     1       0.718   6.321   4.429  1.00  0.00     0.340 C 
BRANCH  20  21
ATOM     21  C   UNL     1       1.718   6.893   3.397  1.00  0.00     0.168 A 
ATOM     22  N   UNL     1       2.313   6.193   2.334  1.00  0.00    -0.299 N 
ATOM     23  C   UNL     1       3.426   6.917   1.963  1.00  0.00     0.113 A 
ATOM     24  C   UNL     1       3.364   8.089   2.670  1.00  0.00     0.132 A 
ATOM     25  N   UNL     1       2.306   8.076   3.534  1.00  0.00    -0.236 NA
BRANCH  22  26
ATOM     26  C   UNL     1       1.938   4.974   1.716  1.00  0.00     0.047 A 
ATOM     27  C   UNL     1       1.187   2.581   0.450  1.00  0.00     0.119 A 
ATOM     28  C   UNL     1       0.259   3.598   0.680  1.00  0.00     0.048 A 
ATOM     29  C   UNL     1       2.514   2.776   0.820  1.00  0.00     0.048 A 
ATOM     30  C   UNL     1       0.617   4.786   1.323  1.00  0.00     0.030 A 
ATOM     31  C   UNL     1       2.899   3.986   1.427  1.00  0.00     0.030 A 
BRANCH  27  32
ATOM     32  O   UNL     1       0.686   1.494  -0.207  1.00  0.00    -0.497 OA
ATOM     33  C   UNL     1       1.219   0.226   0.155  1.00  0.00     0.278 C 
ENDBRANCH  27  32
ENDBRANCH  22  26
ENDBRANCH  20  21
ENDBRANCH  10  20
ENDBRANCH   7   9
ENDBRANCH   6   7
ENDBRANCH   5   6
ENDBRANCH   4   5
ENDBRANCH   3   4
ENDBRANCH   2   3
ENDBRANCH   1   2
BRANCH   1  34
ATOM     34  O   UNL     1      -2.430   6.433   4.192  1.00  0.00    -0.377 OA
BRANCH  34  35
ATOM     35  C   UNL     1      -3.116   7.148   3.166  1.00  0.00     0.188 C 
BRANCH  35  36
ATOM     36  C   UNL     1      -4.424   6.571   2.617  1.00  0.00     0.188 C 
BRANCH  36  37
ATOM     37  O   UNL     1      -4.388   5.312   1.930  1.00  0.00    -0.376 OA
BRANCH  37  38
ATOM     38  C   UNL     1      -3.168   4.853   1.350  1.00  0.00     0.202 C 
BRANCH  38  39
ATOM     39  C   UNL     1      -3.031   5.231  -0.103  1.00  0.00     0.261 C 
BRANCH  39  40
ATOM     40  O   UNL     1      -2.726   6.611  -0.141  1.00  0.00    -0.460 OA
BRANCH  40  41
ATOM     41  C   UNL     1      -3.793   7.427  -0.303  1.00  0.00     0.338 C 
ATOM     42  O   UNL     1      -4.961   7.119  -0.384  1.00  0.00    -0.246 OA
BRANCH  41  43
ATOM     43  C   UNL     1      -3.244   8.751  -0.636  1.00  0.00     0.060 A 
ATOM     44  C   UNL     1      -4.086   9.437  -1.504  1.00  0.00     0.016 A 
ATOM     45  C   UNL     1      -1.844   8.880  -0.670  1.00  0.00     0.016 A 
ATOM     46  C   UNL     1      -3.520   9.904  -2.658  1.00  0.00     0.010 A 
ATOM     47  C   UNL     1      -1.281   9.319  -1.839  1.00  0.00     0.010 A 
ATOM     48  C   UNL     1      -2.139   9.743  -2.848  1.00  0.00    -0.014 A 
BRANCH  48  49
ATOM     49  C   UNL     1      -1.587  10.320  -4.045  1.00  0.00     0.031 A 
ATOM     50  C   UNL     1      -1.617  11.791  -3.931  1.00  0.00     0.074 A 
ATOM     51  C   UNL     1      -1.084   9.619  -5.072  1.00  0.00     0.049 A 
ATOM     52  N   UNL     1      -2.460  12.582  -4.501  1.00  0.00    -0.248 NA
ATOM     53  C   UNL     1      -0.846  12.412  -2.838  1.00  0.00     0.031 C 
ATOM     54  C   UNL     1      -0.792   8.191  -5.163  1.00  0.00     0.029 A 
ATOM     55  N   UNL     1      -0.636  10.105  -6.259  1.00  0.00    -0.354 N 
ATOM     56  C   UNL     1      -2.153  13.842  -4.013  1.00  0.00     0.074 A 
ATOM     57  C   UNL     1      -1.361  13.641  -2.832  1.00  0.00     0.031 C 
ATOM     58  C   UNL     1      -0.001   7.973  -6.242  1.00  0.00     0.029 A 
ATOM     59  C   UNL     1       0.162   9.219  -6.972  1.00  0.00     0.049 A 
ATOM     60  H   UNL     1      -0.857  11.007  -6.585  1.00  0.00     0.167 HD
ATOM     61  C   UNL     1      -2.294  14.930  -4.813  1.00  0.00     0.037 A 
ATOM     62  C   UNL     1       0.962   9.571  -8.012  1.00  0.00     0.037 A 
ATOM     63  C   UNL     1      -3.185  14.644  -5.914  1.00  0.00     0.049 A 
ATOM     64  C   UNL     1       0.468  10.882  -8.527  1.00  0.00     0.074 A 
ATOM     65  C   UNL     1      -4.494  14.208  -6.004  1.00  0.00     0.029 A 
ATOM     66  N   UNL     1      -2.618  14.388  -7.140  1.00  0.00    -0.354 N 
ATOM     67  N   UNL     1      -0.666  11.025  -9.156  1.00  0.00    -0.248 NA
ATOM     68  C   UNL     1       0.984  12.091  -7.896  1.00  0.00     0.031 C 
ATOM     69  C   UNL     1      -4.505  13.289  -7.095  1.00  0.00     0.029 A 
ATOM     70  C   UNL     1      -3.232  13.278  -7.662  1.00  0.00     0.049 A 
ATOM     71  H   UNL     1      -1.899  14.908  -7.567  1.00  0.00     0.167 HD
ATOM     72  C   UNL     1      -1.220  12.182  -8.625  1.00  0.00     0.074 A 
ATOM     73  C   UNL     1      -0.128  12.833  -7.902  1.00  0.00     0.031 C 
ATOM     74  C   UNL     1      -2.574  12.353  -8.556  1.00  0.00     0.037 A 
BRANCH  61  75
ATOM     75  C   UNL     1      -1.285  16.050  -4.846  1.00  0.00     0.057 A 
ATOM     76  C   UNL     1      -1.554  17.165  -5.654  1.00  0.00     0.134 A 
ATOM     77  C   UNL     1       0.044  15.960  -4.375  1.00  0.00     0.134 A 
ATOM     78  F   UNL     1      -2.777  17.361  -6.170  1.00  0.00    -0.206 F 
ATOM     79  C   UNL     1      -0.557  18.066  -6.041  1.00  0.00     0.040 A 
ATOM     80  C   UNL     1       1.034  16.883  -4.711  1.00  0.00     0.040 A 
ATOM     81  F   UNL     1       0.499  14.931  -3.652  1.00  0.00    -0.206 F 
ATOM     82  C   UNL     1       0.745  17.920  -5.577  1.00  0.00     0.006 A 
ENDBRANCH  61  75
BRANCH  62  83
ATOM     83  C   UNL     1       2.299   9.040  -8.367  1.00  0.00     0.057 A 
ATOM     84  C   UNL     1       2.900   9.354  -9.596  1.00  0.00     0.134 A 
ATOM     85  C   UNL     1       3.139   8.442  -7.411  1.00  0.00     0.134 A 
ATOM     86  F   UNL     1       2.197   9.965 -10.561  1.00  0.00    -0.206 F 
ATOM     87  C   UNL     1       4.258   9.112  -9.848  1.00  0.00     0.040 A 
ATOM     88  C   UNL     1       4.493   8.188  -7.652  1.00  0.00     0.040 A 
ATOM     89  F   UNL     1       2.700   8.164  -6.175  1.00  0.00    -0.206 F 
ATOM     90  C   UNL     1       5.062   8.537  -8.869  1.00  0.00     0.006 A 
ENDBRANCH  62  83
BRANCH  74  91
ATOM     91  C   UNL     1      -3.450  11.376  -9.292  1.00  0.00     0.057 A 
ATOM     92  C   UNL     1      -3.477   9.992  -9.053  1.00  0.00     0.134 A 
ATOM     93  C   UNL     1      -4.404  11.878 -10.185  1.00  0.00     0.134 A 
ATOM     94  F   UNL     1      -2.682   9.431  -8.132  1.00  0.00    -0.206 F 
ATOM     95  C   UNL     1      -4.370   9.146  -9.717  1.00  0.00     0.040 A 
ATOM     96  C   UNL     1      -5.327  11.049 -10.825  1.00  0.00     0.040 A 
ATOM     97  F   UNL     1      -4.481  13.197 -10.420  1.00  0.00    -0.206 F 
ATOM     98  C   UNL     1      -5.303   9.675 -10.604  1.00  0.00     0.006 A 
ENDBRANCH  74  91
ENDBRANCH  48  49
ENDBRANCH  41  43
ENDBRANCH  40  41
ENDBRANCH  39  40
ENDBRANCH  38  39
ENDBRANCH  37  38
ENDBRANCH  36  37
ENDBRANCH  35  36
ENDBRANCH  34  35
ENDBRANCH   1  34
TORSDOF 24
