REMARK SMILES O=C(OCCOCCOCCOCCOC(=O)[C@@H]1CSCN1C(=O)c1cccc(Cl)c1)c1ccc(-c2c3nc(c(-c4c(F)cccc4F)c4ccc([nH]4)c(-c4c(F)cccc4F)c4nc(c(-c5c(F)cccc5F)c5ccc2[nH]5)C=C4)C=C3)cc1
REMARK SMILES IDX 9 1 8 2 7 3 6 4 5 5 4 6 3 7 2 8 1 9 32 10 33 11 85 12 34 13
REMARK SMILES IDX 84 14 35 15 36 16 37 17 78 18 38 19 83 20 77 21 79 22 39 23
REMARK SMILES IDX 82 24 76 25 75 26 40 28 66 29 49 30 65 31 50 32 53 33 64 34
REMARK SMILES IDX 80 35 51 36 52 37 63 39 81 40 54 41 41 42 42 43 47 44 43 45
REMARK SMILES IDX 44 46 46 47 48 48 45 49 67 50 68 51 73 52 69 53 70 54 72 55
REMARK SMILES IDX 74 56 71 57 55 58 56 59 61 60 57 61 58 62 60 63 62 64 59 65
REMARK SMILES IDX 10 66 11 67 12 68 13 69 14 70 15 71 16 72 17 73 18 74 19 75
REMARK SMILES IDX 22 76 20 77 21 78 23 79 24 80 25 81 26 82 31 83 27 84 29 85
REMARK SMILES IDX 28 86 30 87
REMARK H PARENT 79 27 53 38
REMARK Flexibility Score: inf
ROOT
ATOM      1  O   UNL     1       5.897  -2.391   0.324  1.00  0.00    -0.377 OA
ENDROOT
BRANCH   1   2
ATOM      2  C   UNL     1       6.478  -1.977   1.550  1.00  0.00     0.188 C 
BRANCH   2   3
ATOM      3  C   UNL     1       5.817  -2.512   2.821  1.00  0.00     0.188 C 
BRANCH   3   4
ATOM      4  O   UNL     1       6.102  -3.900   3.015  1.00  0.00    -0.376 OA
BRANCH   4   5
ATOM      5  C   UNL     1       5.020  -4.726   3.455  1.00  0.00     0.202 C 
BRANCH   5   6
ATOM      6  C   UNL     1       4.661  -4.623   4.935  1.00  0.00     0.261 C 
BRANCH   6   7
ATOM      7  O   UNL     1       4.825  -3.306   5.463  1.00  0.00    -0.460 OA
BRANCH   7   8
ATOM      8  C   UNL     1       5.958  -2.725   5.925  1.00  0.00     0.338 C 
ATOM      9  O   UNL     1       5.865  -1.579   6.366  1.00  0.00    -0.246 OA
BRANCH   8  10
ATOM     10  C   UNL     1       7.331  -3.341   5.877  1.00  0.00     0.060 A 
ATOM     11  C   UNL     1       7.696  -4.527   5.230  1.00  0.00     0.016 A 
ATOM     12  C   UNL     1       8.355  -2.611   6.509  1.00  0.00     0.016 A 
ATOM     13  C   UNL     1       9.004  -4.981   5.195  1.00  0.00     0.010 A 
ATOM     14  C   UNL     1       9.667  -3.084   6.538  1.00  0.00     0.010 A 
ATOM     15  C   UNL     1       9.974  -4.292   5.905  1.00  0.00    -0.014 A 
BRANCH  15  16
ATOM     16  C   UNL     1      11.186  -5.035   6.255  1.00  0.00     0.031 A 
ATOM     17  C   UNL     1      11.163  -5.754   7.567  1.00  0.00     0.074 A 
ATOM     18  C   UNL     1      12.192  -5.159   5.380  1.00  0.00     0.049 A 
ATOM     19  N   UNL     1      12.127  -6.345   8.211  1.00  0.00    -0.248 NA
ATOM     20  C   UNL     1       9.854  -5.819   8.247  1.00  0.00     0.031 C 
ATOM     21  C   UNL     1      12.189  -4.645   4.011  1.00  0.00     0.029 A 
ATOM     22  N   UNL     1      13.411  -5.758   5.519  1.00  0.00    -0.354 N 
ATOM     23  C   UNL     1      11.555  -6.800   9.392  1.00  0.00     0.074 A 
ATOM     24  C   UNL     1      10.159  -6.440   9.371  1.00  0.00     0.031 C 
ATOM     25  C   UNL     1      13.374  -4.923   3.442  1.00  0.00     0.029 A 
ATOM     26  C   UNL     1      14.230  -5.563   4.436  1.00  0.00     0.049 A 
ATOM     27  H   UNL     1      13.674  -6.278   6.313  1.00  0.00     0.167 HD
ATOM     28  C   UNL     1      12.168  -7.436  10.414  1.00  0.00     0.037 A 
ATOM     29  C   UNL     1      15.546  -5.815   4.315  1.00  0.00     0.037 A 
ATOM     30  C   UNL     1      13.569  -7.747  10.383  1.00  0.00     0.049 A 
ATOM     31  C   UNL     1      16.248  -6.420   5.502  1.00  0.00     0.074 A 
ATOM     32  C   UNL     1      14.357  -8.316  11.361  1.00  0.00     0.029 A 
ATOM     33  N   UNL     1      14.391  -7.495   9.288  1.00  0.00    -0.354 N 
ATOM     34  N   UNL     1      15.745  -6.766   6.667  1.00  0.00    -0.248 NA
ATOM     35  C   UNL     1      17.689  -6.653   5.375  1.00  0.00     0.031 C 
ATOM     36  C   UNL     1      15.670  -8.357  10.876  1.00  0.00     0.029 A 
ATOM     37  C   UNL     1      15.686  -7.877   9.571  1.00  0.00     0.049 A 
ATOM     38  H   UNL     1      14.092  -7.101   8.437  1.00  0.00     0.167 HD
ATOM     39  C   UNL     1      16.799  -7.284   7.404  1.00  0.00     0.074 A 
ATOM     40  C   UNL     1      17.972  -7.202   6.551  1.00  0.00     0.031 C 
ATOM     41  C   UNL     1      16.807  -7.786   8.665  1.00  0.00     0.037 A 
BRANCH  28  42
ATOM     42  C   UNL     1      11.345  -7.689  11.642  1.00  0.00     0.057 A 
ATOM     43  C   UNL     1      10.277  -8.598  11.664  1.00  0.00     0.134 A 
ATOM     44  C   UNL     1      11.558  -6.924  12.796  1.00  0.00     0.134 A 
ATOM     45  F   UNL     1       9.989  -9.335  10.580  1.00  0.00    -0.206 F 
ATOM     46  C   UNL     1       9.425  -8.700  12.767  1.00  0.00     0.040 A 
ATOM     47  C   UNL     1      10.732  -7.039  13.916  1.00  0.00     0.040 A 
ATOM     48  F   UNL     1      12.553  -6.025  12.843  1.00  0.00    -0.206 F 
ATOM     49  C   UNL     1       9.652  -7.918  13.898  1.00  0.00     0.006 A 
ENDBRANCH  28  42
BRANCH  29  50
ATOM     50  C   UNL     1      16.259  -5.427   3.073  1.00  0.00     0.057 A 
ATOM     51  C   UNL     1      16.772  -6.384   2.192  1.00  0.00     0.134 A 
ATOM     52  C   UNL     1      16.401  -4.079   2.708  1.00  0.00     0.134 A 
ATOM     53  F   UNL     1      16.684  -7.689   2.488  1.00  0.00    -0.206 F 
ATOM     54  C   UNL     1      17.396  -6.018   0.996  1.00  0.00     0.040 A 
ATOM     55  C   UNL     1      16.999  -3.701   1.505  1.00  0.00     0.040 A 
ATOM     56  F   UNL     1      15.928  -3.109   3.504  1.00  0.00    -0.206 F 
ATOM     57  C   UNL     1      17.501  -4.673   0.645  1.00  0.00     0.006 A 
ENDBRANCH  29  50
BRANCH  41  58
ATOM     58  C   UNL     1      18.103  -8.340   9.168  1.00  0.00     0.057 A 
ATOM     59  C   UNL     1      19.146  -7.513   9.595  1.00  0.00     0.134 A 
ATOM     60  C   UNL     1      18.252  -9.723   9.332  1.00  0.00     0.134 A 
ATOM     61  F   UNL     1      19.061  -6.181   9.454  1.00  0.00    -0.206 F 
ATOM     62  C   UNL     1      20.300  -8.045  10.168  1.00  0.00     0.040 A 
ATOM     63  C   UNL     1      19.388 -10.264   9.928  1.00  0.00     0.040 A 
ATOM     64  F   UNL     1      17.277 -10.563   8.953  1.00  0.00    -0.206 F 
ATOM     65  C   UNL     1      20.417  -9.423  10.348  1.00  0.00     0.006 A 
ENDBRANCH  41  58
ENDBRANCH  15  16
ENDBRANCH   8  10
ENDBRANCH   7   8
ENDBRANCH   6   7
ENDBRANCH   5   6
ENDBRANCH   4   5
ENDBRANCH   3   4
ENDBRANCH   2   3
ENDBRANCH   1   2
BRANCH   1  66
ATOM     66  C   UNL     1       5.405  -3.716   0.274  1.00  0.00     0.188 C 
BRANCH  66  67
ATOM     67  C   UNL     1       6.416  -4.883   0.389  1.00  0.00     0.188 C 
BRANCH  67  68
ATOM     68  O   UNL     1       7.772  -4.532   0.461  1.00  0.00    -0.376 OA
BRANCH  68  69
ATOM     69  C   UNL     1       8.423  -3.968  -0.661  1.00  0.00     0.202 C 
BRANCH  69  70
ATOM     70  C   UNL     1       7.735  -3.539  -1.979  1.00  0.00     0.261 C 
BRANCH  70  71
ATOM     71  O   UNL     1       6.422  -4.022  -2.310  1.00  0.00    -0.462 OA
BRANCH  71  72
ATOM     72  C   UNL     1       6.298  -5.329  -2.646  1.00  0.00     0.329 C 
ATOM     73  O   UNL     1       7.238  -6.118  -2.637  1.00  0.00    -0.250 OA
BRANCH  72  74
ATOM     74  C   UNL     1       4.817  -5.699  -2.963  1.00  0.00     0.206 C 
ATOM     75  C   UNL     1       3.819  -5.757  -1.792  1.00  0.00     0.108 C 
ATOM     76  N   UNL     1       4.873  -7.042  -3.530  1.00  0.00    -0.315 N 
ATOM     77  S   UNL     1       3.169  -7.447  -1.695  1.00  0.00    -0.138 SA
ATOM     78  C   UNL     1       4.608  -8.085  -2.558  1.00  0.00     0.191 C 
BRANCH  76  79
ATOM     79  C   UNL     1       5.308  -7.179  -4.826  1.00  0.00     0.255 C 
ATOM     80  O   UNL     1       5.601  -6.231  -5.550  1.00  0.00    -0.269 OA
BRANCH  79  81
ATOM     81  C   UNL     1       5.472  -8.538  -5.331  1.00  0.00     0.041 A 
ATOM     82  C   UNL     1       4.354  -9.366  -5.464  1.00  0.00     0.014 A 
ATOM     83  C   UNL     1       6.763  -8.988  -5.599  1.00  0.00     0.034 A 
ATOM     84  C   UNL     1       4.539 -10.694  -5.826  1.00  0.00     0.002 A 
ATOM     85  C   UNL     1       6.931 -10.310  -5.982  1.00  0.00     0.041 A 
ATOM     86  C   UNL     1       5.829 -11.165  -6.085  1.00  0.00     0.020 A 
ATOM     87  Cl  UNL     1       8.510 -10.905  -6.309  1.00  0.00    -0.084 Cl
ENDBRANCH  79  81
ENDBRANCH  76  79
ENDBRANCH  72  74
ENDBRANCH  71  72
ENDBRANCH  70  71
ENDBRANCH  69  70
ENDBRANCH  68  69
ENDBRANCH  67  68
ENDBRANCH  66  67
ENDBRANCH   1  66
TORSDOF 22
