REMARK SMILES O=C(OCCOCCOCCOCCOC(=O)c1cccnc1Nc1cccc(C(F)(F)F)c1)c1ccc(-c2c3nc(c(-c4c(F)cccc4F)c4ccc([nH]4)c(-c4c(F)cccc4F)c4nc(c(-c5c(F)cccc5F)c5ccc2[nH]5)C=C4)C=C3)cc1
REMARK SMILES IDX 10 1 9 2 8 3 7 4 6 5 5 6 4 7 3 8 2 9 1 10 35 11 36 12 88 13
REMARK SMILES IDX 37 14 87 15 38 16 39 17 40 18 81 19 41 20 86 21 80 22 82 23
REMARK SMILES IDX 42 24 85 25 79 26 78 27 43 29 69 30 52 31 68 32 53 33 56 34
REMARK SMILES IDX 67 35 83 36 54 37 55 38 66 40 84 41 57 42 44 43 45 44 50 45
REMARK SMILES IDX 46 46 47 47 49 48 51 49 48 50 70 51 71 52 76 53 72 54 73 55
REMARK SMILES IDX 75 56 77 57 74 58 58 59 59 60 64 61 60 62 61 63 63 64 65 65
REMARK SMILES IDX 62 66 11 67 12 68 13 69 14 70 15 71 16 72 17 73 18 74 19 75
REMARK SMILES IDX 23 76 20 77 22 78 21 79 24 80 25 82 26 83 34 84 27 85 29 86
REMARK SMILES IDX 28 87 30 88 31 89 32 90 33 91
REMARK H PARENT 82 28 56 39 24 81
REMARK Flexibility Score: inf
ROOT
ATOM      1  C   UNL     1       3.672  -0.460  -3.669  1.00  0.00     0.188 C 
ENDROOT
BRANCH   1   2
ATOM      2  O   UNL     1       2.267  -0.310  -3.807  1.00  0.00    -0.377 OA
BRANCH   2   3
ATOM      3  C   UNL     1       1.572   0.178  -2.665  1.00  0.00     0.188 C 
BRANCH   3   4
ATOM      4  C   UNL     1       2.038  -0.367  -1.316  1.00  0.00     0.188 C 
BRANCH   4   5
ATOM      5  O   UNL     1       3.344   0.113  -1.034  1.00  0.00    -0.376 OA
BRANCH   5   6
ATOM      6  C   UNL     1       4.282  -0.758  -0.412  1.00  0.00     0.202 C 
BRANCH   6   7
ATOM      7  C   UNL     1       3.955  -1.212   0.999  1.00  0.00     0.261 C 
BRANCH   7   8
ATOM      8  O   UNL     1       2.633  -0.894   1.456  1.00  0.00    -0.460 OA
BRANCH   8   9
ATOM      9  C   UNL     1       2.061   0.286   1.781  1.00  0.00     0.338 C 
ATOM     10  O   UNL     1       0.865   0.292   2.068  1.00  0.00    -0.246 OA
BRANCH   9  11
ATOM     11  C   UNL     1       2.790   1.581   1.866  1.00  0.00     0.060 A 
ATOM     12  C   UNL     1       3.849   1.974   1.055  1.00  0.00     0.016 A 
ATOM     13  C   UNL     1       2.305   2.515   2.794  1.00  0.00     0.016 A 
ATOM     14  C   UNL     1       4.516   3.162   1.235  1.00  0.00     0.010 A 
ATOM     15  C   UNL     1       2.925   3.756   2.947  1.00  0.00     0.010 A 
ATOM     16  C   UNL     1       4.070   4.047   2.199  1.00  0.00    -0.014 A 
BRANCH  16  17
ATOM     17  C   UNL     1       4.997   5.123   2.551  1.00  0.00     0.031 A 
ATOM     18  C   UNL     1       5.745   4.964   3.836  1.00  0.00     0.074 A 
ATOM     19  C   UNL     1       5.306   6.063   1.643  1.00  0.00     0.049 A 
ATOM     20  N   UNL     1       6.541   5.796   4.440  1.00  0.00    -0.248 NA
ATOM     21  C   UNL     1       5.574   3.675   4.537  1.00  0.00     0.031 C 
ATOM     22  C   UNL     1       4.779   6.128   0.275  1.00  0.00     0.029 A 
ATOM     23  N   UNL     1       6.173   7.112   1.716  1.00  0.00    -0.354 N 
ATOM     24  C   UNL     1       6.902   5.165   5.623  1.00  0.00     0.074 A 
ATOM     25  C   UNL     1       6.252   3.878   5.652  1.00  0.00     0.031 C 
ATOM     26  C   UNL     1       5.356   7.154  -0.369  1.00  0.00     0.029 A 
ATOM     27  C   UNL     1       6.205   7.870   0.572  1.00  0.00     0.049 A 
ATOM     28  H   UNL     1       6.723   7.306   2.510  1.00  0.00     0.167 HD
ATOM     29  C   UNL     1       7.694   5.651   6.603  1.00  0.00     0.037 A 
ATOM     30  C   UNL     1       6.816   9.046   0.354  1.00  0.00     0.037 A 
ATOM     31  C   UNL     1       8.325   6.937   6.502  1.00  0.00     0.049 A 
ATOM     32  C   UNL     1       7.590   9.629   1.504  1.00  0.00     0.074 A 
ATOM     33  C   UNL     1       9.089   7.609   7.432  1.00  0.00     0.029 A 
ATOM     34  N   UNL     1       8.255   7.745   5.370  1.00  0.00    -0.354 N 
ATOM     35  N   UNL     1       7.830   9.109   2.687  1.00  0.00    -0.248 NA
ATOM     36  C   UNL     1       8.156  10.965   1.304  1.00  0.00     0.031 C 
ATOM     37  C   UNL     1       9.432   8.850   6.883  1.00  0.00     0.029 A 
ATOM     38  C   UNL     1       8.944   8.922   5.584  1.00  0.00     0.049 A 
ATOM     39  H   UNL     1       7.784   7.511   4.538  1.00  0.00     0.167 HD
ATOM     40  C   UNL     1       8.601  10.038   3.366  1.00  0.00     0.074 A 
ATOM     41  C   UNL     1       8.793  11.151   2.452  1.00  0.00     0.031 C 
ATOM     42  C   UNL     1       9.111   9.986   4.623  1.00  0.00     0.037 A 
BRANCH  29  43
ATOM     43  C   UNL     1       7.779   4.843   7.864  1.00  0.00     0.057 A 
ATOM     44  C   UNL     1       8.413   3.593   7.926  1.00  0.00     0.134 A 
ATOM     45  C   UNL     1       7.113   5.282   9.015  1.00  0.00     0.134 A 
ATOM     46  F   UNL     1       9.031   3.089   6.848  1.00  0.00    -0.206 F 
ATOM     47  C   UNL     1       8.341   2.794   9.071  1.00  0.00     0.040 A 
ATOM     48  C   UNL     1       7.062   4.507  10.175  1.00  0.00     0.040 A 
ATOM     49  F   UNL     1       6.470   6.460   9.022  1.00  0.00    -0.206 F 
ATOM     50  C   UNL     1       7.665   3.252  10.200  1.00  0.00     0.006 A 
ENDBRANCH  29  43
BRANCH  30  51
ATOM     51  C   UNL     1       6.667   9.749  -0.944  1.00  0.00     0.057 A 
ATOM     52  C   UNL     1       7.765   9.976  -1.780  1.00  0.00     0.134 A 
ATOM     53  C   UNL     1       5.420  10.214  -1.388  1.00  0.00     0.134 A 
ATOM     54  F   UNL     1       8.988   9.568  -1.411  1.00  0.00    -0.206 F 
ATOM     55  C   UNL     1       7.635  10.650  -2.997  1.00  0.00     0.040 A 
ATOM     56  C   UNL     1       5.270  10.864  -2.615  1.00  0.00     0.040 A 
ATOM     57  F   UNL     1       4.321  10.029  -0.642  1.00  0.00    -0.206 F 
ATOM     58  C   UNL     1       6.383  11.091  -3.420  1.00  0.00     0.006 A 
ENDBRANCH  30  51
BRANCH  42  59
ATOM     59  C   UNL     1       9.975  11.136   5.038  1.00  0.00     0.057 A 
ATOM     60  C   UNL     1       9.448  12.401   5.319  1.00  0.00     0.134 A 
ATOM     61  C   UNL     1      11.353  10.947   5.205  1.00  0.00     0.134 A 
ATOM     62  F   UNL     1       8.137  12.643   5.164  1.00  0.00    -0.206 F 
ATOM     63  C   UNL     1      10.269  13.450   5.728  1.00  0.00     0.040 A 
ATOM     64  C   UNL     1      12.177  11.979   5.647  1.00  0.00     0.040 A 
ATOM     65  F   UNL     1      11.912   9.752   4.963  1.00  0.00    -0.206 F 
ATOM     66  C   UNL     1      11.636  13.237   5.902  1.00  0.00     0.006 A 
ENDBRANCH  42  59
ENDBRANCH  16  17
ENDBRANCH   9  11
ENDBRANCH   8   9
ENDBRANCH   7   8
ENDBRANCH   6   7
ENDBRANCH   5   6
ENDBRANCH   4   5
ENDBRANCH   3   4
ENDBRANCH   2   3
ENDBRANCH   1   2
BRANCH   1  67
ATOM     67  C   UNL     1       4.543   0.806  -3.480  1.00  0.00     0.188 C 
BRANCH  67  68
ATOM     68  O   UNL     1       3.891   2.051  -3.421  1.00  0.00    -0.376 OA
BRANCH  68  69
ATOM     69  C   UNL     1       3.292   2.588  -4.585  1.00  0.00     0.202 C 
BRANCH  69  70
ATOM     70  C   UNL     1       3.381   2.003  -6.017  1.00  0.00     0.261 C 
BRANCH  70  71
ATOM     71  O   UNL     1       3.845   0.662  -6.229  1.00  0.00    -0.460 OA
BRANCH  71  72
ATOM     72  C   UNL     1       5.158   0.456  -6.507  1.00  0.00     0.341 C 
ATOM     73  O   UNL     1       6.038   1.303  -6.562  1.00  0.00    -0.246 OA
BRANCH  72  74
ATOM     74  C   UNL     1       5.408  -1.002  -6.587  1.00  0.00     0.102 A 
ATOM     75  C   UNL     1       4.641  -1.746  -7.493  1.00  0.00     0.021 A 
ATOM     76  C   UNL     1       6.318  -1.667  -5.737  1.00  0.00     0.144 A 
ATOM     77  C   UNL     1       4.817  -3.120  -7.566  1.00  0.00     0.021 A 
ATOM     78  N   UNL     1       6.478  -3.012  -5.822  1.00  0.00    -0.238 NA
ATOM     79  C   UNL     1       5.749  -3.700  -6.727  1.00  0.00     0.113 A 
BRANCH  76  80
ATOM     80  N   UNL     1       6.958  -1.008  -4.664  1.00  0.00    -0.340 N 
ATOM     81  H   UNL     1       6.792  -0.042  -4.576  1.00  0.00     0.168 HD
BRANCH  80  82
ATOM     82  C   UNL     1       7.812  -1.595  -3.705  1.00  0.00     0.040 A 
ATOM     83  C   UNL     1       7.353  -1.922  -2.425  1.00  0.00     0.026 A 
ATOM     84  C   UNL     1       9.168  -1.771  -3.987  1.00  0.00     0.039 A 
ATOM     85  C   UNL     1       8.233  -2.356  -1.426  1.00  0.00     0.003 A 
ATOM     86  C   UNL     1      10.062  -2.240  -3.008  1.00  0.00     0.058 A 
ATOM     87  C   UNL     1       9.588  -2.500  -1.713  1.00  0.00     0.013 A 
BRANCH  86  88
ATOM     88  C   UNL     1      11.514  -2.464  -3.338  1.00  0.00     0.416 C 
ATOM     89  F   UNL     1      12.338  -1.615  -2.664  1.00  0.00    -0.166 F 
ATOM     90  F   UNL     1      11.933  -3.721  -3.022  1.00  0.00    -0.166 F 
ATOM     91  F   UNL     1      11.805  -2.296  -4.659  1.00  0.00    -0.166 F 
ENDBRANCH  86  88
ENDBRANCH  80  82
ENDBRANCH  76  80
ENDBRANCH  72  74
ENDBRANCH  71  72
ENDBRANCH  70  71
ENDBRANCH  69  70
ENDBRANCH  68  69
ENDBRANCH  67  68
ENDBRANCH   1  67
TORSDOF 23
