REMARK SMILES O=C(OCCOCCOCCOCCOC(=O)c1ccc(-c2c3nc(c(-c4c(F)cccc4F)c4ccc([nH]4)c(-c4c(F)cccc4F)c4nc(c(-c5c(F)cccc5F)c5ccc2[nH]5)C=C4)C=C3)cc1)C1=Cc2cc(Cl)cc(-c3ccc(CO)cc3)c2O[C@@H]1C(F)(F)F
REMARK SMILES IDX 8 1 7 2 6 3 5 4 4 5 3 6 2 7 1 8 72 9 73 10 90 11 74 12 89 13
REMARK SMILES IDX 75 14 88 15 76 16 79 17 77 18 78 19 91 20 92 21 93 22 94 23
REMARK SMILES IDX 80 24 81 25 87 26 82 27 86 28 83 29 84 30 85 31 9 33 10 34
REMARK SMILES IDX 11 35 12 36 13 37 14 38 15 39 16 40 17 41 18 42 19 43 71 44
REMARK SMILES IDX 20 45 70 46 21 47 22 48 23 49 64 50 24 51 69 52 63 53 65 54
REMARK SMILES IDX 25 55 68 56 62 57 61 58 26 60 52 61 35 62 51 63 36 64 39 65
REMARK SMILES IDX 50 66 66 67 37 68 38 69 49 71 67 72 40 73 27 74 28 75 33 76
REMARK SMILES IDX 29 77 30 78 32 79 34 80 31 81 53 82 54 83 59 84 55 85 56 86
REMARK SMILES IDX 58 87 60 88 57 89 41 90 42 91 47 92 43 93 44 94 46 95 48 96
REMARK SMILES IDX 45 97
REMARK H PARENT 85 32 65 59 39 70
REMARK Flexibility Score: inf
ROOT
ATOM      1  C   UNL     1       0.569   2.196  -2.459  1.00  0.00     0.188 C 
ENDROOT
BRANCH   1   2
ATOM      2  C   UNL     1       1.074   2.053  -1.029  1.00  0.00     0.188 C 
BRANCH   2   3
ATOM      3  O   UNL     1       2.303   1.365  -0.941  1.00  0.00    -0.376 OA
BRANCH   3   4
ATOM      4  C   UNL     1       2.363   0.019  -1.376  1.00  0.00     0.202 C 
BRANCH   4   5
ATOM      5  C   UNL     1       1.954  -1.069  -0.376  1.00  0.00     0.261 C 
BRANCH   5   6
ATOM      6  O   UNL     1       1.820  -0.578   0.969  1.00  0.00    -0.460 OA
BRANCH   6   7
ATOM      7  C   UNL     1       2.596  -1.197   1.897  1.00  0.00     0.338 C 
ATOM      8  O   UNL     1       2.266  -2.228   2.462  1.00  0.00    -0.246 OA
BRANCH   7   9
ATOM      9  C   UNL     1       3.848  -0.434   2.210  1.00  0.00     0.087 C 
ATOM     10  C   UNL     1       4.929  -1.189   2.489  1.00  0.00     0.027 C 
ATOM     11  C   UNL     1       4.065   0.784   1.358  1.00  0.00     0.316 C 
ATOM     12  C   UNL     1       5.906  -1.290   1.383  1.00  0.00     0.019 A 
ATOM     13  O   UNL     1       4.829   0.468   0.152  1.00  0.00    -0.475 OA
ATOM     14  C   UNL     1       7.014  -2.130   1.480  1.00  0.00     0.032 A 
ATOM     15  C   UNL     1       5.607  -0.674   0.158  1.00  0.00     0.135 A 
ATOM     16  C   UNL     1       7.748  -2.423   0.333  1.00  0.00     0.042 A 
ATOM     17  C   UNL     1       6.149  -1.210  -1.039  1.00  0.00     0.026 A 
ATOM     18  Cl  UNL     1       9.174  -3.376   0.448  1.00  0.00    -0.084 Cl
ATOM     19  C   UNL     1       7.282  -2.031  -0.920  1.00  0.00     0.033 A 
BRANCH  11  20
ATOM     20  C   UNL     1       4.471   2.002   2.200  1.00  0.00     0.430 C 
ATOM     21  F   UNL     1       4.268   3.165   1.541  1.00  0.00    -0.167 F 
ATOM     22  F   UNL     1       3.693   2.066   3.320  1.00  0.00    -0.167 F 
ATOM     23  F   UNL     1       5.753   1.968   2.616  1.00  0.00    -0.167 F 
ENDBRANCH  11  20
BRANCH  17  24
ATOM     24  C   UNL     1       5.452  -1.212  -2.354  1.00  0.00    -0.015 A 
ATOM     25  C   UNL     1       4.665  -2.328  -2.741  1.00  0.00     0.009 A 
ATOM     26  C   UNL     1       5.515  -0.155  -3.254  1.00  0.00     0.009 A 
ATOM     27  C   UNL     1       3.927  -2.356  -3.942  1.00  0.00     0.007 A 
ATOM     28  C   UNL     1       4.751  -0.177  -4.439  1.00  0.00     0.007 A 
ATOM     29  C   UNL     1       3.947  -1.262  -4.806  1.00  0.00    -0.023 A 
BRANCH  29  30
ATOM     30  C   UNL     1       3.136  -1.224  -6.081  1.00  0.00     0.191 C 
BRANCH  30  31
ATOM     31  O   UNL     1       3.362  -2.362  -6.890  1.00  0.00    -0.392 OA
ATOM     32  H   UNL     1       4.297  -2.396  -7.147  1.00  0.00     0.211 HD
ENDBRANCH  30  31
ENDBRANCH  29  30
ENDBRANCH  17  24
ENDBRANCH   7   9
ENDBRANCH   6   7
ENDBRANCH   5   6
ENDBRANCH   4   5
ENDBRANCH   3   4
ENDBRANCH   2   3
ENDBRANCH   1   2
BRANCH   1  33
ATOM     33  O   UNL     1       1.400   3.047  -3.249  1.00  0.00    -0.377 OA
BRANCH  33  34
ATOM     34  C   UNL     1       2.556   2.415  -3.788  1.00  0.00     0.188 C 
BRANCH  34  35
ATOM     35  C   UNL     1       3.874   2.792  -3.098  1.00  0.00     0.188 C 
BRANCH  35  36
ATOM     36  O   UNL     1       4.016   4.062  -2.505  1.00  0.00    -0.376 OA
BRANCH  36  37
ATOM     37  C   UNL     1       3.611   5.246  -3.161  1.00  0.00     0.202 C 
BRANCH  37  38
ATOM     38  C   UNL     1       3.324   5.308  -4.668  1.00  0.00     0.261 C 
BRANCH  38  39
ATOM     39  O   UNL     1       4.024   4.394  -5.534  1.00  0.00    -0.460 OA
BRANCH  39  40
ATOM     40  C   UNL     1       5.373   4.380  -5.576  1.00  0.00     0.338 C 
ATOM     41  O   UNL     1       6.127   5.164  -5.027  1.00  0.00    -0.246 OA
BRANCH  40  42
ATOM     42  C   UNL     1       5.788   3.117  -6.273  1.00  0.00     0.060 A 
ATOM     43  C   UNL     1       6.931   2.424  -5.842  1.00  0.00     0.016 A 
ATOM     44  C   UNL     1       5.007   2.553  -7.288  1.00  0.00     0.016 A 
ATOM     45  C   UNL     1       7.288   1.176  -6.409  1.00  0.00     0.010 A 
ATOM     46  C   UNL     1       5.362   1.313  -7.846  1.00  0.00     0.010 A 
ATOM     47  C   UNL     1       6.509   0.601  -7.421  1.00  0.00    -0.014 A 
BRANCH  47  48
ATOM     48  C   UNL     1       6.898  -0.621  -8.206  1.00  0.00     0.031 A 
ATOM     49  C   UNL     1       7.295  -0.410  -9.643  1.00  0.00     0.074 A 
ATOM     50  C   UNL     1       6.798  -1.899  -7.775  1.00  0.00     0.049 A 
ATOM     51  N   UNL     1       7.414  -1.282 -10.610  1.00  0.00    -0.248 NA
ATOM     52  C   UNL     1       7.601   0.976 -10.032  1.00  0.00     0.031 C 
ATOM     53  C   UNL     1       6.560  -2.345  -6.412  1.00  0.00     0.029 A 
ATOM     54  N   UNL     1       6.780  -3.080  -8.500  1.00  0.00    -0.354 N 
ATOM     55  C   UNL     1       7.846  -0.558 -11.709  1.00  0.00     0.074 A 
ATOM     56  C   UNL     1       7.862   0.837 -11.321  1.00  0.00     0.031 C 
ATOM     57  C   UNL     1       6.234  -3.653  -6.417  1.00  0.00     0.029 A 
ATOM     58  C   UNL     1       6.284  -4.154  -7.786  1.00  0.00     0.049 A 
ATOM     59  H   UNL     1       7.090  -3.147  -9.432  1.00  0.00     0.167 HD
ATOM     60  C   UNL     1       8.259  -1.010 -12.914  1.00  0.00     0.037 A 
ATOM     61  C   UNL     1       5.881  -5.380  -8.188  1.00  0.00     0.037 A 
ATOM     62  C   UNL     1       8.282  -2.388 -13.316  1.00  0.00     0.049 A 
ATOM     63  C   UNL     1       6.124  -5.827  -9.609  1.00  0.00     0.074 A 
ATOM     64  C   UNL     1       8.803  -2.934 -14.477  1.00  0.00     0.029 A 
ATOM     65  N   UNL     1       7.743  -3.433 -12.589  1.00  0.00    -0.354 N 
ATOM     66  N   UNL     1       6.663  -5.163 -10.600  1.00  0.00    -0.248 NA
ATOM     67  C   UNL     1       5.763  -7.215  -9.952  1.00  0.00     0.031 C 
ATOM     68  C   UNL     1       8.516  -4.301 -14.485  1.00  0.00     0.029 A 
ATOM     69  C   UNL     1       7.865  -4.613 -13.304  1.00  0.00     0.049 A 
ATOM     70  H   UNL     1       7.333  -3.350 -11.698  1.00  0.00     0.167 HD
ATOM     71  C   UNL     1       6.794  -6.076 -11.642  1.00  0.00     0.074 A 
ATOM     72  C   UNL     1       6.243  -7.329 -11.182  1.00  0.00     0.031 C 
ATOM     73  C   UNL     1       7.359  -5.884 -12.857  1.00  0.00     0.037 A 
BRANCH  60  74
ATOM     74  C   UNL     1       8.765   0.010 -13.883  1.00  0.00     0.057 A 
ATOM     75  C   UNL     1       9.994   0.653 -13.687  1.00  0.00     0.134 A 
ATOM     76  C   UNL     1       8.041   0.317 -15.039  1.00  0.00     0.134 A 
ATOM     77  F   UNL     1      10.723   0.408 -12.588  1.00  0.00    -0.206 F 
ATOM     78  C   UNL     1      10.477   1.587 -14.601  1.00  0.00     0.040 A 
ATOM     79  C   UNL     1       8.527   1.229 -15.974  1.00  0.00     0.040 A 
ATOM     80  F   UNL     1       6.859  -0.271 -15.280  1.00  0.00    -0.206 F 
ATOM     81  C   UNL     1       9.745   1.870 -15.753  1.00  0.00     0.006 A 
ENDBRANCH  60  74
BRANCH  61  82
ATOM     82  C   UNL     1       5.172  -6.315  -7.269  1.00  0.00     0.057 A 
ATOM     83  C   UNL     1       5.784  -7.479  -6.789  1.00  0.00     0.134 A 
ATOM     84  C   UNL     1       3.805  -6.157  -7.006  1.00  0.00     0.134 A 
ATOM     85  F   UNL     1       7.074  -7.721  -7.061  1.00  0.00    -0.206 F 
ATOM     86  C   UNL     1       5.057  -8.467  -6.116  1.00  0.00     0.040 A 
ATOM     87  C   UNL     1       3.072  -7.122  -6.309  1.00  0.00     0.040 A 
ATOM     88  F   UNL     1       3.141  -5.099  -7.488  1.00  0.00    -0.206 F 
ATOM     89  C   UNL     1       3.696  -8.290  -5.876  1.00  0.00     0.006 A 
ENDBRANCH  61  82
BRANCH  73  90
ATOM     90  C   UNL     1       7.509  -7.066 -13.771  1.00  0.00     0.057 A 
ATOM     91  C   UNL     1       6.418  -7.654 -14.421  1.00  0.00     0.134 A 
ATOM     92  C   UNL     1       8.783  -7.575 -14.061  1.00  0.00     0.134 A 
ATOM     93  F   UNL     1       5.170  -7.228 -14.177  1.00  0.00    -0.206 F 
ATOM     94  C   UNL     1       6.588  -8.709 -15.322  1.00  0.00     0.040 A 
ATOM     95  C   UNL     1       8.968  -8.609 -14.981  1.00  0.00     0.040 A 
ATOM     96  F   UNL     1       9.874  -7.057 -13.476  1.00  0.00    -0.206 F 
ATOM     97  C   UNL     1       7.867  -9.180 -15.613  1.00  0.00     0.006 A 
ENDBRANCH  73  90
ENDBRANCH  47  48
ENDBRANCH  40  42
ENDBRANCH  39  40
ENDBRANCH  38  39
ENDBRANCH  37  38
ENDBRANCH  36  37
ENDBRANCH  35  36
ENDBRANCH  34  35
ENDBRANCH  33  34
ENDBRANCH   1  33
TORSDOF 24
