REMARK SMILES CCOc1cnc(C(=O)c2[nH]c3cc(Cl)ccc3c2CC(=O)OCCOCCOCCOCCOC(=O)c2ccc(-c3c4nc(c(-c5c(F)cccc5F)c5ccc([nH]5)c(-c5c(F)cccc5F)c5nc(c(-c6c(F)cccc6F)c6ccc3[nH]6)C=C5)C=C4)cc2)cc1CC
REMARK SMILES IDX 27 1 26 2 25 3 24 4 23 5 21 6 22 7 20 8 19 9 10 10 11 11
REMARK SMILES IDX 12 12 18 14 13 15 17 16 14 17 16 18 15 19 8 20 9 21 7 22
REMARK SMILES IDX 4 23 5 24 93 25 6 26 92 27 3 28 2 29 1 30 94 31 95 32 28 33
REMARK SMILES IDX 29 34 30 35 31 36 32 37 33 38 34 39 35 40 36 41 37 42 38 43
REMARK SMILES IDX 39 44 91 45 40 46 90 47 41 48 42 49 43 50 84 51 44 52 89 53
REMARK SMILES IDX 83 54 85 55 45 56 88 57 82 58 81 59 46 61 72 62 55 63 71 64
REMARK SMILES IDX 56 65 59 66 70 67 86 68 57 69 58 70 69 72 87 73 60 74 47 75
REMARK SMILES IDX 48 76 53 77 49 78 50 79 52 80 54 81 51 82 73 83 74 84 79 85
REMARK SMILES IDX 75 86 76 87 78 88 80 89 77 90 61 91 62 92 67 93 63 94 64 95
REMARK SMILES IDX 66 96 68 97 65 98
REMARK H PARENT 11 13 85 60 59 71
REMARK Flexibility Score: inf
ROOT
ATOM      1  C   UNL     1       8.606  -1.851   5.950  1.00  0.00     0.188 C 
ENDROOT
BRANCH   1   2
ATOM      2  O   UNL     1       9.674  -1.665   6.855  1.00  0.00    -0.376 OA
BRANCH   2   3
ATOM      3  C   UNL     1      10.871  -1.081   6.349  1.00  0.00     0.202 C 
BRANCH   3   4
ATOM      4  C   UNL     1      11.385  -1.455   4.942  1.00  0.00     0.261 C 
BRANCH   4   5
ATOM      5  O   UNL     1      10.548  -1.039   3.826  1.00  0.00    -0.463 OA
BRANCH   5   6
ATOM      6  C   UNL     1      10.315  -1.974   2.870  1.00  0.00     0.310 C 
ATOM      7  O   UNL     1      10.809  -3.102   2.911  1.00  0.00    -0.252 OA
BRANCH   6   8
ATOM      8  C   UNL     1       9.416  -1.599   1.701  1.00  0.00     0.161 C 
BRANCH   8   9
ATOM      9  C   UNL     1       8.772  -0.235   1.571  1.00  0.00     0.000 A 
ATOM     10  C   UNL     1       7.457   0.136   1.903  1.00  0.00     0.093 A 
ATOM     11  N   UNL     1       7.393   1.502   1.710  1.00  0.00    -0.351 N 
ATOM     12  C   UNL     1       8.358   1.887   0.814  1.00  0.00     0.048 A 
ATOM     13  H   UNL     1       6.752   2.107   2.149  1.00  0.00     0.167 HD
ATOM     14  C   UNL     1       9.264   0.831   0.734  1.00  0.00     0.004 A 
ATOM     15  C   UNL     1       8.479   3.065   0.065  1.00  0.00     0.047 A 
ATOM     16  C   UNL     1      10.351   0.956  -0.158  1.00  0.00     0.012 A 
ATOM     17  C   UNL     1       9.535   3.134  -0.846  1.00  0.00     0.043 A 
ATOM     18  C   UNL     1      10.459   2.100  -0.962  1.00  0.00     0.021 A 
ATOM     19  Cl  UNL     1       9.672   4.514  -1.869  1.00  0.00    -0.084 Cl
BRANCH  10  20
ATOM     20  C   UNL     1       6.352  -0.706   2.375  1.00  0.00     0.227 C 
ATOM     21  O   UNL     1       6.521  -1.869   2.741  1.00  0.00    -0.285 OA
BRANCH  20  22
ATOM     22  C   UNL     1       4.937  -0.209   2.345  1.00  0.00     0.113 A 
ATOM     23  C   UNL     1       2.246   0.234   2.120  1.00  0.00     0.140 A 
ATOM     24  C   UNL     1       2.807  -0.426   3.208  1.00  0.00     0.158 A 
ATOM     25  C   UNL     1       3.092   0.809   1.169  1.00  0.00    -0.002 A 
ATOM     26  N   UNL     1       4.133  -0.646   3.349  1.00  0.00    -0.249 NA
ATOM     27  C   UNL     1       4.462   0.528   1.264  1.00  0.00     0.040 A 
BRANCH  23  28
ATOM     28  O   UNL     1       0.889   0.318   1.992  1.00  0.00    -0.492 OA
BRANCH  28  29
ATOM     29  C   UNL     1       0.345  -0.880   1.405  1.00  0.00     0.226 C 
ATOM     30  C   UNL     1       0.149  -0.708  -0.095  1.00  0.00     0.049 C 
ENDBRANCH  28  29
ENDBRANCH  23  28
BRANCH  25  31
ATOM     31  C   UNL     1       2.569   1.624   0.011  1.00  0.00     0.036 C 
ATOM     32  C   UNL     1       3.212   2.999  -0.105  1.00  0.00     0.009 C 
ENDBRANCH  25  31
ENDBRANCH  20  22
ENDBRANCH  10  20
ENDBRANCH   8   9
ENDBRANCH   6   8
ENDBRANCH   5   6
ENDBRANCH   4   5
ENDBRANCH   3   4
ENDBRANCH   2   3
ENDBRANCH   1   2
BRANCH   1  33
ATOM     33  C   UNL     1       8.059  -0.620   5.231  1.00  0.00     0.188 C 
BRANCH  33  34
ATOM     34  O   UNL     1       8.860   0.545   5.151  1.00  0.00    -0.377 OA
BRANCH  34  35
ATOM     35  C   UNL     1       8.695   1.587   6.098  1.00  0.00     0.188 C 
BRANCH  35  36
ATOM     36  C   UNL     1       7.715   1.371   7.248  1.00  0.00     0.188 C 
BRANCH  36  37
ATOM     37  O   UNL     1       6.325   1.247   6.940  1.00  0.00    -0.376 OA
BRANCH  37  38
ATOM     38  C   UNL     1       5.810   1.826   5.743  1.00  0.00     0.202 C 
BRANCH  38  39
ATOM     39  C   UNL     1       5.393   3.287   5.870  1.00  0.00     0.261 C 
BRANCH  39  40
ATOM     40  O   UNL     1       6.548   4.139   5.875  1.00  0.00    -0.460 OA
BRANCH  40  41
ATOM     41  C   UNL     1       6.945   4.554   7.097  1.00  0.00     0.338 C 
ATOM     42  O   UNL     1       6.379   4.378   8.165  1.00  0.00    -0.246 OA
BRANCH  41  43
ATOM     43  C   UNL     1       8.294   5.133   6.990  1.00  0.00     0.060 A 
ATOM     44  C   UNL     1       9.241   4.769   7.956  1.00  0.00     0.016 A 
ATOM     45  C   UNL     1       8.610   6.056   5.990  1.00  0.00     0.016 A 
ATOM     46  C   UNL     1      10.491   5.374   7.964  1.00  0.00     0.010 A 
ATOM     47  C   UNL     1       9.859   6.674   6.006  1.00  0.00     0.010 A 
ATOM     48  C   UNL     1      10.780   6.368   7.022  1.00  0.00    -0.014 A 
BRANCH  48  49
ATOM     49  C   UNL     1      11.945   7.249   7.244  1.00  0.00     0.031 A 
ATOM     50  C   UNL     1      11.710   8.573   7.913  1.00  0.00     0.074 A 
ATOM     51  C   UNL     1      13.180   6.860   6.890  1.00  0.00     0.049 A 
ATOM     52  N   UNL     1      12.555   9.535   8.175  1.00  0.00    -0.248 NA
ATOM     53  C   UNL     1      10.329   8.849   8.344  1.00  0.00     0.031 C 
ATOM     54  C   UNL     1      13.521   5.572   6.291  1.00  0.00     0.029 A 
ATOM     55  N   UNL     1      14.376   7.520   6.986  1.00  0.00    -0.354 N 
ATOM     56  C   UNL     1      11.808  10.529   8.796  1.00  0.00     0.074 A 
ATOM     57  C   UNL     1      10.437  10.073   8.833  1.00  0.00     0.031 C 
ATOM     58  C   UNL     1      14.845   5.537   6.065  1.00  0.00     0.029 A 
ATOM     59  C   UNL     1      15.432   6.813   6.470  1.00  0.00     0.049 A 
ATOM     60  H   UNL     1      14.468   8.415   7.386  1.00  0.00     0.167 HD
ATOM     61  C   UNL     1      12.233  11.711   9.299  1.00  0.00     0.037 A 
ATOM     62  C   UNL     1      16.720   7.175   6.325  1.00  0.00     0.037 A 
ATOM     63  C   UNL     1      13.600  12.156   9.240  1.00  0.00     0.049 A 
ATOM     64  C   UNL     1      17.151   8.539   6.797  1.00  0.00     0.074 A 
ATOM     65  C   UNL     1      14.146  13.337   9.708  1.00  0.00     0.029 A 
ATOM     66  N   UNL     1      14.636  11.435   8.662  1.00  0.00    -0.354 N 
ATOM     67  N   UNL     1      16.445   9.473   7.390  1.00  0.00    -0.248 NA
ATOM     68  C   UNL     1      18.558   8.898   6.580  1.00  0.00     0.031 C 
ATOM     69  C   UNL     1      15.501  13.355   9.362  1.00  0.00     0.029 A 
ATOM     70  C   UNL     1      15.814  12.158   8.737  1.00  0.00     0.049 A 
ATOM     71  H   UNL     1      14.546  10.542   8.259  1.00  0.00     0.167 HD
ATOM     72  C   UNL     1      17.328  10.514   7.649  1.00  0.00     0.074 A 
ATOM     73  C   UNL     1      18.624  10.089   7.157  1.00  0.00     0.031 C 
ATOM     74  C   UNL     1      17.094  11.710   8.245  1.00  0.00     0.037 A 
BRANCH  61  75
ATOM     75  C   UNL     1      11.197  12.608   9.915  1.00  0.00     0.057 A 
ATOM     76  C   UNL     1      10.546  12.281  11.112  1.00  0.00     0.134 A 
ATOM     77  C   UNL     1      10.839  13.813   9.297  1.00  0.00     0.134 A 
ATOM     78  F   UNL     1      10.826  11.133  11.748  1.00  0.00    -0.206 F 
ATOM     79  C   UNL     1       9.551  13.100  11.652  1.00  0.00     0.040 A 
ATOM     80  C   UNL     1       9.870  14.656   9.844  1.00  0.00     0.040 A 
ATOM     81  F   UNL     1      11.422  14.190   8.149  1.00  0.00    -0.206 F 
ATOM     82  C   UNL     1       9.215  14.295  11.019  1.00  0.00     0.006 A 
ENDBRANCH  61  75
BRANCH  62  83
ATOM     83  C   UNL     1      17.692   6.237   5.708  1.00  0.00     0.057 A 
ATOM     84  C   UNL     1      18.730   5.675   6.458  1.00  0.00     0.134 A 
ATOM     85  C   UNL     1      17.614   5.889   4.353  1.00  0.00     0.134 A 
ATOM     86  F   UNL     1      18.870   5.985   7.755  1.00  0.00    -0.206 F 
ATOM     87  C   UNL     1      19.666   4.813   5.883  1.00  0.00     0.040 A 
ATOM     88  C   UNL     1      18.527   5.007   3.771  1.00  0.00     0.040 A 
ATOM     89  F   UNL     1      16.642   6.391   3.579  1.00  0.00    -0.206 F 
ATOM     90  C   UNL     1      19.562   4.473   4.535  1.00  0.00     0.006 A 
ENDBRANCH  62  83
BRANCH  74  91
ATOM     91  C   UNL     1      18.271  12.623   8.440  1.00  0.00     0.057 A 
ATOM     92  C   UNL     1      18.891  13.278   7.368  1.00  0.00     0.134 A 
ATOM     93  C   UNL     1      18.762  12.881   9.726  1.00  0.00     0.134 A 
ATOM     94  F   UNL     1      18.477  13.066   6.110  1.00  0.00    -0.206 F 
ATOM     95  C   UNL     1      19.974  14.135   7.567  1.00  0.00     0.040 A 
ATOM     96  C   UNL     1      19.823  13.761   9.940  1.00  0.00     0.040 A 
ATOM     97  F   UNL     1      18.207  12.296  10.799  1.00  0.00    -0.206 F 
ATOM     98  C   UNL     1      20.438  14.385   8.857  1.00  0.00     0.006 A 
ENDBRANCH  74  91
ENDBRANCH  48  49
ENDBRANCH  41  43
ENDBRANCH  40  41
ENDBRANCH  39  40
ENDBRANCH  38  39
ENDBRANCH  37  38
ENDBRANCH  36  37
ENDBRANCH  35  36
ENDBRANCH  34  35
ENDBRANCH  33  34
ENDBRANCH   1  33
TORSDOF 26
