REMARK SMILES C[C@H]1Oc2ccccc2C=C1/C=C/C(=O)N[C@H](C(=O)OCCOCCOCCOCCOC(=O)c1ccc(-c2c3nc(c(-c4c(F)cccc4F)c4ccc([nH]4)c(-c4c(F)cccc4F)c4nc(c(-c5c(F)cccc5F)c5ccc2[nH]5)C=C4)C=C3)cc1)c1ccccc1
REMARK SMILES IDX 25 1 24 2 23 3 22 4 21 5 20 6 18 7 19 8 17 9 16 10 14 11
REMARK SMILES IDX 15 12 13 14 12 15 11 16 1 17 2 18 3 19 4 20 10 21 5 22 9 23
REMARK SMILES IDX 6 24 8 25 7 26 89 27 90 28 94 29 91 30 93 31 92 32 26 33
REMARK SMILES IDX 27 34 28 35 29 36 30 37 31 38 32 39 33 40 34 41 35 42 36 43
REMARK SMILES IDX 88 44 37 45 87 46 38 47 39 48 40 49 81 50 41 51 86 52 80 53
REMARK SMILES IDX 82 54 42 55 85 56 79 57 78 58 43 60 69 61 52 62 68 63 53 64
REMARK SMILES IDX 56 65 67 66 83 67 54 68 55 69 66 71 84 72 57 73 44 74 45 75
REMARK SMILES IDX 50 76 46 77 47 78 49 79 51 80 48 81 70 82 71 83 76 84 72 85
REMARK SMILES IDX 73 86 75 87 77 88 74 89 58 90 59 91 64 92 60 93 61 94 63 95
REMARK SMILES IDX 65 96 62 97
REMARK H PARENT 16 13 82 59 56 70
REMARK Flexibility Score: inf
ROOT
ATOM      1  C   UNL     1       1.407   0.778   4.368  1.00  0.00     0.188 C 
ENDROOT
BRANCH   1   2
ATOM      2  C   UNL     1       0.087   1.011   5.126  1.00  0.00     0.188 C 
BRANCH   2   3
ATOM      3  O   UNL     1       0.264   1.188   6.528  1.00  0.00    -0.376 OA
BRANCH   3   4
ATOM      4  C   UNL     1       0.009   0.086   7.391  1.00  0.00     0.202 C 
BRANCH   4   5
ATOM      5  C   UNL     1       0.942  -1.141   7.291  1.00  0.00     0.261 C 
BRANCH   5   6
ATOM      6  O   UNL     1       0.994  -1.782   6.007  1.00  0.00    -0.461 OA
BRANCH   6   7
ATOM      7  C   UNL     1      -0.201  -2.207   5.526  1.00  0.00     0.333 C 
ATOM      8  O   UNL     1      -1.241  -2.157   6.175  1.00  0.00    -0.249 OA
BRANCH   7   9
ATOM      9  C   UNL     1      -0.114  -2.534   4.008  1.00  0.00     0.223 C 
BRANCH   9  10
ATOM     10  N   UNL     1       1.216  -3.023   3.629  1.00  0.00    -0.335 N 
ATOM     11  C   UNL     1       1.701  -3.666   2.538  1.00  0.00     0.244 C 
ATOM     12  O   UNL     1       2.890  -3.588   2.245  1.00  0.00    -0.270 OA
ATOM     13  H   UNL     1       1.903  -2.848   4.312  1.00  0.00     0.165 HD
BRANCH  11  14
ATOM     14  C   UNL     1       0.838  -4.629   1.846  1.00  0.00     0.071 C 
ATOM     15  C   UNL     1      -0.045  -4.286   0.898  1.00  0.00     0.013 C 
BRANCH  15  16
ATOM     16  C   UNL     1      -1.012  -5.234   0.354  1.00  0.00    -0.007 C 
ATOM     17  C   UNL     1      -2.653  -3.911  -1.075  1.00  0.00     0.058 C 
ATOM     18  C   UNL     1      -2.437  -4.732   0.193  1.00  0.00     0.200 C 
ATOM     19  O   UNL     1      -3.464  -5.739   0.259  1.00  0.00    -0.485 OA
ATOM     20  C   UNL     1      -3.115  -6.991  -0.161  1.00  0.00     0.127 A 
ATOM     21  C   UNL     1      -0.706  -6.512   0.082  1.00  0.00     0.019 C 
ATOM     22  C   UNL     1      -4.168  -7.867  -0.425  1.00  0.00     0.047 A 
ATOM     23  C   UNL     1      -1.789  -7.415  -0.288  1.00  0.00     0.017 A 
ATOM     24  C   UNL     1      -3.900  -9.169  -0.843  1.00  0.00     0.004 A 
ATOM     25  C   UNL     1      -1.526  -8.726  -0.694  1.00  0.00     0.012 A 
ATOM     26  C   UNL     1      -2.580  -9.598  -0.979  1.00  0.00     0.001 A 
ENDBRANCH  15  16
ENDBRANCH  11  14
ENDBRANCH   9  10
BRANCH   9  27
ATOM     27  C   UNL     1      -1.387  -3.255   3.645  1.00  0.00    -0.014 A 
ATOM     28  C   UNL     1      -1.606  -4.584   4.016  1.00  0.00     0.006 A 
ATOM     29  C   UNL     1      -2.477  -2.473   3.200  1.00  0.00     0.006 A 
ATOM     30  C   UNL     1      -2.893  -5.116   3.956  1.00  0.00     0.000 A 
ATOM     31  C   UNL     1      -3.763  -3.002   3.166  1.00  0.00     0.000 A 
ATOM     32  C   UNL     1      -3.969  -4.324   3.549  1.00  0.00     0.000 A 
ENDBRANCH   9  27
ENDBRANCH   7   9
ENDBRANCH   6   7
ENDBRANCH   5   6
ENDBRANCH   4   5
ENDBRANCH   3   4
ENDBRANCH   2   3
ENDBRANCH   1   2
BRANCH   1  33
ATOM     33  O   UNL     1       2.451   0.348   5.224  1.00  0.00    -0.377 OA
BRANCH  33  34
ATOM     34  C   UNL     1       3.205   1.359   5.891  1.00  0.00     0.188 C 
BRANCH  34  35
ATOM     35  C   UNL     1       2.594   2.742   6.217  1.00  0.00     0.188 C 
BRANCH  35  36
ATOM     36  O   UNL     1       1.939   3.356   5.110  1.00  0.00    -0.376 OA
BRANCH  36  37
ATOM     37  C   UNL     1       2.599   4.462   4.510  1.00  0.00     0.202 C 
BRANCH  37  38
ATOM     38  C   UNL     1       3.783   4.080   3.612  1.00  0.00     0.261 C 
BRANCH  38  39
ATOM     39  O   UNL     1       4.866   3.401   4.269  1.00  0.00    -0.460 OA
BRANCH  39  40
ATOM     40  C   UNL     1       5.468   4.019   5.314  1.00  0.00     0.338 C 
ATOM     41  O   UNL     1       5.254   5.133   5.731  1.00  0.00    -0.246 OA
BRANCH  40  42
ATOM     42  C   UNL     1       6.293   2.996   6.005  1.00  0.00     0.060 A 
ATOM     43  C   UNL     1       7.165   2.181   5.279  1.00  0.00     0.016 A 
ATOM     44  C   UNL     1       6.149   2.823   7.388  1.00  0.00     0.016 A 
ATOM     45  C   UNL     1       7.924   1.218   5.945  1.00  0.00     0.010 A 
ATOM     46  C   UNL     1       6.903   1.851   8.053  1.00  0.00     0.010 A 
ATOM     47  C   UNL     1       7.818   1.063   7.339  1.00  0.00    -0.014 A 
BRANCH  47  48
ATOM     48  C   UNL     1       8.815   0.229   8.053  1.00  0.00     0.031 A 
ATOM     49  C   UNL     1       8.515  -1.161   8.521  1.00  0.00     0.074 A 
ATOM     50  C   UNL     1      10.031   0.767   8.264  1.00  0.00     0.049 A 
ATOM     51  N   UNL     1       9.324  -2.031   9.074  1.00  0.00    -0.248 NA
ATOM     52  C   UNL     1       7.136  -1.638   8.357  1.00  0.00     0.031 C 
ATOM     53  C   UNL     1      10.426   2.124   7.880  1.00  0.00     0.029 A 
ATOM     54  N   UNL     1      11.157   0.242   8.841  1.00  0.00    -0.354 N 
ATOM     55  C   UNL     1       8.565  -3.172   9.296  1.00  0.00     0.074 A 
ATOM     56  C   UNL     1       7.215  -2.862   8.867  1.00  0.00     0.031 C 
ATOM     57  C   UNL     1      11.710   2.318   8.215  1.00  0.00     0.029 A 
ATOM     58  C   UNL     1      12.221   1.110   8.852  1.00  0.00     0.049 A 
ATOM     59  H   UNL     1      11.200  -0.669   9.212  1.00  0.00     0.167 HD
ATOM     60  C   UNL     1       8.966  -4.369   9.793  1.00  0.00     0.037 A 
ATOM     61  C   UNL     1      13.471   0.950   9.321  1.00  0.00     0.037 A 
ATOM     62  C   UNL     1      10.306  -4.660  10.245  1.00  0.00     0.049 A 
ATOM     63  C   UNL     1      13.868  -0.369   9.917  1.00  0.00     0.074 A 
ATOM     64  C   UNL     1      10.811  -5.852  10.739  1.00  0.00     0.029 A 
ATOM     65  N   UNL     1      11.350  -3.748  10.274  1.00  0.00    -0.354 N 
ATOM     66  N   UNL     1      13.162  -1.466  10.043  1.00  0.00    -0.248 NA
ATOM     67  C   UNL     1      15.242  -0.474  10.427  1.00  0.00     0.031 C 
ATOM     68  C   UNL     1      12.146  -5.648  11.110  1.00  0.00     0.029 A 
ATOM     69  C   UNL     1      12.488  -4.341  10.803  1.00  0.00     0.049 A 
ATOM     70  H   UNL     1      11.293  -2.815   9.965  1.00  0.00     0.167 HD
ATOM     71  C   UNL     1      14.012  -2.398  10.622  1.00  0.00     0.074 A 
ATOM     72  C   UNL     1      15.293  -1.744  10.799  1.00  0.00     0.031 C 
ATOM     73  C   UNL     1      13.755  -3.680  10.979  1.00  0.00     0.037 A 
BRANCH  60  74
ATOM     74  C   UNL     1       7.946  -5.469   9.864  1.00  0.00     0.057 A 
ATOM     75  C   UNL     1       7.476  -5.941  11.096  1.00  0.00     0.134 A 
ATOM     76  C   UNL     1       7.482  -6.110   8.708  1.00  0.00     0.134 A 
ATOM     77  F   UNL     1       7.890  -5.383  12.244  1.00  0.00    -0.206 F 
ATOM     78  C   UNL     1       6.585  -7.014  11.175  1.00  0.00     0.040 A 
ATOM     79  C   UNL     1       6.573  -7.168   8.773  1.00  0.00     0.040 A 
ATOM     80  F   UNL     1       7.892  -5.707   7.496  1.00  0.00    -0.206 F 
ATOM     81  C   UNL     1       6.128  -7.628  10.011  1.00  0.00     0.006 A 
ENDBRANCH  60  74
BRANCH  61  82
ATOM     82  C   UNL     1      14.448   2.063   9.236  1.00  0.00     0.057 A 
ATOM     83  C   UNL     1      14.308   3.214  10.020  1.00  0.00     0.134 A 
ATOM     84  C   UNL     1      15.565   1.984   8.397  1.00  0.00     0.134 A 
ATOM     85  F   UNL     1      13.253   3.354  10.837  1.00  0.00    -0.206 F 
ATOM     86  C   UNL     1      15.247   4.245   9.978  1.00  0.00     0.040 A 
ATOM     87  C   UNL     1      16.527   2.994   8.365  1.00  0.00     0.040 A 
ATOM     88  F   UNL     1      15.760   0.898   7.634  1.00  0.00    -0.206 F 
ATOM     89  C   UNL     1      16.367   4.129   9.158  1.00  0.00     0.006 A 
ENDBRANCH  61  82
BRANCH  73  90
ATOM     90  C   UNL     1      14.894  -4.457  11.576  1.00  0.00     0.057 A 
ATOM     91  C   UNL     1      15.511  -5.489  10.857  1.00  0.00     0.134 A 
ATOM     92  C   UNL     1      15.386  -4.180  12.858  1.00  0.00     0.134 A 
ATOM     93  F   UNL     1      15.087  -5.810   9.625  1.00  0.00    -0.206 F 
ATOM     94  C   UNL     1      16.579  -6.213  11.389  1.00  0.00     0.040 A 
ATOM     95  C   UNL     1      16.473  -4.878  13.390  1.00  0.00     0.040 A 
ATOM     96  F   UNL     1      14.853  -3.192  13.592  1.00  0.00    -0.206 F 
ATOM     97  C   UNL     1      17.069  -5.901  12.656  1.00  0.00     0.006 A 
ENDBRANCH  73  90
ENDBRANCH  47  48
ENDBRANCH  40  42
ENDBRANCH  39  40
ENDBRANCH  38  39
ENDBRANCH  37  38
ENDBRANCH  36  37
ENDBRANCH  35  36
ENDBRANCH  34  35
ENDBRANCH  33  34
ENDBRANCH   1  33
TORSDOF 24
