REMARK SMILES O=C(OCCOCCOCCOCCOC(=O)[C@H]1CC1(c1ccccc1)c1ccccc1)c1ccc(-c2c3nc(c(-c4c(F)cccc4F)c4ccc([nH]4)c(-c4c(F)cccc4F)c4nc(c(-c5c(F)cccc5F)c5ccc2[nH]5)C=C4)C=C3)cc1
REMARK SMILES IDX 8 1 7 2 6 3 5 4 4 5 3 6 2 7 1 8 33 9 34 10 86 11 35 12 85 13
REMARK SMILES IDX 36 14 37 15 38 16 79 17 39 18 84 19 78 20 80 21 40 22 83 23
REMARK SMILES IDX 77 24 76 25 41 27 67 28 50 29 66 30 51 31 54 32 65 33 81 34
REMARK SMILES IDX 52 35 53 36 64 38 82 39 55 40 42 41 43 42 48 43 44 44 45 45
REMARK SMILES IDX 47 46 49 47 46 48 68 49 69 50 74 51 70 52 71 53 73 54 75 55
REMARK SMILES IDX 72 56 56 57 57 58 62 59 58 60 59 61 61 62 63 63 60 64 9 65
REMARK SMILES IDX 10 66 11 67 12 68 13 69 14 70 15 71 16 72 17 73 18 74 19 75
REMARK SMILES IDX 20 76 21 77 22 78 26 79 23 80 25 81 24 82 27 83 28 84 32 85
REMARK SMILES IDX 29 86 31 87 30 88
REMARK H PARENT 80 26 54 37
REMARK Flexibility Score: inf
ROOT
ATOM      1  C   UNL     1       7.330  -3.115   0.446  1.00  0.00     0.188 C 
ENDROOT
BRANCH   1   2
ATOM      2  C   UNL     1       7.897  -1.920  -0.323  1.00  0.00     0.188 C 
BRANCH   2   3
ATOM      3  O   UNL     1       6.842  -1.166  -0.931  1.00  0.00    -0.376 OA
BRANCH   3   4
ATOM      4  C   UNL     1       7.097  -0.742  -2.272  1.00  0.00     0.202 C 
BRANCH   4   5
ATOM      5  C   UNL     1       7.802   0.609  -2.361  1.00  0.00     0.261 C 
BRANCH   5   6
ATOM      6  O   UNL     1       8.756   0.779  -1.306  1.00  0.00    -0.460 OA
BRANCH   6   7
ATOM      7  C   UNL     1       8.535   1.303  -0.075  1.00  0.00     0.338 C 
ATOM      8  O   UNL     1       9.479   1.350   0.713  1.00  0.00    -0.246 OA
BRANCH   7   9
ATOM      9  C   UNL     1       7.228   1.883   0.376  1.00  0.00     0.060 A 
ATOM     10  C   UNL     1       5.955   1.504  -0.063  1.00  0.00     0.016 A 
ATOM     11  C   UNL     1       7.306   2.862   1.381  1.00  0.00     0.016 A 
ATOM     12  C   UNL     1       4.801   2.114   0.414  1.00  0.00     0.010 A 
ATOM     13  C   UNL     1       6.156   3.480   1.874  1.00  0.00     0.010 A 
ATOM     14  C   UNL     1       4.905   3.129   1.356  1.00  0.00    -0.014 A 
BRANCH  14  15
ATOM     15  C   UNL     1       3.732   3.979   1.605  1.00  0.00     0.031 A 
ATOM     16  C   UNL     1       3.673   5.283   0.876  1.00  0.00     0.074 A 
ATOM     17  C   UNL     1       2.730   3.560   2.393  1.00  0.00     0.049 A 
ATOM     18  N   UNL     1       2.866   6.293   1.039  1.00  0.00    -0.248 NA
ATOM     19  C   UNL     1       4.672   5.471  -0.193  1.00  0.00     0.031 C 
ATOM     20  C   UNL     1       2.643   2.241   3.019  1.00  0.00     0.029 A 
ATOM     21  N   UNL     1       1.596   4.207   2.800  1.00  0.00    -0.354 N 
ATOM     22  C   UNL     1       3.294   7.256   0.133  1.00  0.00     0.074 A 
ATOM     23  C   UNL     1       4.417   6.706  -0.589  1.00  0.00     0.031 C 
ATOM     24  C   UNL     1       1.518   2.184   3.752  1.00  0.00     0.029 A 
ATOM     25  C   UNL     1       0.854   3.483   3.699  1.00  0.00     0.049 A 
ATOM     26  H   UNL     1       1.338   5.102   2.481  1.00  0.00     0.167 HD
ATOM     27  C   UNL     1       2.798   8.500  -0.050  1.00  0.00     0.037 A 
ATOM     28  C   UNL     1      -0.207   3.864   4.434  1.00  0.00     0.037 A 
ATOM     29  C   UNL     1       1.683   9.008   0.698  1.00  0.00     0.049 A 
ATOM     30  C   UNL     1      -0.701   5.278   4.279  1.00  0.00     0.074 A 
ATOM     31  C   UNL     1       1.115  10.265   0.670  1.00  0.00     0.029 A 
ATOM     32  N   UNL     1       0.966   8.257   1.623  1.00  0.00    -0.354 N 
ATOM     33  N   UNL     1      -0.248   6.226   3.490  1.00  0.00    -0.248 NA
ATOM     34  C   UNL     1      -1.831   5.685   5.121  1.00  0.00     0.031 C 
ATOM     35  C   UNL     1       0.076  10.286   1.608  1.00  0.00     0.029 A 
ATOM     36  C   UNL     1      -0.034   9.027   2.184  1.00  0.00     0.049 A 
ATOM     37  H   UNL     1       1.144   7.314   1.845  1.00  0.00     0.167 HD
ATOM     38  C   UNL     1      -1.044   7.337   3.726  1.00  0.00     0.074 A 
ATOM     39  C   UNL     1      -2.015   6.941   4.730  1.00  0.00     0.031 C 
ATOM     40  C   UNL     1      -0.985   8.573   3.170  1.00  0.00     0.037 A 
BRANCH  27  41
ATOM     41  C   UNL     1       3.537   9.382  -1.012  1.00  0.00     0.057 A 
ATOM     42  C   UNL     1       3.521   9.164  -2.396  1.00  0.00     0.134 A 
ATOM     43  C   UNL     1       4.355  10.413  -0.531  1.00  0.00     0.134 A 
ATOM     44  F   UNL     1       2.788   8.169  -2.919  1.00  0.00    -0.206 F 
ATOM     45  C   UNL     1       4.325   9.910  -3.262  1.00  0.00     0.040 A 
ATOM     46  C   UNL     1       5.144  11.181  -1.389  1.00  0.00     0.040 A 
ATOM     47  F   UNL     1       4.426  10.669   0.784  1.00  0.00    -0.206 F 
ATOM     48  C   UNL     1       5.140  10.921  -2.758  1.00  0.00     0.006 A 
ENDBRANCH  27  41
BRANCH  28  49
ATOM     49  C   UNL     1      -0.807   2.917   5.407  1.00  0.00     0.057 A 
ATOM     50  C   UNL     1      -2.079   2.370   5.207  1.00  0.00     0.134 A 
ATOM     51  C   UNL     1      -0.099   2.495   6.541  1.00  0.00     0.134 A 
ATOM     52  F   UNL     1      -2.817   2.745   4.152  1.00  0.00    -0.206 F 
ATOM     53  C   UNL     1      -2.622   1.436   6.093  1.00  0.00     0.040 A 
ATOM     54  C   UNL     1      -0.619   1.545   7.422  1.00  0.00     0.040 A 
ATOM     55  F   UNL     1       1.127   2.978   6.792  1.00  0.00    -0.206 F 
ATOM     56  C   UNL     1      -1.886   1.012   7.199  1.00  0.00     0.006 A 
ENDBRANCH  28  49
BRANCH  40  57
ATOM     57  C   UNL     1      -2.019   9.565   3.601  1.00  0.00     0.057 A 
ATOM     58  C   UNL     1      -1.925  10.243   4.821  1.00  0.00     0.134 A 
ATOM     59  C   UNL     1      -3.062   9.914   2.734  1.00  0.00     0.134 A 
ATOM     60  F   UNL     1      -0.950   9.943   5.692  1.00  0.00    -0.206 F 
ATOM     61  C   UNL     1      -2.838  11.238   5.166  1.00  0.00     0.040 A 
ATOM     62  C   UNL     1      -3.968  10.921   3.060  1.00  0.00     0.040 A 
ATOM     63  F   UNL     1      -3.194   9.303   1.547  1.00  0.00    -0.206 F 
ATOM     64  C   UNL     1      -3.857  11.587   4.279  1.00  0.00     0.006 A 
ENDBRANCH  40  57
ENDBRANCH  14  15
ENDBRANCH   7   9
ENDBRANCH   6   7
ENDBRANCH   5   6
ENDBRANCH   4   5
ENDBRANCH   3   4
ENDBRANCH   2   3
ENDBRANCH   1   2
BRANCH   1  65
ATOM     65  O   UNL     1       6.702  -4.108  -0.368  1.00  0.00    -0.377 OA
BRANCH  65  66
ATOM     66  C   UNL     1       5.700  -3.648  -1.266  1.00  0.00     0.188 C 
BRANCH  66  67
ATOM     67  C   UNL     1       4.420  -2.999  -0.700  1.00  0.00     0.188 C 
BRANCH  67  68
ATOM     68  O   UNL     1       4.478  -2.620   0.670  1.00  0.00    -0.376 OA
BRANCH  68  69
ATOM     69  C   UNL     1       3.605  -3.353   1.531  1.00  0.00     0.202 C 
BRANCH  69  70
ATOM     70  C   UNL     1       4.120  -4.745   1.930  1.00  0.00     0.261 C 
BRANCH  70  71
ATOM     71  O   UNL     1       4.480  -5.574   0.816  1.00  0.00    -0.463 OA
BRANCH  71  72
ATOM     72  C   UNL     1       3.481  -6.098   0.068  1.00  0.00     0.310 C 
ATOM     73  O   UNL     1       2.287  -6.037   0.329  1.00  0.00    -0.252 OA
BRANCH  72  74
ATOM     74  C   UNL     1       3.977  -6.500  -1.269  1.00  0.00     0.115 C 
ATOM     75  C   UNL     1       5.350  -7.116  -1.402  1.00  0.00     0.034 C 
ATOM     76  C   UNL     1       4.120  -7.910  -1.822  1.00  0.00     0.034 C 
BRANCH  76  77
ATOM     77  C   UNL     1       3.796  -9.122  -0.953  1.00  0.00    -0.037 A 
ATOM     78  C   UNL     1       4.696 -10.196  -0.851  1.00  0.00     0.004 A 
ATOM     79  C   UNL     1       2.567  -9.240  -0.281  1.00  0.00     0.004 A 
ATOM     80  C   UNL     1       4.375 -11.343  -0.123  1.00  0.00     0.000 A 
ATOM     81  C   UNL     1       2.242 -10.381   0.449  1.00  0.00     0.000 A 
ATOM     82  C   UNL     1       3.145 -11.436   0.522  1.00  0.00     0.000 A 
ENDBRANCH  76  77
BRANCH  76  83
ATOM     83  C   UNL     1       3.764  -8.041  -3.331  1.00  0.00    -0.037 A 
ATOM     84  C   UNL     1       2.551  -8.638  -3.729  1.00  0.00     0.004 A 
ATOM     85  C   UNL     1       4.576  -7.542  -4.371  1.00  0.00     0.004 A 
ATOM     86  C   UNL     1       2.175  -8.745  -5.071  1.00  0.00     0.000 A 
ATOM     87  C   UNL     1       4.197  -7.628  -5.717  1.00  0.00     0.000 A 
ATOM     88  C   UNL     1       2.997  -8.234  -6.066  1.00  0.00     0.000 A 
ENDBRANCH  76  83
ENDBRANCH  72  74
ENDBRANCH  71  72
ENDBRANCH  70  71
ENDBRANCH  69  70
ENDBRANCH  68  69
ENDBRANCH  67  68
ENDBRANCH  66  67
ENDBRANCH  65  66
ENDBRANCH   1  65
TORSDOF 22
