REMARK SMILES CC[C@](C)(NC(=O)c1cccc2ncccc12)C(=O)OCCOCCOCCOCCOC(=O)c1ccc(-c2c3nc(c(-c4c(F)cccc4F)c4ccc([nH]4)c(-c4c(F)cccc4F)c4nc(c(-c5c(F)cccc5F)c5ccc2[nH]5)C=C4)C=C3)cc1
REMARK SMILES IDX 26 1 25 2 24 3 23 4 22 5 21 6 20 7 18 8 19 9 3 10 4 11 2 12
REMARK SMILES IDX 1 13 5 14 6 15 7 17 8 18 9 19 17 20 10 21 12 22 16 23 11 24
REMARK SMILES IDX 13 25 15 26 14 27 27 28 28 29 29 30 30 31 31 32 32 33 33 34
REMARK SMILES IDX 34 35 35 36 36 37 88 38 37 39 87 40 38 41 39 42 40 43 81 44
REMARK SMILES IDX 41 45 86 46 80 47 82 48 42 49 85 50 79 51 78 52 43 54 69 55
REMARK SMILES IDX 52 56 68 57 53 58 56 59 67 60 83 61 54 62 55 63 66 65 84 66
REMARK SMILES IDX 57 67 44 68 45 69 50 70 46 71 47 72 49 73 51 74 48 75 70 76
REMARK SMILES IDX 71 77 76 78 72 79 73 80 75 81 77 82 74 83 58 84 59 85 64 86
REMARK SMILES IDX 60 87 61 88 63 89 65 90 62 91
REMARK H PARENT 5 16 82 53 56 64
REMARK Flexibility Score: inf
ROOT
ATOM      1  O   UNL     1       2.354   4.088   3.954  1.00  0.00    -0.377 OA
ENDROOT
BRANCH   1   2
ATOM      2  C   UNL     1       1.919   2.558   4.016  1.00  0.00     0.188 C 
BRANCH   2   3
ATOM      3  C   UNL     1       2.374   1.183   3.088  1.00  0.00     0.188 C 
BRANCH   3   4
ATOM      4  O   UNL     1       3.727   0.852   2.749  1.00  0.00    -0.376 OA
BRANCH   4   5
ATOM      5  C   UNL     1       4.082   0.106   1.567  1.00  0.00     0.202 C 
BRANCH   5   6
ATOM      6  C   UNL     1       4.158   0.807   0.181  1.00  0.00     0.261 C 
BRANCH   6   7
ATOM      7  O   UNL     1       3.147   1.785  -0.010  1.00  0.00    -0.462 OA
BRANCH   7   8
ATOM      8  C   UNL     1       1.905   1.328  -0.232  1.00  0.00     0.331 C 
ATOM      9  O   UNL     1       1.657   0.240  -0.734  1.00  0.00    -0.249 OA
BRANCH   8  10
ATOM     10  C   UNL     1       0.864   2.378   0.232  1.00  0.00     0.135 C 
ATOM     11  C   UNL     1      -0.347   1.542   0.760  1.00  0.00     0.047 C 
BRANCH  10  12
ATOM     12  C   UNL     1       0.346   3.259  -0.931  1.00  0.00     0.037 C 
ATOM     13  C   UNL     1       0.420   2.634  -2.318  1.00  0.00     0.007 C 
ENDBRANCH  10  12
BRANCH  10  14
ATOM     14  N   UNL     1       1.337   3.272   1.374  1.00  0.00    -0.336 N 
ATOM     15  C   UNL     1       2.495   4.036   1.553  1.00  0.00     0.252 C 
ATOM     16  H   UNL     1       0.708   3.320   2.130  1.00  0.00     0.165 HD
ATOM     17  O   UNL     1       2.372   5.258   1.413  1.00  0.00    -0.269 OA
BRANCH  15  18
ATOM     18  C   UNL     1       3.907   3.466   1.958  1.00  0.00     0.049 A 
ATOM     19  C   UNL     1       4.766   3.890   0.902  1.00  0.00     0.014 A 
ATOM     20  C   UNL     1       4.510   2.990   3.347  1.00  0.00     0.013 A 
ATOM     21  C   UNL     1       6.138   3.659   0.839  1.00  0.00     0.003 A 
ATOM     22  C   UNL     1       6.239   2.770   3.053  1.00  0.00     0.071 A 
ATOM     23  C   UNL     1       4.100   3.040   5.223  1.00  0.00     0.013 A 
ATOM     24  C   UNL     1       6.815   2.985   1.836  1.00  0.00     0.029 A 
ATOM     25  N   UNL     1       7.402   2.746   4.212  1.00  0.00    -0.256 NA
ATOM     26  C   UNL     1       5.545   3.084   6.416  1.00  0.00     0.021 A 
ATOM     27  C   UNL     1       7.092   2.888   5.795  1.00  0.00     0.112 A 
ENDBRANCH  15  18
ENDBRANCH  10  14
ENDBRANCH   8  10
ENDBRANCH   7   8
ENDBRANCH   6   7
ENDBRANCH   5   6
ENDBRANCH   4   5
ENDBRANCH   3   4
ENDBRANCH   2   3
ENDBRANCH   1   2
BRANCH   1  28
ATOM     28  C   UNL     1       3.748   4.946   4.353  1.00  0.00     0.188 C 
BRANCH  28  29
ATOM     29  C   UNL     1       5.504   4.168   4.633  1.00  0.00     0.188 C 
BRANCH  29  30
ATOM     30  O   UNL     1       5.556   2.124   4.789  1.00  0.00    -0.376 OA
BRANCH  30  31
ATOM     31  C   UNL     1       4.621   1.102   5.979  1.00  0.00     0.202 C 
BRANCH  31  32
ATOM     32  C   UNL     1       3.673   1.755   7.436  1.00  0.00     0.261 C 
BRANCH  32  33
ATOM     33  O   UNL     1       3.393   3.316   7.671  1.00  0.00    -0.460 OA
BRANCH  33  34
ATOM     34  C   UNL     1       4.043   4.161   8.568  1.00  0.00     0.338 C 
ATOM     35  O   UNL     1       4.543   3.758   9.610  1.00  0.00    -0.246 OA
BRANCH  34  36
ATOM     36  C   UNL     1       4.502   5.529   7.962  1.00  0.00     0.060 A 
ATOM     37  C   UNL     1       5.881   5.726   7.707  1.00  0.00     0.016 A 
ATOM     38  C   UNL     1       3.684   6.619   7.647  1.00  0.00     0.016 A 
ATOM     39  C   UNL     1       6.398   6.857   7.012  1.00  0.00     0.010 A 
ATOM     40  C   UNL     1       4.224   7.817   7.045  1.00  0.00     0.010 A 
ATOM     41  C   UNL     1       5.586   7.952   6.692  1.00  0.00    -0.014 A 
BRANCH  41  42
ATOM     42  C   UNL     1       6.233   9.282   6.317  1.00  0.00     0.031 A 
ATOM     43  C   UNL     1       6.897  10.066   7.441  1.00  0.00     0.074 A 
ATOM     44  C   UNL     1       6.334   9.818   5.074  1.00  0.00     0.049 A 
ATOM     45  N   UNL     1       7.476  11.244   7.432  1.00  0.00    -0.248 NA
ATOM     46  C   UNL     1       6.916   9.406   8.755  1.00  0.00     0.031 C 
ATOM     47  C   UNL     1       5.891   9.203   3.825  1.00  0.00     0.029 A 
ATOM     48  N   UNL     1       6.866  11.035   4.657  1.00  0.00    -0.354 N 
ATOM     49  C   UNL     1       7.922  11.460   8.733  1.00  0.00     0.074 A 
ATOM     50  C   UNL     1       7.552  10.293   9.500  1.00  0.00     0.031 C 
ATOM     51  C   UNL     1       6.143  10.044   2.799  1.00  0.00     0.029 A 
ATOM     52  C   UNL     1       6.738  11.286   3.304  1.00  0.00     0.049 A 
ATOM     53  H   UNL     1       7.299  11.666   5.276  1.00  0.00     0.167 HD
ATOM     54  C   UNL     1       8.564  12.526   9.270  1.00  0.00     0.037 A 
ATOM     55  C   UNL     1       7.031  12.382   2.559  1.00  0.00     0.037 A 
ATOM     56  C   UNL     1       8.916  13.729   8.567  1.00  0.00     0.049 A 
ATOM     57  C   UNL     1       7.619  13.627   3.203  1.00  0.00     0.074 A 
ATOM     58  C   UNL     1       9.526  14.869   9.065  1.00  0.00     0.029 A 
ATOM     59  N   UNL     1       8.677  13.959   7.224  1.00  0.00    -0.354 N 
ATOM     60  N   UNL     1       8.005  13.818   4.441  1.00  0.00    -0.248 NA
ATOM     61  C   UNL     1       7.799  14.815   2.344  1.00  0.00     0.031 C 
ATOM     62  C   UNL     1       9.607  15.810   8.034  1.00  0.00     0.029 A 
ATOM     63  C   UNL     1       9.102  15.233   6.882  1.00  0.00     0.049 A 
ATOM     64  H   UNL     1       8.265  13.314   6.604  1.00  0.00     0.167 HD
ATOM     65  C   UNL     1       8.495  15.123   4.497  1.00  0.00     0.074 A 
ATOM     66  C   UNL     1       8.372  15.679   3.170  1.00  0.00     0.031 C 
ATOM     67  C   UNL     1       9.001  15.794   5.561  1.00  0.00     0.037 A 
BRANCH  54  68
ATOM     68  C   UNL     1       8.865  12.459  10.739  1.00  0.00     0.057 A 
ATOM     69  C   UNL     1       9.871  11.630  11.253  1.00  0.00     0.134 A 
ATOM     70  C   UNL     1       8.127  13.226  11.649  1.00  0.00     0.134 A 
ATOM     71  F   UNL     1      10.596  10.853  10.434  1.00  0.00    -0.206 F 
ATOM     72  C   UNL     1      10.111  11.544  12.625  1.00  0.00     0.040 A 
ATOM     73  C   UNL     1       8.377  13.170  13.020  1.00  0.00     0.040 A 
ATOM     74  F   UNL     1       7.151  14.040  11.220  1.00  0.00    -0.206 F 
ATOM     75  C   UNL     1       9.366  12.319  13.512  1.00  0.00     0.006 A 
ENDBRANCH  54  68
BRANCH  55  76
ATOM     76  C   UNL     1       6.722  12.428   1.093  1.00  0.00     0.057 A 
ATOM     77  C   UNL     1       7.731  12.561   0.127  1.00  0.00     0.134 A 
ATOM     78  C   UNL     1       5.400  12.457   0.631  1.00  0.00     0.134 A 
ATOM     79  F   UNL     1       9.020  12.606   0.498  1.00  0.00    -0.206 F 
ATOM     80  C   UNL     1       7.439  12.730  -1.232  1.00  0.00     0.040 A 
ATOM     81  C   UNL     1       5.093  12.596  -0.727  1.00  0.00     0.040 A 
ATOM     82  F   UNL     1       4.380  12.375   1.497  1.00  0.00    -0.206 F 
ATOM     83  C   UNL     1       6.114  12.741  -1.663  1.00  0.00     0.006 A 
ENDBRANCH  55  76
BRANCH  67  84
ATOM     84  C   UNL     1       9.509  17.195   5.350  1.00  0.00     0.057 A 
ATOM     85  C   UNL     1       8.646  18.277   5.133  1.00  0.00     0.134 A 
ATOM     86  C   UNL     1      10.880  17.478   5.438  1.00  0.00     0.134 A 
ATOM     87  F   UNL     1       7.322  18.082   5.033  1.00  0.00    -0.206 F 
ATOM     88  C   UNL     1       9.127  19.582   4.993  1.00  0.00     0.040 A 
ATOM     89  C   UNL     1      11.370  18.781   5.326  1.00  0.00     0.040 A 
ATOM     90  F   UNL     1      11.764  16.494   5.660  1.00  0.00    -0.206 F 
ATOM     91  C   UNL     1      10.493  19.838   5.098  1.00  0.00     0.006 A 
ENDBRANCH  67  84
ENDBRANCH  41  42
ENDBRANCH  34  36
ENDBRANCH  33  34
ENDBRANCH  32  33
ENDBRANCH  31  32
ENDBRANCH  30  31
ENDBRANCH  29  30
ENDBRANCH  28  29
ENDBRANCH   1  28
TORSDOF 23
