REMARK SMILES COc1ccc(-c2ccc(CCC(=O)OCCOCCOCCOCCOC(=O)c3ccc(-c4c5nc(c(-c6c(F)cccc6F)c6ccc([nH]6)c(-c6c(F)cccc6F)c6nc(c(-c7c(F)cccc7F)c7ccc4[nH]7)C=C6)C=C5)cc3)n2-c2ccc(C(C)=O)cc2)cc1
REMARK SMILES IDX 20 1 19 2 18 3 17 4 16 5 15 6 13 7 14 8 12 9 11 10 10 11
REMARK SMILES IDX 7 12 8 13 84 14 9 15 6 16 3 17 4 18 95 19 5 20 94 21 2 22
REMARK SMILES IDX 1 23 85 24 86 25 93 26 87 27 92 28 88 29 89 30 90 31 91 32
REMARK SMILES IDX 21 33 22 34 23 35 24 36 25 37 26 38 27 39 28 40 29 41 30 42
REMARK SMILES IDX 31 43 83 44 32 45 82 46 33 47 34 48 35 49 76 50 36 51 81 52
REMARK SMILES IDX 75 53 77 54 37 55 80 56 74 57 73 58 38 60 64 61 47 62 63 63
REMARK SMILES IDX 48 64 51 65 62 66 78 67 49 68 50 69 61 71 79 72 52 73 39 74
REMARK SMILES IDX 40 75 45 76 41 77 42 78 44 79 46 80 43 81 65 82 66 83 71 84
REMARK SMILES IDX 67 85 68 86 70 87 72 88 69 89 53 90 54 91 59 92 55 93 56 94
REMARK SMILES IDX 58 95 60 96 57 97
REMARK H PARENT 77 59 51 70
REMARK Flexibility Score: inf
ROOT
ATOM      1  C   UNL     1       2.721  -4.684 -10.576  1.00  0.00     0.188 C 
ENDROOT
BRANCH   1   2
ATOM      2  C   UNL     1       3.994  -4.711 -11.430  1.00  0.00     0.188 C 
BRANCH   2   3
ATOM      3  O   UNL     1       5.120  -5.213 -10.713  1.00  0.00    -0.376 OA
BRANCH   3   4
ATOM      4  C   UNL     1       6.181  -4.282 -10.548  1.00  0.00     0.202 C 
BRANCH   4   5
ATOM      5  C   UNL     1       6.067  -3.493  -9.243  1.00  0.00     0.261 C 
BRANCH   5   6
ATOM      6  O   UNL     1       4.829  -2.790  -9.046  1.00  0.00    -0.463 OA
BRANCH   6   7
ATOM      7  C   UNL     1       4.610  -1.655  -9.740  1.00  0.00     0.306 C 
ATOM      8  O   UNL     1       5.335  -1.257 -10.643  1.00  0.00    -0.252 OA
BRANCH   7   9
ATOM      9  C   UNL     1       3.448  -0.849  -9.187  1.00  0.00     0.129 C 
BRANCH   9  10
ATOM     10  C   UNL     1       2.130  -1.552  -8.838  1.00  0.00     0.066 C 
BRANCH  10  11
ATOM     11  C   UNL     1       2.108  -2.271  -7.505  1.00  0.00     0.024 A 
ATOM     12  C   UNL     1       1.811  -2.518  -5.273  1.00  0.00     0.053 A 
ATOM     13  C   UNL     1       2.606  -3.558  -5.712  1.00  0.00     0.029 A 
ATOM     14  N   UNL     1       1.375  -1.832  -6.403  1.00  0.00    -0.314 N 
ATOM     15  C   UNL     1       2.752  -3.430  -7.105  1.00  0.00     0.024 A 
BRANCH  12  16
ATOM     16  C   UNL     1       1.422  -2.235  -3.897  1.00  0.00    -0.001 A 
ATOM     17  C   UNL     1       0.728  -1.573  -1.273  1.00  0.00     0.118 A 
ATOM     18  C   UNL     1      -0.234  -2.095  -2.138  1.00  0.00     0.047 A 
ATOM     19  C   UNL     1       2.052  -1.450  -1.691  1.00  0.00     0.047 A 
ATOM     20  C   UNL     1       0.110  -2.421  -3.452  1.00  0.00     0.014 A 
ATOM     21  C   UNL     1       2.396  -1.780  -3.001  1.00  0.00     0.014 A 
BRANCH  17  22
ATOM     22  O   UNL     1       0.302  -1.239  -0.016  1.00  0.00    -0.497 OA
ATOM     23  C   UNL     1       0.810   0.019   0.426  1.00  0.00     0.278 C 
ENDBRANCH  17  22
ENDBRANCH  12  16
BRANCH  14  24
ATOM     24  C   UNL     1       0.335  -0.871  -6.451  1.00  0.00     0.046 A 
ATOM     25  C   UNL     1      -0.751  -1.098  -7.305  1.00  0.00     0.027 A 
ATOM     26  C   UNL     1       0.404   0.284  -5.678  1.00  0.00     0.027 A 
ATOM     27  C   UNL     1      -1.770  -0.146  -7.405  1.00  0.00     0.014 A 
ATOM     28  C   UNL     1      -0.605   1.242  -5.801  1.00  0.00     0.014 A 
ATOM     29  C   UNL     1      -1.696   1.041  -6.667  1.00  0.00     0.017 A 
BRANCH  29  30
ATOM     30  C   UNL     1      -2.712   2.135  -6.765  1.00  0.00     0.159 C 
ATOM     31  C   UNL     1      -4.002   1.941  -7.521  1.00  0.00     0.093 C 
ATOM     32  O   UNL     1      -2.490   3.209  -6.203  1.00  0.00    -0.295 OA
ENDBRANCH  29  30
ENDBRANCH  14  24
ENDBRANCH  10  11
ENDBRANCH   9  10
ENDBRANCH   7   9
ENDBRANCH   6   7
ENDBRANCH   5   6
ENDBRANCH   4   5
ENDBRANCH   3   4
ENDBRANCH   2   3
ENDBRANCH   1   2
BRANCH   1  33
ATOM     33  O   UNL     1       2.261  -5.785  -9.806  1.00  0.00    -0.377 OA
BRANCH  33  34
ATOM     34  C   UNL     1       3.163  -6.839  -9.529  1.00  0.00     0.188 C 
BRANCH  34  35
ATOM     35  C   UNL     1       3.353  -7.798 -10.714  1.00  0.00     0.188 C 
BRANCH  35  36
ATOM     36  O   UNL     1       2.853  -7.293 -11.953  1.00  0.00    -0.376 OA
BRANCH  36  37
ATOM     37  C   UNL     1       1.596  -7.793 -12.397  1.00  0.00     0.202 C 
BRANCH  37  38
ATOM     38  C   UNL     1       0.356  -7.245 -11.667  1.00  0.00     0.261 C 
BRANCH  38  39
ATOM     39  O   UNL     1       0.284  -7.560 -10.275  1.00  0.00    -0.460 OA
BRANCH  39  40
ATOM     40  C   UNL     1       0.355  -8.870 -10.006  1.00  0.00     0.338 C 
ATOM     41  O   UNL     1       0.400  -9.799 -10.795  1.00  0.00    -0.246 OA
BRANCH  40  42
ATOM     42  C   UNL     1       0.344  -9.100  -8.567  1.00  0.00     0.060 A 
ATOM     43  C   UNL     1       1.187 -10.125  -8.119  1.00  0.00     0.016 A 
ATOM     44  C   UNL     1      -0.823  -8.727  -7.900  1.00  0.00     0.016 A 
ATOM     45  C   UNL     1       0.715 -10.975  -7.145  1.00  0.00     0.010 A 
ATOM     46  C   UNL     1      -1.312  -9.600  -6.955  1.00  0.00     0.010 A 
ATOM     47  C   UNL     1      -0.584 -10.769  -6.672  1.00  0.00    -0.014 A 
BRANCH  47  48
ATOM     48  C   UNL     1      -1.260 -11.871  -5.974  1.00  0.00     0.031 A 
ATOM     49  C   UNL     1      -1.195 -11.758  -4.472  1.00  0.00     0.074 A 
ATOM     50  C   UNL     1      -1.870 -12.781  -6.789  1.00  0.00     0.049 A 
ATOM     51  N   UNL     1      -1.587 -12.594  -3.565  1.00  0.00    -0.248 NA
ATOM     52  C   UNL     1      -0.596 -10.529  -3.884  1.00  0.00     0.031 C 
ATOM     53  C   UNL     1      -1.814 -12.732  -8.265  1.00  0.00     0.029 A 
ATOM     54  N   UNL     1      -2.646 -13.902  -6.578  1.00  0.00    -0.354 N 
ATOM     55  C   UNL     1      -1.488 -11.922  -2.341  1.00  0.00     0.074 A 
ATOM     56  C   UNL     1      -0.785 -10.698  -2.578  1.00  0.00     0.031 C 
ATOM     57  C   UNL     1      -2.451 -13.787  -8.802  1.00  0.00     0.029 A 
ATOM     58  C   UNL     1      -3.016 -14.607  -7.752  1.00  0.00     0.049 A 
ATOM     59  H   UNL     1      -2.922 -14.191  -5.679  1.00  0.00     0.167 HD
ATOM     60  C   UNL     1      -2.102 -12.339  -1.204  1.00  0.00     0.037 A 
ATOM     61  C   UNL     1      -3.716 -15.775  -7.879  1.00  0.00     0.037 A 
ATOM     62  C   UNL     1      -2.738 -13.602  -1.363  1.00  0.00     0.049 A 
ATOM     63  C   UNL     1      -4.246 -16.067  -6.532  1.00  0.00     0.074 A 
ATOM     64  C   UNL     1      -2.274 -14.892  -1.347  1.00  0.00     0.029 A 
ATOM     65  N   UNL     1      -4.020 -13.611  -1.853  1.00  0.00    -0.354 N 
ATOM     66  N   UNL     1      -5.196 -15.391  -5.952  1.00  0.00    -0.248 NA
ATOM     67  C   UNL     1      -3.624 -17.119  -5.724  1.00  0.00     0.031 C 
ATOM     68  C   UNL     1      -3.203 -15.636  -2.111  1.00  0.00     0.029 A 
ATOM     69  C   UNL     1      -4.201 -14.775  -2.572  1.00  0.00     0.049 A 
ATOM     70  H   UNL     1      -4.695 -12.908  -1.716  1.00  0.00     0.167 HD
ATOM     71  C   UNL     1      -5.044 -15.712  -4.621  1.00  0.00     0.074 A 
ATOM     72  C   UNL     1      -4.285 -16.941  -4.584  1.00  0.00     0.031 C 
ATOM     73  C   UNL     1      -5.143 -14.746  -3.671  1.00  0.00     0.037 A 
BRANCH  60  74
ATOM     74  C   UNL     1      -2.291 -11.569   0.056  1.00  0.00     0.057 A 
ATOM     75  C   UNL     1      -2.288 -12.245   1.287  1.00  0.00     0.134 A 
ATOM     76  C   UNL     1      -2.724 -10.235   0.076  1.00  0.00     0.134 A 
ATOM     77  F   UNL     1      -1.881 -13.522   1.368  1.00  0.00    -0.206 F 
ATOM     78  C   UNL     1      -2.743 -11.648   2.464  1.00  0.00     0.040 A 
ATOM     79  C   UNL     1      -3.150  -9.615   1.255  1.00  0.00     0.040 A 
ATOM     80  F   UNL     1      -2.816  -9.520  -1.055  1.00  0.00    -0.206 F 
ATOM     81  C   UNL     1      -3.184 -10.330   2.449  1.00  0.00     0.006 A 
ENDBRANCH  60  74
BRANCH  61  82
ATOM     82  C   UNL     1      -4.015 -16.766  -8.986  1.00  0.00     0.057 A 
ATOM     83  C   UNL     1      -3.631 -16.656 -10.329  1.00  0.00     0.134 A 
ATOM     84  C   UNL     1      -4.664 -17.994  -8.688  1.00  0.00     0.134 A 
ATOM     85  F   UNL     1      -3.085 -15.545 -10.826  1.00  0.00    -0.206 F 
ATOM     86  C   UNL     1      -3.792 -17.698 -11.264  1.00  0.00     0.040 A 
ATOM     87  C   UNL     1      -4.803 -19.051  -9.599  1.00  0.00     0.040 A 
ATOM     88  F   UNL     1      -5.188 -18.241  -7.480  1.00  0.00    -0.206 F 
ATOM     89  C   UNL     1      -4.349 -18.912 -10.895  1.00  0.00     0.006 A 
ENDBRANCH  61  82
BRANCH  73  90
ATOM     90  C   UNL     1      -5.926 -13.536  -4.130  1.00  0.00     0.057 A 
ATOM     91  C   UNL     1      -7.305 -13.629  -4.355  1.00  0.00     0.134 A 
ATOM     92  C   UNL     1      -5.329 -12.316  -4.483  1.00  0.00     0.134 A 
ATOM     93  F   UNL     1      -7.964 -14.758  -4.051  1.00  0.00    -0.206 F 
ATOM     94  C   UNL     1      -8.040 -12.571  -4.906  1.00  0.00     0.040 A 
ATOM     95  C   UNL     1      -6.049 -11.245  -5.021  1.00  0.00     0.040 A 
ATOM     96  F   UNL     1      -4.022 -12.122  -4.313  1.00  0.00    -0.206 F 
ATOM     97  C   UNL     1      -7.413 -11.374  -5.243  1.00  0.00     0.006 A 
ENDBRANCH  73  90
ENDBRANCH  47  48
ENDBRANCH  40  42
ENDBRANCH  39  40
ENDBRANCH  38  39
ENDBRANCH  37  38
ENDBRANCH  36  37
ENDBRANCH  35  36
ENDBRANCH  34  35
ENDBRANCH  33  34
ENDBRANCH   1  33
TORSDOF 26
