REMARK SMILES Cc1c(Cl)cccc1NC(=O)C[C@](C)(C(=O)OCCOCCOCCOCCOC(=O)c1ccc(-c2c3nc(c(-c4c(F)cccc4F)c4ccc([nH]4)c(-c4c(F)cccc4F)c4nc(c(-c5c(F)cccc5F)c5ccc2[nH]5)C=C4)C=C3)cc1)c1ccccc1
REMARK SMILES IDX 22 1 21 2 20 3 19 4 18 5 17 6 15 7 16 8 13 9 14 10 12 11
REMARK SMILES IDX 10 12 9 13 11 15 8 16 1 17 2 18 3 19 4 20 5 21 7 22 6 23
REMARK SMILES IDX 86 24 87 25 91 26 88 27 90 28 89 29 23 30 24 31 25 32 26 33
REMARK SMILES IDX 27 34 28 35 29 36 30 37 31 38 32 39 33 40 85 41 34 42 84 43
REMARK SMILES IDX 35 44 36 45 37 46 78 47 38 48 83 49 77 50 79 51 39 52 82 53
REMARK SMILES IDX 76 54 75 55 40 57 66 58 49 59 65 60 50 61 53 62 64 63 80 64
REMARK SMILES IDX 51 65 52 66 63 68 81 69 54 70 41 71 42 72 47 73 43 74 44 75
REMARK SMILES IDX 46 76 48 77 45 78 67 79 68 80 73 81 69 82 70 83 72 84 74 85
REMARK SMILES IDX 71 86 55 87 56 88 61 89 57 90 58 91 60 92 62 93 59 94
REMARK H PARENT 9 14 79 56 53 67
REMARK Flexibility Score: inf
ROOT
ATOM      1  C   UNL     1      -7.484   0.140  -0.699  1.00  0.00     0.188 C 
ENDROOT
BRANCH   1   2
ATOM      2  C   UNL     1      -7.730  -0.637  -1.997  1.00  0.00     0.188 C 
BRANCH   2   3
ATOM      3  O   UNL     1      -8.208  -1.949  -1.785  1.00  0.00    -0.376 OA
BRANCH   3   4
ATOM      4  C   UNL     1      -7.292  -3.027  -1.838  1.00  0.00     0.202 C 
BRANCH   4   5
ATOM      5  C   UNL     1      -5.880  -2.940  -1.237  1.00  0.00     0.261 C 
BRANCH   5   6
ATOM      6  O   UNL     1      -5.285  -1.641  -1.125  1.00  0.00    -0.463 OA
BRANCH   6   7
ATOM      7  C   UNL     1      -4.355  -1.287  -2.036  1.00  0.00     0.316 C 
ATOM      8  O   UNL     1      -4.059  -1.997  -2.992  1.00  0.00    -0.251 OA
BRANCH   7   9
ATOM      9  C   UNL     1      -3.695   0.095  -1.750  1.00  0.00     0.099 C 
ATOM     10  C   UNL     1      -4.198   0.843  -0.475  1.00  0.00     0.029 C 
BRANCH   9  11
ATOM     11  C   UNL     1      -2.172  -0.185  -1.528  1.00  0.00     0.123 C 
BRANCH  11  12
ATOM     12  C   UNL     1      -1.692  -1.633  -1.386  1.00  0.00     0.225 C 
ATOM     13  N   UNL     1      -2.107  -2.530  -0.447  1.00  0.00    -0.326 N 
ATOM     14  H   UNL     1      -1.783  -3.440  -0.638  1.00  0.00     0.169 HD
ATOM     15  O   UNL     1      -0.863  -2.060  -2.203  1.00  0.00    -0.275 OA
BRANCH  13  16
ATOM     16  C   UNL     1      -2.884  -2.483   0.729  1.00  0.00     0.045 A 
ATOM     17  C   UNL     1      -3.449  -4.991   0.490  1.00  0.00     0.048 C 
ATOM     18  C   UNL     1      -3.563  -3.649   1.176  1.00  0.00    -0.009 A 
ATOM     19  C   UNL     1      -4.429  -3.544   2.293  1.00  0.00     0.046 A 
ATOM     20  Cl  UNL     1      -5.369  -4.891   2.847  1.00  0.00    -0.084 Cl
ATOM     21  C   UNL     1      -4.595  -2.339   2.970  1.00  0.00     0.021 A 
ATOM     22  C   UNL     1      -2.991  -1.314   1.483  1.00  0.00     0.026 A 
ATOM     23  C   UNL     1      -3.855  -1.232   2.581  1.00  0.00     0.004 A 
ENDBRANCH  13  16
ENDBRANCH  11  12
ENDBRANCH   9  11
BRANCH   9  24
ATOM     24  C   UNL     1      -3.997   1.092  -2.925  1.00  0.00    -0.030 A 
ATOM     25  C   UNL     1      -3.579   2.437  -2.859  1.00  0.00     0.005 A 
ATOM     26  C   UNL     1      -4.829   0.743  -4.010  1.00  0.00     0.005 A 
ATOM     27  C   UNL     1      -4.027   3.386  -3.791  1.00  0.00     0.000 A 
ATOM     28  C   UNL     1      -5.271   1.689  -4.941  1.00  0.00     0.000 A 
ATOM     29  C   UNL     1      -4.881   3.015  -4.825  1.00  0.00     0.000 A 
ENDBRANCH   9  24
ENDBRANCH   7   9
ENDBRANCH   6   7
ENDBRANCH   5   6
ENDBRANCH   4   5
ENDBRANCH   3   4
ENDBRANCH   2   3
ENDBRANCH   1   2
BRANCH   1  30
ATOM     30  O   UNL     1      -7.178  -0.606   0.468  1.00  0.00    -0.377 OA
BRANCH  30  31
ATOM     31  C   UNL     1      -8.182  -1.419   1.069  1.00  0.00     0.188 C 
BRANCH  31  32
ATOM     32  C   UNL     1      -9.644  -1.424   0.568  1.00  0.00     0.188 C 
BRANCH  32  33
ATOM     33  O   UNL     1     -10.041  -0.289  -0.181  1.00  0.00    -0.376 OA
BRANCH  33  34
ATOM     34  C   UNL     1     -10.741   0.752   0.480  1.00  0.00     0.202 C 
BRANCH  34  35
ATOM     35  C   UNL     1     -10.024   1.484   1.628  1.00  0.00     0.261 C 
BRANCH  35  36
ATOM     36  O   UNL     1      -9.590   0.662   2.722  1.00  0.00    -0.460 OA
BRANCH  36  37
ATOM     37  C   UNL     1     -10.544  -0.014   3.387  1.00  0.00     0.338 C 
ATOM     38  O   UNL     1     -11.753   0.017   3.188  1.00  0.00    -0.246 OA
BRANCH  37  39
ATOM     39  C   UNL     1      -9.893  -0.950   4.315  1.00  0.00     0.060 A 
ATOM     40  C   UNL     1     -10.106  -2.324   4.149  1.00  0.00     0.016 A 
ATOM     41  C   UNL     1      -9.128  -0.470   5.380  1.00  0.00     0.016 A 
ATOM     42  C   UNL     1      -9.616  -3.221   5.093  1.00  0.00     0.010 A 
ATOM     43  C   UNL     1      -8.654  -1.369   6.338  1.00  0.00     0.010 A 
ATOM     44  C   UNL     1      -8.947  -2.740   6.226  1.00  0.00    -0.014 A 
BRANCH  44  45
ATOM     45  C   UNL     1      -8.778  -3.642   7.389  1.00  0.00     0.031 A 
ATOM     46  C   UNL     1      -9.781  -3.558   8.507  1.00  0.00     0.074 A 
ATOM     47  C   UNL     1      -7.802  -4.564   7.423  1.00  0.00     0.049 A 
ATOM     48  N   UNL     1      -9.852  -4.249   9.615  1.00  0.00    -0.248 NA
ATOM     49  C   UNL     1     -10.851  -2.558   8.352  1.00  0.00     0.031 C 
ATOM     50  C   UNL     1      -6.808  -4.774   6.376  1.00  0.00     0.029 A 
ATOM     51  N   UNL     1      -7.496  -5.502   8.375  1.00  0.00    -0.354 N 
ATOM     52  C   UNL     1     -10.967  -3.766  10.288  1.00  0.00     0.074 A 
ATOM     53  C   UNL     1     -11.518  -2.697   9.487  1.00  0.00     0.031 C 
ATOM     54  C   UNL     1      -5.999  -5.784   6.739  1.00  0.00     0.029 A 
ATOM     55  C   UNL     1      -6.400  -6.267   8.059  1.00  0.00     0.049 A 
ATOM     56  H   UNL     1      -8.012  -5.616   9.205  1.00  0.00     0.167 HD
ATOM     57  C   UNL     1     -11.492  -4.185  11.463  1.00  0.00     0.037 A 
ATOM     58  C   UNL     1      -5.787  -7.236   8.766  1.00  0.00     0.037 A 
ATOM     59  C   UNL     1     -10.937  -5.247  12.260  1.00  0.00     0.049 A 
ATOM     60  C   UNL     1      -6.342  -7.629  10.111  1.00  0.00     0.074 A 
ATOM     61  C   UNL     1     -11.393  -5.750  13.465  1.00  0.00     0.029 A 
ATOM     62  N   UNL     1      -9.797  -5.966  11.932  1.00  0.00    -0.354 N 
ATOM     63  N   UNL     1      -7.404  -7.177  10.734  1.00  0.00    -0.248 NA
ATOM     64  C   UNL     1      -5.614  -8.671  10.848  1.00  0.00     0.031 C 
ATOM     65  C   UNL     1     -10.496  -6.732  13.896  1.00  0.00     0.029 A 
ATOM     66  C   UNL     1      -9.519  -6.890  12.926  1.00  0.00     0.049 A 
ATOM     67  H   UNL     1      -9.263  -5.838  11.114  1.00  0.00     0.167 HD
ATOM     68  C   UNL     1      -7.493  -7.905  11.915  1.00  0.00     0.074 A 
ATOM     69  C   UNL     1      -6.382  -8.833  11.916  1.00  0.00     0.031 C 
ATOM     70  C   UNL     1      -8.415  -7.816  12.907  1.00  0.00     0.037 A 
BRANCH  57  71
ATOM     71  C   UNL     1     -12.710  -3.466  11.969  1.00  0.00     0.057 A 
ATOM     72  C   UNL     1     -13.958  -3.582  11.342  1.00  0.00     0.134 A 
ATOM     73  C   UNL     1     -12.634  -2.655  13.109  1.00  0.00     0.134 A 
ATOM     74  F   UNL     1     -14.097  -4.328  10.236  1.00  0.00    -0.206 F 
ATOM     75  C   UNL     1     -15.078  -2.894  11.813  1.00  0.00     0.040 A 
ATOM     76  C   UNL     1     -13.754  -1.988  13.607  1.00  0.00     0.040 A 
ATOM     77  F   UNL     1     -11.471  -2.501  13.760  1.00  0.00    -0.206 F 
ATOM     78  C   UNL     1     -14.979  -2.100  12.953  1.00  0.00     0.006 A 
ENDBRANCH  57  71
BRANCH  58  79
ATOM     79  C   UNL     1      -4.577  -7.904   8.221  1.00  0.00     0.057 A 
ATOM     80  C   UNL     1      -4.593  -9.255   7.856  1.00  0.00     0.134 A 
ATOM     81  C   UNL     1      -3.368  -7.212   8.073  1.00  0.00     0.134 A 
ATOM     82  F   UNL     1      -5.714  -9.979   7.996  1.00  0.00    -0.206 F 
ATOM     83  C   UNL     1      -3.448  -9.900   7.385  1.00  0.00     0.040 A 
ATOM     84  C   UNL     1      -2.223  -7.836   7.577  1.00  0.00     0.040 A 
ATOM     85  F   UNL     1      -3.285  -5.915   8.405  1.00  0.00    -0.206 F 
ATOM     86  C   UNL     1      -2.259  -9.187   7.239  1.00  0.00     0.006 A 
ENDBRANCH  58  79
BRANCH  70  87
ATOM     87  C   UNL     1      -8.296  -8.784  14.050  1.00  0.00     0.057 A 
ATOM     88  C   UNL     1      -7.268  -8.700  14.997  1.00  0.00     0.134 A 
ATOM     89  C   UNL     1      -9.252  -9.794  14.226  1.00  0.00     0.134 A 
ATOM     90  F   UNL     1      -6.313  -7.763  14.884  1.00  0.00    -0.206 F 
ATOM     91  C   UNL     1      -7.178  -9.601  16.060  1.00  0.00     0.040 A 
ATOM     92  C   UNL     1      -9.192 -10.680  15.301  1.00  0.00     0.040 A 
ATOM     93  F   UNL     1     -10.271  -9.925  13.363  1.00  0.00    -0.206 F 
ATOM     94  C   UNL     1      -8.147 -10.591  16.218  1.00  0.00     0.006 A 
ENDBRANCH  70  87
ENDBRANCH  44  45
ENDBRANCH  37  39
ENDBRANCH  36  37
ENDBRANCH  35  36
ENDBRANCH  34  35
ENDBRANCH  33  34
ENDBRANCH  32  33
ENDBRANCH  31  32
ENDBRANCH  30  31
ENDBRANCH   1  30
TORSDOF 24
