REMARK SMILES Cc1cc(C)c2c(c1)C=C(C(=O)OCCOCCOCCOCCOC(=O)c1ccc(-c3c4nc(c(-c5c(F)cccc5F)c5ccc([nH]5)c(-c5c(F)cccc5F)c5nc(c(-c6c(F)cccc6F)c6ccc3[nH]6)C=C5)C=C4)cc1)[C@@H](C(F)(F)F)O2
REMARK SMILES IDX 20 1 19 2 18 3 17 4 16 5 15 6 14 7 13 8 11 9 12 10 10 11
REMARK SMILES IDX 1 12 2 13 3 14 8 15 4 16 7 17 5 18 6 19 9 20 87 21 82 22
REMARK SMILES IDX 83 23 84 24 85 25 86 26 21 27 22 28 23 29 24 30 25 31 26 32
REMARK SMILES IDX 27 33 28 34 29 35 81 36 30 37 80 38 31 39 32 40 33 41 74 42
REMARK SMILES IDX 34 43 79 44 73 45 75 46 35 47 78 48 72 49 71 50 36 52 62 53
REMARK SMILES IDX 45 54 61 55 46 56 49 57 60 58 76 59 47 60 48 61 59 63 77 64
REMARK SMILES IDX 50 65 37 66 38 67 43 68 39 69 40 70 42 71 44 72 41 73 63 74
REMARK SMILES IDX 64 75 69 76 65 77 66 78 68 79 70 80 67 81 51 82 52 83 57 84
REMARK SMILES IDX 53 85 54 86 56 87 58 88 55 89
REMARK H PARENT 75 51 49 62
REMARK Flexibility Score: inf
ROOT
ATOM      1  C   UNL     1       3.724   9.210   2.904  1.00  0.00     0.188 C 
ENDROOT
BRANCH   1   2
ATOM      2  O   UNL     1       2.713   8.249   2.590  1.00  0.00    -0.377 OA
BRANCH   2   3
ATOM      3  C   UNL     1       3.069   7.151   1.766  1.00  0.00     0.188 C 
BRANCH   3   4
ATOM      4  C   UNL     1       3.153   7.509   0.271  1.00  0.00     0.188 C 
BRANCH   4   5
ATOM      5  O   UNL     1       3.167   8.914   0.036  1.00  0.00    -0.376 OA
BRANCH   5   6
ATOM      6  C   UNL     1       1.970   9.514  -0.439  1.00  0.00     0.202 C 
BRANCH   6   7
ATOM      7  C   UNL     1       0.755   9.520   0.502  1.00  0.00     0.261 C 
BRANCH   7   8
ATOM      8  O   UNL     1       0.369   8.238   1.019  1.00  0.00    -0.460 OA
BRANCH   8   9
ATOM      9  C   UNL     1      -0.128   7.337   0.151  1.00  0.00     0.338 C 
ATOM     10  O   UNL     1      -0.340   7.509  -1.036  1.00  0.00    -0.246 OA
BRANCH   9  11
ATOM     11  C   UNL     1      -0.223   6.037   0.852  1.00  0.00     0.087 C 
ATOM     12  C   UNL     1       0.962   0.034   0.132  1.00  0.00     0.044 C 
ATOM     13  C   UNL     1       0.479   1.265   0.841  1.00  0.00    -0.050 A 
ATOM     14  C   UNL     1      -0.151   1.178   2.087  1.00  0.00     0.010 A 
ATOM     15  C   UNL     1       0.648   2.523   0.250  1.00  0.00     0.015 A 
ATOM     16  C   UNL     1      -0.610   2.329   2.744  1.00  0.00    -0.008 A 
ATOM     17  C   UNL     1       0.175   3.678   0.883  1.00  0.00     0.018 A 
ATOM     18  C   UNL     1      -1.312   2.207   4.068  1.00  0.00     0.048 C 
ATOM     19  C   UNL     1      -0.420   3.584   2.143  1.00  0.00     0.130 A 
ATOM     20  C   UNL     1       0.242   4.962   0.204  1.00  0.00     0.027 C 
ATOM     21  O   UNL     1      -0.862   4.672   2.843  1.00  0.00    -0.475 OA
ATOM     22  C   UNL     1      -0.748   5.998   2.263  1.00  0.00     0.316 C 
BRANCH  22  23
ATOM     23  C   UNL     1      -2.117   6.680   2.398  1.00  0.00     0.430 C 
ATOM     24  F   UNL     1      -2.593   6.584   3.664  1.00  0.00    -0.167 F 
ATOM     25  F   UNL     1      -2.065   8.001   2.108  1.00  0.00    -0.167 F 
ATOM     26  F   UNL     1      -3.039   6.126   1.577  1.00  0.00    -0.167 F 
ENDBRANCH  22  23
ENDBRANCH   9  11
ENDBRANCH   8   9
ENDBRANCH   7   8
ENDBRANCH   6   7
ENDBRANCH   5   6
ENDBRANCH   4   5
ENDBRANCH   3   4
ENDBRANCH   2   3
ENDBRANCH   1   2
BRANCH   1  27
ATOM     27  C   UNL     1       5.052   9.308   2.115  1.00  0.00     0.188 C 
BRANCH  27  28
ATOM     28  O   UNL     1       5.632   8.051   1.784  1.00  0.00    -0.376 OA
BRANCH  28  29
ATOM     29  C   UNL     1       6.816   7.685   2.476  1.00  0.00     0.202 C 
BRANCH  29  30
ATOM     30  C   UNL     1       6.577   7.210   3.913  1.00  0.00     0.261 C 
BRANCH  30  31
ATOM     31  O   UNL     1       6.003   8.189   4.793  1.00  0.00    -0.460 OA
BRANCH  31  32
ATOM     32  C   UNL     1       6.700   9.326   5.005  1.00  0.00     0.338 C 
ATOM     33  O   UNL     1       7.800   9.616   4.568  1.00  0.00    -0.246 OA
BRANCH  32  34
ATOM     34  C   UNL     1       5.804  10.257   5.718  1.00  0.00     0.060 A 
ATOM     35  C   UNL     1       5.504  11.495   5.138  1.00  0.00     0.016 A 
ATOM     36  C   UNL     1       5.229   9.883   6.936  1.00  0.00     0.016 A 
ATOM     37  C   UNL     1       4.632  12.370   5.786  1.00  0.00     0.010 A 
ATOM     38  C   UNL     1       4.371  10.767   7.591  1.00  0.00     0.010 A 
ATOM     39  C   UNL     1       4.086  12.023   7.030  1.00  0.00    -0.014 A 
BRANCH  39  40
ATOM     40  C   UNL     1       3.344  13.035   7.816  1.00  0.00     0.031 A 
ATOM     41  C   UNL     1       4.092  13.829   8.850  1.00  0.00     0.074 A 
ATOM     42  C   UNL     1       2.037  13.265   7.599  1.00  0.00     0.049 A 
ATOM     43  N   UNL     1       3.663  14.786   9.630  1.00  0.00    -0.248 NA
ATOM     44  C   UNL     1       5.517  13.501   9.025  1.00  0.00     0.031 C 
ATOM     45  C   UNL     1       1.210  12.575   6.612  1.00  0.00     0.029 A 
ATOM     46  N   UNL     1       1.177  14.151   8.200  1.00  0.00    -0.354 N 
ATOM     47  C   UNL     1       4.765  15.187  10.372  1.00  0.00     0.074 A 
ATOM     48  C   UNL     1       5.871  14.339   9.987  1.00  0.00     0.031 C 
ATOM     49  C   UNL     1      -0.039  13.070   6.669  1.00  0.00     0.029 A 
ATOM     50  C   UNL     1      -0.105  14.096   7.710  1.00  0.00     0.049 A 
ATOM     51  H   UNL     1       1.454  14.768   8.916  1.00  0.00     0.167 HD
ATOM     52  C   UNL     1       4.853  16.187  11.278  1.00  0.00     0.037 A 
ATOM     53  C   UNL     1      -1.203  14.793   8.063  1.00  0.00     0.037 A 
ATOM     54  C   UNL     1       3.749  17.020  11.671  1.00  0.00     0.049 A 
ATOM     55  C   UNL     1      -1.101  15.843   9.140  1.00  0.00     0.074 A 
ATOM     56  C   UNL     1       3.743  18.064  12.579  1.00  0.00     0.029 A 
ATOM     57  N   UNL     1       2.457  16.899  11.185  1.00  0.00    -0.354 N 
ATOM     58  N   UNL     1      -0.044  16.243   9.806  1.00  0.00    -0.248 NA
ATOM     59  C   UNL     1      -2.341  16.541   9.515  1.00  0.00     0.031 C 
ATOM     60  C   UNL     1       2.435  18.543  12.680  1.00  0.00     0.029 A 
ATOM     61  C   UNL     1       1.639  17.834  11.794  1.00  0.00     0.049 A 
ATOM     62  H   UNL     1       2.165  16.247  10.508  1.00  0.00     0.167 HD
ATOM     63  C   UNL     1      -0.483  17.258  10.648  1.00  0.00     0.074 A 
ATOM     64  C   UNL     1      -1.902  17.415  10.412  1.00  0.00     0.031 C 
ATOM     65  C   UNL     1       0.231  17.995  11.533  1.00  0.00     0.037 A 
BRANCH  52  66
ATOM     66  C   UNL     1       6.188  16.439  11.909  1.00  0.00     0.057 A 
ATOM     67  C   UNL     1       7.236  17.029  11.192  1.00  0.00     0.134 A 
ATOM     68  C   UNL     1       6.410  16.148  13.260  1.00  0.00     0.134 A 
ATOM     69  F   UNL     1       7.091  17.319   9.890  1.00  0.00    -0.206 F 
ATOM     70  C   UNL     1       8.462  17.313  11.794  1.00  0.00     0.040 A 
ATOM     71  C   UNL     1       7.623  16.449  13.880  1.00  0.00     0.040 A 
ATOM     72  F   UNL     1       5.445  15.585  14.004  1.00  0.00    -0.206 F 
ATOM     73  C   UNL     1       8.654  17.032  13.146  1.00  0.00     0.006 A 
ENDBRANCH  52  66
BRANCH  53  74
ATOM     74  C   UNL     1      -2.494  14.542   7.373  1.00  0.00     0.057 A 
ATOM     75  C   UNL     1      -3.050  15.495   6.512  1.00  0.00     0.134 A 
ATOM     76  C   UNL     1      -3.201  13.347   7.555  1.00  0.00     0.134 A 
ATOM     77  F   UNL     1      -2.432  16.668   6.314  1.00  0.00    -0.206 F 
ATOM     78  C   UNL     1      -4.265  15.273   5.862  1.00  0.00     0.040 A 
ATOM     79  C   UNL     1      -4.406  13.102   6.894  1.00  0.00     0.040 A 
ATOM     80  F   UNL     1      -2.723  12.395   8.369  1.00  0.00    -0.206 F 
ATOM     81  C   UNL     1      -4.943  14.070   6.046  1.00  0.00     0.006 A 
ENDBRANCH  53  74
BRANCH  65  82
ATOM     82  C   UNL     1      -0.482  19.069  12.301  1.00  0.00     0.057 A 
ATOM     83  C   UNL     1      -1.324  18.770  13.377  1.00  0.00     0.134 A 
ATOM     84  C   UNL     1      -0.216  20.421  12.041  1.00  0.00     0.134 A 
ATOM     85  F   UNL     1      -1.622  17.496  13.673  1.00  0.00    -0.206 F 
ATOM     86  C   UNL     1      -1.874  19.777  14.173  1.00  0.00     0.040 A 
ATOM     87  C   UNL     1      -0.741  21.435  12.843  1.00  0.00     0.040 A 
ATOM     88  F   UNL     1       0.594  20.774  11.032  1.00  0.00    -0.206 F 
ATOM     89  C   UNL     1      -1.571  21.113  13.915  1.00  0.00     0.006 A 
ENDBRANCH  65  82
ENDBRANCH  39  40
ENDBRANCH  32  34
ENDBRANCH  31  32
ENDBRANCH  30  31
ENDBRANCH  29  30
ENDBRANCH  28  29
ENDBRANCH  27  28
ENDBRANCH   1  27
TORSDOF 21
