REMARK SMILES CC(C)[C@H](NC(=O)[C@H](C)NC(=O)CNC(=O)OCc1ccccc1)C(=O)OCCOCCOCCOCCOC(=O)c1ccc(-c2c3nc(c(-c4c(F)cccc4F)c4ccc([nH]4)c(-c4c(F)cccc4F)c4nc(c(-c5c(F)cccc5F)c5ccc2[nH]5)C=C4)C=C3)cc1
REMARK SMILES IDX 30 1 29 2 28 3 27 4 25 5 26 6 4 7 2 8 1 9 3 10 5 11 6 12
REMARK SMILES IDX 7 14 8 15 9 16 10 17 11 18 12 20 13 21 14 22 15 23 16 25
REMARK SMILES IDX 17 26 18 27 19 28 20 29 24 30 21 31 23 32 22 33 31 34 32 35
REMARK SMILES IDX 33 36 34 37 35 38 36 39 37 40 38 41 39 42 40 43 41 44 42 45
REMARK SMILES IDX 43 46 95 47 44 48 94 49 45 50 46 51 47 52 88 53 48 54 93 55
REMARK SMILES IDX 87 56 89 57 49 58 92 59 86 60 85 61 50 63 76 64 59 65 75 66
REMARK SMILES IDX 60 67 63 68 74 69 90 70 61 71 62 72 73 74 91 75 64 76 51 77
REMARK SMILES IDX 52 78 57 79 53 80 54 81 56 82 58 83 55 84 77 85 78 86 83 87
REMARK SMILES IDX 79 88 80 89 82 90 84 91 81 92 65 93 66 94 71 95 67 96 68 97
REMARK SMILES IDX 70 98 72 99 69 100
REMARK H PARENT 5 13 10 19 14 24 89 62 63 73
REMARK Flexibility Score: inf
ROOT
ATOM      1  O   UNL     1       0.734  -1.543   8.870  1.00  0.00    -0.376 OA
ENDROOT
BRANCH   1   2
ATOM      2  C   UNL     1       1.537  -2.289   7.957  1.00  0.00     0.202 C 
BRANCH   2   3
ATOM      3  C   UNL     1       0.808  -3.188   6.954  1.00  0.00     0.261 C 
BRANCH   3   4
ATOM      4  O   UNL     1       0.134  -2.409   5.938  1.00  0.00    -0.462 OA
BRANCH   4   5
ATOM      5  C   UNL     1      -1.069  -2.865   5.502  1.00  0.00     0.328 C 
ATOM      6  O   UNL     1      -1.521  -3.967   5.789  1.00  0.00    -0.250 OA
BRANCH   5   7
ATOM      7  C   UNL     1      -1.879  -1.788   4.720  1.00  0.00     0.194 C 
BRANCH   7   8
ATOM      8  C   UNL     1      -2.771  -2.400   3.603  1.00  0.00     0.017 C 
ATOM      9  C   UNL     1      -4.164  -2.731   4.172  1.00  0.00     0.010 C 
ATOM     10  C   UNL     1      -2.990  -1.522   2.364  1.00  0.00     0.010 C 
ENDBRANCH   7   8
BRANCH   7  11
ATOM     11  N   UNL     1      -1.268  -0.501   4.375  1.00  0.00    -0.341 N 
ATOM     12  C   UNL     1      -0.182  -0.103   3.668  1.00  0.00     0.242 C 
ATOM     13  H   UNL     1      -1.768   0.260   4.749  1.00  0.00     0.164 HD
ATOM     14  O   UNL     1      -0.051   1.124   3.563  1.00  0.00    -0.273 OA
BRANCH  12  15
ATOM     15  C   UNL     1       0.927  -1.073   3.185  1.00  0.00     0.168 C 
ATOM     16  C   UNL     1       1.749  -0.341   2.120  1.00  0.00     0.041 C 
BRANCH  15  17
ATOM     17  N   UNL     1       0.398  -2.309   2.617  1.00  0.00    -0.343 N 
ATOM     18  C   UNL     1       0.852  -3.588   2.668  1.00  0.00     0.240 C 
ATOM     19  H   UNL     1      -0.437  -2.196   2.107  1.00  0.00     0.164 HD
ATOM     20  O   UNL     1       0.158  -4.445   2.114  1.00  0.00    -0.273 OA
BRANCH  18  21
ATOM     21  C   UNL     1       2.109  -3.980   3.450  1.00  0.00     0.219 C 
BRANCH  21  22
ATOM     22  N   UNL     1       3.326  -3.370   2.961  1.00  0.00    -0.312 N 
ATOM     23  C   UNL     1       4.276  -2.677   3.656  1.00  0.00     0.407 C 
ATOM     24  H   UNL     1       3.491  -3.466   1.995  1.00  0.00     0.167 HD
ATOM     25  O   UNL     1       5.205  -2.157   3.068  1.00  0.00    -0.225 OA
BRANCH  23  26
ATOM     26  O   UNL     1       4.037  -2.580   4.992  1.00  0.00    -0.445 OA
BRANCH  26  27
ATOM     27  C   UNL     1       4.731  -1.495   5.629  1.00  0.00     0.270 C 
BRANCH  27  28
ATOM     28  C   UNL     1       5.816  -1.848   6.622  1.00  0.00    -0.011 A 
ATOM     29  C   UNL     1       5.820  -3.033   7.364  1.00  0.00     0.007 A 
ATOM     30  C   UNL     1       6.796  -0.878   6.907  1.00  0.00     0.007 A 
ATOM     31  C   UNL     1       6.791  -3.246   8.352  1.00  0.00     0.000 A 
ATOM     32  C   UNL     1       7.760  -1.088   7.895  1.00  0.00     0.000 A 
ATOM     33  C   UNL     1       7.757  -2.275   8.618  1.00  0.00     0.000 A 
ENDBRANCH  27  28
ENDBRANCH  26  27
ENDBRANCH  23  26
ENDBRANCH  21  22
ENDBRANCH  18  21
ENDBRANCH  15  17
ENDBRANCH  12  15
ENDBRANCH   7  11
ENDBRANCH   5   7
ENDBRANCH   4   5
ENDBRANCH   3   4
ENDBRANCH   2   3
ENDBRANCH   1   2
BRANCH   1  34
ATOM     34  C   UNL     1      -0.377  -0.823   8.347  1.00  0.00     0.188 C 
BRANCH  34  35
ATOM     35  C   UNL     1      -0.108   0.308   7.343  1.00  0.00     0.188 C 
BRANCH  35  36
ATOM     36  O   UNL     1       0.992   0.054   6.474  1.00  0.00    -0.377 OA
BRANCH  36  37
ATOM     37  C   UNL     1       1.999   1.064   6.495  1.00  0.00     0.188 C 
BRANCH  37  38
ATOM     38  C   UNL     1       2.730   1.155   7.847  1.00  0.00     0.188 C 
BRANCH  38  39
ATOM     39  O   UNL     1       1.859   1.572   8.890  1.00  0.00    -0.376 OA
BRANCH  39  40
ATOM     40  C   UNL     1       1.857   2.956   9.220  1.00  0.00     0.202 C 
BRANCH  40  41
ATOM     41  C   UNL     1       1.509   3.957   8.101  1.00  0.00     0.261 C 
BRANCH  41  42
ATOM     42  O   UNL     1       2.372   3.959   6.942  1.00  0.00    -0.460 OA
BRANCH  42  43
ATOM     43  C   UNL     1       3.678   4.232   7.136  1.00  0.00     0.338 C 
ATOM     44  O   UNL     1       4.211   4.534   8.188  1.00  0.00    -0.246 OA
BRANCH  43  45
ATOM     45  C   UNL     1       4.429   3.930   5.896  1.00  0.00     0.060 A 
ATOM     46  C   UNL     1       5.468   2.994   5.961  1.00  0.00     0.016 A 
ATOM     47  C   UNL     1       4.196   4.635   4.712  1.00  0.00     0.016 A 
ATOM     48  C   UNL     1       6.331   2.826   4.877  1.00  0.00     0.010 A 
ATOM     49  C   UNL     1       5.070   4.471   3.627  1.00  0.00     0.010 A 
ATOM     50  C   UNL     1       6.179   3.610   3.725  1.00  0.00    -0.014 A 
BRANCH  50  51
ATOM     51  C   UNL     1       7.298   3.671   2.743  1.00  0.00     0.031 A 
ATOM     52  C   UNL     1       8.226   4.862   2.768  1.00  0.00     0.074 A 
ATOM     53  C   UNL     1       7.560   2.649   1.907  1.00  0.00     0.049 A 
ATOM     54  N   UNL     1       9.279   5.118   2.032  1.00  0.00    -0.248 NA
ATOM     55  C   UNL     1       7.928   5.902   3.766  1.00  0.00     0.031 C 
ATOM     56  C   UNL     1       6.793   1.409   1.819  1.00  0.00     0.029 A 
ATOM     57  N   UNL     1       8.560   2.494   0.977  1.00  0.00    -0.354 N 
ATOM     58  C   UNL     1       9.762   6.347   2.471  1.00  0.00     0.074 A 
ATOM     59  C   UNL     1       8.867   6.801   3.514  1.00  0.00     0.031 C 
ATOM     60  C   UNL     1       7.353   0.616   0.888  1.00  0.00     0.029 A 
ATOM     61  C   UNL     1       8.495   1.306   0.290  1.00  0.00     0.049 A 
ATOM     62  H   UNL     1       9.257   3.171   0.818  1.00  0.00     0.167 HD
ATOM     63  C   UNL     1      10.855   7.033   2.057  1.00  0.00     0.037 A 
ATOM     64  C   UNL     1       9.260   0.834  -0.715  1.00  0.00     0.037 A 
ATOM     65  C   UNL     1      11.754   6.587   1.023  1.00  0.00     0.049 A 
ATOM     66  C   UNL     1      10.426   1.651  -1.213  1.00  0.00     0.074 A 
ATOM     67  C   UNL     1      12.887   7.215   0.535  1.00  0.00     0.029 A 
ATOM     68  N   UNL     1      11.619   5.402   0.315  1.00  0.00    -0.354 N 
ATOM     69  N   UNL     1      10.872   2.809  -0.789  1.00  0.00    -0.248 NA
ATOM     70  C   UNL     1      11.201   1.086  -2.328  1.00  0.00     0.031 C 
ATOM     71  C   UNL     1      13.405   6.438  -0.507  1.00  0.00     0.029 A 
ATOM     72  C   UNL     1      12.634   5.294  -0.624  1.00  0.00     0.049 A 
ATOM     73  H   UNL     1      10.907   4.737   0.457  1.00  0.00     0.167 HD
ATOM     74  C   UNL     1      11.995   3.093  -1.560  1.00  0.00     0.074 A 
ATOM     75  C   UNL     1      12.172   1.977  -2.464  1.00  0.00     0.031 C 
ATOM     76  C   UNL     1      12.807   4.179  -1.520  1.00  0.00     0.037 A 
BRANCH  63  77
ATOM     77  C   UNL     1      11.120   8.365   2.702  1.00  0.00     0.057 A 
ATOM     78  C   UNL     1      11.547   8.479   4.032  1.00  0.00     0.134 A 
ATOM     79  C   UNL     1      10.969   9.551   1.971  1.00  0.00     0.134 A 
ATOM     80  F   UNL     1      11.699   7.385   4.794  1.00  0.00    -0.206 F 
ATOM     81  C   UNL     1      11.785   9.724   4.619  1.00  0.00     0.040 A 
ATOM     82  C   UNL     1      11.233  10.799   2.538  1.00  0.00     0.040 A 
ATOM     83  F   UNL     1      10.570   9.516   0.691  1.00  0.00    -0.206 F 
ATOM     84  C   UNL     1      11.634  10.888   3.869  1.00  0.00     0.006 A 
ENDBRANCH  63  77
BRANCH  64  85
ATOM     85  C   UNL     1       8.945  -0.478  -1.340  1.00  0.00     0.057 A 
ATOM     86  C   UNL     1       9.814  -1.570  -1.229  1.00  0.00     0.134 A 
ATOM     87  C   UNL     1       7.784  -0.656  -2.104  1.00  0.00     0.134 A 
ATOM     88  F   UNL     1      10.959  -1.455  -0.540  1.00  0.00    -0.206 F 
ATOM     89  C   UNL     1       9.552  -2.783  -1.870  1.00  0.00     0.040 A 
ATOM     90  C   UNL     1       7.494  -1.872  -2.725  1.00  0.00     0.040 A 
ATOM     91  F   UNL     1       6.913   0.352  -2.258  1.00  0.00    -0.206 F 
ATOM     92  C   UNL     1       8.385  -2.938  -2.616  1.00  0.00     0.006 A 
ENDBRANCH  64  85
BRANCH  76  93
ATOM     93  C   UNL     1      13.989   4.189  -2.451  1.00  0.00     0.057 A 
ATOM     94  C   UNL     1      13.847   4.307  -3.840  1.00  0.00     0.134 A 
ATOM     95  C   UNL     1      15.293   4.087  -1.946  1.00  0.00     0.134 A 
ATOM     96  F   UNL     1      12.628   4.401  -4.393  1.00  0.00    -0.206 F 
ATOM     97  C   UNL     1      14.951   4.277  -4.695  1.00  0.00     0.040 A 
ATOM     98  C   UNL     1      16.407   4.091  -2.788  1.00  0.00     0.040 A 
ATOM     99  F   UNL     1      15.508   3.987  -0.626  1.00  0.00    -0.206 F 
ATOM    100  C   UNL     1      16.237   4.173  -4.168  1.00  0.00     0.006 A 
ENDBRANCH  76  93
ENDBRANCH  50  51
ENDBRANCH  43  45
ENDBRANCH  42  43
ENDBRANCH  41  42
ENDBRANCH  40  41
ENDBRANCH  39  40
ENDBRANCH  38  39
ENDBRANCH  37  38
ENDBRANCH  36  37
ENDBRANCH  35  36
ENDBRANCH  34  35
ENDBRANCH   1  34
TORSDOF 29
