REMARK SMILES Cc1ccc(-c2cc(Cl)cc3c2O[C@@H](C(F)(F)F)C(C(=O)OCCOCCOCCOCCOC(=O)c2ccc(-c4c5nc(c(-c6c(F)cccc6F)c6ccc([nH]6)c(-c6c(F)cccc6F)c6nc(c(-c7c(F)cccc7F)c7ccc4[nH]7)C=C6)C=C5)cc2)=C3)cc1
REMARK SMILES IDX 29 1 28 2 27 3 26 4 25 5 24 6 23 7 22 8 20 9 21 10 19 11
REMARK SMILES IDX 6 12 7 13 12 14 8 15 11 16 13 17 9 18 10 19 91 20 14 21 5 22
REMARK SMILES IDX 1 23 2 24 3 25 93 26 4 27 92 28 15 29 16 30 17 31 18 32
REMARK SMILES IDX 30 33 31 34 32 35 33 36 34 37 35 38 36 39 37 40 38 41 90 42
REMARK SMILES IDX 39 43 89 44 40 45 41 46 42 47 83 48 43 49 88 50 82 51 84 52
REMARK SMILES IDX 44 53 87 54 81 55 80 56 45 58 71 59 54 60 70 61 55 62 58 63
REMARK SMILES IDX 69 64 85 65 56 66 57 67 68 69 86 70 59 71 46 72 47 73 52 74
REMARK SMILES IDX 48 75 49 76 51 77 53 78 50 79 72 80 73 81 78 82 74 83 75 84
REMARK SMILES IDX 77 85 79 86 76 87 60 88 61 89 66 90 62 91 63 92 65 93 67 94
REMARK SMILES IDX 64 95
REMARK H PARENT 84 57 58 68
REMARK Flexibility Score: inf
ROOT
ATOM      1  C   UNL     1      -3.036  -5.612   2.651  1.00  0.00     0.188 C 
ENDROOT
BRANCH   1   2
ATOM      2  O   UNL     1      -4.334  -5.221   3.064  1.00  0.00    -0.377 OA
BRANCH   2   3
ATOM      3  C   UNL     1      -5.094  -4.674   2.001  1.00  0.00     0.188 C 
BRANCH   3   4
ATOM      4  C   UNL     1      -4.825  -3.216   1.689  1.00  0.00     0.188 C 
BRANCH   4   5
ATOM      5  O   UNL     1      -3.630  -2.705   1.120  1.00  0.00    -0.376 OA
BRANCH   5   6
ATOM      6  C   UNL     1      -2.993  -1.670   1.893  1.00  0.00     0.202 C 
BRANCH   6   7
ATOM      7  C   UNL     1      -3.395  -0.162   2.147  1.00  0.00     0.261 C 
BRANCH   7   8
ATOM      8  O   UNL     1      -4.618   0.152   2.823  1.00  0.00    -0.460 OA
BRANCH   8   9
ATOM      9  C   UNL     1      -5.363   1.205   2.348  1.00  0.00     0.338 C 
ATOM     10  O   UNL     1      -4.942   2.213   1.786  1.00  0.00    -0.246 OA
BRANCH   9  11
ATOM     11  C   UNL     1      -6.831   0.770   2.260  1.00  0.00     0.087 C 
ATOM     12  C   UNL     1      -4.792  -0.326  -0.999  1.00  0.00     0.026 A 
ATOM     13  C   UNL     1      -5.138   0.339  -2.194  1.00  0.00     0.033 A 
ATOM     14  C   UNL     1      -5.814  -0.301   0.031  1.00  0.00     0.135 A 
ATOM     15  C   UNL     1      -6.316   1.073  -2.338  1.00  0.00     0.042 A 
ATOM     16  C   UNL     1      -6.883   0.639  -0.070  1.00  0.00     0.019 A 
ATOM     17  O   UNL     1      -5.842  -1.066   1.216  1.00  0.00    -0.475 OA
ATOM     18  Cl  UNL     1      -6.604   1.912  -3.808  1.00  0.00    -0.084 Cl
ATOM     19  C   UNL     1      -7.178   1.254  -1.271  1.00  0.00     0.032 A 
ATOM     20  C   UNL     1      -7.561   1.123   1.177  1.00  0.00     0.027 C 
ATOM     21  C   UNL     1      -6.839  -0.724   2.304  1.00  0.00     0.316 C 
BRANCH  12  22
ATOM     22  C   UNL     1      -3.272  -0.555  -0.964  1.00  0.00    -0.015 A 
ATOM     23  C   UNL     1       1.154  -0.708  -1.175  1.00  0.00     0.044 C 
ATOM     24  C   UNL     1      -0.354  -0.668  -1.149  1.00  0.00    -0.051 A 
ATOM     25  C   UNL     1      -1.154  -1.791  -1.382  1.00  0.00     0.004 A 
ATOM     26  C   UNL     1      -1.018   0.520  -0.885  1.00  0.00     0.004 A 
ATOM     27  C   UNL     1      -2.582  -1.733  -1.306  1.00  0.00     0.009 A 
ATOM     28  C   UNL     1      -2.424   0.579  -0.814  1.00  0.00     0.009 A 
ENDBRANCH  12  22
BRANCH  21  29
ATOM     29  C   UNL     1      -6.767  -1.182   3.816  1.00  0.00     0.430 C 
ATOM     30  F   UNL     1      -7.957  -0.855   4.414  1.00  0.00    -0.167 F 
ATOM     31  F   UNL     1      -6.657  -2.520   3.963  1.00  0.00    -0.167 F 
ATOM     32  F   UNL     1      -5.837  -0.600   4.595  1.00  0.00    -0.167 F 
ENDBRANCH  21  29
ENDBRANCH   9  11
ENDBRANCH   8   9
ENDBRANCH   7   8
ENDBRANCH   6   7
ENDBRANCH   5   6
ENDBRANCH   4   5
ENDBRANCH   3   4
ENDBRANCH   2   3
ENDBRANCH   1   2
BRANCH   1  33
ATOM     33  C   UNL     1      -3.040  -6.551   1.478  1.00  0.00     0.188 C 
BRANCH  33  34
ATOM     34  O   UNL     1      -2.832  -5.737   0.327  1.00  0.00    -0.376 OA
BRANCH  34  35
ATOM     35  C   UNL     1      -2.860  -6.435  -0.905  1.00  0.00     0.202 C 
BRANCH  35  36
ATOM     36  C   UNL     1      -1.833  -7.573  -0.938  1.00  0.00     0.261 C 
BRANCH  36  37
ATOM     37  O   UNL     1      -0.531  -7.011  -0.637  1.00  0.00    -0.460 OA
BRANCH  37  38
ATOM     38  C   UNL     1       0.008  -7.327   0.576  1.00  0.00     0.338 C 
ATOM     39  O   UNL     1      -0.010  -8.438   1.083  1.00  0.00    -0.246 OA
BRANCH  38  40
ATOM     40  C   UNL     1       0.347  -6.079   1.344  1.00  0.00     0.060 A 
ATOM     41  C   UNL     1       0.625  -6.142   2.723  1.00  0.00     0.016 A 
ATOM     42  C   UNL     1       0.113  -4.833   0.776  1.00  0.00     0.016 A 
ATOM     43  C   UNL     1       0.522  -4.989   3.540  1.00  0.00     0.010 A 
ATOM     44  C   UNL     1      -0.015  -3.711   1.594  1.00  0.00     0.010 A 
ATOM     45  C   UNL     1       0.123  -3.766   2.993  1.00  0.00    -0.014 A 
BRANCH  45  46
ATOM     46  C   UNL     1      -0.365  -2.575   3.767  1.00  0.00     0.031 A 
ATOM     47  C   UNL     1       0.077  -1.183   3.361  1.00  0.00     0.074 A 
ATOM     48  C   UNL     1      -1.481  -2.717   4.544  1.00  0.00     0.049 A 
ATOM     49  N   UNL     1      -0.448  -0.074   3.763  1.00  0.00    -0.248 NA
ATOM     50  C   UNL     1       1.156  -0.921   2.415  1.00  0.00     0.031 C 
ATOM     51  C   UNL     1      -2.485  -1.688   4.872  1.00  0.00     0.029 A 
ATOM     52  N   UNL     1      -2.084  -3.863   5.073  1.00  0.00    -0.354 N 
ATOM     53  C   UNL     1      -0.031   0.984   2.962  1.00  0.00     0.074 A 
ATOM     54  C   UNL     1       1.024   0.394   2.178  1.00  0.00     0.031 C 
ATOM     55  C   UNL     1      -3.519  -2.207   5.548  1.00  0.00     0.029 A 
ATOM     56  C   UNL     1      -3.054  -3.473   6.022  1.00  0.00     0.049 A 
ATOM     57  H   UNL     1      -1.868  -4.790   4.824  1.00  0.00     0.167 HD
ATOM     58  C   UNL     1      -0.720   2.180   3.016  1.00  0.00     0.037 A 
ATOM     59  C   UNL     1      -2.833  -3.711   7.343  1.00  0.00     0.037 A 
ATOM     60  C   UNL     1      -1.686   2.164   4.145  1.00  0.00     0.049 A 
ATOM     61  C   UNL     1      -2.500  -2.382   8.037  1.00  0.00     0.074 A 
ATOM     62  C   UNL     1      -3.037   2.420   4.303  1.00  0.00     0.029 A 
ATOM     63  N   UNL     1      -1.285   1.633   5.374  1.00  0.00    -0.354 N 
ATOM     64  N   UNL     1      -1.979  -1.345   7.407  1.00  0.00    -0.248 NA
ATOM     65  C   UNL     1      -2.961  -2.001   9.370  1.00  0.00     0.031 C 
ATOM     66  C   UNL     1      -3.477   1.829   5.524  1.00  0.00     0.029 A 
ATOM     67  C   UNL     1      -2.356   1.375   6.204  1.00  0.00     0.049 A 
ATOM     68  H   UNL     1      -0.347   1.462   5.619  1.00  0.00     0.167 HD
ATOM     69  C   UNL     1      -2.224  -0.190   8.101  1.00  0.00     0.074 A 
ATOM     70  C   UNL     1      -2.753  -0.667   9.369  1.00  0.00     0.031 C 
ATOM     71  C   UNL     1      -2.123   1.089   7.610  1.00  0.00     0.037 A 
BRANCH  58  72
ATOM     72  C   UNL     1      -0.742   3.296   1.929  1.00  0.00     0.057 A 
ATOM     73  C   UNL     1      -1.730   4.313   1.925  1.00  0.00     0.134 A 
ATOM     74  C   UNL     1       0.093   3.378   0.801  1.00  0.00     0.134 A 
ATOM     75  F   UNL     1      -2.448   4.601   3.016  1.00  0.00    -0.206 F 
ATOM     76  C   UNL     1      -2.003   5.153   0.824  1.00  0.00     0.040 A 
ATOM     77  C   UNL     1      -0.148   4.230  -0.304  1.00  0.00     0.040 A 
ATOM     78  F   UNL     1       1.195   2.635   0.683  1.00  0.00    -0.206 F 
ATOM     79  C   UNL     1      -1.233   5.087  -0.319  1.00  0.00     0.006 A 
ENDBRANCH  58  72
BRANCH  59  80
ATOM     80  C   UNL     1      -2.473  -5.165   7.489  1.00  0.00     0.057 A 
ATOM     81  C   UNL     1      -3.530  -6.051   7.139  1.00  0.00     0.134 A 
ATOM     82  C   UNL     1      -1.181  -5.625   7.189  1.00  0.00     0.134 A 
ATOM     83  F   UNL     1      -4.803  -5.701   7.395  1.00  0.00    -0.206 F 
ATOM     84  C   UNL     1      -3.335  -7.181   6.330  1.00  0.00     0.040 A 
ATOM     85  C   UNL     1      -0.976  -6.778   6.399  1.00  0.00     0.040 A 
ATOM     86  F   UNL     1      -0.111  -4.865   7.461  1.00  0.00    -0.206 F 
ATOM     87  C   UNL     1      -2.054  -7.520   5.916  1.00  0.00     0.006 A 
ENDBRANCH  59  80
BRANCH  71  88
ATOM     88  C   UNL     1      -1.681   2.288   8.426  1.00  0.00     0.057 A 
ATOM     89  C   UNL     1      -0.944   2.147   9.602  1.00  0.00     0.134 A 
ATOM     90  C   UNL     1      -1.688   3.600   7.874  1.00  0.00     0.134 A 
ATOM     91  F   UNL     1      -0.798   0.959  10.203  1.00  0.00    -0.206 F 
ATOM     92  C   UNL     1      -0.252   3.218  10.177  1.00  0.00     0.040 A 
ATOM     93  C   UNL     1      -0.941   4.652   8.398  1.00  0.00     0.040 A 
ATOM     94  F   UNL     1      -2.372   3.921   6.768  1.00  0.00    -0.206 F 
ATOM     95  C   UNL     1      -0.220   4.463   9.560  1.00  0.00     0.006 A 
ENDBRANCH  71  88
ENDBRANCH  45  46
ENDBRANCH  38  40
ENDBRANCH  37  38
ENDBRANCH  36  37
ENDBRANCH  35  36
ENDBRANCH  34  35
ENDBRANCH  33  34
ENDBRANCH   1  33
TORSDOF 22
