REMARK SMILES C/C(=N\NC(N)=O)c1nnn(-c2ccc(C(=O)OCCOCCOCCOCCOC(=O)c3ccc(-c4c5nc(c(-c6c(F)cccc6F)c6ccc([nH]6)c(-c6c(F)cccc6F)c6nc(c(-c7c(F)cccc7F)c7ccc4[nH]7)C=C6)C=C5)cc3)cc2)c1C
REMARK SMILES IDX 23 1 22 2 21 3 20 4 19 5 18 6 16 7 17 8 15 9 12 10 13 11
REMARK SMILES IDX 88 12 14 13 87 14 11 15 8 16 9 17 89 18 10 19 90 20 2 21
REMARK SMILES IDX 1 22 3 23 4 24 5 25 6 27 7 28 24 31 25 32 26 33 27 34 28 35
REMARK SMILES IDX 29 36 30 37 31 38 32 39 33 40 34 41 86 42 35 43 85 44 36 45
REMARK SMILES IDX 37 46 38 47 79 48 39 49 84 50 78 51 80 52 40 53 83 54 77 55
REMARK SMILES IDX 76 56 41 58 67 59 50 60 66 61 51 62 54 63 65 64 81 65 52 66
REMARK SMILES IDX 53 67 64 69 82 70 55 71 42 72 43 73 48 74 44 75 45 76 47 77
REMARK SMILES IDX 49 78 46 79 68 80 69 81 74 82 70 83 71 84 73 85 75 86 72 87
REMARK SMILES IDX 56 88 57 89 62 90 58 91 59 92 61 93 63 94 60 95
REMARK H PARENT 4 26 6 29 6 30 80 57 54 68
REMARK Flexibility Score: inf
ROOT
ATOM      1  C   UNL     1       6.867  -4.427   7.550  1.00  0.00     0.188 C 
ENDROOT
BRANCH   1   2
ATOM      2  C   UNL     1       7.379  -5.626   6.727  1.00  0.00     0.188 C 
BRANCH   2   3
ATOM      3  O   UNL     1       8.795  -5.783   6.802  1.00  0.00    -0.376 OA
BRANCH   3   4
ATOM      4  C   UNL     1       9.537  -5.441   5.641  1.00  0.00     0.202 C 
BRANCH   4   5
ATOM      5  C   UNL     1       9.597  -3.946   5.304  1.00  0.00     0.261 C 
BRANCH   5   6
ATOM      6  O   UNL     1       8.326  -3.325   5.063  1.00  0.00    -0.460 OA
BRANCH   6   7
ATOM      7  C   UNL     1       7.572  -3.821   4.060  1.00  0.00     0.338 C 
ATOM      8  O   UNL     1       7.873  -4.694   3.268  1.00  0.00    -0.246 OA
BRANCH   7   9
ATOM      9  C   UNL     1       6.219  -3.237   4.180  1.00  0.00     0.060 A 
ATOM     10  C   UNL     1       3.691  -2.120   4.144  1.00  0.00     0.067 A 
ATOM     11  C   UNL     1       3.824  -3.500   3.951  1.00  0.00     0.029 A 
ATOM     12  C   UNL     1       4.788  -1.327   4.497  1.00  0.00     0.029 A 
ATOM     13  C   UNL     1       5.103  -4.053   3.939  1.00  0.00     0.018 A 
ATOM     14  C   UNL     1       6.057  -1.891   4.525  1.00  0.00     0.018 A 
BRANCH  10  15
ATOM     15  N   UNL     1       2.500  -1.499   3.713  1.00  0.00    -0.217 N 
ATOM     16  C   UNL     1       1.070  -0.529   2.392  1.00  0.00     0.132 A 
ATOM     17  N   UNL     1       0.394  -1.403   3.198  1.00  0.00    -0.128 NA
ATOM     18  C   UNL     1       2.416  -0.556   2.700  1.00  0.00     0.071 A 
ATOM     19  N   UNL     1       1.281  -2.028   3.961  1.00  0.00    -0.061 NA
ATOM     20  C   UNL     1       3.575   0.046   1.994  1.00  0.00     0.069 C 
BRANCH  16  21
ATOM     21  C   UNL     1       0.473   0.105   1.235  1.00  0.00     0.087 C 
ATOM     22  C   UNL     1       0.551  -0.672  -0.056  1.00  0.00     0.071 C 
ATOM     23  N   UNL     1      -0.056   1.276   1.438  1.00  0.00    -0.174 NA
BRANCH  23  24
ATOM     24  N   UNL     1      -0.542   2.008   0.390  1.00  0.00    -0.229 N 
ATOM     25  C   UNL     1       0.162   2.300  -0.759  1.00  0.00     0.332 C 
ATOM     26  H   UNL     1      -1.463   2.350   0.461  1.00  0.00     0.195 HD
ATOM     27  N   UNL     1      -0.554   3.065  -1.629  1.00  0.00    -0.350 N 
ATOM     28  O   UNL     1       1.296   1.935  -1.040  1.00  0.00    -0.247 OA
ATOM     29  H   UNL     1      -1.466   3.354  -1.395  1.00  0.00     0.161 HD
ATOM     30  H   UNL     1      -0.161   3.328  -2.492  1.00  0.00     0.161 HD
ENDBRANCH  23  24
ENDBRANCH  16  21
ENDBRANCH  10  15
ENDBRANCH   7   9
ENDBRANCH   6   7
ENDBRANCH   5   6
ENDBRANCH   4   5
ENDBRANCH   3   4
ENDBRANCH   2   3
ENDBRANCH   1   2
BRANCH   1  31
ATOM     31  O   UNL     1       7.909  -3.610   8.062  1.00  0.00    -0.377 OA
BRANCH  31  32
ATOM     32  C   UNL     1       8.616  -4.073   9.212  1.00  0.00     0.188 C 
BRANCH  32  33
ATOM     33  C   UNL     1       8.666  -5.568   9.630  1.00  0.00     0.188 C 
BRANCH  33  34
ATOM     34  O   UNL     1       7.485  -6.322   9.365  1.00  0.00    -0.376 OA
BRANCH  34  35
ATOM     35  C   UNL     1       6.744  -6.844  10.454  1.00  0.00     0.202 C 
BRANCH  35  36
ATOM     36  C   UNL     1       5.758  -5.820  11.005  1.00  0.00     0.261 C 
BRANCH  36  37
ATOM     37  O   UNL     1       6.397  -4.614  11.399  1.00  0.00    -0.460 OA
BRANCH  37  38
ATOM     38  C   UNL     1       7.310  -4.752  12.381  1.00  0.00     0.338 C 
ATOM     39  O   UNL     1       7.681  -5.782  12.914  1.00  0.00    -0.246 OA
BRANCH  38  40
ATOM     40  C   UNL     1       7.726  -3.422  12.826  1.00  0.00     0.060 A 
ATOM     41  C   UNL     1       8.705  -3.399  13.821  1.00  0.00     0.016 A 
ATOM     42  C   UNL     1       6.892  -2.330  12.554  1.00  0.00     0.016 A 
ATOM     43  C   UNL     1       8.646  -2.389  14.748  1.00  0.00     0.010 A 
ATOM     44  C   UNL     1       6.814  -1.340  13.496  1.00  0.00     0.010 A 
ATOM     45  C   UNL     1       7.620  -1.450  14.627  1.00  0.00    -0.014 A 
BRANCH  45  46
ATOM     46  C   UNL     1       7.338  -0.627  15.777  1.00  0.00     0.031 A 
ATOM     47  C   UNL     1       8.125   0.613  15.865  1.00  0.00     0.074 A 
ATOM     48  C   UNL     1       6.329  -0.935  16.613  1.00  0.00     0.049 A 
ATOM     49  N   UNL     1       8.906   0.991  16.820  1.00  0.00    -0.248 NA
ATOM     50  C   UNL     1       8.104   1.508  14.698  1.00  0.00     0.031 C 
ATOM     51  C   UNL     1       5.286  -1.950  16.425  1.00  0.00     0.029 A 
ATOM     52  N   UNL     1       5.950  -0.304  17.756  1.00  0.00    -0.354 N 
ATOM     53  C   UNL     1       9.327   2.265  16.462  1.00  0.00     0.074 A 
ATOM     54  C   UNL     1       8.937   2.468  15.092  1.00  0.00     0.031 C 
ATOM     55  C   UNL     1       4.285  -1.714  17.301  1.00  0.00     0.029 A 
ATOM     56  C   UNL     1       4.662  -0.607  18.166  1.00  0.00     0.049 A 
ATOM     57  H   UNL     1       6.539   0.312  18.248  1.00  0.00     0.167 HD
ATOM     58  C   UNL     1       9.739   3.160  17.395  1.00  0.00     0.037 A 
ATOM     59  C   UNL     1       3.933   0.072  19.083  1.00  0.00     0.037 A 
ATOM     60  C   UNL     1      10.156   2.518  18.613  1.00  0.00     0.049 A 
ATOM     61  C   UNL     1       4.860   0.932  19.861  1.00  0.00     0.074 A 
ATOM     62  C   UNL     1      11.078   1.534  18.921  1.00  0.00     0.029 A 
ATOM     63  N   UNL     1       9.360   2.636  19.725  1.00  0.00    -0.354 N 
ATOM     64  N   UNL     1       5.707   0.498  20.752  1.00  0.00    -0.248 NA
ATOM     65  C   UNL     1       5.121   2.275  19.360  1.00  0.00     0.031 C 
ATOM     66  C   UNL     1      10.500   0.797  19.995  1.00  0.00     0.029 A 
ATOM     67  C   UNL     1       9.271   1.388  20.287  1.00  0.00     0.049 A 
ATOM     68  H   UNL     1       8.935   3.459  20.057  1.00  0.00     0.167 HD
ATOM     69  C   UNL     1       6.818   1.319  20.614  1.00  0.00     0.074 A 
ATOM     70  C   UNL     1       6.357   2.458  19.830  1.00  0.00     0.031 C 
ATOM     71  C   UNL     1       8.073   0.866  20.900  1.00  0.00     0.037 A 
BRANCH  58  72
ATOM     72  C   UNL     1       9.415   4.625  17.302  1.00  0.00     0.057 A 
ATOM     73  C   UNL     1      10.054   5.527  18.165  1.00  0.00     0.134 A 
ATOM     74  C   UNL     1       8.312   5.147  16.591  1.00  0.00     0.134 A 
ATOM     75  F   UNL     1      11.091   5.137  18.921  1.00  0.00    -0.206 F 
ATOM     76  C   UNL     1       9.597   6.837  18.346  1.00  0.00     0.040 A 
ATOM     77  C   UNL     1       7.886   6.470  16.718  1.00  0.00     0.040 A 
ATOM     78  F   UNL     1       7.529   4.384  15.816  1.00  0.00    -0.206 F 
ATOM     79  C   UNL     1       8.510   7.312  17.622  1.00  0.00     0.006 A 
ENDBRANCH  58  72
BRANCH  59  80
ATOM     80  C   UNL     1       2.463   0.213  19.179  1.00  0.00     0.057 A 
ATOM     81  C   UNL     1       1.858   0.654  20.363  1.00  0.00     0.134 A 
ATOM     82  C   UNL     1       1.629   0.146  18.048  1.00  0.00     0.134 A 
ATOM     83  F   UNL     1       2.578   0.799  21.484  1.00  0.00    -0.206 F 
ATOM     84  C   UNL     1       0.506   1.015  20.418  1.00  0.00     0.040 A 
ATOM     85  C   UNL     1       0.274   0.485  18.094  1.00  0.00     0.040 A 
ATOM     86  F   UNL     1       2.117  -0.171  16.840  1.00  0.00    -0.206 F 
ATOM     87  C   UNL     1      -0.290   0.935  19.280  1.00  0.00     0.006 A 
ENDBRANCH  59  80
BRANCH  71  88
ATOM     88  C   UNL     1       8.197  -0.422  21.660  1.00  0.00     0.057 A 
ATOM     89  C   UNL     1       7.731  -1.657  21.185  1.00  0.00     0.134 A 
ATOM     90  C   UNL     1       8.921  -0.435  22.858  1.00  0.00     0.134 A 
ATOM     91  F   UNL     1       7.128  -1.758  19.992  1.00  0.00    -0.206 F 
ATOM     92  C   UNL     1       7.920  -2.840  21.905  1.00  0.00     0.040 A 
ATOM     93  C   UNL     1       9.148  -1.616  23.569  1.00  0.00     0.040 A 
ATOM     94  F   UNL     1       9.454   0.699  23.340  1.00  0.00    -0.206 F 
ATOM     95  C   UNL     1       8.633  -2.822  23.100  1.00  0.00     0.006 A 
ENDBRANCH  71  88
ENDBRANCH  45  46
ENDBRANCH  38  40
ENDBRANCH  37  38
ENDBRANCH  36  37
ENDBRANCH  35  36
ENDBRANCH  34  35
ENDBRANCH  33  34
ENDBRANCH  32  33
ENDBRANCH  31  32
ENDBRANCH   1  31
TORSDOF 23
