REMARK SMILES O=C(NC(C1CC1)C1CC1)N[C@H]1CCCCC[C@H]1C(=O)OCCOCCOCCOCCOC(=O)c1ccc(-c2c3nc(c(-c4c(F)cccc4F)c4ccc([nH]4)c(-c4c(F)cccc4F)c4nc(c(-c5c(F)cccc5F)c5ccc2[nH]5)C=C4)C=C3)cc1
REMARK SMILES IDX 26 1 25 2 24 3 23 4 22 5 21 6 19 7 20 8 18 9 12 10 11 11
REMARK SMILES IDX 1 12 2 13 3 14 4 17 5 18 6 19 7 20 8 21 9 22 10 23 13 24
REMARK SMILES IDX 14 25 17 27 16 28 15 29 27 31 28 32 29 33 30 34 31 35 32 36
REMARK SMILES IDX 33 37 34 38 35 39 36 40 37 41 89 42 38 43 88 44 39 45 40 46
REMARK SMILES IDX 41 47 82 48 42 49 87 50 81 51 83 52 43 53 86 54 80 55 79 56
REMARK SMILES IDX 44 58 70 59 53 60 69 61 54 62 57 63 68 64 84 65 55 66 56 67
REMARK SMILES IDX 67 69 85 70 58 71 45 72 46 73 51 74 47 75 48 76 50 77 52 78
REMARK SMILES IDX 49 79 71 80 72 81 77 82 73 83 74 84 76 85 78 86 75 87 59 88
REMARK SMILES IDX 60 89 65 90 61 91 62 92 64 93 66 94 63 95
REMARK H PARENT 3 15 11 16 83 57 57 68
REMARK Flexibility Score: 100.00
ROOT
ATOM      1  C   UNL     1       0.771  -0.572   2.263  1.00  0.00     0.188 C 
ENDROOT
BRANCH   1   2
ATOM      2  C   UNL     1      -0.221  -1.847   1.283  1.00  0.00     0.188 C 
BRANCH   2   3
ATOM      3  O   UNL     1      -1.488  -2.556   1.625  1.00  0.00    -0.376 OA
BRANCH   3   4
ATOM      4  C   UNL     1      -1.870  -3.851   2.229  1.00  0.00     0.202 C 
BRANCH   4   5
ATOM      5  C   UNL     1      -1.026  -5.090   2.658  1.00  0.00     0.261 C 
BRANCH   5   6
ATOM      6  O   UNL     1       0.357  -4.871   2.715  1.00  0.00    -0.463 OA
BRANCH   6   7
ATOM      7  C   UNL     1       0.880  -4.790   1.486  1.00  0.00     0.311 C 
ATOM      8  O   UNL     1       0.385  -5.243   0.461  1.00  0.00    -0.252 OA
BRANCH   7   9
ATOM      9  C   UNL     1       2.143  -4.005   1.513  1.00  0.00     0.121 C 
BRANCH   9  10
ATOM     10  C   UNL     1       2.258  -2.902   2.591  1.00  0.00     0.098 C 
BRANCH  10  11
ATOM     11  N   UNL     1       1.081  -2.417   3.548  1.00  0.00    -0.335 N 
ATOM     12  O   UNL     1      -0.946  -2.924   4.514  1.00  0.00    -0.249 OA
ATOM     13  C   UNL     1      -0.410  -2.155   3.689  1.00  0.00     0.315 C 
ATOM     14  N   UNL     1      -0.983  -0.451   3.336  1.00  0.00    -0.335 N 
ATOM     15  H   UNL     1      -0.615  -0.146   2.474  1.00  0.00     0.165 HD
ATOM     16  H   UNL     1       1.493  -2.191   4.413  1.00  0.00     0.165 HD
BRANCH  14  17
ATOM     17  C   UNL     1      -2.140   1.021   4.157  1.00  0.00     0.090 C 
BRANCH  17  18
ATOM     18  C   UNL     1      -3.469   1.914   3.289  1.00  0.00     0.012 C 
ATOM     19  C   UNL     1      -4.070   1.848   1.835  1.00  0.00     0.006 C 
ATOM     20  C   UNL     1      -4.843   1.296   2.979  1.00  0.00     0.006 C 
ENDBRANCH  17  18
BRANCH  17  21
ATOM     21  C   UNL     1      -2.482   1.493   5.671  1.00  0.00     0.012 C 
ATOM     22  C   UNL     1      -3.957   1.852   5.945  1.00  0.00     0.006 C 
ATOM     23  C   UNL     1      -3.241   0.984   6.892  1.00  0.00     0.006 C 
ENDBRANCH  17  21
ENDBRANCH  14  17
ENDBRANCH  10  11
BRANCH  10  24
ATOM     24  C   UNL     1       3.579  -2.915   3.385  1.00  0.00     0.026 C 
BRANCH  24  25
ATOM     25  C   UNL     1       3.610  -4.040   4.387  1.00  0.00     0.002 CG0
ATOM     26  G   UNL     1       4.053  -5.387   3.828  1.00  0.00     0.000 G0
ENDBRANCH  24  25
ENDBRANCH  10  24
ENDBRANCH   9  10
BRANCH   9  27
ATOM     27  C   UNL     1       3.337  -4.935   1.339  1.00  0.00     0.017 C 
BRANCH  27  28
ATOM     28  C   UNL     1       3.527  -5.909   2.490  1.00  0.00     0.001 C 
BRANCH  28  29
ATOM     29  C   UNL     1       4.053  -5.387   3.828  1.00  0.00     0.000 CG0
ATOM     30  G   UNL     1       3.610  -4.040   4.387  1.00  0.00     0.000 G0
ENDBRANCH  28  29
ENDBRANCH  27  28
ENDBRANCH   9  27
ENDBRANCH   7   9
ENDBRANCH   6   7
ENDBRANCH   5   6
ENDBRANCH   4   5
ENDBRANCH   3   4
ENDBRANCH   2   3
ENDBRANCH   1   2
BRANCH   1  31
ATOM     31  O   UNL     1       0.794  -0.368   4.092  1.00  0.00    -0.377 OA
BRANCH  31  32
ATOM     32  C   UNL     1      -0.729  -0.654   5.176  1.00  0.00     0.188 C 
BRANCH  32  33
ATOM     33  C   UNL     1      -2.525  -0.965   4.282  1.00  0.00     0.188 C 
BRANCH  33  34
ATOM     34  O   UNL     1      -2.636  -0.073   2.582  1.00  0.00    -0.376 OA
BRANCH  34  35
ATOM     35  C   UNL     1      -1.365   1.256   2.108  1.00  0.00     0.202 C 
BRANCH  35  36
ATOM     36  C   UNL     1      -0.001   2.167   3.126  1.00  0.00     0.261 C 
BRANCH  36  37
ATOM     37  O   UNL     1       0.490   1.780   4.679  1.00  0.00    -0.460 OA
BRANCH  37  38
ATOM     38  C   UNL     1       0.544   2.381   5.944  1.00  0.00     0.338 C 
ATOM     39  O   UNL     1       0.313   3.576   6.097  1.00  0.00    -0.246 OA
BRANCH  38  40
ATOM     40  C   UNL     1       0.757   1.480   7.295  1.00  0.00     0.060 A 
ATOM     41  C   UNL     1      -0.195   0.571   7.825  1.00  0.00     0.016 A 
ATOM     42  C   UNL     1       1.769   1.745   8.229  1.00  0.00     0.016 A 
ATOM     43  C   UNL     1      -0.149  -0.104   9.073  1.00  0.00     0.010 A 
ATOM     44  C   UNL     1       1.827   1.094   9.526  1.00  0.00     0.010 A 
ATOM     45  C   UNL     1       0.868   0.157   9.965  1.00  0.00    -0.014 A 
BRANCH  45  46
ATOM     46  C   UNL     1       0.814  -0.417  11.357  1.00  0.00     0.031 A 
ATOM     47  C   UNL     1       0.463   0.488  12.515  1.00  0.00     0.074 A 
ATOM     48  C   UNL     1       1.001  -1.732  11.611  1.00  0.00     0.049 A 
ATOM     49  N   UNL     1       0.565   0.289  13.806  1.00  0.00    -0.248 NA
ATOM     50  C   UNL     1      -0.079   1.805  12.154  1.00  0.00     0.031 C 
ATOM     51  C   UNL     1       1.180  -2.772  10.598  1.00  0.00     0.029 A 
ATOM     52  N   UNL     1       1.091  -2.421  12.804  1.00  0.00    -0.354 N 
ATOM     53  C   UNL     1       0.166   1.481  14.409  1.00  0.00     0.074 A 
ATOM     54  C   UNL     1      -0.187   2.389  13.338  1.00  0.00     0.031 C 
ATOM     55  C   UNL     1       1.396  -3.952  11.207  1.00  0.00     0.029 A 
ATOM     56  C   UNL     1       1.432  -3.748  12.652  1.00  0.00     0.049 A 
ATOM     57  H   UNL     1       0.927  -2.003  13.680  1.00  0.00     0.167 HD
ATOM     58  C   UNL     1       0.119   1.793  15.730  1.00  0.00     0.037 A 
ATOM     59  C   UNL     1       1.784  -4.677  13.566  1.00  0.00     0.037 A 
ATOM     60  C   UNL     1       0.464   0.871  16.785  1.00  0.00     0.049 A 
ATOM     61  C   UNL     1       1.839  -4.285  15.022  1.00  0.00     0.074 A 
ATOM     62  C   UNL     1       0.478   1.079  18.154  1.00  0.00     0.029 A 
ATOM     63  N   UNL     1       0.859  -0.445  16.582  1.00  0.00    -0.354 N 
ATOM     64  N   UNL     1       1.542  -3.136  15.582  1.00  0.00    -0.248 NA
ATOM     65  C   UNL     1       2.286  -5.315  15.972  1.00  0.00     0.031 C 
ATOM     66  C   UNL     1       0.941  -0.089  18.771  1.00  0.00     0.029 A 
ATOM     67  C   UNL     1       1.143  -1.052  17.795  1.00  0.00     0.049 A 
ATOM     68  H   UNL     1       0.927  -0.884  15.703  1.00  0.00     0.167 HD
ATOM     69  C   UNL     1       1.728  -3.314  16.948  1.00  0.00     0.074 A 
ATOM     70  C   UNL     1       2.152  -4.688  17.132  1.00  0.00     0.031 C 
ATOM     71  C   UNL     1       1.559  -2.425  17.959  1.00  0.00     0.037 A 
BRANCH  58  72
ATOM     72  C   UNL     1      -0.242   3.212  16.094  1.00  0.00     0.057 A 
ATOM     73  C   UNL     1      -1.518   3.750  15.873  1.00  0.00     0.134 A 
ATOM     74  C   UNL     1       0.718   4.066  16.657  1.00  0.00     0.134 A 
ATOM     75  F   UNL     1      -2.488   2.998  15.330  1.00  0.00    -0.206 F 
ATOM     76  C   UNL     1      -1.807   5.091  16.143  1.00  0.00     0.040 A 
ATOM     77  C   UNL     1       0.430   5.398  16.966  1.00  0.00     0.040 A 
ATOM     78  F   UNL     1       1.958   3.624  16.914  1.00  0.00    -0.206 F 
ATOM     79  C   UNL     1      -0.831   5.919  16.692  1.00  0.00     0.006 A 
ENDBRANCH  58  72
BRANCH  59  80
ATOM     80  C   UNL     1       2.146  -6.062  13.144  1.00  0.00     0.057 A 
ATOM     81  C   UNL     1       1.360  -7.162  13.513  1.00  0.00     0.134 A 
ATOM     82  C   UNL     1       3.290  -6.328  12.379  1.00  0.00     0.134 A 
ATOM     83  F   UNL     1       0.270  -6.986  14.275  1.00  0.00    -0.206 F 
ATOM     84  C   UNL     1       1.696  -8.467  13.144  1.00  0.00     0.040 A 
ATOM     85  C   UNL     1       3.623  -7.625  11.977  1.00  0.00     0.040 A 
ATOM     86  F   UNL     1       4.100  -5.329  12.000  1.00  0.00    -0.206 F 
ATOM     87  C   UNL     1       2.827  -8.701  12.364  1.00  0.00     0.006 A 
ENDBRANCH  59  80
BRANCH  71  88
ATOM     88  C   UNL     1       1.771  -2.935  19.358  1.00  0.00     0.057 A 
ATOM     89  C   UNL     1       3.037  -3.291  19.843  1.00  0.00     0.134 A 
ATOM     90  C   UNL     1       0.686  -3.065  20.235  1.00  0.00     0.134 A 
ATOM     91  F   UNL     1       4.118  -3.204  19.053  1.00  0.00    -0.206 F 
ATOM     92  C   UNL     1       3.208  -3.798  21.133  1.00  0.00     0.040 A 
ATOM     93  C   UNL     1       0.850  -3.534  21.538  1.00  0.00     0.040 A 
ATOM     94  F   UNL     1      -0.553  -2.731  19.841  1.00  0.00    -0.206 F 
ATOM     95  C   UNL     1       2.112  -3.915  21.986  1.00  0.00     0.006 A 
ENDBRANCH  71  88
ENDBRANCH  45  46
ENDBRANCH  38  40
ENDBRANCH  37  38
ENDBRANCH  36  37
ENDBRANCH  35  36
ENDBRANCH  34  35
ENDBRANCH  33  34
ENDBRANCH  32  33
ENDBRANCH  31  32
ENDBRANCH   1  31
TORSDOF 24
