REMARK SMILES O=C(OCCOCCOCCOCCOC(=O)c1cc2cnc(Cl)cc2[nH]1)c1ccc(-c2c3nc(c(-c4c(F)cccc4F)c4ccc([nH]4)c(-c4c(F)cccc4F)c4nc(c(-c5c(F)cccc5F)c5ccc2[nH]5)C=C4)C=C3)cc1
REMARK SMILES IDX 8 1 7 2 6 3 5 4 4 5 3 6 2 7 1 8 28 9 29 10 81 11 30 12 80 13
REMARK SMILES IDX 31 14 32 15 33 16 74 17 34 18 79 19 73 20 75 21 35 22 78 23
REMARK SMILES IDX 72 24 71 25 36 27 62 28 45 29 61 30 46 31 49 32 60 33 76 34
REMARK SMILES IDX 47 35 48 36 59 38 77 39 50 40 37 41 38 42 43 43 39 44 40 45
REMARK SMILES IDX 42 46 44 47 41 48 63 49 64 50 69 51 65 52 66 53 68 54 70 55
REMARK SMILES IDX 67 56 51 57 52 58 57 59 53 60 54 61 56 62 58 63 55 64 9 65
REMARK SMILES IDX 10 66 11 67 12 68 13 69 14 70 15 71 16 72 17 73 18 74 19 75
REMARK SMILES IDX 27 76 20 77 26 78 21 80 25 81 22 82 23 83 24 84
REMARK H PARENT 75 26 49 37 27 79
REMARK Flexibility Score: inf
ROOT
ATOM      1  C   UNL     1       1.123   2.088   0.689  1.00  0.00     0.188 C 
ENDROOT
BRANCH   1   2
ATOM      2  C   UNL     1       1.924   0.945   0.065  1.00  0.00     0.188 C 
BRANCH   2   3
ATOM      3  O   UNL     1       3.319   1.054   0.285  1.00  0.00    -0.376 OA
BRANCH   3   4
ATOM      4  C   UNL     1       4.167   1.037  -0.845  1.00  0.00     0.202 C 
BRANCH   4   5
ATOM      5  C   UNL     1       4.110  -0.223  -1.706  1.00  0.00     0.261 C 
BRANCH   5   6
ATOM      6  O   UNL     1       3.603  -1.476  -1.166  1.00  0.00    -0.460 OA
BRANCH   6   7
ATOM      7  C   UNL     1       3.537  -1.950   0.102  1.00  0.00     0.338 C 
ATOM      8  O   UNL     1       2.728  -2.817   0.412  1.00  0.00    -0.246 OA
BRANCH   7   9
ATOM      9  C   UNL     1       4.419  -1.351   1.122  1.00  0.00     0.060 A 
ATOM     10  C   UNL     1       3.874  -1.018   2.369  1.00  0.00     0.016 A 
ATOM     11  C   UNL     1       5.719  -0.974   0.795  1.00  0.00     0.016 A 
ATOM     12  C   UNL     1       4.577  -0.160   3.217  1.00  0.00     0.010 A 
ATOM     13  C   UNL     1       6.375  -0.047   1.600  1.00  0.00     0.010 A 
ATOM     14  C   UNL     1       5.803   0.389   2.807  1.00  0.00    -0.014 A 
BRANCH  14  15
ATOM     15  C   UNL     1       6.711   0.984   3.810  1.00  0.00     0.031 A 
ATOM     16  C   UNL     1       7.328  -0.114   4.559  1.00  0.00     0.074 A 
ATOM     17  C   UNL     1       7.068   2.264   4.071  1.00  0.00     0.049 A 
ATOM     18  N   UNL     1       6.941  -0.493   5.731  1.00  0.00    -0.248 NA
ATOM     19  C   UNL     1       8.253  -1.041   3.887  1.00  0.00     0.031 C 
ATOM     20  C   UNL     1       6.525   3.428   3.426  1.00  0.00     0.029 A 
ATOM     21  N   UNL     1       7.979   2.841   4.940  1.00  0.00    -0.354 N 
ATOM     22  C   UNL     1       7.858  -1.465   6.068  1.00  0.00     0.074 A 
ATOM     23  C   UNL     1       8.415  -1.963   4.838  1.00  0.00     0.031 C 
ATOM     24  C   UNL     1       7.231   4.537   3.689  1.00  0.00     0.029 A 
ATOM     25  C   UNL     1       8.236   4.195   4.659  1.00  0.00     0.049 A 
ATOM     26  H   UNL     1       8.404   2.351   5.681  1.00  0.00     0.167 HD
ATOM     27  C   UNL     1       8.449  -1.368   7.283  1.00  0.00     0.037 A 
ATOM     28  C   UNL     1       9.013   5.129   5.264  1.00  0.00     0.037 A 
ATOM     29  C   UNL     1       7.690  -0.551   8.193  1.00  0.00     0.049 A 
ATOM     30  C   UNL     1       9.134   4.714   6.669  1.00  0.00     0.074 A 
ATOM     31  C   UNL     1       6.462  -0.642   8.812  1.00  0.00     0.029 A 
ATOM     32  N   UNL     1       8.058   0.767   8.212  1.00  0.00    -0.354 N 
ATOM     33  N   UNL     1       8.154   4.811   7.525  1.00  0.00    -0.248 NA
ATOM     34  C   UNL     1      10.217   3.816   7.041  1.00  0.00     0.031 C 
ATOM     35  C   UNL     1       6.086   0.682   9.170  1.00  0.00     0.029 A 
ATOM     36  C   UNL     1       7.104   1.555   8.797  1.00  0.00     0.049 A 
ATOM     37  H   UNL     1       8.908   1.108   7.849  1.00  0.00     0.167 HD
ATOM     38  C   UNL     1       8.274   3.666   8.283  1.00  0.00     0.074 A 
ATOM     39  C   UNL     1       9.634   3.189   8.064  1.00  0.00     0.031 C 
ATOM     40  C   UNL     1       7.170   2.997   8.712  1.00  0.00     0.037 A 
BRANCH  27  41
ATOM     41  C   UNL     1       9.930  -1.540   7.431  1.00  0.00     0.057 A 
ATOM     42  C   UNL     1      10.456  -1.887   8.676  1.00  0.00     0.134 A 
ATOM     43  C   UNL     1      10.869  -1.131   6.457  1.00  0.00     0.134 A 
ATOM     44  F   UNL     1       9.643  -2.190   9.698  1.00  0.00    -0.206 F 
ATOM     45  C   UNL     1      11.832  -1.864   8.923  1.00  0.00     0.040 A 
ATOM     46  C   UNL     1      12.243  -1.175   6.666  1.00  0.00     0.040 A 
ATOM     47  F   UNL     1      10.497  -0.566   5.301  1.00  0.00    -0.206 F 
ATOM     48  C   UNL     1      12.730  -1.530   7.912  1.00  0.00     0.006 A 
ENDBRANCH  27  41
BRANCH  28  49
ATOM     49  C   UNL     1       9.623   6.373   4.715  1.00  0.00     0.057 A 
ATOM     50  C   UNL     1      10.266   7.303   5.550  1.00  0.00     0.134 A 
ATOM     51  C   UNL     1       9.832   6.561   3.333  1.00  0.00     0.134 A 
ATOM     52  F   UNL     1      10.141   7.226   6.882  1.00  0.00    -0.206 F 
ATOM     53  C   UNL     1      11.118   8.300   5.052  1.00  0.00     0.040 A 
ATOM     54  C   UNL     1      10.673   7.559   2.823  1.00  0.00     0.040 A 
ATOM     55  F   UNL     1       9.286   5.737   2.427  1.00  0.00    -0.206 F 
ATOM     56  C   UNL     1      11.344   8.416   3.685  1.00  0.00     0.006 A 
ENDBRANCH  28  49
BRANCH  40  57
ATOM     57  C   UNL     1       5.919   3.769   8.982  1.00  0.00     0.057 A 
ATOM     58  C   UNL     1       5.109   4.356   8.004  1.00  0.00     0.134 A 
ATOM     59  C   UNL     1       5.451   3.792  10.304  1.00  0.00     0.134 A 
ATOM     60  F   UNL     1       5.445   4.307   6.707  1.00  0.00    -0.206 F 
ATOM     61  C   UNL     1       3.887   4.952   8.339  1.00  0.00     0.040 A 
ATOM     62  C   UNL     1       4.217   4.344  10.643  1.00  0.00     0.040 A 
ATOM     63  F   UNL     1       6.168   3.218  11.284  1.00  0.00    -0.206 F 
ATOM     64  C   UNL     1       3.431   4.932   9.658  1.00  0.00     0.006 A 
ENDBRANCH  40  57
ENDBRANCH  14  15
ENDBRANCH   7   9
ENDBRANCH   6   7
ENDBRANCH   5   6
ENDBRANCH   4   5
ENDBRANCH   3   4
ENDBRANCH   2   3
ENDBRANCH   1   2
BRANCH   1  65
ATOM     65  O   UNL     1       1.525   3.403   0.335  1.00  0.00    -0.377 OA
BRANCH  65  66
ATOM     66  C   UNL     1       2.858   3.785   0.626  1.00  0.00     0.188 C 
BRANCH  66  67
ATOM     67  C   UNL     1       3.580   3.237   1.861  1.00  0.00     0.188 C 
BRANCH  67  68
ATOM     68  O   UNL     1       2.829   2.494   2.803  1.00  0.00    -0.376 OA
BRANCH  68  69
ATOM     69  C   UNL     1       2.834   2.962   4.149  1.00  0.00     0.202 C 
BRANCH  69  70
ATOM     70  C   UNL     1       2.093   4.293   4.328  1.00  0.00     0.261 C 
BRANCH  70  71
ATOM     71  O   UNL     1       2.555   5.314   3.418  1.00  0.00    -0.459 OA
BRANCH  71  72
ATOM     72  C   UNL     1       3.557   6.148   3.811  1.00  0.00     0.354 C 
ATOM     73  O   UNL     1       3.937   6.309   4.947  1.00  0.00    -0.244 OA
BRANCH  72  74
ATOM     74  C   UNL     1       4.097   6.783   2.621  1.00  0.00     0.126 A 
ATOM     75  C   UNL     1       5.048   6.326   1.721  1.00  0.00     0.045 A 
ATOM     76  N   UNL     1       3.675   7.998   2.135  1.00  0.00    -0.349 N 
ATOM     77  C   UNL     1       5.109   7.200   0.616  1.00  0.00     0.019 A 
ATOM     78  C   UNL     1       4.231   8.242   0.896  1.00  0.00     0.051 A 
ATOM     79  H   UNL     1       3.061   8.608   2.604  1.00  0.00     0.167 HD
ATOM     80  C   UNL     1       5.801   7.182  -0.601  1.00  0.00     0.123 A 
ATOM     81  C   UNL     1       4.029   9.277  -0.012  1.00  0.00     0.067 A 
ATOM     82  N   UNL     1       5.610   8.167  -1.506  1.00  0.00    -0.244 NA
ATOM     83  C   UNL     1       4.750   9.161  -1.194  1.00  0.00     0.131 A 
ATOM     84  Cl  UNL     1       4.576  10.342  -2.428  1.00  0.00    -0.062 Cl
ENDBRANCH  72  74
ENDBRANCH  71  72
ENDBRANCH  70  71
ENDBRANCH  69  70
ENDBRANCH  68  69
ENDBRANCH  67  68
ENDBRANCH  66  67
ENDBRANCH  65  66
ENDBRANCH   1  65
TORSDOF 20
