REMARK SMILES O=C(OCCOCCOCCOCCOC(=O)[C@H]1CC2=c3ccccc3=N[C@H]2[C@@H](c2ccccc2)[NH2+]1)c1ccc(-c2c3nc(c(-c4c(F)cccc4F)c4ccc([nH]4)c(-c4c(F)cccc4F)c4nc(c(-c5c(F)cccc5F)c5ccc2[nH]5)C=C4)C=C3)cc1
REMARK SMILES IDX 8 1 7 2 6 3 5 4 4 5 3 6 2 7 1 8 37 9 38 10 90 11 39 12 89 13
REMARK SMILES IDX 40 14 41 15 42 16 83 17 43 18 88 19 82 20 84 21 44 22 87 23
REMARK SMILES IDX 81 24 80 25 45 27 71 28 54 29 70 30 55 31 58 32 69 33 85 34
REMARK SMILES IDX 56 35 57 36 68 38 86 39 59 40 46 41 47 42 52 43 48 44 49 45
REMARK SMILES IDX 51 46 53 47 50 48 72 49 73 50 78 51 74 52 75 53 77 54 79 55
REMARK SMILES IDX 76 56 60 57 61 58 66 59 62 60 63 61 65 62 67 63 64 64 9 65
REMARK SMILES IDX 10 66 11 67 12 68 13 69 14 70 15 71 16 72 17 73 18 74 19 75
REMARK SMILES IDX 36 76 20 77 29 78 21 81 28 82 22 83 26 84 27 85 23 86 25 87
REMARK SMILES IDX 24 88 30 89 31 90 35 91 32 92 34 93 33 94
REMARK H PARENT 84 26 58 37 36 79 36 80
REMARK Flexibility Score: inf
ROOT
ATOM      1  C   UNL     1       2.397   0.701   2.725  1.00  0.00     0.188 C 
ENDROOT
BRANCH   1   2
ATOM      2  C   UNL     1       2.631   0.889   1.224  1.00  0.00     0.188 C 
BRANCH   2   3
ATOM      3  O   UNL     1       3.850   0.271   0.801  1.00  0.00    -0.376 OA
BRANCH   3   4
ATOM      4  C   UNL     1       4.736   1.166   0.126  1.00  0.00     0.202 C 
BRANCH   4   5
ATOM      5  C   UNL     1       4.519   1.222  -1.384  1.00  0.00     0.261 C 
BRANCH   5   6
ATOM      6  O   UNL     1       3.159   0.983  -1.769  1.00  0.00    -0.460 OA
BRANCH   6   7
ATOM      7  C   UNL     1       2.518  -0.195  -1.958  1.00  0.00     0.338 C 
ATOM      8  O   UNL     1       1.364  -0.141  -2.389  1.00  0.00    -0.246 OA
BRANCH   7   9
ATOM      9  C   UNL     1       3.080  -1.564  -1.669  1.00  0.00     0.060 A 
ATOM     10  C   UNL     1       2.226  -2.655  -1.935  1.00  0.00     0.016 A 
ATOM     11  C   UNL     1       4.347  -1.861  -1.160  1.00  0.00     0.016 A 
ATOM     12  C   UNL     1       2.632  -3.979  -1.728  1.00  0.00     0.010 A 
ATOM     13  C   UNL     1       4.758  -3.175  -0.933  1.00  0.00     0.010 A 
ATOM     14  C   UNL     1       3.913  -4.239  -1.242  1.00  0.00    -0.014 A 
BRANCH  14  15
ATOM     15  C   UNL     1       4.485  -5.598  -1.247  1.00  0.00     0.031 A 
ATOM     16  C   UNL     1       4.569  -6.420  -0.004  1.00  0.00     0.074 A 
ATOM     17  C   UNL     1       5.069  -5.997  -2.391  1.00  0.00     0.049 A 
ATOM     18  N   UNL     1       5.028  -7.635   0.144  1.00  0.00    -0.248 NA
ATOM     19  C   UNL     1       4.100  -5.792   1.240  1.00  0.00     0.031 C 
ATOM     20  C   UNL     1       5.133  -5.198  -3.620  1.00  0.00     0.029 A 
ATOM     21  N   UNL     1       5.752  -7.140  -2.699  1.00  0.00    -0.354 N 
ATOM     22  C   UNL     1       4.880  -7.934   1.491  1.00  0.00     0.074 A 
ATOM     23  C   UNL     1       4.340  -6.749   2.127  1.00  0.00     0.031 C 
ATOM     24  C   UNL     1       5.837  -5.868  -4.542  1.00  0.00     0.029 A 
ATOM     25  C   UNL     1       6.256  -7.143  -3.975  1.00  0.00     0.049 A 
ATOM     26  H   UNL     1       5.870  -7.886  -2.068  1.00  0.00     0.167 HD
ATOM     27  C   UNL     1       5.160  -9.101   2.122  1.00  0.00     0.037 A 
ATOM     28  C   UNL     1       6.965  -8.084  -4.620  1.00  0.00     0.037 A 
ATOM     29  C   UNL     1       5.743 -10.243   1.460  1.00  0.00     0.049 A 
ATOM     30  C   UNL     1       7.232  -9.377  -3.916  1.00  0.00     0.074 A 
ATOM     31  C   UNL     1       6.000 -11.505   1.967  1.00  0.00     0.029 A 
ATOM     32  N   UNL     1       6.187 -10.247   0.143  1.00  0.00    -0.354 N 
ATOM     33  N   UNL     1       6.948  -9.714  -2.680  1.00  0.00    -0.248 NA
ATOM     34  C   UNL     1       7.881 -10.432  -4.701  1.00  0.00     0.031 C 
ATOM     35  C   UNL     1       6.635 -12.257   0.970  1.00  0.00     0.029 A 
ATOM     36  C   UNL     1       6.737 -11.479  -0.173  1.00  0.00     0.049 A 
ATOM     37  H   UNL     1       6.120  -9.485  -0.476  1.00  0.00     0.167 HD
ATOM     38  C   UNL     1       7.360 -11.030  -2.542  1.00  0.00     0.074 A 
ATOM     39  C   UNL     1       7.902 -11.431  -3.828  1.00  0.00     0.031 C 
ATOM     40  C   UNL     1       7.290 -11.838  -1.456  1.00  0.00     0.037 A 
BRANCH  27  41
ATOM     41  C   UNL     1       4.832  -9.196   3.585  1.00  0.00     0.057 A 
ATOM     42  C   UNL     1       5.840  -9.314   4.550  1.00  0.00     0.134 A 
ATOM     43  C   UNL     1       3.505  -9.203   4.041  1.00  0.00     0.134 A 
ATOM     44  F   UNL     1       7.132  -9.323   4.190  1.00  0.00    -0.206 F 
ATOM     45  C   UNL     1       5.542  -9.430   5.911  1.00  0.00     0.040 A 
ATOM     46  C   UNL     1       3.195  -9.294   5.400  1.00  0.00     0.040 A 
ATOM     47  F   UNL     1       2.488  -9.089   3.174  1.00  0.00    -0.206 F 
ATOM     48  C   UNL     1       4.216  -9.413   6.340  1.00  0.00     0.006 A 
ENDBRANCH  27  41
BRANCH  28  49
ATOM     49  C   UNL     1       7.359  -7.852  -6.028  1.00  0.00     0.057 A 
ATOM     50  C   UNL     1       8.377  -6.953  -6.366  1.00  0.00     0.134 A 
ATOM     51  C   UNL     1       6.660  -8.463  -7.074  1.00  0.00     0.134 A 
ATOM     52  F   UNL     1       9.066  -6.317  -5.406  1.00  0.00    -0.206 F 
ATOM     53  C   UNL     1       8.680  -6.662  -7.697  1.00  0.00     0.040 A 
ATOM     54  C   UNL     1       6.964  -8.195  -8.409  1.00  0.00     0.040 A 
ATOM     55  F   UNL     1       5.674  -9.332  -6.808  1.00  0.00    -0.206 F 
ATOM     56  C   UNL     1       7.972  -7.286  -8.723  1.00  0.00     0.006 A 
ENDBRANCH  28  49
BRANCH  40  57
ATOM     57  C   UNL     1       7.812 -13.231  -1.634  1.00  0.00     0.057 A 
ATOM     58  C   UNL     1       6.932 -14.316  -1.730  1.00  0.00     0.134 A 
ATOM     59  C   UNL     1       9.184 -13.495  -1.720  1.00  0.00     0.134 A 
ATOM     60  F   UNL     1       5.606 -14.127  -1.652  1.00  0.00    -0.206 F 
ATOM     61  C   UNL     1       7.400 -15.617  -1.912  1.00  0.00     0.040 A 
ATOM     62  C   UNL     1       9.663 -14.789  -1.926  1.00  0.00     0.040 A 
ATOM     63  F   UNL     1      10.075 -12.494  -1.654  1.00  0.00    -0.206 F 
ATOM     64  C   UNL     1       8.769 -15.855  -2.019  1.00  0.00     0.006 A 
ENDBRANCH  40  57
ENDBRANCH  14  15
ENDBRANCH   7   9
ENDBRANCH   6   7
ENDBRANCH   5   6
ENDBRANCH   4   5
ENDBRANCH   3   4
ENDBRANCH   2   3
ENDBRANCH   1   2
BRANCH   1  65
ATOM     65  O   UNL     1       3.324   1.373   3.584  1.00  0.00    -0.377 OA
BRANCH  65  66
ATOM     66  C   UNL     1       4.691   0.952   3.539  1.00  0.00     0.188 C 
BRANCH  66  67
ATOM     67  C   UNL     1       5.042  -0.436   4.112  1.00  0.00     0.188 C 
BRANCH  67  68
ATOM     68  O   UNL     1       4.222  -1.454   3.570  1.00  0.00    -0.376 OA
BRANCH  68  69
ATOM     69  C   UNL     1       3.446  -2.273   4.441  1.00  0.00     0.202 C 
BRANCH  69  70
ATOM     70  C   UNL     1       2.955  -1.774   5.817  1.00  0.00     0.261 C 
BRANCH  70  71
ATOM     71  O   UNL     1       2.786  -0.355   5.890  1.00  0.00    -0.459 OA
BRANCH  71  72
ATOM     72  C   UNL     1       3.177   0.196   7.082  1.00  0.00     0.365 C 
ATOM     73  O   UNL     1       3.219  -0.400   8.147  1.00  0.00    -0.245 OA
BRANCH  72  74
ATOM     74  C   UNL     1       3.729   1.609   6.864  1.00  0.00     0.298 C 
ATOM     75  C   UNL     1       2.636   2.699   6.897  1.00  0.00     0.111 C 
ATOM     76  N   UNL     1       4.976   1.802   7.670  1.00  0.00    -0.326 N 
ATOM     77  C   UNL     1       3.263   4.058   6.796  1.00  0.00    -0.024 C 
ATOM     78  C   UNL     1       5.233   3.215   8.055  1.00  0.00     0.243 C 
ATOM     79  H   UNL     1       5.768   1.470   7.120  1.00  0.00     0.347 HD
ATOM     80  H   UNL     1       4.852   1.277   8.536  1.00  0.00     0.347 HD
ATOM     81  C   UNL     1       2.744   5.279   6.863  1.00  0.00     0.002 A 
ATOM     82  C   UNL     1       4.764   4.120   6.864  1.00  0.00     0.196 C 
ATOM     83  C   UNL     1       1.431   5.818   6.978  1.00  0.00     0.010 A 
ATOM     84  C   UNL     1       3.945   6.135   6.955  1.00  0.00     0.066 A 
ATOM     85  N   UNL     1       5.112   5.561   6.974  1.00  0.00    -0.270 NA
ATOM     86  C   UNL     1       1.294   7.146   7.131  1.00  0.00     0.001 A 
ATOM     87  C   UNL     1       3.711   7.588   7.073  1.00  0.00     0.028 A 
ATOM     88  C   UNL     1       2.447   8.034   7.162  1.00  0.00     0.002 A 
BRANCH  78  89
ATOM     89  C   UNL     1       4.627   3.584   9.426  1.00  0.00     0.012 A 
ATOM     90  C   UNL     1       3.844   2.700  10.193  1.00  0.00     0.010 A 
ATOM     91  C   UNL     1       4.829   4.875   9.946  1.00  0.00     0.010 A 
ATOM     92  C   UNL     1       3.243   3.108  11.387  1.00  0.00     0.001 A 
ATOM     93  C   UNL     1       4.204   5.293  11.123  1.00  0.00     0.001 A 
ATOM     94  C   UNL     1       3.406   4.410  11.841  1.00  0.00     0.000 A 
ENDBRANCH  78  89
ENDBRANCH  72  74
ENDBRANCH  71  72
ENDBRANCH  70  71
ENDBRANCH  69  70
ENDBRANCH  68  69
ENDBRANCH  67  68
ENDBRANCH  66  67
ENDBRANCH  65  66
ENDBRANCH   1  65
TORSDOF 21
