REMARK SMILES Cc1ccccc1OCC(=O)N[C@@H](Cc1c[nH]c2ccccc12)C(=O)OCCOCCOCCOCCOC(=O)c1ccc(-c2c3nc(c(-c4c(F)cccc4F)c4ccc([nH]4)c(-c4c(F)cccc4F)c4nc(c(-c5c(F)cccc5F)c5ccc2[nH]5)C=C4)C=C3)cc1
REMARK SMILES IDX 31 1 30 2 29 3 28 4 27 5 26 6 24 7 25 8 13 9 12 10 10 11
REMARK SMILES IDX 11 12 9 14 8 15 7 16 1 17 2 18 3 19 4 20 6 21 5 22 14 23
REMARK SMILES IDX 15 24 16 25 23 26 17 27 18 28 22 29 19 31 21 32 20 33 32 34
REMARK SMILES IDX 33 35 34 36 35 37 36 38 37 39 38 40 39 41 40 42 41 43 42 44
REMARK SMILES IDX 94 45 43 46 93 47 44 48 45 49 46 50 87 51 47 52 92 53 86 54
REMARK SMILES IDX 88 55 48 56 91 57 85 58 84 59 49 61 75 62 58 63 74 64 59 65
REMARK SMILES IDX 62 66 73 67 89 68 60 69 61 70 72 72 90 73 63 74 50 75 51 76
REMARK SMILES IDX 56 77 52 78 53 79 55 80 57 81 54 82 76 83 77 84 82 85 78 86
REMARK SMILES IDX 79 87 81 88 83 89 80 90 64 91 65 92 70 93 66 94 67 95 69 96
REMARK SMILES IDX 71 97 68 98
REMARK H PARENT 12 13 17 30 88 60 62 71
REMARK Flexibility Score: inf
ROOT
ATOM      1  C   UNL     1       4.572   3.436   0.966  1.00  0.00     0.188 C 
ENDROOT
BRANCH   1   2
ATOM      2  C   UNL     1       3.522   4.499   1.220  1.00  0.00     0.188 C 
BRANCH   2   3
ATOM      3  O   UNL     1       3.958   5.589   2.015  1.00  0.00    -0.376 OA
BRANCH   3   4
ATOM      4  C   UNL     1       2.999   6.643   2.071  1.00  0.00     0.202 C 
BRANCH   4   5
ATOM      5  C   UNL     1       1.612   6.365   2.687  1.00  0.00     0.261 C 
BRANCH   5   6
ATOM      6  O   UNL     1       1.237   4.987   2.841  1.00  0.00    -0.462 OA
BRANCH   6   7
ATOM      7  C   UNL     1       0.216   4.537   2.085  1.00  0.00     0.329 C 
ATOM      8  O   UNL     1      -0.470   5.258   1.357  1.00  0.00    -0.250 OA
BRANCH   7   9
ATOM      9  C   UNL     1      -0.029   3.021   2.202  1.00  0.00     0.196 C 
BRANCH   9  10
ATOM     10  N   UNL     1       1.135   2.150   2.342  1.00  0.00    -0.339 N 
ATOM     11  C   UNL     1       1.833   1.534   1.344  1.00  0.00     0.258 C 
ATOM     12  O   UNL     1       2.622   0.634   1.630  1.00  0.00    -0.271 OA
ATOM     13  H   UNL     1       1.453   1.990   3.260  1.00  0.00     0.164 HD
BRANCH  11  14
ATOM     14  C   UNL     1       1.670   2.042  -0.117  1.00  0.00     0.329 C 
BRANCH  14  15
ATOM     15  O   UNL     1       0.665   1.655  -1.026  1.00  0.00    -0.484 OA
BRANCH  15  16
ATOM     16  C   UNL     1       0.013   0.519  -0.660  1.00  0.00     0.122 A 
ATOM     17  C   UNL     1       2.055  -1.026  -0.888  1.00  0.00     0.048 C 
ATOM     18  C   UNL     1       0.613  -0.743  -0.569  1.00  0.00    -0.009 A 
ATOM     19  C   UNL     1      -0.187  -1.813  -0.148  1.00  0.00     0.007 A 
ATOM     20  C   UNL     1      -1.544  -1.632   0.136  1.00  0.00     0.001 A 
ATOM     21  C   UNL     1      -1.351   0.694  -0.416  1.00  0.00     0.047 A 
ATOM     22  C   UNL     1      -2.129  -0.378  -0.006  1.00  0.00     0.004 A 
ENDBRANCH  15  16
ENDBRANCH  14  15
ENDBRANCH  11  14
ENDBRANCH   9  10
BRANCH   9  23
ATOM     23  C   UNL     1      -1.142   2.684   3.208  1.00  0.00     0.074 C 
BRANCH  23  24
ATOM     24  C   UNL     1      -0.735   2.206   4.578  1.00  0.00    -0.020 A 
ATOM     25  C   UNL     1      -0.682   2.977   5.716  1.00  0.00     0.087 A 
ATOM     26  C   UNL     1      -0.400   0.869   4.994  1.00  0.00     0.003 A 
ATOM     27  N   UNL     1      -0.392   2.185   6.790  1.00  0.00    -0.361 N 
ATOM     28  C   UNL     1      -0.229   0.886   6.382  1.00  0.00     0.046 A 
ATOM     29  C   UNL     1      -0.235  -0.361   4.324  1.00  0.00     0.010 A 
ATOM     30  H   UNL     1      -0.312   2.500   7.719  1.00  0.00     0.166 HD
ATOM     31  C   UNL     1       0.054  -0.259   7.135  1.00  0.00     0.026 A 
ATOM     32  C   UNL     1       0.074  -1.514   5.060  1.00  0.00     0.001 A 
ATOM     33  C   UNL     1       0.202  -1.464   6.446  1.00  0.00     0.002 A 
ENDBRANCH  23  24
ENDBRANCH   9  23
ENDBRANCH   7   9
ENDBRANCH   6   7
ENDBRANCH   5   6
ENDBRANCH   4   5
ENDBRANCH   3   4
ENDBRANCH   2   3
ENDBRANCH   1   2
BRANCH   1  34
ATOM     34  O   UNL     1       4.821   2.635   2.116  1.00  0.00    -0.377 OA
BRANCH  34  35
ATOM     35  C   UNL     1       5.775   3.187   3.012  1.00  0.00     0.188 C 
BRANCH  35  36
ATOM     36  C   UNL     1       7.158   3.150   2.388  1.00  0.00     0.188 C 
BRANCH  36  37
ATOM     37  O   UNL     1       7.306   4.295   1.546  1.00  0.00    -0.376 OA
BRANCH  37  38
ATOM     38  C   UNL     1       8.190   4.124   0.445  1.00  0.00     0.202 C 
BRANCH  38  39
ATOM     39  C   UNL     1       9.625   3.872   0.906  1.00  0.00     0.261 C 
BRANCH  39  40
ATOM     40  O   UNL     1      10.049   5.004   1.696  1.00  0.00    -0.460 OA
BRANCH  40  41
ATOM     41  C   UNL     1      10.142   4.768   3.032  1.00  0.00     0.338 C 
ATOM     42  O   UNL     1      10.707   3.811   3.538  1.00  0.00    -0.246 OA
BRANCH  41  43
ATOM     43  C   UNL     1       9.218   5.666   3.790  1.00  0.00     0.060 A 
ATOM     44  C   UNL     1       9.019   5.435   5.163  1.00  0.00     0.016 A 
ATOM     45  C   UNL     1       8.314   6.463   3.090  1.00  0.00     0.016 A 
ATOM     46  C   UNL     1       7.838   5.861   5.787  1.00  0.00     0.010 A 
ATOM     47  C   UNL     1       7.102   6.776   3.679  1.00  0.00     0.010 A 
ATOM     48  C   UNL     1       6.832   6.446   5.016  1.00  0.00    -0.014 A 
BRANCH  48  49
ATOM     49  C   UNL     1       5.411   6.519   5.401  1.00  0.00     0.031 A 
ATOM     50  C   UNL     1       4.620   7.779   5.205  1.00  0.00     0.074 A 
ATOM     51  C   UNL     1       4.767   5.339   5.568  1.00  0.00     0.049 A 
ATOM     52  N   UNL     1       3.361   7.925   5.468  1.00  0.00    -0.248 NA
ATOM     53  C   UNL     1       5.215   9.026   4.719  1.00  0.00     0.031 C 
ATOM     54  C   UNL     1       3.372   5.072   5.257  1.00  0.00     0.029 A 
ATOM     55  N   UNL     1       5.208   4.085   5.945  1.00  0.00    -0.354 N 
ATOM     56  C   UNL     1       2.927   9.125   4.933  1.00  0.00     0.074 A 
ATOM     57  C   UNL     1       4.141   9.812   4.577  1.00  0.00     0.031 C 
ATOM     58  C   UNL     1       3.042   3.813   5.564  1.00  0.00     0.029 A 
ATOM     59  C   UNL     1       4.125   3.301   6.350  1.00  0.00     0.049 A 
ATOM     60  H   UNL     1       6.146   3.788   5.930  1.00  0.00     0.167 HD
ATOM     61  C   UNL     1       1.587   9.339   4.744  1.00  0.00     0.037 A 
ATOM     62  C   UNL     1       3.959   2.892   7.640  1.00  0.00     0.037 A 
ATOM     63  C   UNL     1       0.764   8.325   5.441  1.00  0.00     0.049 A 
ATOM     64  C   UNL     1       2.809   3.626   8.333  1.00  0.00     0.074 A 
ATOM     65  C   UNL     1      -0.337   7.559   5.092  1.00  0.00     0.029 A 
ATOM     66  N   UNL     1       1.144   7.868   6.712  1.00  0.00    -0.354 N 
ATOM     67  N   UNL     1       2.266   4.738   7.880  1.00  0.00    -0.248 NA
ATOM     68  C   UNL     1       2.113   3.143   9.524  1.00  0.00     0.031 C 
ATOM     69  C   UNL     1      -0.570   6.622   6.129  1.00  0.00     0.029 A 
ATOM     70  C   UNL     1       0.386   6.792   7.118  1.00  0.00     0.049 A 
ATOM     71  H   UNL     1       1.866   8.268   7.249  1.00  0.00     0.167 HD
ATOM     72  C   UNL     1       1.224   5.128   8.677  1.00  0.00     0.074 A 
ATOM     73  C   UNL     1       1.159   4.081   9.683  1.00  0.00     0.031 C 
ATOM     74  C   UNL     1       0.482   6.265   8.477  1.00  0.00     0.037 A 
BRANCH  61  75
ATOM     75  C   UNL     1       0.975  10.363   3.761  1.00  0.00     0.057 A 
ATOM     76  C   UNL     1      -0.426  10.549   3.675  1.00  0.00     0.134 A 
ATOM     77  C   UNL     1       1.682  11.094   2.780  1.00  0.00     0.134 A 
ATOM     78  F   UNL     1      -1.265   9.983   4.553  1.00  0.00    -0.206 F 
ATOM     79  C   UNL     1      -1.057  11.324   2.682  1.00  0.00     0.040 A 
ATOM     80  C   UNL     1       1.067  11.933   1.829  1.00  0.00     0.040 A 
ATOM     81  F   UNL     1       3.007  11.006   2.636  1.00  0.00    -0.206 F 
ATOM     82  C   UNL     1      -0.310  12.030   1.756  1.00  0.00     0.006 A 
ENDBRANCH  61  75
BRANCH  62  83
ATOM     83  C   UNL     1       5.210   2.234   8.140  1.00  0.00     0.057 A 
ATOM     84  C   UNL     1       5.518   1.051   7.428  1.00  0.00     0.134 A 
ATOM     85  C   UNL     1       6.302   3.025   8.529  1.00  0.00     0.134 A 
ATOM     86  F   UNL     1       4.532   0.207   7.085  1.00  0.00    -0.206 F 
ATOM     87  C   UNL     1       6.772   0.856   6.839  1.00  0.00     0.040 A 
ATOM     88  C   UNL     1       7.579   2.810   7.976  1.00  0.00     0.040 A 
ATOM     89  F   UNL     1       6.110   4.144   9.240  1.00  0.00    -0.206 F 
ATOM     90  C   UNL     1       7.791   1.775   7.064  1.00  0.00     0.006 A 
ENDBRANCH  62  83
BRANCH  74  91
ATOM     91  C   UNL     1      -0.316   6.989   9.550  1.00  0.00     0.057 A 
ATOM     92  C   UNL     1      -0.095   6.833  10.926  1.00  0.00     0.134 A 
ATOM     93  C   UNL     1      -1.209   8.041   9.219  1.00  0.00     0.134 A 
ATOM     94  F   UNL     1       0.819   5.980  11.403  1.00  0.00    -0.206 F 
ATOM     95  C   UNL     1      -0.755   7.605  11.891  1.00  0.00     0.040 A 
ATOM     96  C   UNL     1      -1.832   8.851  10.171  1.00  0.00     0.040 A 
ATOM     97  F   UNL     1      -1.494   8.374   7.953  1.00  0.00    -0.206 F 
ATOM     98  C   UNL     1      -1.618   8.625  11.517  1.00  0.00     0.006 A 
ENDBRANCH  74  91
ENDBRANCH  48  49
ENDBRANCH  41  43
ENDBRANCH  40  41
ENDBRANCH  39  40
ENDBRANCH  38  39
ENDBRANCH  37  38
ENDBRANCH  36  37
ENDBRANCH  35  36
ENDBRANCH  34  35
ENDBRANCH   1  34
TORSDOF 26
