REMARK SMILES Cc1ccc(OCC(=O)NC(=S)Nc2ccc(C(=O)OCCOCCOCCOCCOC(=O)c3ccc(-c4c5nc(c(-c6c(F)cccc6F)c6ccc([nH]6)c(-c6c(F)cccc6F)c6nc(c(-c7c(F)cccc7F)c7ccc4[nH]7)C=C6)C=C5)cc3)cc2)cc1
REMARK SMILES IDX 24 1 23 2 22 3 21 4 20 5 18 6 19 7 17 8 14 9 15 10 90 11
REMARK SMILES IDX 16 12 89 13 13 14 11 16 12 17 10 18 8 19 9 20 7 22 6 23 5 24
REMARK SMILES IDX 1 25 2 26 3 27 92 28 4 29 91 30 25 31 26 32 27 33 28 34
REMARK SMILES IDX 29 35 30 36 31 37 32 38 33 39 34 40 35 41 36 42 88 43 37 44
REMARK SMILES IDX 87 45 38 46 39 47 40 48 81 49 41 50 86 51 80 52 82 53 42 54
REMARK SMILES IDX 85 55 79 56 78 57 43 59 69 60 52 61 68 62 53 63 56 64 67 65
REMARK SMILES IDX 83 66 54 67 55 68 66 70 84 71 57 72 44 73 45 74 50 75 46 76
REMARK SMILES IDX 47 77 49 78 51 79 48 80 70 81 71 82 76 83 72 84 73 85 75 86
REMARK SMILES IDX 77 87 74 88 58 89 59 90 64 91 60 92 61 93 63 94 65 95 62 96
REMARK H PARENT 13 15 10 21 82 58 56 69
REMARK Flexibility Score: inf
ROOT
ATOM      1  C   UNL     1      -1.456   0.400  -5.380  1.00  0.00     0.188 C 
ENDROOT
BRANCH   1   2
ATOM      2  O   UNL     1      -1.106   1.873  -5.257  1.00  0.00    -0.376 OA
BRANCH   2   3
ATOM      3  C   UNL     1      -1.921   3.229  -5.409  1.00  0.00     0.202 C 
BRANCH   3   4
ATOM      4  C   UNL     1      -3.519   4.038  -5.034  1.00  0.00     0.261 C 
BRANCH   4   5
ATOM      5  O   UNL     1      -5.120   3.582  -4.290  1.00  0.00    -0.460 OA
BRANCH   5   6
ATOM      6  C   UNL     1      -6.235   2.510  -4.072  1.00  0.00     0.338 C 
ATOM      7  O   UNL     1      -7.277   2.474  -4.736  1.00  0.00    -0.246 OA
BRANCH   6   8
ATOM      8  C   UNL     1      -6.349   1.476  -2.872  1.00  0.00     0.060 A 
ATOM      9  C   UNL     1      -6.096   0.075  -0.384  1.00  0.00     0.040 A 
ATOM     10  C   UNL     1      -5.431  -0.371  -1.525  1.00  0.00     0.027 A 
ATOM     11  C   UNL     1      -7.011   1.121  -0.522  1.00  0.00     0.027 A 
ATOM     12  C   UNL     1      -5.594   0.284  -2.764  1.00  0.00     0.018 A 
ATOM     13  C   UNL     1      -7.146   1.806  -1.761  1.00  0.00     0.018 A 
BRANCH   9  14
ATOM     14  N   UNL     1      -5.866  -0.647   0.808  1.00  0.00    -0.332 N 
ATOM     15  H   UNL     1      -5.607  -1.585   0.661  1.00  0.00     0.169 HD
BRANCH  14  16
ATOM     16  C   UNL     1      -5.932  -0.296   2.110  1.00  0.00     0.177 C 
ATOM     17  S   UNL     1      -6.557  -1.394   3.210  1.00  0.00    -0.040 S 
BRANCH  16  18
ATOM     18  N   UNL     1      -5.419   0.870   2.607  1.00  0.00    -0.300 N 
ATOM     19  C   UNL     1      -4.389   1.742   2.291  1.00  0.00     0.264 C 
ATOM     20  O   UNL     1      -4.253   2.759   2.981  1.00  0.00    -0.271 OA
ATOM     21  H   UNL     1      -5.915   1.171   3.402  1.00  0.00     0.172 HD
BRANCH  19  22
ATOM     22  C   UNL     1      -3.407   1.416   1.183  1.00  0.00     0.329 C 
BRANCH  22  23
ATOM     23  O   UNL     1      -2.715   0.202   1.436  1.00  0.00    -0.484 OA
BRANCH  23  24
ATOM     24  C   UNL     1      -1.378   0.172   1.141  1.00  0.00     0.120 A 
ATOM     25  C   UNL     1       2.815  -0.356   0.238  1.00  0.00     0.044 C 
ATOM     26  C   UNL     1       1.365  -0.176   0.579  1.00  0.00    -0.051 A 
ATOM     27  C   UNL     1       0.461  -1.225   0.385  1.00  0.00     0.007 A 
ATOM     28  C   UNL     1       0.890   1.036   1.097  1.00  0.00     0.007 A 
ATOM     29  C   UNL     1      -0.898  -1.050   0.665  1.00  0.00     0.047 A 
ATOM     30  C   UNL     1      -0.474   1.210   1.374  1.00  0.00     0.047 A 
ENDBRANCH  23  24
ENDBRANCH  22  23
ENDBRANCH  19  22
ENDBRANCH  16  18
ENDBRANCH  14  16
ENDBRANCH   9  14
ENDBRANCH   6   8
ENDBRANCH   5   6
ENDBRANCH   4   5
ENDBRANCH   3   4
ENDBRANCH   2   3
ENDBRANCH   1   2
BRANCH   1  31
ATOM     31  C   UNL     1      -1.051  -0.674  -4.293  1.00  0.00     0.188 C 
BRANCH  31  32
ATOM     32  O   UNL     1       0.145  -1.407  -4.422  1.00  0.00    -0.377 OA
BRANCH  32  33
ATOM     33  C   UNL     1       0.661  -1.679  -5.705  1.00  0.00     0.188 C 
BRANCH  33  34
ATOM     34  C   UNL     1      -0.227  -2.238  -6.828  1.00  0.00     0.188 C 
BRANCH  34  35
ATOM     35  O   UNL     1      -1.169  -3.223  -6.445  1.00  0.00    -0.376 OA
BRANCH  35  36
ATOM     36  C   UNL     1      -2.065  -3.675  -7.479  1.00  0.00     0.202 C 
BRANCH  36  37
ATOM     37  C   UNL     1      -1.594  -3.651  -8.958  1.00  0.00     0.261 C 
BRANCH  37  38
ATOM     38  O   UNL     1      -2.260  -2.584  -9.674  1.00  0.00    -0.460 OA
BRANCH  38  39
ATOM     39  C   UNL     1      -1.626  -1.384  -9.725  1.00  0.00     0.338 C 
ATOM     40  O   UNL     1      -0.453  -1.205  -9.983  1.00  0.00    -0.246 OA
BRANCH  39  41
ATOM     41  C   UNL     1      -2.514  -0.376  -9.061  1.00  0.00     0.060 A 
ATOM     42  C   UNL     1      -2.035   0.899  -8.800  1.00  0.00     0.016 A 
ATOM     43  C   UNL     1      -3.683  -0.792  -8.414  1.00  0.00     0.016 A 
ATOM     44  C   UNL     1      -2.649   1.655  -7.786  1.00  0.00     0.010 A 
ATOM     45  C   UNL     1      -4.146  -0.125  -7.275  1.00  0.00     0.010 A 
ATOM     46  C   UNL     1      -3.568   1.078  -6.865  1.00  0.00    -0.014 A 
BRANCH  46  47
ATOM     47  C   UNL     1      -4.126   1.749  -5.531  1.00  0.00     0.031 A 
ATOM     48  C   UNL     1      -5.354   2.684  -6.468  1.00  0.00     0.074 A 
ATOM     49  C   UNL     1      -3.571   1.866  -3.995  1.00  0.00     0.049 A 
ATOM     50  N   UNL     1      -5.532   3.990  -6.450  1.00  0.00    -0.248 NA
ATOM     51  C   UNL     1      -6.225   2.156  -7.546  1.00  0.00     0.031 C 
ATOM     52  C   UNL     1      -4.070   2.597  -2.624  1.00  0.00     0.029 A 
ATOM     53  N   UNL     1      -2.263   1.700  -3.318  1.00  0.00    -0.354 N 
ATOM     54  C   UNL     1      -6.789   4.283  -6.872  1.00  0.00     0.074 A 
ATOM     55  C   UNL     1      -7.041   3.200  -7.800  1.00  0.00     0.031 C 
ATOM     56  C   UNL     1      -3.187   2.859  -1.671  1.00  0.00     0.029 A 
ATOM     57  C   UNL     1      -1.954   2.632  -2.278  1.00  0.00     0.049 A 
ATOM     58  H   UNL     1      -1.637   0.983  -3.571  1.00  0.00     0.167 HD
ATOM     59  C   UNL     1      -7.585   5.180  -6.184  1.00  0.00     0.037 A 
ATOM     60  C   UNL     1      -0.953   3.574  -2.217  1.00  0.00     0.037 A 
ATOM     61  C   UNL     1      -7.011   5.662  -4.872  1.00  0.00     0.049 A 
ATOM     62  C   UNL     1      -1.588   4.997  -2.111  1.00  0.00     0.074 A 
ATOM     63  C   UNL     1      -7.361   5.314  -3.567  1.00  0.00     0.029 A 
ATOM     64  N   UNL     1      -5.806   6.384  -4.721  1.00  0.00    -0.354 N 
ATOM     65  N   UNL     1      -2.759   5.301  -2.625  1.00  0.00    -0.248 NA
ATOM     66  C   UNL     1      -1.040   6.128  -1.371  1.00  0.00     0.031 C 
ATOM     67  C   UNL     1      -6.349   5.723  -2.664  1.00  0.00     0.029 A 
ATOM     68  C   UNL     1      -5.374   6.405  -3.374  1.00  0.00     0.049 A 
ATOM     69  H   UNL     1      -5.325   6.819  -5.462  1.00  0.00     0.167 HD
ATOM     70  C   UNL     1      -3.112   6.604  -2.372  1.00  0.00     0.074 A 
ATOM     71  C   UNL     1      -2.006   7.059  -1.533  1.00  0.00     0.031 C 
ATOM     72  C   UNL     1      -4.258   7.219  -2.844  1.00  0.00     0.037 A 
BRANCH  59  73
ATOM     73  C   UNL     1      -9.092   5.187  -6.486  1.00  0.00     0.057 A 
ATOM     74  C   UNL     1     -10.088   5.350  -5.502  1.00  0.00     0.134 A 
ATOM     75  C   UNL     1      -9.610   4.972  -7.778  1.00  0.00     0.134 A 
ATOM     76  F   UNL     1      -9.811   5.779  -4.267  1.00  0.00    -0.206 F 
ATOM     77  C   UNL     1     -11.453   5.117  -5.741  1.00  0.00     0.040 A 
ATOM     78  C   UNL     1     -10.967   4.703  -8.030  1.00  0.00     0.040 A 
ATOM     79  F   UNL     1      -8.816   5.045  -8.858  1.00  0.00    -0.206 F 
ATOM     80  C   UNL     1     -11.893   4.742  -6.999  1.00  0.00     0.006 A 
ENDBRANCH  59  73
BRANCH  60  81
ATOM     81  C   UNL     1       0.352   3.224  -2.877  1.00  0.00     0.057 A 
ATOM     82  C   UNL     1       0.866   1.927  -2.671  1.00  0.00     0.134 A 
ATOM     83  C   UNL     1       0.975   3.961  -3.889  1.00  0.00     0.134 A 
ATOM     84  F   UNL     1       0.325   1.145  -1.732  1.00  0.00    -0.206 F 
ATOM     85  C   UNL     1       1.816   1.335  -3.507  1.00  0.00     0.040 A 
ATOM     86  C   UNL     1       1.917   3.373  -4.755  1.00  0.00     0.040 A 
ATOM     87  F   UNL     1       0.576   5.211  -4.164  1.00  0.00    -0.206 F 
ATOM     88  C   UNL     1       2.313   2.046  -4.587  1.00  0.00     0.006 A 
ENDBRANCH  60  81
BRANCH  72  89
ATOM     89  C   UNL     1      -4.549   8.697  -2.646  1.00  0.00     0.057 A 
ATOM     90  C   UNL     1      -3.563   9.691  -2.681  1.00  0.00     0.134 A 
ATOM     91  C   UNL     1      -5.877   9.178  -2.541  1.00  0.00     0.134 A 
ATOM     92  F   UNL     1      -2.273   9.386  -2.877  1.00  0.00    -0.206 F 
ATOM     93  C   UNL     1      -3.867  11.055  -2.562  1.00  0.00     0.040 A 
ATOM     94  C   UNL     1      -6.196  10.536  -2.480  1.00  0.00     0.040 A 
ATOM     95  F   UNL     1      -6.934   8.355  -2.503  1.00  0.00    -0.206 F 
ATOM     96  C   UNL     1      -5.187  11.482  -2.475  1.00  0.00     0.006 A 
ENDBRANCH  72  89
ENDBRANCH  46  47
ENDBRANCH  39  41
ENDBRANCH  38  39
ENDBRANCH  37  38
ENDBRANCH  36  37
ENDBRANCH  35  36
ENDBRANCH  34  35
ENDBRANCH  33  34
ENDBRANCH  32  33
ENDBRANCH  31  32
ENDBRANCH   1  31
TORSDOF 26
