REMARK SMILES O=C(Cc1ccccc1C(=O)OCCOCCOCCOCCOC(=O)c1ccc(-c2c3nc(c(-c4c(F)cccc4F)c4ccc([nH]4)c(-c4c(F)cccc4F)c4nc(c(-c5c(F)cccc5F)c5ccc2[nH]5)C=C4)C=C3)cc1)Nc1cccc(OC[C@@H]2CCCO2)c1
REMARK SMILES IDX 16 1 15 2 14 3 13 4 12 5 10 6 11 7 9 8 4 9 5 10 6 11 8 12
REMARK SMILES IDX 7 13 3 14 2 15 1 16 81 17 82 19 83 20 94 21 84 22 86 23
REMARK SMILES IDX 85 24 87 25 88 26 89 27 90 28 93 29 91 30 92 31 17 32 18 33
REMARK SMILES IDX 19 34 20 35 21 36 22 37 23 38 24 39 25 40 26 41 27 42 28 43
REMARK SMILES IDX 80 44 29 45 79 46 30 47 31 48 32 49 73 50 33 51 78 52 72 53
REMARK SMILES IDX 74 54 34 55 77 56 71 57 70 58 35 60 61 61 44 62 60 63 45 64
REMARK SMILES IDX 48 65 59 66 75 67 46 68 47 69 58 71 76 72 49 73 36 74 37 75
REMARK SMILES IDX 42 76 38 77 39 78 41 79 43 80 40 81 62 82 63 83 68 84 64 85
REMARK SMILES IDX 65 86 67 87 69 88 66 89 50 90 51 91 56 92 52 93 53 94 55 95
REMARK SMILES IDX 57 96 54 97
REMARK H PARENT 81 18 74 59 48 70
REMARK Flexibility Score: inf
ROOT
ATOM      1  C   UNL     1       1.380   4.102  -0.223  1.00  0.00     0.188 C 
ENDROOT
BRANCH   1   2
ATOM      2  O   UNL     1      -0.015   4.006  -0.495  1.00  0.00    -0.376 OA
BRANCH   2   3
ATOM      3  C   UNL     1      -0.541   2.765  -0.960  1.00  0.00     0.202 C 
BRANCH   3   4
ATOM      4  C   UNL     1       0.063   2.183  -2.239  1.00  0.00     0.261 C 
BRANCH   4   5
ATOM      5  O   UNL     1       1.444   1.803  -2.070  1.00  0.00    -0.460 OA
BRANCH   5   6
ATOM      6  C   UNL     1       2.258   2.162  -3.089  1.00  0.00     0.338 C 
ATOM      7  O   UNL     1       1.923   2.683  -4.141  1.00  0.00    -0.246 OA
BRANCH   6   8
ATOM      8  C   UNL     1       3.686   2.022  -2.716  1.00  0.00     0.063 A 
ATOM      9  C   UNL     1       4.321   0.814  -2.380  1.00  0.00    -0.024 A 
ATOM     10  C   UNL     1       5.717   0.806  -2.191  1.00  0.00     0.005 A 
ATOM     11  C   UNL     1       6.456   1.980  -2.267  1.00  0.00     0.000 A 
ATOM     12  C   UNL     1       4.445   3.198  -2.803  1.00  0.00     0.016 A 
ATOM     13  C   UNL     1       5.818   3.179  -2.561  1.00  0.00     0.001 A 
BRANCH   9  14
ATOM     14  C   UNL     1       3.588  -0.475  -2.149  1.00  0.00     0.136 C 
BRANCH  14  15
ATOM     15  C   UNL     1       3.149  -0.688  -0.718  1.00  0.00     0.228 C 
ATOM     16  O   UNL     1       2.058  -1.232  -0.547  1.00  0.00    -0.274 OA
ATOM     17  N   UNL     1       4.074  -0.316   0.270  1.00  0.00    -0.326 N 
ATOM     18  H   UNL     1       4.951   0.017  -0.031  1.00  0.00     0.169 HD
BRANCH  17  19
ATOM     19  C   UNL     1       3.846  -0.384   1.660  1.00  0.00     0.044 A 
ATOM     20  C   UNL     1       4.631   0.333   2.567  1.00  0.00     0.026 A 
ATOM     21  C   UNL     1       2.736  -1.052   2.122  1.00  0.00     0.072 A 
ATOM     22  C   UNL     1       4.221   0.444   3.901  1.00  0.00     0.006 A 
ATOM     23  C   UNL     1       2.207  -0.762   3.357  1.00  0.00     0.121 A 
ATOM     24  C   UNL     1       2.983  -0.073   4.284  1.00  0.00     0.046 A 
BRANCH  23  25
ATOM     25  O   UNL     1       0.868  -0.890   3.589  1.00  0.00    -0.491 OA
BRANCH  25  26
ATOM     26  C   UNL     1       0.174  -1.879   2.843  1.00  0.00     0.261 C 
BRANCH  26  27
ATOM     27  C   UNL     1      -1.139  -1.498   2.096  1.00  0.00     0.156 C 
ATOM     28  C   UNL     1      -1.153  -1.934   0.626  1.00  0.00     0.038 C 
ATOM     29  O   UNL     1      -1.613  -0.152   2.152  1.00  0.00    -0.375 OA
ATOM     30  C   UNL     1      -1.540  -0.677  -0.108  1.00  0.00     0.031 C 
ATOM     31  C   UNL     1      -2.340   0.066   0.936  1.00  0.00     0.161 C 
ENDBRANCH  26  27
ENDBRANCH  25  26
ENDBRANCH  23  25
ENDBRANCH  17  19
ENDBRANCH  14  15
ENDBRANCH   9  14
ENDBRANCH   6   8
ENDBRANCH   5   6
ENDBRANCH   4   5
ENDBRANCH   3   4
ENDBRANCH   2   3
ENDBRANCH   1   2
BRANCH   1  32
ATOM     32  C   UNL     1       2.057   3.068   0.691  1.00  0.00     0.188 C 
BRANCH  32  33
ATOM     33  O   UNL     1       1.221   2.002   1.064  1.00  0.00    -0.377 OA
BRANCH  33  34
ATOM     34  C   UNL     1       0.692   2.039   2.378  1.00  0.00     0.188 C 
BRANCH  34  35
ATOM     35  C   UNL     1      -0.110   3.264   2.819  1.00  0.00     0.188 C 
BRANCH  35  36
ATOM     36  O   UNL     1       0.663   4.335   3.365  1.00  0.00    -0.376 OA
BRANCH  36  37
ATOM     37  C   UNL     1       1.702   3.982   4.277  1.00  0.00     0.202 C 
BRANCH  37  38
ATOM     38  C   UNL     1       1.317   3.243   5.575  1.00  0.00     0.261 C 
BRANCH  38  39
ATOM     39  O   UNL     1       0.757   1.920   5.395  1.00  0.00    -0.460 OA
BRANCH  39  40
ATOM     40  C   UNL     1      -0.386   1.625   6.080  1.00  0.00     0.338 C 
ATOM     41  O   UNL     1      -1.040   2.394   6.750  1.00  0.00    -0.246 OA
BRANCH  40  42
ATOM     42  C   UNL     1      -0.756   0.186   5.918  1.00  0.00     0.060 A 
ATOM     43  C   UNL     1      -1.991  -0.165   5.362  1.00  0.00     0.016 A 
ATOM     44  C   UNL     1       0.085  -0.831   6.376  1.00  0.00     0.016 A 
ATOM     45  C   UNL     1      -2.370  -1.525   5.234  1.00  0.00     0.010 A 
ATOM     46  C   UNL     1      -0.270  -2.186   6.194  1.00  0.00     0.010 A 
ATOM     47  C   UNL     1      -1.512  -2.566   5.630  1.00  0.00    -0.014 A 
BRANCH  47  48
ATOM     48  C   UNL     1      -1.969  -4.011   5.648  1.00  0.00     0.031 A 
ATOM     49  C   UNL     1      -2.202  -4.619   7.007  1.00  0.00     0.074 A 
ATOM     50  C   UNL     1      -2.162  -4.827   4.578  1.00  0.00     0.049 A 
ATOM     51  N   UNL     1      -2.583  -5.832   7.316  1.00  0.00    -0.248 NA
ATOM     52  C   UNL     1      -1.885  -3.772   8.169  1.00  0.00     0.031 C 
ATOM     53  C   UNL     1      -1.818  -4.546   3.202  1.00  0.00     0.029 A 
ATOM     54  N   UNL     1      -2.688  -6.104   4.468  1.00  0.00    -0.354 N 
ATOM     55  C   UNL     1      -2.525  -5.892   8.699  1.00  0.00     0.074 A 
ATOM     56  C   UNL     1      -1.970  -4.641   9.159  1.00  0.00     0.031 C 
ATOM     57  C   UNL     1      -2.213  -5.513   2.373  1.00  0.00     0.029 A 
ATOM     58  C   UNL     1      -2.781  -6.573   3.168  1.00  0.00     0.049 A 
ATOM     59  H   UNL     1      -2.971  -6.633   5.248  1.00  0.00     0.167 HD
ATOM     60  C   UNL     1      -2.945  -6.874   9.527  1.00  0.00     0.037 A 
ATOM     61  C   UNL     1      -3.228  -7.724   2.631  1.00  0.00     0.037 A 
ATOM     62  C   UNL     1      -3.517  -8.115   9.090  1.00  0.00     0.049 A 
ATOM     63  C   UNL     1      -3.723  -8.786   3.554  1.00  0.00     0.074 A 
ATOM     64  C   UNL     1      -4.028  -9.142   9.860  1.00  0.00     0.029 A 
ATOM     65  N   UNL     1      -3.651  -8.500   7.764  1.00  0.00    -0.354 N 
ATOM     66  N   UNL     1      -3.758  -8.774   4.862  1.00  0.00    -0.248 NA
ATOM     67  C   UNL     1      -4.228 -10.020   2.941  1.00  0.00     0.031 C 
ATOM     68  C   UNL     1      -4.444 -10.165   9.002  1.00  0.00     0.029 A 
ATOM     69  C   UNL     1      -4.234  -9.755   7.696  1.00  0.00     0.049 A 
ATOM     70  H   UNL     1      -3.373  -7.962   6.988  1.00  0.00     0.167 HD
ATOM     71  C   UNL     1      -4.311  -9.986   5.231  1.00  0.00     0.074 A 
ATOM     72  C   UNL     1      -4.610 -10.705   4.009  1.00  0.00     0.031 C 
ATOM     73  C   UNL     1      -4.543 -10.457   6.478  1.00  0.00     0.037 A 
BRANCH  60  74
ATOM     74  C   UNL     1      -2.806  -6.598  10.993  1.00  0.00     0.057 A 
ATOM     75  C   UNL     1      -3.561  -5.595  11.622  1.00  0.00     0.134 A 
ATOM     76  C   UNL     1      -1.862  -7.280  11.765  1.00  0.00     0.134 A 
ATOM     77  F   UNL     1      -4.463  -4.885  10.926  1.00  0.00    -0.206 F 
ATOM     78  C   UNL     1      -3.338  -5.242  12.951  1.00  0.00     0.040 A 
ATOM     79  C   UNL     1      -1.657  -6.960  13.107  1.00  0.00     0.040 A 
ATOM     80  F   UNL     1      -1.107  -8.248  11.223  1.00  0.00    -0.206 F 
ATOM     81  C   UNL     1      -2.384  -5.928  13.698  1.00  0.00     0.006 A 
ENDBRANCH  60  74
BRANCH  61  82
ATOM     82  C   UNL     1      -3.247  -7.934   1.153  1.00  0.00     0.057 A 
ATOM     83  C   UNL     1      -4.458  -7.977   0.449  1.00  0.00     0.134 A 
ATOM     84  C   UNL     1      -2.072  -8.106   0.409  1.00  0.00     0.134 A 
ATOM     85  F   UNL     1      -5.621  -7.835   1.101  1.00  0.00    -0.206 F 
ATOM     86  C   UNL     1      -4.502  -8.208  -0.928  1.00  0.00     0.040 A 
ATOM     87  C   UNL     1      -2.100  -8.309  -0.974  1.00  0.00     0.040 A 
ATOM     88  F   UNL     1      -0.876  -8.060   1.013  1.00  0.00    -0.206 F 
ATOM     89  C   UNL     1      -3.319  -8.371  -1.645  1.00  0.00     0.006 A 
ENDBRANCH  61  82
BRANCH  73  90
ATOM     90  C   UNL     1      -5.207 -11.792   6.582  1.00  0.00     0.057 A 
ATOM     91  C   UNL     1      -4.532 -12.982   6.290  1.00  0.00     0.134 A 
ATOM     92  C   UNL     1      -6.536 -11.882   7.012  1.00  0.00     0.134 A 
ATOM     93  F   UNL     1      -3.265 -12.957   5.849  1.00  0.00    -0.206 F 
ATOM     94  C   UNL     1      -5.163 -14.220   6.410  1.00  0.00     0.040 A 
ATOM     95  C   UNL     1      -7.168 -13.114   7.163  1.00  0.00     0.040 A 
ATOM     96  F   UNL     1      -7.235 -10.774   7.304  1.00  0.00    -0.206 F 
ATOM     97  C   UNL     1      -6.482 -14.288   6.858  1.00  0.00     0.006 A 
ENDBRANCH  73  90
ENDBRANCH  47  48
ENDBRANCH  40  42
ENDBRANCH  39  40
ENDBRANCH  38  39
ENDBRANCH  37  38
ENDBRANCH  36  37
ENDBRANCH  35  36
ENDBRANCH  34  35
ENDBRANCH  33  34
ENDBRANCH  32  33
ENDBRANCH   1  32
TORSDOF 26
