REMARK SMILES C/C(Nc1ccc(C(=O)OCCOCCOCCOCCOC(=O)c2ccc(-c3c4nc(c(-c5c(F)cccc5F)c5ccc([nH]5)c(-c5c(F)cccc5F)c5nc(c(-c6c(F)cccc6F)c6ccc3[nH]6)C=C5)C=C4)cc2)c(O)c1)=C1/C(=O)O[C@H](C)C1=O
REMARK SMILES IDX 16 1 15 2 14 3 13 4 12 5 11 6 10 7 8 8 9 9 7 10 4 11 5 12
REMARK SMILES IDX 81 13 6 14 79 15 3 16 2 18 1 19 82 20 83 21 88 22 84 23
REMARK SMILES IDX 85 24 86 25 89 26 87 27 80 28 17 30 18 31 19 32 20 33 21 34
REMARK SMILES IDX 22 35 23 36 24 37 25 38 26 39 78 40 27 41 77 42 28 43 29 44
REMARK SMILES IDX 30 45 71 46 31 47 76 48 70 49 72 50 32 51 75 52 69 53 68 54
REMARK SMILES IDX 33 56 59 57 42 58 58 59 43 60 46 61 57 62 73 63 44 64 45 65
REMARK SMILES IDX 56 67 74 68 47 69 34 70 35 71 40 72 36 73 37 74 39 75 41 76
REMARK SMILES IDX 38 77 60 78 61 79 66 80 62 81 63 82 65 83 67 84 64 85 48 86
REMARK SMILES IDX 49 87 54 88 50 89 51 90 53 91 55 92 52 93
REMARK H PARENT 3 17 80 29 72 55 46 66
REMARK Flexibility Score: inf
ROOT
ATOM      1  O   UNL     1      -3.867   6.920   2.939  1.00  0.00    -0.377 OA
ENDROOT
BRANCH   1   2
ATOM      2  C   UNL     1      -2.532   6.455   3.100  1.00  0.00     0.188 C 
BRANCH   2   3
ATOM      3  C   UNL     1      -1.493   7.590   3.024  1.00  0.00     0.188 C 
BRANCH   3   4
ATOM      4  O   UNL     1      -2.042   8.874   3.268  1.00  0.00    -0.376 OA
BRANCH   4   5
ATOM      5  C   UNL     1      -2.560   9.668   2.214  1.00  0.00     0.202 C 
BRANCH   5   6
ATOM      6  C   UNL     1      -3.301   9.116   0.980  1.00  0.00     0.261 C 
BRANCH   6   7
ATOM      7  O   UNL     1      -2.944   7.814   0.509  1.00  0.00    -0.460 OA
BRANCH   7   8
ATOM      8  C   UNL     1      -1.801   7.692  -0.201  1.00  0.00     0.341 C 
ATOM      9  O   UNL     1      -1.055   8.597  -0.529  1.00  0.00    -0.246 OA
BRANCH   8  10
ATOM     10  C   UNL     1      -1.492   6.243  -0.322  1.00  0.00     0.101 A 
ATOM     11  C   UNL     1      -0.778   3.511  -0.320  1.00  0.00     0.042 A 
ATOM     12  C   UNL     1       0.197   4.505  -0.166  1.00  0.00     0.027 A 
ATOM     13  C   UNL     1      -2.111   3.903  -0.500  1.00  0.00     0.073 A 
ATOM     14  C   UNL     1      -0.152   5.861  -0.184  1.00  0.00     0.022 A 
ATOM     15  C   UNL     1      -2.470   5.251  -0.461  1.00  0.00     0.132 A 
BRANCH  11  16
ATOM     16  N   UNL     1      -0.491   2.141  -0.204  1.00  0.00    -0.358 N 
ATOM     17  H   UNL     1      -1.016   1.555  -0.797  1.00  0.00     0.166 HD
BRANCH  16  18
ATOM     18  C   UNL     1       0.416   1.484   0.614  1.00  0.00     0.030 C 
ATOM     19  C   UNL     1       0.954   0.205  -0.012  1.00  0.00     0.065 C 
ATOM     20  C   UNL     1       0.807   1.826   1.865  1.00  0.00     0.125 C 
ATOM     21  C   UNL     1       0.365   2.950   2.716  1.00  0.00     0.344 C 
ATOM     22  C   UNL     1       1.842   1.130   2.651  1.00  0.00     0.212 C 
ATOM     23  O   UNL     1      -0.651   3.623   2.635  1.00  0.00    -0.246 OA
ATOM     24  O   UNL     1       1.276   3.097   3.725  1.00  0.00    -0.451 OA
ATOM     25  C   UNL     1       2.220   2.011   3.801  1.00  0.00     0.245 C 
ATOM     26  O   UNL     1       2.329   0.034   2.419  1.00  0.00    -0.290 OA
ATOM     27  C   UNL     1       3.642   2.528   3.673  1.00  0.00     0.062 C 
ENDBRANCH  16  18
ENDBRANCH  11  16
BRANCH  15  28
ATOM     28  O   UNL     1      -3.813   5.516  -0.488  1.00  0.00    -0.507 OA
ATOM     29  H   UNL     1      -4.116   6.402  -0.465  1.00  0.00     0.293 HD
ENDBRANCH  15  28
ENDBRANCH   8  10
ENDBRANCH   7   8
ENDBRANCH   6   7
ENDBRANCH   5   6
ENDBRANCH   4   5
ENDBRANCH   3   4
ENDBRANCH   2   3
ENDBRANCH   1   2
BRANCH   1  30
ATOM     30  C   UNL     1      -4.534   7.437   4.092  1.00  0.00     0.188 C 
BRANCH  30  31
ATOM     31  C   UNL     1      -3.762   8.011   5.308  1.00  0.00     0.188 C 
BRANCH  31  32
ATOM     32  O   UNL     1      -2.576   7.305   5.637  1.00  0.00    -0.376 OA
BRANCH  32  33
ATOM     33  C   UNL     1      -2.562   6.463   6.774  1.00  0.00     0.202 C 
BRANCH  33  34
ATOM     34  C   UNL     1      -3.473   5.229   6.747  1.00  0.00     0.261 C 
BRANCH  34  35
ATOM     35  O   UNL     1      -4.849   5.470   6.425  1.00  0.00    -0.460 OA
BRANCH  35  36
ATOM     36  C   UNL     1      -5.583   6.171   7.316  1.00  0.00     0.338 C 
ATOM     37  O   UNL     1      -5.215   6.621   8.384  1.00  0.00    -0.246 OA
BRANCH  36  38
ATOM     38  C   UNL     1      -6.887   6.459   6.681  1.00  0.00     0.060 A 
ATOM     39  C   UNL     1      -7.270   7.792   6.482  1.00  0.00     0.016 A 
ATOM     40  C   UNL     1      -7.719   5.414   6.273  1.00  0.00     0.016 A 
ATOM     41  C   UNL     1      -8.508   8.083   5.907  1.00  0.00     0.010 A 
ATOM     42  C   UNL     1      -8.965   5.707   5.714  1.00  0.00     0.010 A 
ATOM     43  C   UNL     1      -9.380   7.042   5.561  1.00  0.00    -0.014 A 
BRANCH  43  44
ATOM     44  C   UNL     1     -10.791   7.340   5.220  1.00  0.00     0.031 A 
ATOM     45  C   UNL     1     -11.836   7.170   6.288  1.00  0.00     0.074 A 
ATOM     46  C   UNL     1     -11.144   7.760   3.993  1.00  0.00     0.049 A 
ATOM     47  N   UNL     1     -13.134   7.309   6.215  1.00  0.00    -0.248 NA
ATOM     48  C   UNL     1     -11.344   6.784   7.620  1.00  0.00     0.031 C 
ATOM     49  C   UNL     1     -10.224   7.998   2.884  1.00  0.00     0.029 A 
ATOM     50  N   UNL     1     -12.382   8.046   3.474  1.00  0.00    -0.354 N 
ATOM     51  C   UNL     1     -13.615   7.017   7.485  1.00  0.00     0.074 A 
ATOM     52  C   UNL     1     -12.474   6.659   8.299  1.00  0.00     0.031 C 
ATOM     53  C   UNL     1     -10.932   8.382   1.808  1.00  0.00     0.029 A 
ATOM     54  C   UNL     1     -12.356   8.380   2.143  1.00  0.00     0.049 A 
ATOM     55  H   UNL     1     -13.210   8.014   4.006  1.00  0.00     0.167 HD
ATOM     56  C   UNL     1     -14.892   7.050   7.935  1.00  0.00     0.037 A 
ATOM     57  C   UNL     1     -13.368   8.628   1.288  1.00  0.00     0.037 A 
ATOM     58  C   UNL     1     -16.026   7.397   7.119  1.00  0.00     0.049 A 
ATOM     59  C   UNL     1     -14.788   8.583   1.789  1.00  0.00     0.074 A 
ATOM     60  C   UNL     1     -17.358   7.481   7.484  1.00  0.00     0.029 A 
ATOM     61  N   UNL     1     -15.962   7.700   5.766  1.00  0.00    -0.354 N 
ATOM     62  N   UNL     1     -15.234   8.336   2.998  1.00  0.00    -0.248 NA
ATOM     63  C   UNL     1     -15.847   8.854   0.805  1.00  0.00     0.031 C 
ATOM     64  C   UNL     1     -18.107   7.770   6.339  1.00  0.00     0.029 A 
ATOM     65  C   UNL     1     -17.235   7.938   5.274  1.00  0.00     0.049 A 
ATOM     66  H   UNL     1     -15.134   7.740   5.235  1.00  0.00     0.167 HD
ATOM     67  C   UNL     1     -16.618   8.452   2.927  1.00  0.00     0.074 A 
ATOM     68  C   UNL     1     -16.937   8.803   1.559  1.00  0.00     0.031 C 
ATOM     69  C   UNL     1     -17.541   8.288   3.909  1.00  0.00     0.037 A 
BRANCH  56  70
ATOM     70  C   UNL     1     -15.127   6.660   9.367  1.00  0.00     0.057 A 
ATOM     71  C   UNL     1     -14.683   7.449  10.438  1.00  0.00     0.134 A 
ATOM     72  C   UNL     1     -15.810   5.478   9.679  1.00  0.00     0.134 A 
ATOM     73  F   UNL     1     -14.009   8.586  10.212  1.00  0.00    -0.206 F 
ATOM     74  C   UNL     1     -14.879   7.057  11.764  1.00  0.00     0.040 A 
ATOM     75  C   UNL     1     -16.041   5.092  11.000  1.00  0.00     0.040 A 
ATOM     76  F   UNL     1     -16.267   4.677   8.704  1.00  0.00    -0.206 F 
ATOM     77  C   UNL     1     -15.564   5.878  12.047  1.00  0.00     0.006 A 
ENDBRANCH  56  70
BRANCH  57  78
ATOM     78  C   UNL     1     -13.074   8.930  -0.137  1.00  0.00     0.057 A 
ATOM     79  C   UNL     1     -13.306  10.201  -0.673  1.00  0.00     0.134 A 
ATOM     80  C   UNL     1     -12.560   7.952  -0.997  1.00  0.00     0.134 A 
ATOM     81  F   UNL     1     -13.821  11.174   0.093  1.00  0.00    -0.206 F 
ATOM     82  C   UNL     1     -13.046  10.488  -2.015  1.00  0.00     0.040 A 
ATOM     83  C   UNL     1     -12.270   8.231  -2.333  1.00  0.00     0.040 A 
ATOM     84  F   UNL     1     -12.318   6.712  -0.546  1.00  0.00    -0.206 F 
ATOM     85  C   UNL     1     -12.519   9.502  -2.847  1.00  0.00     0.006 A 
ENDBRANCH  57  78
BRANCH  69  86
ATOM     86  C   UNL     1     -18.982   8.525   3.553  1.00  0.00     0.057 A 
ATOM     87  C   UNL     1     -19.701   7.651   2.728  1.00  0.00     0.134 A 
ATOM     88  C   UNL     1     -19.674   9.622   4.085  1.00  0.00     0.134 A 
ATOM     89  F   UNL     1     -19.099   6.585   2.177  1.00  0.00    -0.206 F 
ATOM     90  C   UNL     1     -21.046   7.874   2.423  1.00  0.00     0.040 A 
ATOM     91  C   UNL     1     -21.026   9.838   3.813  1.00  0.00     0.040 A 
ATOM     92  F   UNL     1     -19.051  10.494   4.893  1.00  0.00    -0.206 F 
ATOM     93  C   UNL     1     -21.714   8.966   2.973  1.00  0.00     0.006 A 
ENDBRANCH  69  86
ENDBRANCH  43  44
ENDBRANCH  36  38
ENDBRANCH  35  36
ENDBRANCH  34  35
ENDBRANCH  33  34
ENDBRANCH  32  33
ENDBRANCH  31  32
ENDBRANCH  30  31
ENDBRANCH   1  30
TORSDOF 23
