REMARK SMILES Cc1ccc(S(=O)(=O)Nc2cc(C(=O)OCCOCCOCCOCCOC(=O)c3ccc(-c4c5nc(c(-c6c(F)cccc6F)c6ccc([nH]6)c(-c6c(F)cccc6F)c6nc(c(-c7c(F)cccc7F)c7ccc4[nH]7)C=C6)C=C5)cc3)cnc2N2CCCC2)c(C)c1
REMARK SMILES IDX 20 1 19 2 18 3 17 4 16 5 15 6 13 7 14 8 12 9 10 10 11 11
REMARK SMILES IDX 86 12 85 13 84 14 9 15 6 17 7 18 8 19 5 20 1 21 2 22 3 23
REMARK SMILES IDX 94 24 4 25 92 26 93 27 87 28 88 29 91 30 89 31 90 32 21 33
REMARK SMILES IDX 22 34 23 35 24 36 25 37 26 38 27 39 28 40 29 41 30 42 31 43
REMARK SMILES IDX 83 44 32 45 82 46 33 47 34 48 35 49 76 50 36 51 81 52 75 53
REMARK SMILES IDX 77 54 37 55 80 56 74 57 73 58 38 60 64 61 47 62 63 63 48 64
REMARK SMILES IDX 51 65 62 66 78 67 49 68 50 69 61 71 79 72 52 73 39 74 40 75
REMARK SMILES IDX 45 76 41 77 42 78 44 79 46 80 43 81 65 82 66 83 71 84 67 85
REMARK SMILES IDX 68 86 70 87 72 88 69 89 53 90 54 91 59 92 55 93 56 94 58 95
REMARK SMILES IDX 60 96 57 97
REMARK H PARENT 9 16 77 59 51 70
REMARK Flexibility Score: inf
ROOT
ATOM      1  C   UNL     1       2.012  -4.914   3.343  1.00  0.00     0.188 C 
ENDROOT
BRANCH   1   2
ATOM      2  C   UNL     1       3.424  -4.980   2.724  1.00  0.00     0.188 C 
BRANCH   2   3
ATOM      3  O   UNL     1       4.458  -4.092   3.123  1.00  0.00    -0.376 OA
BRANCH   3   4
ATOM      4  C   UNL     1       4.289  -2.695   3.303  1.00  0.00     0.202 C 
BRANCH   4   5
ATOM      5  C   UNL     1       3.386  -1.799   2.441  1.00  0.00     0.261 C 
BRANCH   5   6
ATOM      6  O   UNL     1       2.264  -2.426   1.837  1.00  0.00    -0.460 OA
BRANCH   6   7
ATOM      7  C   UNL     1       2.475  -2.952   0.616  1.00  0.00     0.339 C 
ATOM      8  O   UNL     1       3.492  -2.888  -0.052  1.00  0.00    -0.246 OA
BRANCH   7   9
ATOM      9  C   UNL     1       1.285  -3.722   0.222  1.00  0.00     0.080 A 
ATOM     10  C   UNL     1      -1.070  -3.946   0.017  1.00  0.00     0.092 A 
ATOM     11  C   UNL     1       0.014  -3.386   0.671  1.00  0.00     0.048 A 
ATOM     12  C   UNL     1      -0.869  -5.007  -0.899  1.00  0.00     0.153 A 
ATOM     13  N   UNL     1       0.371  -5.442  -1.212  1.00  0.00    -0.236 NA
ATOM     14  C   UNL     1       1.420  -4.762  -0.686  1.00  0.00     0.129 A 
BRANCH  10  15
ATOM     15  N   UNL     1      -2.384  -3.430   0.263  1.00  0.00    -0.276 N 
ATOM     16  H   UNL     1      -3.041  -3.996   0.729  1.00  0.00     0.180 HD
BRANCH  15  17
ATOM     17  S   UNL     1      -2.839  -1.860  -0.231  1.00  0.00     0.262 S 
ATOM     18  O   UNL     1      -3.557  -1.355   0.923  1.00  0.00    -0.201 OA
ATOM     19  O   UNL     1      -3.515  -1.996  -1.503  1.00  0.00    -0.201 OA
BRANCH  17  20
ATOM     20  C   UNL     1      -1.434  -0.776  -0.525  1.00  0.00     0.090 A 
ATOM     21  C   UNL     1       2.325   1.305  -0.180  1.00  0.00     0.044 C 
ATOM     22  C   UNL     1       1.004   0.627  -0.393  1.00  0.00    -0.051 A 
ATOM     23  C   UNL     1       0.907  -0.547  -1.138  1.00  0.00     0.005 A 
ATOM     24  C   UNL     1      -0.175   1.203   0.083  1.00  0.00     0.008 A 
ATOM     25  C   UNL     1      -0.315  -1.228  -1.233  1.00  0.00     0.023 A 
ATOM     26  C   UNL     1      -1.411   0.533  -0.014  1.00  0.00    -0.030 A 
ATOM     27  C   UNL     1      -2.642   1.346   0.281  1.00  0.00     0.046 C 
ENDBRANCH  17  20
ENDBRANCH  15  17
ENDBRANCH  10  15
BRANCH  12  28
ATOM     28  N   UNL     1      -1.967  -5.586  -1.506  1.00  0.00    -0.355 N 
ATOM     29  C   UNL     1      -2.471  -4.969  -2.723  1.00  0.00     0.118 C 
ATOM     30  C   UNL     1      -2.026  -7.038  -1.670  1.00  0.00     0.118 C 
ATOM     31  C   UNL     1      -3.683  -5.842  -2.998  1.00  0.00     0.023 C 
ATOM     32  C   UNL     1      -3.169  -7.245  -2.680  1.00  0.00     0.023 C 
ENDBRANCH  12  28
ENDBRANCH   7   9
ENDBRANCH   6   7
ENDBRANCH   5   6
ENDBRANCH   4   5
ENDBRANCH   3   4
ENDBRANCH   2   3
ENDBRANCH   1   2
BRANCH   1  33
ATOM     33  O   UNL     1       1.787  -3.766   4.137  1.00  0.00    -0.377 OA
BRANCH  33  34
ATOM     34  C   UNL     1       2.047  -3.898   5.530  1.00  0.00     0.188 C 
BRANCH  34  35
ATOM     35  C   UNL     1       3.222  -4.790   5.988  1.00  0.00     0.188 C 
BRANCH  35  36
ATOM     36  O   UNL     1       3.275  -6.065   5.362  1.00  0.00    -0.376 OA
BRANCH  36  37
ATOM     37  C   UNL     1       2.786  -7.201   6.056  1.00  0.00     0.202 C 
BRANCH  37  38
ATOM     38  C   UNL     1       1.273  -7.262   6.318  1.00  0.00     0.261 C 
BRANCH  38  39
ATOM     39  O   UNL     1       0.731  -6.166   7.069  1.00  0.00    -0.460 OA
BRANCH  39  40
ATOM     40  C   UNL     1       1.203  -5.995   8.319  1.00  0.00     0.338 C 
ATOM     41  O   UNL     1       1.994  -6.714   8.912  1.00  0.00    -0.246 OA
BRANCH  40  42
ATOM     42  C   UNL     1       0.770  -4.671   8.802  1.00  0.00     0.060 A 
ATOM     43  C   UNL     1       1.753  -3.760   9.205  1.00  0.00     0.016 A 
ATOM     44  C   UNL     1      -0.584  -4.332   8.871  1.00  0.00     0.016 A 
ATOM     45  C   UNL     1       1.383  -2.528   9.735  1.00  0.00     0.010 A 
ATOM     46  C   UNL     1      -0.955  -3.100   9.420  1.00  0.00     0.010 A 
ATOM     47  C   UNL     1       0.027  -2.214   9.896  1.00  0.00    -0.014 A 
BRANCH  47  48
ATOM     48  C   UNL     1      -0.329  -1.045  10.734  1.00  0.00     0.031 A 
ATOM     49  C   UNL     1      -0.706  -1.272  12.172  1.00  0.00     0.074 A 
ATOM     50  C   UNL     1      -0.228   0.205  10.254  1.00  0.00     0.049 A 
ATOM     51  N   UNL     1      -0.957  -0.401  13.115  1.00  0.00    -0.248 NA
ATOM     52  C   UNL     1      -0.810  -2.675  12.604  1.00  0.00     0.031 C 
ATOM     53  C   UNL     1       0.148   0.555   8.886  1.00  0.00     0.029 A 
ATOM     54  N   UNL     1      -0.426   1.413  10.873  1.00  0.00    -0.354 N 
ATOM     55  C   UNL     1      -1.241  -1.147  14.252  1.00  0.00     0.074 A 
ATOM     56  C   UNL     1      -1.182  -2.541  13.867  1.00  0.00     0.031 C 
ATOM     57  C   UNL     1       0.154   1.893   8.768  1.00  0.00     0.029 A 
ATOM     58  C   UNL     1      -0.237   2.490  10.044  1.00  0.00     0.049 A 
ATOM     59  H   UNL     1      -0.680   1.499  11.820  1.00  0.00     0.167 HD
ATOM     60  C   UNL     1      -1.510  -0.714  15.507  1.00  0.00     0.037 A 
ATOM     61  C   UNL     1      -0.372   3.808  10.287  1.00  0.00     0.037 A 
ATOM     62  C   UNL     1      -1.592   0.675  15.880  1.00  0.00     0.049 A 
ATOM     63  C   UNL     1      -0.728   4.272  11.674  1.00  0.00     0.074 A 
ATOM     64  C   UNL     1      -1.854   1.221  17.124  1.00  0.00     0.029 A 
ATOM     65  N   UNL     1      -1.431   1.740  15.004  1.00  0.00    -0.354 N 
ATOM     66  N   UNL     1      -0.957   3.561  12.752  1.00  0.00    -0.248 NA
ATOM     67  C   UNL     1      -0.825   5.723  11.880  1.00  0.00     0.031 C 
ATOM     68  C   UNL     1      -1.913   2.613  16.988  1.00  0.00     0.029 A 
ATOM     69  C   UNL     1      -1.615   2.939  15.674  1.00  0.00     0.049 A 
ATOM     70  H   UNL     1      -1.217   1.655  14.046  1.00  0.00     0.167 HD
ATOM     71  C   UNL     1      -1.201   4.476  13.770  1.00  0.00     0.074 A 
ATOM     72  C   UNL     1      -1.072   5.794  13.181  1.00  0.00     0.031 C 
ATOM     73  C   UNL     1      -1.497   4.247  15.075  1.00  0.00     0.037 A 
BRANCH  60  74
ATOM     74  C   UNL     1      -1.774  -1.765  16.549  1.00  0.00     0.057 A 
ATOM     75  C   UNL     1      -0.772  -2.638  16.998  1.00  0.00     0.134 A 
ATOM     76  C   UNL     1      -3.052  -1.917  17.101  1.00  0.00     0.134 A 
ATOM     77  F   UNL     1       0.472  -2.560  16.501  1.00  0.00    -0.206 F 
ATOM     78  C   UNL     1      -1.043  -3.651  17.921  1.00  0.00     0.040 A 
ATOM     79  C   UNL     1      -3.327  -2.904  18.050  1.00  0.00     0.040 A 
ATOM     80  F   UNL     1      -4.058  -1.114  16.724  1.00  0.00    -0.206 F 
ATOM     81  C   UNL     1      -2.324  -3.782  18.453  1.00  0.00     0.006 A 
ENDBRANCH  60  74
BRANCH  61  82
ATOM     82  C   UNL     1      -0.164   4.778   9.183  1.00  0.00     0.057 A 
ATOM     83  C   UNL     1       0.942   5.634   9.155  1.00  0.00     0.134 A 
ATOM     84  C   UNL     1      -1.065   4.854   8.113  1.00  0.00     0.134 A 
ATOM     85  F   UNL     1       1.829   5.625  10.161  1.00  0.00    -0.206 F 
ATOM     86  C   UNL     1       1.142   6.536   8.108  1.00  0.00     0.040 A 
ATOM     87  C   UNL     1      -0.863   5.730   7.046  1.00  0.00     0.040 A 
ATOM     88  F   UNL     1      -2.143   4.057   8.079  1.00  0.00    -0.206 F 
ATOM     89  C   UNL     1       0.242   6.578   7.045  1.00  0.00     0.006 A 
ENDBRANCH  61  82
BRANCH  73  90
ATOM     90  C   UNL     1      -1.666   5.450  15.962  1.00  0.00     0.057 A 
ATOM     91  C   UNL     1      -2.749   6.330  15.832  1.00  0.00     0.134 A 
ATOM     92  C   UNL     1      -0.733   5.726  16.971  1.00  0.00     0.134 A 
ATOM     93  F   UNL     1      -3.676   6.132  14.882  1.00  0.00    -0.206 F 
ATOM     94  C   UNL     1      -2.875   7.461  16.642  1.00  0.00     0.040 A 
ATOM     95  C   UNL     1      -0.866   6.835  17.809  1.00  0.00     0.040 A 
ATOM     96  F   UNL     1       0.322   4.920  17.163  1.00  0.00    -0.206 F 
ATOM     97  C   UNL     1      -1.933   7.713  17.637  1.00  0.00     0.006 A 
ENDBRANCH  73  90
ENDBRANCH  47  48
ENDBRANCH  40  42
ENDBRANCH  39  40
ENDBRANCH  38  39
ENDBRANCH  37  38
ENDBRANCH  36  37
ENDBRANCH  35  36
ENDBRANCH  34  35
ENDBRANCH  33  34
ENDBRANCH   1  33
TORSDOF 24
