REMARK SMILES CC[C@](C)([NH3+])C(=O)Nc1ccc(C(F)(F)F)cc1C(=O)OCCOCCOCCOCCOC(=O)c1ccc(-c2c3nc(c(-c4c(F)cccc4F)c4ccc([nH]4)c(-c4c(F)cccc4F)c4nc(c(-c5c(F)cccc5F)c5ccc2[nH]5)C=C4)C=C3)cc1
REMARK SMILES IDX 26 1 25 2 24 3 23 4 22 5 21 6 19 7 20 8 18 9 9 10 10 11
REMARK SMILES IDX 11 12 17 13 12 14 8 15 6 16 7 17 3 19 4 20 2 21 1 22 5 23
REMARK SMILES IDX 13 27 14 28 15 29 16 30 27 31 28 32 29 33 30 34 31 35 32 36
REMARK SMILES IDX 33 37 34 38 35 39 36 40 37 41 89 42 38 43 88 44 39 45 40 46
REMARK SMILES IDX 41 47 82 48 42 49 87 50 81 51 83 52 43 53 86 54 80 55 79 56
REMARK SMILES IDX 44 58 70 59 53 60 69 61 54 62 57 63 68 64 84 65 55 66 56 67
REMARK SMILES IDX 67 69 85 70 58 71 45 72 46 73 51 74 47 75 48 76 50 77 52 78
REMARK SMILES IDX 49 79 71 80 72 81 77 82 73 83 74 84 76 85 78 86 75 87 59 88
REMARK SMILES IDX 60 89 65 90 61 91 62 92 64 93 66 94 63 95
REMARK H PARENT 8 18 5 24 5 25 5 26 83 57 57 68
REMARK Flexibility Score: inf
ROOT
ATOM      1  C   UNL     1       2.150   5.045   4.372  1.00  0.00     0.188 C 
ENDROOT
BRANCH   1   2
ATOM      2  C   UNL     1       0.684   4.922   4.843  1.00  0.00     0.188 C 
BRANCH   2   3
ATOM      3  O   UNL     1       0.358   3.687   5.448  1.00  0.00    -0.376 OA
BRANCH   3   4
ATOM      4  C   UNL     1      -0.141   2.607   4.690  1.00  0.00     0.202 C 
BRANCH   4   5
ATOM      5  C   UNL     1       0.387   2.255   3.301  1.00  0.00     0.261 C 
BRANCH   5   6
ATOM      6  O   UNL     1       0.920   3.303   2.489  1.00  0.00    -0.460 OA
BRANCH   6   7
ATOM      7  C   UNL     1       0.111   4.189   1.888  1.00  0.00     0.340 C 
ATOM      8  O   UNL     1      -1.088   4.310   2.072  1.00  0.00    -0.246 OA
BRANCH   7   9
ATOM      9  C   UNL     1       0.895   5.028   0.941  1.00  0.00     0.084 A 
ATOM     10  C   UNL     1       2.031   4.588   0.241  1.00  0.00     0.056 A 
ATOM     11  C   UNL     1       2.816   5.532  -0.440  1.00  0.00     0.027 A 
ATOM     12  C   UNL     1       2.416   6.867  -0.535  1.00  0.00     0.015 A 
ATOM     13  C   UNL     1       0.499   6.375   0.843  1.00  0.00     0.031 A 
ATOM     14  C   UNL     1       1.241   7.299   0.090  1.00  0.00     0.057 A 
BRANCH  10  15
ATOM     15  N   UNL     1       2.538   3.283   0.231  1.00  0.00    -0.320 N 
ATOM     16  C   UNL     1       1.958   2.047   0.242  1.00  0.00     0.285 C 
ATOM     17  O   UNL     1       2.681   1.138   0.678  1.00  0.00    -0.267 OA
ATOM     18  H   UNL     1       3.522   3.249   0.212  1.00  0.00     0.170 HD
BRANCH  16  19
ATOM     19  C   UNL     1       0.612   1.704  -0.495  1.00  0.00     0.171 C 
ATOM     20  C   UNL     1       0.321   0.211  -0.241  1.00  0.00     0.090 C 
BRANCH  19  21
ATOM     21  C   UNL     1       0.694   2.078  -1.985  1.00  0.00     0.075 C 
ATOM     22  C   UNL     1       1.907   1.554  -2.730  1.00  0.00     0.011 C 
ENDBRANCH  19  21
BRANCH  19  23
ATOM     23  N   UNL     1      -0.613   2.374  -0.051  1.00  0.00    -0.345 N 
ATOM     24  H   UNL     1      -0.763   2.187   0.941  1.00  0.00     0.345 HD
ATOM     25  H   UNL     1      -1.407   2.022  -0.587  1.00  0.00     0.345 HD
ATOM     26  H   UNL     1      -0.523   3.380  -0.197  1.00  0.00     0.345 HD
ENDBRANCH  19  23
ENDBRANCH  16  19
ENDBRANCH  10  15
BRANCH  14  27
ATOM     27  C   UNL     1       0.781   8.729  -0.069  1.00  0.00     0.416 C 
ATOM     28  F   UNL     1       1.774   9.629   0.169  1.00  0.00    -0.166 F 
ATOM     29  F   UNL     1       0.336   8.983  -1.329  1.00  0.00    -0.166 F 
ATOM     30  F   UNL     1      -0.238   9.064   0.767  1.00  0.00    -0.166 F 
ENDBRANCH  14  27
ENDBRANCH   7   9
ENDBRANCH   6   7
ENDBRANCH   5   6
ENDBRANCH   4   5
ENDBRANCH   3   4
ENDBRANCH   2   3
ENDBRANCH   1   2
BRANCH   1  31
ATOM     31  O   UNL     1       2.888   3.841   4.236  1.00  0.00    -0.377 OA
BRANCH  31  32
ATOM     32  C   UNL     1       3.192   3.049   5.382  1.00  0.00     0.188 C 
BRANCH  32  33
ATOM     33  C   UNL     1       2.710   3.425   6.803  1.00  0.00     0.188 C 
BRANCH  33  34
ATOM     34  O   UNL     1       2.440   4.800   6.996  1.00  0.00    -0.376 OA
BRANCH  34  35
ATOM     35  C   UNL     1       3.404   5.628   7.614  1.00  0.00     0.202 C 
BRANCH  35  36
ATOM     36  C   UNL     1       4.805   5.708   6.994  1.00  0.00     0.261 C 
BRANCH  36  37
ATOM     37  O   UNL     1       5.478   4.463   6.764  1.00  0.00    -0.460 OA
BRANCH  37  38
ATOM     38  C   UNL     1       5.731   3.680   7.832  1.00  0.00     0.338 C 
ATOM     39  O   UNL     1       5.480   3.917   9.003  1.00  0.00    -0.246 OA
BRANCH  38  40
ATOM     40  C   UNL     1       6.200   2.378   7.317  1.00  0.00     0.060 A 
ATOM     41  C   UNL     1       5.462   1.218   7.595  1.00  0.00     0.016 A 
ATOM     42  C   UNL     1       7.364   2.313   6.550  1.00  0.00     0.016 A 
ATOM     43  C   UNL     1       5.912  -0.019   7.140  1.00  0.00     0.010 A 
ATOM     44  C   UNL     1       7.830   1.071   6.120  1.00  0.00     0.010 A 
ATOM     45  C   UNL     1       7.127  -0.102   6.450  1.00  0.00    -0.014 A 
BRANCH  45  46
ATOM     46  C   UNL     1       7.789  -1.416   6.293  1.00  0.00     0.031 A 
ATOM     47  C   UNL     1       8.831  -1.801   7.306  1.00  0.00     0.074 A 
ATOM     48  C   UNL     1       7.472  -2.251   5.290  1.00  0.00     0.049 A 
ATOM     49  N   UNL     1       9.607  -2.852   7.347  1.00  0.00    -0.248 NA
ATOM     50  C   UNL     1       9.026  -0.863   8.425  1.00  0.00     0.031 C 
ATOM     51  C   UNL     1       6.445  -2.010   4.279  1.00  0.00     0.029 A 
ATOM     52  N   UNL     1       8.001  -3.471   4.954  1.00  0.00    -0.354 N 
ATOM     53  C   UNL     1      10.389  -2.695   8.484  1.00  0.00     0.074 A 
ATOM     54  C   UNL     1      10.018  -1.435   9.088  1.00  0.00     0.031 C 
ATOM     55  C   UNL     1       6.431  -3.046   3.421  1.00  0.00     0.029 A 
ATOM     56  C   UNL     1       7.473  -3.999   3.803  1.00  0.00     0.049 A 
ATOM     57  H   UNL     1       8.693  -3.924   5.488  1.00  0.00     0.167 HD
ATOM     58  C   UNL     1      11.330  -3.530   8.983  1.00  0.00     0.037 A 
ATOM     59  C   UNL     1       7.816  -5.111   3.123  1.00  0.00     0.037 A 
ATOM     60  C   UNL     1      11.699  -4.779   8.371  1.00  0.00     0.049 A 
ATOM     61  C   UNL     1       8.924  -5.985   3.651  1.00  0.00     0.074 A 
ATOM     62  C   UNL     1      12.629  -5.708   8.802  1.00  0.00     0.029 A 
ATOM     63  N   UNL     1      11.163  -5.266   7.189  1.00  0.00    -0.354 N 
ATOM     64  N   UNL     1       9.648  -5.844   4.737  1.00  0.00    -0.248 NA
ATOM     65  C   UNL     1       9.263  -7.176   2.859  1.00  0.00     0.031 C 
ATOM     66  C   UNL     1      12.701  -6.726   7.847  1.00  0.00     0.029 A 
ATOM     67  C   UNL     1      11.766  -6.468   6.857  1.00  0.00     0.049 A 
ATOM     68  H   UNL     1      10.458  -4.823   6.663  1.00  0.00     0.167 HD
ATOM     69  C   UNL     1      10.501  -6.941   4.775  1.00  0.00     0.074 A 
ATOM     70  C   UNL     1      10.198  -7.744   3.608  1.00  0.00     0.031 C 
ATOM     71  C   UNL     1      11.447  -7.258   5.694  1.00  0.00     0.037 A 
BRANCH  58  72
ATOM     72  C   UNL     1      12.051  -3.093  10.225  1.00  0.00     0.057 A 
ATOM     73  C   UNL     1      11.414  -3.021  11.472  1.00  0.00     0.134 A 
ATOM     74  C   UNL     1      13.407  -2.746  10.174  1.00  0.00     0.134 A 
ATOM     75  F   UNL     1      10.111  -3.321  11.589  1.00  0.00    -0.206 F 
ATOM     76  C   UNL     1      12.091  -2.591  12.614  1.00  0.00     0.040 A 
ATOM     77  C   UNL     1      14.103  -2.345  11.315  1.00  0.00     0.040 A 
ATOM     78  F   UNL     1      14.079  -2.793   9.013  1.00  0.00    -0.206 F 
ATOM     79  C   UNL     1      13.443  -2.258  12.538  1.00  0.00     0.006 A 
ENDBRANCH  58  72
BRANCH  59  80
ATOM     80  C   UNL     1       7.116  -5.453   1.859  1.00  0.00     0.057 A 
ATOM     81  C   UNL     1       6.286  -6.576   1.769  1.00  0.00     0.134 A 
ATOM     82  C   UNL     1       7.271  -4.674   0.706  1.00  0.00     0.134 A 
ATOM     83  F   UNL     1       6.117  -7.377   2.831  1.00  0.00    -0.206 F 
ATOM     84  C   UNL     1       5.648  -6.921   0.576  1.00  0.00     0.040 A 
ATOM     85  C   UNL     1       6.617  -4.991  -0.486  1.00  0.00     0.040 A 
ATOM     86  F   UNL     1       8.056  -3.586   0.724  1.00  0.00    -0.206 F 
ATOM     87  C   UNL     1       5.808  -6.122  -0.555  1.00  0.00     0.006 A 
ENDBRANCH  59  80
BRANCH  71  88
ATOM     88  C   UNL     1      12.193  -8.549   5.504  1.00  0.00     0.057 A 
ATOM     89  C   UNL     1      13.134  -8.723   4.481  1.00  0.00     0.134 A 
ATOM     90  C   UNL     1      12.000  -9.617   6.391  1.00  0.00     0.134 A 
ATOM     91  F   UNL     1      13.361  -7.745   3.591  1.00  0.00    -0.206 F 
ATOM     92  C   UNL     1      13.836  -9.921   4.331  1.00  0.00     0.040 A 
ATOM     93  C   UNL     1      12.719 -10.807   6.271  1.00  0.00     0.040 A 
ATOM     94  F   UNL     1      11.124  -9.514   7.402  1.00  0.00    -0.206 F 
ATOM     95  C   UNL     1      13.635 -10.964   5.234  1.00  0.00     0.006 A 
ENDBRANCH  71  88
ENDBRANCH  45  46
ENDBRANCH  38  40
ENDBRANCH  37  38
ENDBRANCH  36  37
ENDBRANCH  35  36
ENDBRANCH  34  35
ENDBRANCH  33  34
ENDBRANCH  32  33
ENDBRANCH  31  32
ENDBRANCH   1  31
TORSDOF 25
