REMARK SMILES NS(=O)(=O)c1ccc(-n2nc(NC(=O)NCCCCCCCCCCC(=O)OCCOCCOCCOCCOC(=O)c3ccc(-c4c5nc(c(-c6c(F)cccc6F)c6ccc([nH]6)c(-c6c(F)cccc6F)c6nc(c(-c7c(F)cccc7F)c7ccc4[nH]7)C=C6)C=C5)cc3)cc2-c2ccccc2)cc1
REMARK SMILES IDX 28 1 26 2 27 3 25 4 24 5 23 6 22 7 21 8 20 9 19 10 18 11
REMARK SMILES IDX 17 12 16 13 15 14 12 15 13 16 14 18 11 20 9 21 10 22 98 23
REMARK SMILES IDX 97 24 8 25 5 26 6 27 106 28 7 29 105 30 2 31 3 32 4 33 1 34
REMARK SMILES IDX 99 37 100 38 104 39 101 40 103 41 102 42 29 43 30 44 31 45
REMARK SMILES IDX 32 46 33 47 34 48 35 49 36 50 37 51 38 52 39 53 40 54 41 55
REMARK SMILES IDX 42 56 43 57 44 58 96 59 45 60 95 61 46 62 47 63 48 64 89 65
REMARK SMILES IDX 49 66 94 67 88 68 90 69 50 70 93 71 87 72 86 73 51 75 77 76
REMARK SMILES IDX 60 77 76 78 61 79 64 80 75 81 91 82 62 83 63 84 74 86 92 87
REMARK SMILES IDX 65 88 52 89 53 90 58 91 54 92 55 93 57 94 59 95 56 96 78 97
REMARK SMILES IDX 79 98 84 99 80 100 81 101 83 102 85 103 82 104 66 105 67 106
REMARK SMILES IDX 72 107 68 108 69 109 71 110 73 111 70 112
REMARK H PARENT 12 17 15 19 1 35 1 36 90 74 64 85
REMARK Flexibility Score: inf
ROOT
ATOM      1  O   UNL     1       6.844  -2.523   5.587  1.00  0.00    -0.463 OA
ENDROOT
BRANCH   1   2
ATOM      2  C   UNL     1       5.621  -2.888   6.023  1.00  0.00     0.305 C 
ATOM      3  O   UNL     1       5.386  -3.286   7.160  1.00  0.00    -0.252 OA
BRANCH   2   4
ATOM      4  C   UNL     1       4.506  -2.697   5.004  1.00  0.00     0.123 C 
BRANCH   4   5
ATOM      5  C   UNL     1       4.766  -2.417   3.519  1.00  0.00     0.012 C 
BRANCH   5   6
ATOM      6  C   UNL     1       5.955  -3.125   2.872  1.00  0.00     0.001 C 
BRANCH   6   7
ATOM      7  C   UNL     1       5.766  -4.635   2.833  1.00  0.00     0.000 C 
BRANCH   7   8
ATOM      8  C   UNL     1       4.662  -5.051   1.864  1.00  0.00     0.000 C 
BRANCH   8   9
ATOM      9  C   UNL     1       4.945  -4.664   0.410  1.00  0.00     0.000 C 
BRANCH   9  10
ATOM     10  C   UNL     1       6.258  -5.223  -0.152  1.00  0.00     0.000 C 
BRANCH  10  11
ATOM     11  C   UNL     1       6.422  -6.742  -0.011  1.00  0.00     0.002 C 
BRANCH  11  12
ATOM     12  C   UNL     1       5.219  -7.572  -0.458  1.00  0.00     0.021 C 
BRANCH  12  13
ATOM     13  C   UNL     1       4.713  -7.250  -1.852  1.00  0.00     0.117 C 
BRANCH  13  14
ATOM     14  N   UNL     1       5.559  -7.734  -2.917  1.00  0.00    -0.338 N 
ATOM     15  N   UNL     1       3.945  -8.138  -4.613  1.00  0.00    -0.291 N 
ATOM     16  C   UNL     1       5.213  -8.187  -4.142  1.00  0.00     0.320 C 
ATOM     17  H   UNL     1       3.739  -8.811  -5.301  1.00  0.00     0.173 HD
ATOM     18  O   UNL     1       6.073  -8.777  -4.803  1.00  0.00    -0.248 OA
ATOM     19  H   UNL     1       6.524  -7.736  -2.723  1.00  0.00     0.165 HD
BRANCH  15  20
ATOM     20  C   UNL     1       2.895  -7.306  -4.295  1.00  0.00     0.157 A 
ATOM     21  N   UNL     1       1.763  -5.815  -3.301  1.00  0.00    -0.231 N 
ATOM     22  N   UNL     1       3.004  -6.091  -3.754  1.00  0.00    -0.149 NA
ATOM     23  C   UNL     1       0.809  -6.613  -3.925  1.00  0.00     0.076 A 
ATOM     24  C   UNL     1       1.538  -7.616  -4.539  1.00  0.00     0.078 A 
BRANCH  21  25
ATOM     25  C   UNL     1       1.572  -4.857  -2.268  1.00  0.00     0.065 A 
ATOM     26  C   UNL     1       1.053  -2.893  -0.360  1.00  0.00     0.082 A 
ATOM     27  C   UNL     1       0.337  -4.091  -0.328  1.00  0.00     0.024 A 
ATOM     28  C   UNL     1       2.063  -2.690  -1.308  1.00  0.00     0.024 A 
ATOM     29  C   UNL     1       0.597  -5.074  -1.281  1.00  0.00     0.030 A 
ATOM     30  C   UNL     1       2.341  -3.687  -2.251  1.00  0.00     0.030 A 
BRANCH  26  31
ATOM     31  S   UNL     1       0.595  -1.627   0.785  1.00  0.00     0.238 S 
ATOM     32  O   UNL     1       1.357  -1.794   1.987  1.00  0.00    -0.207 OA
ATOM     33  O   UNL     1      -0.856  -1.516   0.779  1.00  0.00    -0.207 OA
BRANCH  31  34
ATOM     34  N   UNL     1       1.132  -0.201   0.076  1.00  0.00    -0.225 NA
ATOM     35  H   UNL     1       0.904   0.587   0.682  1.00  0.00     0.137 HD
ATOM     36  H   UNL     1       0.677  -0.078  -0.828  1.00  0.00     0.137 HD
ENDBRANCH  31  34
ENDBRANCH  26  31
ENDBRANCH  21  25
BRANCH  23  37
ATOM     37  C   UNL     1      -0.629  -6.351  -3.886  1.00  0.00     0.000 A 
ATOM     38  C   UNL     1      -1.105  -5.048  -4.107  1.00  0.00     0.010 A 
ATOM     39  C   UNL     1      -1.539  -7.362  -3.565  1.00  0.00     0.010 A 
ATOM     40  C   UNL     1      -2.456  -4.747  -3.950  1.00  0.00     0.001 A 
ATOM     41  C   UNL     1      -2.897  -7.060  -3.422  1.00  0.00     0.001 A 
ATOM     42  C   UNL     1      -3.351  -5.753  -3.602  1.00  0.00     0.000 A 
ENDBRANCH  23  37
ENDBRANCH  15  20
ENDBRANCH  13  14
ENDBRANCH  12  13
ENDBRANCH  11  12
ENDBRANCH  10  11
ENDBRANCH   9  10
ENDBRANCH   8   9
ENDBRANCH   7   8
ENDBRANCH   6   7
ENDBRANCH   5   6
ENDBRANCH   4   5
ENDBRANCH   2   4
ENDBRANCH   1   2
BRANCH   1  43
ATOM     43  C   UNL     1       7.940  -2.619   6.504  1.00  0.00     0.261 C 
BRANCH  43  44
ATOM     44  C   UNL     1       8.675  -1.304   6.821  1.00  0.00     0.202 C 
BRANCH  44  45
ATOM     45  O   UNL     1       8.040  -0.036   6.804  1.00  0.00    -0.376 OA
BRANCH  45  46
ATOM     46  C   UNL     1       6.972   0.224   5.912  1.00  0.00     0.188 C 
BRANCH  46  47
ATOM     47  C   UNL     1       7.173   0.012   4.403  1.00  0.00     0.188 C 
BRANCH  47  48
ATOM     48  O   UNL     1       8.304  -0.731   4.002  1.00  0.00    -0.377 OA
BRANCH  48  49
ATOM     49  C   UNL     1       9.530  -0.039   3.821  1.00  0.00     0.188 C 
BRANCH  49  50
ATOM     50  C   UNL     1       9.777   1.334   4.488  1.00  0.00     0.188 C 
BRANCH  50  51
ATOM     51  O   UNL     1       8.625   2.139   4.713  1.00  0.00    -0.376 OA
BRANCH  51  52
ATOM     52  C   UNL     1       8.340   3.252   3.880  1.00  0.00     0.202 C 
BRANCH  52  53
ATOM     53  C   UNL     1       7.866   2.947   2.457  1.00  0.00     0.261 C 
BRANCH  53  54
ATOM     54  O   UNL     1       8.681   2.012   1.771  1.00  0.00    -0.460 OA
BRANCH  54  55
ATOM     55  C   UNL     1       9.941   2.434   1.562  1.00  0.00     0.338 C 
ATOM     56  O   UNL     1      10.475   3.432   2.015  1.00  0.00    -0.246 OA
BRANCH  55  57
ATOM     57  C   UNL     1      10.567   1.574   0.563  1.00  0.00     0.060 A 
ATOM     58  C   UNL     1      11.919   1.821   0.332  1.00  0.00     0.016 A 
ATOM     59  C   UNL     1       9.745   0.900  -0.353  1.00  0.00     0.016 A 
ATOM     60  C   UNL     1      12.372   1.670  -0.951  1.00  0.00     0.010 A 
ATOM     61  C   UNL     1      10.198   0.760  -1.638  1.00  0.00     0.010 A 
ATOM     62  C   UNL     1      11.463   1.255  -1.932  1.00  0.00    -0.014 A 
BRANCH  62  63
ATOM     63  C   UNL     1      11.902   1.339  -3.300  1.00  0.00     0.031 A 
ATOM     64  C   UNL     1      12.872   0.287  -3.644  1.00  0.00     0.074 A 
ATOM     65  C   UNL     1      11.433   2.268  -4.150  1.00  0.00     0.049 A 
ATOM     66  N   UNL     1      14.134   0.429  -3.865  1.00  0.00    -0.248 NA
ATOM     67  C   UNL     1      12.421  -1.109  -3.534  1.00  0.00     0.031 C 
ATOM     68  C   UNL     1      10.292   3.171  -3.986  1.00  0.00     0.029 A 
ATOM     69  N   UNL     1      11.854   2.532  -5.412  1.00  0.00    -0.354 N 
ATOM     70  C   UNL     1      14.602  -0.849  -4.131  1.00  0.00     0.074 A 
ATOM     71  C   UNL     1      13.566  -1.763  -3.725  1.00  0.00     0.031 C 
ATOM     72  C   UNL     1       9.976   3.704  -5.191  1.00  0.00     0.029 A 
ATOM     73  C   UNL     1      10.967   3.283  -6.166  1.00  0.00     0.049 A 
ATOM     74  H   UNL     1      12.717   2.216  -5.763  1.00  0.00     0.167 HD
ATOM     75  C   UNL     1      15.695  -1.040  -4.912  1.00  0.00     0.037 A 
ATOM     76  C   UNL     1      11.024   3.441  -7.512  1.00  0.00     0.037 A 
ATOM     77  C   UNL     1      16.485   0.160  -5.020  1.00  0.00     0.049 A 
ATOM     78  C   UNL     1      12.406   3.095  -7.943  1.00  0.00     0.074 A 
ATOM     79  C   UNL     1      17.150   0.966  -4.116  1.00  0.00     0.029 A 
ATOM     80  N   UNL     1      16.360   0.905  -6.167  1.00  0.00    -0.354 N 
ATOM     81  N   UNL     1      13.457   3.815  -7.663  1.00  0.00    -0.248 NA
ATOM     82  C   UNL     1      12.681   1.706  -8.287  1.00  0.00     0.031 C 
ATOM     83  C   UNL     1      16.972   2.294  -4.601  1.00  0.00     0.029 A 
ATOM     84  C   UNL     1      16.254   2.221  -5.795  1.00  0.00     0.049 A 
ATOM     85  H   UNL     1      16.349   0.558  -7.088  1.00  0.00     0.167 HD
ATOM     86  C   UNL     1      14.454   2.894  -7.375  1.00  0.00     0.074 A 
ATOM     87  C   UNL     1      13.943   1.614  -7.859  1.00  0.00     0.031 C 
ATOM     88  C   UNL     1      15.469   3.198  -6.513  1.00  0.00     0.037 A 
BRANCH  75  89
ATOM     89  C   UNL     1      15.819  -2.184  -5.880  1.00  0.00     0.057 A 
ATOM     90  C   UNL     1      17.050  -2.412  -6.513  1.00  0.00     0.134 A 
ATOM     91  C   UNL     1      14.719  -2.879  -6.427  1.00  0.00     0.134 A 
ATOM     92  F   UNL     1      18.162  -1.788  -6.097  1.00  0.00    -0.206 F 
ATOM     93  C   UNL     1      17.165  -3.221  -7.648  1.00  0.00     0.040 A 
ATOM     94  C   UNL     1      14.834  -3.733  -7.524  1.00  0.00     0.040 A 
ATOM     95  F   UNL     1      13.463  -2.691  -6.005  1.00  0.00    -0.206 F 
ATOM     96  C   UNL     1      16.054  -3.881  -8.159  1.00  0.00     0.006 A 
ENDBRANCH  75  89
BRANCH  76  97
ATOM     97  C   UNL     1       9.897   3.513  -8.470  1.00  0.00     0.057 A 
ATOM     98  C   UNL     1      10.103   3.923  -9.795  1.00  0.00     0.134 A 
ATOM     99  C   UNL     1       8.652   2.917  -8.196  1.00  0.00     0.134 A 
ATOM    100  F   UNL     1      11.272   4.466 -10.164  1.00  0.00    -0.206 F 
ATOM    101  C   UNL     1       9.142   3.724 -10.795  1.00  0.00     0.040 A 
ATOM    102  C   UNL     1       7.681   2.720  -9.183  1.00  0.00     0.040 A 
ATOM    103  F   UNL     1       8.369   2.421  -6.984  1.00  0.00    -0.206 F 
ATOM    104  C   UNL     1       7.931   3.110 -10.493  1.00  0.00     0.006 A 
ENDBRANCH  76  97
BRANCH  88 105
ATOM    105  C   UNL     1      15.623   4.633  -6.090  1.00  0.00     0.057 A 
ATOM    106  C   UNL     1      14.660   5.345  -5.357  1.00  0.00     0.134 A 
ATOM    107  C   UNL     1      16.850   5.269  -6.305  1.00  0.00     0.134 A 
ATOM    108  F   UNL     1      13.495   4.783  -5.012  1.00  0.00    -0.206 F 
ATOM    109  C   UNL     1      14.894   6.647  -4.902  1.00  0.00     0.040 A 
ATOM    110  C   UNL     1      17.110   6.554  -5.826  1.00  0.00     0.040 A 
ATOM    111  F   UNL     1      17.839   4.627  -6.948  1.00  0.00    -0.206 F 
ATOM    112  C   UNL     1      16.126   7.253  -5.131  1.00  0.00     0.006 A 
ENDBRANCH  88 105
ENDBRANCH  62  63
ENDBRANCH  55  57
ENDBRANCH  54  55
ENDBRANCH  53  54
ENDBRANCH  52  53
ENDBRANCH  51  52
ENDBRANCH  50  51
ENDBRANCH  49  50
ENDBRANCH  48  49
ENDBRANCH  47  48
ENDBRANCH  46  47
ENDBRANCH  45  46
ENDBRANCH  44  45
ENDBRANCH  43  44
ENDBRANCH   1  43
TORSDOF 35
