REMARK SMILES Cc1ccnc(C(=O)c2[nH]c3ccc(F)cc3c2CC(=O)OCCOCCOCCOCCOC(=O)c2ccc(-c3c4nc(c(-c5c(F)cccc5F)c5ccc([nH]5)c(-c5c(F)cccc5F)c5nc(c(-c6c(F)cccc6F)c6ccc3[nH]6)C=C5)C=C4)cc2)c1
REMARK SMILES IDX 27 1 26 2 25 3 24 4 23 5 22 6 20 7 21 8 19 9 18 10 9 11
REMARK SMILES IDX 10 12 11 13 17 15 12 16 16 17 13 18 14 19 15 20 7 21 8 22
REMARK SMILES IDX 6 23 1 24 2 25 3 26 91 27 4 28 5 29 28 30 29 31 30 32 31 33
REMARK SMILES IDX 32 34 33 35 34 36 35 37 36 38 37 39 38 40 90 41 39 42 89 43
REMARK SMILES IDX 40 44 41 45 42 46 83 47 43 48 88 49 82 50 84 51 44 52 87 53
REMARK SMILES IDX 81 54 80 55 45 57 71 58 54 59 70 60 55 61 58 62 69 63 85 64
REMARK SMILES IDX 56 65 57 66 68 68 86 69 59 70 46 71 47 72 52 73 48 74 49 75
REMARK SMILES IDX 51 76 53 77 50 78 72 79 73 80 78 81 74 82 75 83 77 84 79 85
REMARK SMILES IDX 76 86 60 87 61 88 66 89 62 90 63 91 65 92 67 93 64 94
REMARK H PARENT 10 14 84 56 58 67
REMARK Flexibility Score: inf
ROOT
ATOM      1  C   UNL     1      -1.624  -2.037  -0.114  1.00  0.00     0.188 C 
ENDROOT
BRANCH   1   2
ATOM      2  C   UNL     1      -1.420  -1.140  -1.349  1.00  0.00     0.188 C 
BRANCH   2   3
ATOM      3  O   UNL     1      -2.543  -0.338  -1.616  1.00  0.00    -0.376 OA
BRANCH   3   4
ATOM      4  C   UNL     1      -3.196  -0.763  -2.801  1.00  0.00     0.202 C 
BRANCH   4   5
ATOM      5  C   UNL     1      -3.616  -2.249  -2.724  1.00  0.00     0.261 C 
BRANCH   5   6
ATOM      6  O   UNL     1      -2.493  -3.196  -2.575  1.00  0.00    -0.463 OA
BRANCH   6   7
ATOM      7  C   UNL     1      -1.625  -3.344  -3.611  1.00  0.00     0.310 C 
ATOM      8  O   UNL     1      -1.978  -3.154  -4.773  1.00  0.00    -0.252 OA
BRANCH   7   9
ATOM      9  C   UNL     1      -0.134  -3.616  -3.243  1.00  0.00     0.161 C 
BRANCH   9  10
ATOM     10  C   UNL     1       0.368  -3.803  -1.792  1.00  0.00     0.000 A 
ATOM     11  C   UNL     1       1.315  -3.091  -0.964  1.00  0.00     0.093 A 
ATOM     12  N   UNL     1       1.629  -4.024   0.034  1.00  0.00    -0.352 N 
ATOM     13  C   UNL     1       0.797  -5.115   0.056  1.00  0.00     0.046 A 
ATOM     14  H   UNL     1       2.379  -3.908   0.662  1.00  0.00     0.167 HD
ATOM     15  C   UNL     1      -0.009  -5.018  -1.070  1.00  0.00     0.007 A 
ATOM     16  C   UNL     1       0.740  -6.201   0.950  1.00  0.00     0.030 A 
ATOM     17  C   UNL     1      -0.921  -6.074  -1.320  1.00  0.00     0.049 A 
ATOM     18  C   UNL     1      -0.192  -7.214   0.696  1.00  0.00     0.041 A 
ATOM     19  C   UNL     1      -1.005  -7.143  -0.423  1.00  0.00     0.123 A 
ATOM     20  F   UNL     1      -1.886  -8.127  -0.655  1.00  0.00    -0.207 F 
BRANCH  11  21
ATOM     21  C   UNL     1       2.222  -1.868  -1.003  1.00  0.00     0.227 C 
ATOM     22  O   UNL     1       3.429  -2.098  -1.125  1.00  0.00    -0.285 OA
BRANCH  21  23
ATOM     23  C   UNL     1       1.888  -0.369  -0.646  1.00  0.00     0.113 A 
ATOM     24  C   UNL     1      -0.973   1.854   0.639  1.00  0.00     0.044 C 
ATOM     25  C   UNL     1       0.399   1.434   0.165  1.00  0.00    -0.047 A 
ATOM     26  C   UNL     1       1.317   2.369  -0.251  1.00  0.00     0.023 A 
ATOM     27  C   UNL     1       0.796   0.078   0.083  1.00  0.00     0.036 A 
ATOM     28  C   UNL     1       2.500   1.887  -0.794  1.00  0.00     0.112 A 
ATOM     29  N   UNL     1       2.783   0.569  -1.047  1.00  0.00    -0.253 NA
ENDBRANCH  21  23
ENDBRANCH  11  21
ENDBRANCH   9  10
ENDBRANCH   7   9
ENDBRANCH   6   7
ENDBRANCH   5   6
ENDBRANCH   4   5
ENDBRANCH   3   4
ENDBRANCH   2   3
ENDBRANCH   1   2
BRANCH   1  30
ATOM     30  O   UNL     1      -2.005  -1.273   1.022  1.00  0.00    -0.377 OA
BRANCH  30  31
ATOM     31  C   UNL     1      -1.569  -1.861   2.241  1.00  0.00     0.188 C 
BRANCH  31  32
ATOM     32  C   UNL     1      -0.667  -0.897   3.011  1.00  0.00     0.188 C 
BRANCH  32  33
ATOM     33  O   UNL     1       0.694  -0.681   2.652  1.00  0.00    -0.376 OA
BRANCH  33  34
ATOM     34  C   UNL     1       1.636  -1.740   2.766  1.00  0.00     0.202 C 
BRANCH  34  35
ATOM     35  C   UNL     1       2.333  -1.830   4.126  1.00  0.00     0.261 C 
BRANCH  35  36
ATOM     36  O   UNL     1       1.371  -2.110   5.145  1.00  0.00    -0.460 OA
BRANCH  36  37
ATOM     37  C   UNL     1       0.961  -1.020   5.860  1.00  0.00     0.338 C 
ATOM     38  O   UNL     1       1.502   0.047   5.956  1.00  0.00    -0.246 OA
BRANCH  37  39
ATOM     39  C   UNL     1      -0.454  -1.284   6.245  1.00  0.00     0.060 A 
ATOM     40  C   UNL     1      -1.370  -0.228   6.074  1.00  0.00     0.016 A 
ATOM     41  C   UNL     1      -0.906  -2.584   6.503  1.00  0.00     0.016 A 
ATOM     42  C   UNL     1      -2.736  -0.466   6.194  1.00  0.00     0.010 A 
ATOM     43  C   UNL     1      -2.269  -2.815   6.660  1.00  0.00     0.010 A 
ATOM     44  C   UNL     1      -3.175  -1.745   6.558  1.00  0.00    -0.014 A 
BRANCH  44  45
ATOM     45  C   UNL     1      -4.476  -1.877   7.239  1.00  0.00     0.031 A 
ATOM     46  C   UNL     1      -4.447  -1.704   8.733  1.00  0.00     0.074 A 
ATOM     47  C   UNL     1      -5.613  -2.156   6.584  1.00  0.00     0.049 A 
ATOM     48  N   UNL     1      -5.396  -1.868   9.613  1.00  0.00    -0.248 NA
ATOM     49  C   UNL     1      -3.150  -1.308   9.315  1.00  0.00     0.031 C 
ATOM     50  C   UNL     1      -5.752  -2.301   5.137  1.00  0.00     0.029 A 
ATOM     51  N   UNL     1      -6.872  -2.384   7.073  1.00  0.00    -0.354 N 
ATOM     52  C   UNL     1      -4.805  -1.605  10.843  1.00  0.00     0.074 A 
ATOM     53  C   UNL     1      -3.413  -1.313  10.608  1.00  0.00     0.031 C 
ATOM     54  C   UNL     1      -7.030  -2.617   4.856  1.00  0.00     0.029 A 
ATOM     55  C   UNL     1      -7.782  -2.726   6.105  1.00  0.00     0.049 A 
ATOM     56  H   UNL     1      -7.102  -2.309   8.027  1.00  0.00     0.167 HD
ATOM     57  C   UNL     1      -5.378  -1.602  12.066  1.00  0.00     0.037 A 
ATOM     58  C   UNL     1      -9.068  -3.107   6.235  1.00  0.00     0.037 A 
ATOM     59  C   UNL     1      -6.760  -1.914  12.286  1.00  0.00     0.049 A 
ATOM     60  C   UNL     1      -9.671  -3.169   7.616  1.00  0.00     0.074 A 
ATOM     61  C   UNL     1      -7.460  -1.939  13.475  1.00  0.00     0.029 A 
ATOM     62  N   UNL     1      -7.649  -2.269  11.281  1.00  0.00    -0.354 N 
ATOM     63  N   UNL     1      -9.119  -2.896   8.776  1.00  0.00    -0.248 NA
ATOM     64  C   UNL     1     -11.075  -3.590   7.707  1.00  0.00     0.031 C 
ATOM     65  C   UNL     1      -8.761  -2.367  13.198  1.00  0.00     0.029 A 
ATOM     66  C   UNL     1      -8.889  -2.543  11.827  1.00  0.00     0.049 A 
ATOM     67  H   UNL     1      -7.430  -2.319  10.322  1.00  0.00     0.167 HD
ATOM     68  C   UNL     1     -10.115  -3.080   9.729  1.00  0.00     0.074 A 
ATOM     69  C   UNL     1     -11.307  -3.478   9.008  1.00  0.00     0.031 C 
ATOM     70  C   UNL     1     -10.057  -2.930  11.076  1.00  0.00     0.037 A 
BRANCH  57  71
ATOM     71  C   UNL     1      -4.490  -1.298  13.236  1.00  0.00     0.057 A 
ATOM     72  C   UNL     1      -3.936  -0.025  13.440  1.00  0.00     0.134 A 
ATOM     73  C   UNL     1      -4.161  -2.300  14.155  1.00  0.00     0.134 A 
ATOM     74  F   UNL     1      -4.183   0.971  12.576  1.00  0.00    -0.206 F 
ATOM     75  C   UNL     1      -3.066   0.230  14.501  1.00  0.00     0.040 A 
ATOM     76  C   UNL     1      -3.318  -2.048  15.238  1.00  0.00     0.040 A 
ATOM     77  F   UNL     1      -4.644  -3.543  14.011  1.00  0.00    -0.206 F 
ATOM     78  C   UNL     1      -2.761  -0.782  15.409  1.00  0.00     0.006 A 
ENDBRANCH  57  71
BRANCH  58  79
ATOM     79  C   UNL     1      -9.866  -3.468   5.035  1.00  0.00     0.057 A 
ATOM     80  C   UNL     1     -10.939  -2.676   4.611  1.00  0.00     0.134 A 
ATOM     81  C   UNL     1      -9.584  -4.619   4.288  1.00  0.00     0.134 A 
ATOM     82  F   UNL     1     -11.275  -1.572   5.296  1.00  0.00    -0.206 F 
ATOM     83  C   UNL     1     -11.713  -3.022   3.501  1.00  0.00     0.040 A 
ATOM     84  C   UNL     1     -10.333  -4.964   3.161  1.00  0.00     0.040 A 
ATOM     85  F   UNL     1      -8.569  -5.422   4.639  1.00  0.00    -0.206 F 
ATOM     86  C   UNL     1     -11.406  -4.167   2.769  1.00  0.00     0.006 A 
ENDBRANCH  58  79
BRANCH  70  87
ATOM     87  C   UNL     1     -11.324  -3.154  11.850  1.00  0.00     0.057 A 
ATOM     88  C   UNL     1     -11.870  -4.430  12.028  1.00  0.00     0.134 A 
ATOM     89  C   UNL     1     -11.970  -2.078  12.473  1.00  0.00     0.134 A 
ATOM     90  F   UNL     1     -11.302  -5.500  11.453  1.00  0.00    -0.206 F 
ATOM     91  C   UNL     1     -13.032  -4.625  12.777  1.00  0.00     0.040 A 
ATOM     92  C   UNL     1     -13.113  -2.265  13.250  1.00  0.00     0.040 A 
ATOM     93  F   UNL     1     -11.488  -0.831  12.355  1.00  0.00    -0.206 F 
ATOM     94  C   UNL     1     -13.651  -3.541  13.398  1.00  0.00     0.006 A 
ENDBRANCH  70  87
ENDBRANCH  44  45
ENDBRANCH  37  39
ENDBRANCH  36  37
ENDBRANCH  35  36
ENDBRANCH  34  35
ENDBRANCH  33  34
ENDBRANCH  32  33
ENDBRANCH  31  32
ENDBRANCH  30  31
ENDBRANCH   1  30
TORSDOF 23
