REMARK SMILES Cc1ccc(-c2cc3cccnc3n2CCC(=O)OCCOCCOCCOCCOC(=O)c2ccc(-c3c4nc(c(-c5c(F)cccc5F)c5ccc([nH]5)c(-c5c(F)cccc5F)c5nc(c(-c6c(F)cccc6F)c6ccc3[nH]6)C=C5)C=C4)cc2)cn1
REMARK SMILES IDX 24 1 23 2 22 3 21 4 20 5 19 6 17 7 18 8 16 9 15 10 14 11
REMARK SMILES IDX 6 12 7 13 8 14 13 15 9 16 12 17 10 18 11 19 5 20 1 21 2 22
REMARK SMILES IDX 3 23 89 24 4 25 88 26 25 27 26 28 27 29 28 30 29 31 30 32
REMARK SMILES IDX 31 33 32 34 33 35 34 36 35 37 87 38 36 39 86 40 37 41 38 42
REMARK SMILES IDX 39 43 80 44 40 45 85 46 79 47 81 48 41 49 84 50 78 51 77 52
REMARK SMILES IDX 42 54 68 55 51 56 67 57 52 58 55 59 66 60 82 61 53 62 54 63
REMARK SMILES IDX 65 65 83 66 56 67 43 68 44 69 49 70 45 71 46 72 48 73 50 74
REMARK SMILES IDX 47 75 69 76 70 77 75 78 71 79 72 80 74 81 76 82 73 83 57 84
REMARK SMILES IDX 58 85 63 86 59 87 60 88 62 89 64 90 61 91
REMARK H PARENT 81 53 55 64
REMARK Flexibility Score: inf
ROOT
ATOM      1  C   UNL     1      -1.067   0.791   2.180  1.00  0.00     0.188 C 
ENDROOT
BRANCH   1   2
ATOM      2  C   UNL     1      -0.226  -0.377   1.667  1.00  0.00     0.188 C 
BRANCH   2   3
ATOM      3  O   UNL     1      -0.210  -0.359   0.115  1.00  0.00    -0.376 OA
BRANCH   3   4
ATOM      4  C   UNL     1      -0.527  -1.358  -1.585  1.00  0.00     0.202 C 
BRANCH   4   5
ATOM      5  C   UNL     1      -1.772  -2.500  -2.059  1.00  0.00     0.261 C 
BRANCH   5   6
ATOM      6  O   UNL     1      -3.046  -2.626  -1.358  1.00  0.00    -0.463 OA
BRANCH   6   7
ATOM      7  C   UNL     1      -3.249  -3.685  -0.535  1.00  0.00     0.307 C 
ATOM      8  O   UNL     1      -2.673  -4.761  -0.662  1.00  0.00    -0.252 OA
BRANCH   7   9
ATOM      9  C   UNL     1      -4.161  -3.403   0.669  1.00  0.00     0.144 C 
BRANCH   9  10
ATOM     10  C   UNL     1      -4.241  -2.013   1.322  1.00  0.00     0.136 C 
BRANCH  10  11
ATOM     11  N   UNL     1      -4.478  -0.904   0.430  1.00  0.00    -0.325 N 
ATOM     12  C   UNL     1      -3.511  -0.253  -0.301  1.00  0.00     0.052 A 
ATOM     13  C   UNL     1      -4.184   0.617  -1.149  1.00  0.00     0.039 A 
ATOM     14  C   UNL     1      -5.554   0.594  -0.829  1.00  0.00     0.020 A 
ATOM     15  C   UNL     1      -5.706  -0.319   0.208  1.00  0.00     0.140 A 
ATOM     16  C   UNL     1      -6.690   1.258  -1.312  1.00  0.00     0.013 A 
ATOM     17  N   UNL     1      -6.855  -0.605   0.855  1.00  0.00    -0.238 NA
ATOM     18  C   UNL     1      -7.896   1.002  -0.671  1.00  0.00     0.021 A 
ATOM     19  C   UNL     1      -7.913   0.103   0.389  1.00  0.00     0.113 A 
BRANCH  12  20
ATOM     20  C   UNL     1      -2.067  -0.520  -0.317  1.00  0.00     0.017 A 
ATOM     21  C   UNL     1       2.936  -0.549  -0.520  1.00  0.00     0.066 C 
ATOM     22  C   UNL     1       1.467  -0.761  -0.715  1.00  0.00     0.037 A 
ATOM     23  C   UNL     1       0.626  -2.125   0.092  1.00  0.00     0.024 A 
ATOM     24  N   UNL     1       0.619   0.620  -1.349  1.00  0.00    -0.261 NA
ATOM     25  C   UNL     1      -1.177  -2.011   0.298  1.00  0.00     0.014 A 
ATOM     26  C   UNL     1      -1.105   0.749  -1.123  1.00  0.00     0.121 A 
ENDBRANCH  12  20
ENDBRANCH  10  11
ENDBRANCH   9  10
ENDBRANCH   7   9
ENDBRANCH   6   7
ENDBRANCH   5   6
ENDBRANCH   4   5
ENDBRANCH   3   4
ENDBRANCH   2   3
ENDBRANCH   1   2
BRANCH   1  27
ATOM     27  O   UNL     1      -0.602   2.094   1.861  1.00  0.00    -0.377 OA
BRANCH  27  28
ATOM     28  C   UNL     1       0.707   2.253   1.339  1.00  0.00     0.188 C 
BRANCH  28  29
ATOM     29  C   UNL     1       1.741   2.939   2.236  1.00  0.00     0.188 C 
BRANCH  29  30
ATOM     30  O   UNL     1       1.914   2.583   3.601  1.00  0.00    -0.376 OA
BRANCH  30  31
ATOM     31  C   UNL     1       0.818   2.336   4.469  1.00  0.00     0.202 C 
BRANCH  31  32
ATOM     32  C   UNL     1      -0.215   3.427   4.783  1.00  0.00     0.261 C 
BRANCH  32  33
ATOM     33  O   UNL     1      -0.964   3.829   3.646  1.00  0.00    -0.460 OA
BRANCH  33  34
ATOM     34  C   UNL     1      -0.402   4.850   2.969  1.00  0.00     0.338 C 
ATOM     35  O   UNL     1       0.505   5.566   3.371  1.00  0.00    -0.246 OA
BRANCH  34  36
ATOM     36  C   UNL     1      -1.054   4.991   1.621  1.00  0.00     0.060 A 
ATOM     37  C   UNL     1      -0.372   5.950   0.870  1.00  0.00     0.016 A 
ATOM     38  C   UNL     1      -2.437   5.070   1.769  1.00  0.00     0.016 A 
ATOM     39  C   UNL     1      -0.865   7.226   0.961  1.00  0.00     0.010 A 
ATOM     40  C   UNL     1      -2.943   6.337   1.899  1.00  0.00     0.010 A 
ATOM     41  C   UNL     1      -2.088   7.401   1.619  1.00  0.00    -0.014 A 
BRANCH  41  42
ATOM     42  C   UNL     1      -2.487   8.751   1.917  1.00  0.00     0.031 A 
ATOM     43  C   UNL     1      -3.006   9.423   0.717  1.00  0.00     0.074 A 
ATOM     44  C   UNL     1      -2.418   9.287   3.148  1.00  0.00     0.049 A 
ATOM     45  N   UNL     1      -2.410  10.317   0.005  1.00  0.00    -0.248 NA
ATOM     46  C   UNL     1      -4.214   8.854   0.101  1.00  0.00     0.031 C 
ATOM     47  C   UNL     1      -2.151   8.632   4.429  1.00  0.00     0.029 A 
ATOM     48  N   UNL     1      -2.664  10.575   3.506  1.00  0.00    -0.354 N 
ATOM     49  C   UNL     1      -3.285  10.584  -1.037  1.00  0.00     0.074 A 
ATOM     50  C   UNL     1      -4.234   9.505  -1.060  1.00  0.00     0.031 C 
ATOM     51  C   UNL     1      -2.474   9.479   5.436  1.00  0.00     0.029 A 
ATOM     52  C   UNL     1      -2.837  10.768   4.870  1.00  0.00     0.049 A 
ATOM     53  H   UNL     1      -2.715  11.310   2.853  1.00  0.00     0.167 HD
ATOM     54  C   UNL     1      -3.342  11.826  -1.582  1.00  0.00     0.037 A 
ATOM     55  C   UNL     1      -3.332  11.896   5.441  1.00  0.00     0.037 A 
ATOM     56  C   UNL     1      -2.141  12.575  -1.289  1.00  0.00     0.049 A 
ATOM     57  C   UNL     1      -3.194  12.995   4.446  1.00  0.00     0.074 A 
ATOM     58  C   UNL     1      -0.796  12.399  -1.552  1.00  0.00     0.029 A 
ATOM     59  N   UNL     1      -2.205  13.510  -0.284  1.00  0.00    -0.354 N 
ATOM     60  N   UNL     1      -2.048  13.504   4.087  1.00  0.00    -0.248 NA
ATOM     61  C   UNL     1      -4.284  13.191   3.499  1.00  0.00     0.031 C 
ATOM     62  C   UNL     1      -0.120  12.884  -0.393  1.00  0.00     0.029 A 
ATOM     63  C   UNL     1      -1.081  13.377   0.489  1.00  0.00     0.049 A 
ATOM     64  H   UNL     1      -2.930  14.161  -0.144  1.00  0.00     0.167 HD
ATOM     65  C   UNL     1      -2.155  13.690   2.715  1.00  0.00     0.074 A 
ATOM     66  C   UNL     1      -3.580  13.554   2.422  1.00  0.00     0.031 C 
ATOM     67  C   UNL     1      -1.053  13.641   1.909  1.00  0.00     0.037 A 
BRANCH  54  68
ATOM     68  C   UNL     1      -4.642  12.494  -1.964  1.00  0.00     0.057 A 
ATOM     69  C   UNL     1      -5.921  12.104  -1.508  1.00  0.00     0.134 A 
ATOM     70  C   UNL     1      -4.587  13.767  -2.554  1.00  0.00     0.134 A 
ATOM     71  F   UNL     1      -6.159  10.945  -0.885  1.00  0.00    -0.206 F 
ATOM     72  C   UNL     1      -7.038  12.937  -1.576  1.00  0.00     0.040 A 
ATOM     73  C   UNL     1      -5.689  14.628  -2.581  1.00  0.00     0.040 A 
ATOM     74  F   UNL     1      -3.433  14.250  -3.040  1.00  0.00    -0.206 F 
ATOM     75  C   UNL     1      -6.916  14.220  -2.075  1.00  0.00     0.006 A 
ENDBRANCH  54  68
BRANCH  55  76
ATOM     76  C   UNL     1      -4.203  12.018   6.632  1.00  0.00     0.057 A 
ATOM     77  C   UNL     1      -5.085  10.989   7.004  1.00  0.00     0.134 A 
ATOM     78  C   UNL     1      -4.393  13.251   7.273  1.00  0.00     0.134 A 
ATOM     79  F   UNL     1      -5.051   9.793   6.398  1.00  0.00    -0.206 F 
ATOM     80  C   UNL     1      -6.102  11.175   7.947  1.00  0.00     0.040 A 
ATOM     81  C   UNL     1      -5.411  13.453   8.216  1.00  0.00     0.040 A 
ATOM     82  F   UNL     1      -3.634  14.309   6.952  1.00  0.00    -0.206 F 
ATOM     83  C   UNL     1      -6.276  12.414   8.548  1.00  0.00     0.006 A 
ENDBRANCH  55  76
BRANCH  67  84
ATOM     84  C   UNL     1       0.294  13.627   2.579  1.00  0.00     0.057 A 
ATOM     85  C   UNL     1       1.216  14.630   2.263  1.00  0.00     0.134 A 
ATOM     86  C   UNL     1       0.743  12.593   3.416  1.00  0.00     0.134 A 
ATOM     87  F   UNL     1       0.876  15.619   1.422  1.00  0.00    -0.206 F 
ATOM     88  C   UNL     1       2.518  14.619   2.767  1.00  0.00     0.040 A 
ATOM     89  C   UNL     1       2.034  12.588   3.954  1.00  0.00     0.040 A 
ATOM     90  F   UNL     1      -0.036  11.540   3.692  1.00  0.00    -0.206 F 
ATOM     91  C   UNL     1       2.927  13.602   3.626  1.00  0.00     0.006 A 
ENDBRANCH  67  84
ENDBRANCH  41  42
ENDBRANCH  34  36
ENDBRANCH  33  34
ENDBRANCH  32  33
ENDBRANCH  31  32
ENDBRANCH  30  31
ENDBRANCH  29  30
ENDBRANCH  28  29
ENDBRANCH  27  28
ENDBRANCH   1  27
TORSDOF 23
