REMARK SMILES C#Cc1ccc2c(c1)C=C(C(=O)OCCOCCOCCOCCOC(=O)c1ccc(-c3c4nc(c(-c5c(F)cccc5F)c5ccc([nH]5)c(-c5c(F)cccc5F)c5nc(c(-c6c(F)cccc6F)c6ccc3[nH]6)C=C5)C=C4)cc1)[C@@H](C(F)(F)F)O2
REMARK SMILES IDX 20 1 19 2 18 3 17 4 16 5 15 6 14 7 13 8 11 9 12 10 10 11
REMARK SMILES IDX 3 12 4 13 8 14 5 15 7 16 6 17 9 18 87 19 82 20 2 21 1 22
REMARK SMILES IDX 83 23 84 24 85 25 86 26 21 27 22 28 23 29 24 30 25 31 26 32
REMARK SMILES IDX 27 33 28 34 29 35 81 36 30 37 80 38 31 39 32 40 33 41 74 42
REMARK SMILES IDX 34 43 79 44 73 45 75 46 35 47 78 48 72 49 71 50 36 52 62 53
REMARK SMILES IDX 45 54 61 55 46 56 49 57 60 58 76 59 47 60 48 61 59 63 77 64
REMARK SMILES IDX 50 65 37 66 38 67 43 68 39 69 40 70 42 71 44 72 41 73 63 74
REMARK SMILES IDX 64 75 69 76 65 77 66 78 68 79 70 80 67 81 51 82 52 83 57 84
REMARK SMILES IDX 53 85 54 86 56 87 58 88 55 89
REMARK H PARENT 75 51 49 62
REMARK Flexibility Score: inf
ROOT
ATOM      1  C   UNL     1      -8.901   4.622   2.772  1.00  0.00     0.188 C 
ENDROOT
BRANCH   1   2
ATOM      2  O   UNL     1      -8.101   3.692   2.043  1.00  0.00    -0.377 OA
BRANCH   2   3
ATOM      3  C   UNL     1      -6.692   3.833   2.050  1.00  0.00     0.188 C 
BRANCH   3   4
ATOM      4  C   UNL     1      -6.130   5.042   1.272  1.00  0.00     0.188 C 
BRANCH   4   5
ATOM      5  O   UNL     1      -7.038   6.101   1.052  1.00  0.00    -0.376 OA
BRANCH   5   6
ATOM      6  C   UNL     1      -7.918   6.157  -0.054  1.00  0.00     0.202 C 
BRANCH   6   7
ATOM      7  C   UNL     1      -8.410   4.953  -0.875  1.00  0.00     0.261 C 
BRANCH   7   8
ATOM      8  O   UNL     1      -7.723   3.718  -0.708  1.00  0.00    -0.460 OA
BRANCH   8   9
ATOM      9  C   UNL     1      -6.625   3.539  -1.467  1.00  0.00     0.338 C 
ATOM     10  O   UNL     1      -6.174   4.311  -2.294  1.00  0.00    -0.246 OA
BRANCH   9  11
ATOM     11  C   UNL     1      -5.945   2.312  -1.001  1.00  0.00     0.087 C 
ATOM     12  C   UNL     1      -1.840   0.009  -0.065  1.00  0.00     0.025 A 
ATOM     13  C   UNL     1      -2.546  -1.188   0.062  1.00  0.00     0.021 A 
ATOM     14  C   UNL     1      -2.528   1.204  -0.280  1.00  0.00     0.029 A 
ATOM     15  C   UNL     1      -3.942  -1.185  -0.003  1.00  0.00     0.048 A 
ATOM     16  C   UNL     1      -3.921   1.196  -0.408  1.00  0.00     0.018 A 
ATOM     17  C   UNL     1      -4.629   0.005  -0.240  1.00  0.00     0.128 A 
ATOM     18  C   UNL     1      -4.623   2.399  -0.810  1.00  0.00     0.027 C 
ATOM     19  O   UNL     1      -5.988  -0.090  -0.314  1.00  0.00    -0.475 OA
ATOM     20  C   UNL     1      -6.758   1.076  -0.720  1.00  0.00     0.316 C 
BRANCH  12  21
ATOM     21  C   UNL     1      -0.408   0.008  -0.033  1.00  0.00    -0.070 C 
ATOM     22  C   UNL     1       0.789   0.011  -0.039  1.00  0.00     0.010 C 
ENDBRANCH  12  21
BRANCH  20  23
ATOM     23  C   UNL     1      -7.629   0.681  -1.920  1.00  0.00     0.430 C 
ATOM     24  F   UNL     1      -8.280  -0.485  -1.698  1.00  0.00    -0.167 F 
ATOM     25  F   UNL     1      -8.579   1.609  -2.183  1.00  0.00    -0.167 F 
ATOM     26  F   UNL     1      -6.894   0.529  -3.045  1.00  0.00    -0.167 F 
ENDBRANCH  20  23
ENDBRANCH   9  11
ENDBRANCH   8   9
ENDBRANCH   7   8
ENDBRANCH   6   7
ENDBRANCH   5   6
ENDBRANCH   4   5
ENDBRANCH   3   4
ENDBRANCH   2   3
ENDBRANCH   1   2
BRANCH   1  27
ATOM     27  C   UNL     1      -8.322   5.864   3.501  1.00  0.00     0.188 C 
BRANCH  27  28
ATOM     28  O   UNL     1      -6.946   5.796   3.803  1.00  0.00    -0.376 OA
BRANCH  28  29
ATOM     29  C   UNL     1      -6.480   5.481   5.096  1.00  0.00     0.202 C 
BRANCH  29  30
ATOM     30  C   UNL     1      -7.038   4.278   5.867  1.00  0.00     0.261 C 
BRANCH  30  31
ATOM     31  O   UNL     1      -8.427   3.984   5.703  1.00  0.00    -0.460 OA
BRANCH  31  32
ATOM     32  C   UNL     1      -9.316   4.780   6.340  1.00  0.00     0.338 C 
ATOM     33  O   UNL     1      -9.074   5.757   7.023  1.00  0.00    -0.246 OA
BRANCH  32  34
ATOM     34  C   UNL     1     -10.660   4.356   5.889  1.00  0.00     0.060 A 
ATOM     35  C   UNL     1     -11.078   3.041   6.099  1.00  0.00     0.016 A 
ATOM     36  C   UNL     1     -11.475   5.255   5.186  1.00  0.00     0.016 A 
ATOM     37  C   UNL     1     -12.326   2.633   5.628  1.00  0.00     0.010 A 
ATOM     38  C   UNL     1     -12.721   4.841   4.705  1.00  0.00     0.010 A 
ATOM     39  C   UNL     1     -13.167   3.534   4.947  1.00  0.00    -0.014 A 
BRANCH  39  40
ATOM     40  C   UNL     1     -14.571   3.144   4.663  1.00  0.00     0.031 A 
ATOM     41  C   UNL     1     -15.050   2.806   3.284  1.00  0.00     0.074 A 
ATOM     42  C   UNL     1     -15.422   3.088   5.705  1.00  0.00     0.049 A 
ATOM     43  N   UNL     1     -16.223   2.356   2.912  1.00  0.00    -0.248 NA
ATOM     44  C   UNL     1     -14.100   3.001   2.182  1.00  0.00     0.031 C 
ATOM     45  C   UNL     1     -15.078   3.428   7.087  1.00  0.00     0.029 A 
ATOM     46  N   UNL     1     -16.738   2.710   5.772  1.00  0.00    -0.354 N 
ATOM     47  C   UNL     1     -16.149   2.186   1.536  1.00  0.00     0.074 A 
ATOM     48  C   UNL     1     -14.831   2.638   1.134  1.00  0.00     0.031 C 
ATOM     49  C   UNL     1     -16.141   3.202   7.872  1.00  0.00     0.029 A 
ATOM     50  C   UNL     1     -17.252   2.744   7.045  1.00  0.00     0.049 A 
ATOM     51  H   UNL     1     -17.264   2.441   4.984  1.00  0.00     0.167 HD
ATOM     52  C   UNL     1     -17.086   1.682   0.694  1.00  0.00     0.037 A 
ATOM     53  C   UNL     1     -18.483   2.443   7.497  1.00  0.00     0.037 A 
ATOM     54  C   UNL     1     -18.410   1.270   1.096  1.00  0.00     0.049 A 
ATOM     55  C   UNL     1     -19.523   1.964   6.523  1.00  0.00     0.074 A 
ATOM     56  C   UNL     1     -19.419   0.728   0.318  1.00  0.00     0.029 A 
ATOM     57  N   UNL     1     -18.918   1.374   2.383  1.00  0.00    -0.354 N 
ATOM     58  N   UNL     1     -19.414   1.731   5.238  1.00  0.00    -0.248 NA
ATOM     59  C   UNL     1     -20.861   1.700   7.069  1.00  0.00     0.031 C 
ATOM     60  C   UNL     1     -20.558   0.571   1.117  1.00  0.00     0.029 A 
ATOM     61  C   UNL     1     -20.236   0.942   2.411  1.00  0.00     0.049 A 
ATOM     62  H   UNL     1     -18.416   1.706   3.162  1.00  0.00     0.167 HD
ATOM     63  C   UNL     1     -20.657   1.264   4.830  1.00  0.00     0.074 A 
ATOM     64  C   UNL     1     -21.494   1.221   6.010  1.00  0.00     0.031 C 
ATOM     65  C   UNL     1     -21.069   0.906   3.588  1.00  0.00     0.037 A 
BRANCH  52  66
ATOM     66  C   UNL     1     -16.717   1.559  -0.759  1.00  0.00     0.057 A 
ATOM     67  C   UNL     1     -17.363   2.328  -1.736  1.00  0.00     0.134 A 
ATOM     68  C   UNL     1     -15.752   0.641  -1.200  1.00  0.00     0.134 A 
ATOM     69  F   UNL     1     -18.311   3.212  -1.391  1.00  0.00    -0.206 F 
ATOM     70  C   UNL     1     -17.060   2.195  -3.093  1.00  0.00     0.040 A 
ATOM     71  C   UNL     1     -15.417   0.522  -2.550  1.00  0.00     0.040 A 
ATOM     72  F   UNL     1     -15.097  -0.131  -0.320  1.00  0.00    -0.206 F 
ATOM     73  C   UNL     1     -16.076   1.298  -3.502  1.00  0.00     0.006 A 
ENDBRANCH  52  66
BRANCH  53  74
ATOM     74  C   UNL     1     -18.811   2.588   8.938  1.00  0.00     0.057 A 
ATOM     75  C   UNL     1     -18.849   3.846   9.553  1.00  0.00     0.134 A 
ATOM     76  C   UNL     1     -19.151   1.478   9.721  1.00  0.00     0.134 A 
ATOM     77  F   UNL     1     -18.521   4.949   8.863  1.00  0.00    -0.206 F 
ATOM     78  C   UNL     1     -19.222   3.996  10.888  1.00  0.00     0.040 A 
ATOM     79  C   UNL     1     -19.563   1.618  11.047  1.00  0.00     0.040 A 
ATOM     80  F   UNL     1     -19.146   0.248   9.187  1.00  0.00    -0.206 F 
ATOM     81  C   UNL     1     -19.599   2.881  11.634  1.00  0.00     0.006 A 
ENDBRANCH  53  74
BRANCH  65  82
ATOM     82  C   UNL     1     -22.479   0.399   3.456  1.00  0.00     0.057 A 
ATOM     83  C   UNL     1     -22.727  -0.942   3.132  1.00  0.00     0.134 A 
ATOM     84  C   UNL     1     -23.593   1.228   3.651  1.00  0.00     0.134 A 
ATOM     85  F   UNL     1     -21.711  -1.792   2.921  1.00  0.00    -0.206 F 
ATOM     86  C   UNL     1     -24.026  -1.439   3.013  1.00  0.00     0.040 A 
ATOM     87  C   UNL     1     -24.896   0.733   3.572  1.00  0.00     0.040 A 
ATOM     88  F   UNL     1     -23.431   2.520   3.976  1.00  0.00    -0.206 F 
ATOM     89  C   UNL     1     -25.116  -0.603   3.247  1.00  0.00     0.006 A 
ENDBRANCH  65  82
ENDBRANCH  39  40
ENDBRANCH  32  34
ENDBRANCH  31  32
ENDBRANCH  30  31
ENDBRANCH  29  30
ENDBRANCH  28  29
ENDBRANCH  27  28
ENDBRANCH   1  27
TORSDOF 22
