REMARK SMILES O=C(OCCOCCOCCOCCOC(=O)[C@H]1CCCC[N@H+]1Cc1ccc(F)cc1Cl)c1ccc(-c2c3nc(c(-c4c(F)cccc4F)c4ccc([nH]4)c(-c4c(F)cccc4F)c4nc(c(-c5c(F)cccc5F)c5ccc2[nH]5)C=C4)C=C3)cc1
REMARK SMILES IDX 9 1 8 2 7 3 6 4 5 5 4 6 3 7 2 8 1 9 33 10 34 11 86 12 35 13
REMARK SMILES IDX 85 14 36 15 37 16 38 17 79 18 39 19 84 20 78 21 80 22 40 23
REMARK SMILES IDX 83 24 77 25 76 26 41 28 67 29 50 30 66 31 51 32 54 33 65 34
REMARK SMILES IDX 81 35 52 36 53 37 64 39 82 40 55 41 42 42 43 43 48 44 44 45
REMARK SMILES IDX 45 46 47 47 49 48 46 49 68 50 69 51 74 52 70 53 71 54 73 55
REMARK SMILES IDX 75 56 72 57 56 58 57 59 62 60 58 61 59 62 61 63 63 64 60 65
REMARK SMILES IDX 10 66 11 67 12 68 13 69 14 70 15 71 16 72 17 73 18 74 19 75
REMARK SMILES IDX 23 76 20 77 22 78 21 80 24 81 25 82 26 83 31 84 27 85 30 86
REMARK SMILES IDX 32 87 28 88 29 89
REMARK H PARENT 80 27 54 38 23 79
REMARK Flexibility Score: inf
ROOT
ATOM      1  O   UNL     1       5.562   3.786  -3.029  1.00  0.00    -0.377 OA
ENDROOT
BRANCH   1   2
ATOM      2  C   UNL     1       5.765   3.220  -4.322  1.00  0.00     0.188 C 
BRANCH   2   3
ATOM      3  C   UNL     1       6.292   1.793  -4.308  1.00  0.00     0.188 C 
BRANCH   3   4
ATOM      4  O   UNL     1       5.416   1.019  -3.521  1.00  0.00    -0.376 OA
BRANCH   4   5
ATOM      5  C   UNL     1       5.926   0.036  -2.647  1.00  0.00     0.202 C 
BRANCH   5   6
ATOM      6  C   UNL     1       6.633  -1.110  -3.337  1.00  0.00     0.261 C 
BRANCH   6   7
ATOM      7  O   UNL     1       6.615  -1.103  -4.782  1.00  0.00    -0.460 OA
BRANCH   7   8
ATOM      8  C   UNL     1       5.646  -1.092  -5.721  1.00  0.00     0.338 C 
ATOM      9  O   UNL     1       5.975  -0.926  -6.899  1.00  0.00    -0.246 OA
BRANCH   8  10
ATOM     10  C   UNL     1       4.215  -1.381  -5.461  1.00  0.00     0.060 A 
ATOM     11  C   UNL     1       3.451  -0.794  -4.461  1.00  0.00     0.016 A 
ATOM     12  C   UNL     1       3.547  -2.196  -6.386  1.00  0.00     0.016 A 
ATOM     13  C   UNL     1       2.131  -1.122  -4.248  1.00  0.00     0.010 A 
ATOM     14  C   UNL     1       2.184  -2.473  -6.240  1.00  0.00     0.010 A 
ATOM     15  C   UNL     1       1.492  -1.977  -5.129  1.00  0.00    -0.014 A 
BRANCH  15  16
ATOM     16  C   UNL     1       0.182  -2.488  -4.704  1.00  0.00     0.031 A 
ATOM     17  C   UNL     1       0.131  -3.911  -4.240  1.00  0.00     0.074 A 
ATOM     18  C   UNL     1      -0.849  -1.641  -4.532  1.00  0.00     0.049 A 
ATOM     19  N   UNL     1      -0.895  -4.633  -3.889  1.00  0.00    -0.248 NA
ATOM     20  C   UNL     1       1.424  -4.616  -4.144  1.00  0.00     0.031 C 
ATOM     21  C   UNL     1      -0.810  -0.194  -4.776  1.00  0.00     0.029 A 
ATOM     22  N   UNL     1      -2.115  -1.863  -4.065  1.00  0.00    -0.354 N 
ATOM     23  C   UNL     1      -0.378  -5.882  -3.576  1.00  0.00     0.074 A 
ATOM     24  C   UNL     1       1.049  -5.832  -3.786  1.00  0.00     0.031 C 
ATOM     25  C   UNL     1      -1.994   0.341  -4.437  1.00  0.00     0.029 A 
ATOM     26  C   UNL     1      -2.896  -0.733  -4.048  1.00  0.00     0.049 A 
ATOM     27  H   UNL     1      -2.434  -2.746  -3.770  1.00  0.00     0.167 HD
ATOM     28  C   UNL     1      -1.051  -6.973  -3.152  1.00  0.00     0.037 A 
ATOM     29  C   UNL     1      -4.213  -0.611  -3.803  1.00  0.00     0.037 A 
ATOM     30  C   UNL     1      -2.472  -6.970  -2.950  1.00  0.00     0.049 A 
ATOM     31  C   UNL     1      -4.967  -1.869  -3.468  1.00  0.00     0.074 A 
ATOM     32  C   UNL     1      -3.310  -8.020  -2.638  1.00  0.00     0.029 A 
ATOM     33  N   UNL     1      -3.262  -5.828  -3.037  1.00  0.00    -0.354 N 
ATOM     34  N   UNL     1      -4.506  -3.089  -3.302  1.00  0.00    -0.248 NA
ATOM     35  C   UNL     1      -6.418  -1.746  -3.306  1.00  0.00     0.031 C 
ATOM     36  C   UNL     1      -4.616  -7.519  -2.575  1.00  0.00     0.029 A 
ATOM     37  C   UNL     1      -4.582  -6.148  -2.792  1.00  0.00     0.049 A 
ATOM     38  H   UNL     1      -2.928  -4.925  -3.242  1.00  0.00     0.167 HD
ATOM     39  C   UNL     1      -5.607  -3.876  -3.000  1.00  0.00     0.074 A 
ATOM     40  C   UNL     1      -6.753  -2.986  -2.979  1.00  0.00     0.031 C 
ATOM     41  C   UNL     1      -5.679  -5.211  -2.771  1.00  0.00     0.037 A 
BRANCH  28  42
ATOM     42  C   UNL     1      -0.260  -8.234  -2.975  1.00  0.00     0.057 A 
ATOM     43  C   UNL     1       0.659  -8.401  -1.931  1.00  0.00     0.134 A 
ATOM     44  C   UNL     1      -0.370  -9.272  -3.909  1.00  0.00     0.134 A 
ATOM     45  F   UNL     1       0.847  -7.427  -1.027  1.00  0.00    -0.206 F 
ATOM     46  C   UNL     1       1.458  -9.544  -1.836  1.00  0.00     0.040 A 
ATOM     47  C   UNL     1       0.403 -10.430  -3.811  1.00  0.00     0.040 A 
ATOM     48  F   UNL     1      -1.217  -9.170  -4.944  1.00  0.00    -0.206 F 
ATOM     49  C   UNL     1       1.327 -10.564  -2.777  1.00  0.00     0.006 A 
ENDBRANCH  28  42
BRANCH  29  50
ATOM     50  C   UNL     1      -4.902   0.698  -3.961  1.00  0.00     0.057 A 
ATOM     51  C   UNL     1      -5.557   1.321  -2.893  1.00  0.00     0.134 A 
ATOM     52  C   UNL     1      -4.959   1.344  -5.205  1.00  0.00     0.134 A 
ATOM     53  F   UNL     1      -5.558   0.754  -1.677  1.00  0.00    -0.206 F 
ATOM     54  C   UNL     1      -6.264   2.515  -3.060  1.00  0.00     0.040 A 
ATOM     55  C   UNL     1      -5.632   2.554  -5.380  1.00  0.00     0.040 A 
ATOM     56  F   UNL     1      -4.354   0.808  -6.276  1.00  0.00    -0.206 F 
ATOM     57  C   UNL     1      -6.300   3.136  -4.307  1.00  0.00     0.006 A 
ENDBRANCH  29  50
BRANCH  41  58
ATOM     58  C   UNL     1      -7.031  -5.758  -2.434  1.00  0.00     0.057 A 
ATOM     59  C   UNL     1      -8.039  -5.880  -3.397  1.00  0.00     0.134 A 
ATOM     60  C   UNL     1      -7.308  -6.202  -1.136  1.00  0.00     0.134 A 
ATOM     61  F   UNL     1      -7.835  -5.458  -4.655  1.00  0.00    -0.206 F 
ATOM     62  C   UNL     1      -9.290  -6.401  -3.072  1.00  0.00     0.040 A 
ATOM     63  C   UNL     1      -8.544  -6.754  -0.807  1.00  0.00     0.040 A 
ATOM     64  F   UNL     1      -6.377  -6.120  -0.173  1.00  0.00    -0.206 F 
ATOM     65  C   UNL     1      -9.541  -6.847  -1.776  1.00  0.00     0.006 A 
ENDBRANCH  41  58
ENDBRANCH  15  16
ENDBRANCH   8  10
ENDBRANCH   7   8
ENDBRANCH   6   7
ENDBRANCH   5   6
ENDBRANCH   4   5
ENDBRANCH   3   4
ENDBRANCH   2   3
ENDBRANCH   1   2
BRANCH   1  66
ATOM     66  C   UNL     1       4.703   3.121  -2.102  1.00  0.00     0.188 C 
BRANCH  66  67
ATOM     67  C   UNL     1       3.268   2.748  -2.523  1.00  0.00     0.188 C 
BRANCH  67  68
ATOM     68  O   UNL     1       2.905   3.098  -3.852  1.00  0.00    -0.376 OA
BRANCH  68  69
ATOM     69  C   UNL     1       2.148   4.297  -3.976  1.00  0.00     0.202 C 
BRANCH  69  70
ATOM     70  C   UNL     1       2.957   5.579  -4.222  1.00  0.00     0.261 C 
BRANCH  70  71
ATOM     71  O   UNL     1       3.938   6.054  -3.279  1.00  0.00    -0.459 OA
BRANCH  71  72
ATOM     72  C   UNL     1       3.779   5.940  -1.945  1.00  0.00     0.364 C 
ATOM     73  O   UNL     1       2.858   5.335  -1.405  1.00  0.00    -0.245 OA
BRANCH  72  74
ATOM     74  C   UNL     1       4.850   6.682  -1.120  1.00  0.00     0.295 C 
ATOM     75  C   UNL     1       6.302   6.242  -1.385  1.00  0.00     0.078 C 
ATOM     76  N   UNL     1       4.735   8.153  -1.205  1.00  0.00    -0.319 N 
ATOM     77  C   UNL     1       6.850   6.754  -2.711  1.00  0.00     0.013 C 
ATOM     78  C   UNL     1       5.240   8.708  -2.458  1.00  0.00     0.263 C 
ATOM     79  H   UNL     1       5.396   8.492  -0.506  1.00  0.00     0.349 HD
ATOM     80  C   UNL     1       6.673   8.262  -2.782  1.00  0.00     0.062 C 
BRANCH  76  81
ATOM     81  C   UNL     1       3.488   8.744  -0.677  1.00  0.00     0.301 C 
BRANCH  81  82
ATOM     82  C   UNL     1       2.185   8.486  -1.419  1.00  0.00     0.025 A 
ATOM     83  C   UNL     1       1.314   7.485  -0.936  1.00  0.00     0.014 A 
ATOM     84  C   UNL     1       1.807   9.157  -2.593  1.00  0.00     0.052 A 
ATOM     85  C   UNL     1       0.231   7.035  -1.697  1.00  0.00     0.040 A 
ATOM     86  C   UNL     1       0.715   8.717  -3.350  1.00  0.00     0.060 A 
ATOM     87  Cl  UNL     1       2.614  10.577  -3.151  1.00  0.00    -0.084 Cl
ATOM     88  C   UNL     1      -0.036   7.635  -2.915  1.00  0.00     0.124 A 
ATOM     89  F   UNL     1      -1.022   7.160  -3.687  1.00  0.00    -0.207 F 
ENDBRANCH  81  82
ENDBRANCH  76  81
ENDBRANCH  72  74
ENDBRANCH  71  72
ENDBRANCH  70  71
ENDBRANCH  69  70
ENDBRANCH  68  69
ENDBRANCH  67  68
ENDBRANCH  66  67
ENDBRANCH   1  66
TORSDOF 22
