REMARK SMILES CCn1cc(C)c(C(=O)OCCOCCOCCOCCOC(=O)c2ccc(-c3c4nc(c(-c5c(F)cccc5F)c5ccc([nH]5)c(-c5c(F)cccc5F)c5nc(c(-c6c(F)cccc6F)c6ccc3[nH]6)C=C5)C=C4)cc2)c1CC(=O)NCc1cccc(C)c1
REMARK SMILES IDX 15 1 14 2 13 3 12 4 11 5 10 6 8 7 9 8 7 9 3 10 4 11 79 12
REMARK SMILES IDX 5 13 6 14 2 15 1 16 80 17 81 18 82 19 83 20 84 22 85 23
REMARK SMILES IDX 86 24 91 25 87 26 89 27 88 28 90 29 16 30 17 31 18 32 19 33
REMARK SMILES IDX 20 34 21 35 22 36 23 37 24 38 25 39 26 40 78 41 27 42 77 43
REMARK SMILES IDX 28 44 29 45 30 46 71 47 31 48 76 49 70 50 72 51 32 52 75 53
REMARK SMILES IDX 69 54 68 55 33 57 59 58 42 59 58 60 43 61 46 62 57 63 73 64
REMARK SMILES IDX 44 65 45 66 56 68 74 69 47 70 34 71 35 72 40 73 36 74 37 75
REMARK SMILES IDX 39 76 41 77 38 78 60 79 61 80 66 81 62 82 63 83 65 84 67 85
REMARK SMILES IDX 64 86 48 87 49 88 54 89 50 90 51 91 53 92 55 93 52 94
REMARK H PARENT 83 21 72 56 46 67
REMARK Flexibility Score: inf
ROOT
ATOM      1  C   UNL     1       0.653   3.384  -5.051  1.00  0.00     0.188 C 
ENDROOT
BRANCH   1   2
ATOM      2  C   UNL     1       1.541   4.514  -5.586  1.00  0.00     0.188 C 
BRANCH   2   3
ATOM      3  O   UNL     1       2.396   4.074  -6.623  1.00  0.00    -0.376 OA
BRANCH   3   4
ATOM      4  C   UNL     1       3.772   3.912  -6.356  1.00  0.00     0.202 C 
BRANCH   4   5
ATOM      5  C   UNL     1       4.239   2.850  -5.344  1.00  0.00     0.261 C 
BRANCH   5   6
ATOM      6  O   UNL     1       3.424   2.613  -4.190  1.00  0.00    -0.460 OA
BRANCH   6   7
ATOM      7  C   UNL     1       3.478   3.504  -3.176  1.00  0.00     0.340 C 
ATOM      8  O   UNL     1       4.197   4.508  -3.197  1.00  0.00    -0.246 OA
BRANCH   7   9
ATOM      9  C   UNL     1       2.510   3.235  -2.096  1.00  0.00     0.084 A 
ATOM     10  N   UNL     1       1.334   2.263  -0.449  1.00  0.00    -0.350 N 
ATOM     11  C   UNL     1       1.129   3.625  -0.359  1.00  0.00     0.090 A 
ATOM     12  C   UNL     1       2.000   1.998  -1.638  1.00  0.00     0.042 A 
ATOM     13  C   UNL     1       1.792   4.254  -1.383  1.00  0.00    -0.019 A 
ATOM     14  C   UNL     1       1.695   5.702  -1.717  1.00  0.00     0.047 C 
BRANCH  10  15
ATOM     15  C   UNL     1       0.780   1.414   0.600  1.00  0.00     0.118 C 
ATOM     16  C   UNL     1       1.151  -0.053   0.707  1.00  0.00     0.027 C 
ENDBRANCH  10  15
BRANCH  12  17
ATOM     17  C   UNL     1       2.178   0.624  -2.243  1.00  0.00     0.154 C 
BRANCH  17  18
ATOM     18  C   UNL     1       1.343   0.373  -3.501  1.00  0.00     0.226 C 
ATOM     19  O   UNL     1       1.903   0.030  -4.551  1.00  0.00    -0.275 OA
ATOM     20  N   UNL     1      -0.018   0.453  -3.530  1.00  0.00    -0.352 N 
ATOM     21  H   UNL     1      -0.400   0.501  -4.437  1.00  0.00     0.163 HD
BRANCH  20  22
ATOM     22  C   UNL     1      -1.004   0.479  -2.472  1.00  0.00     0.151 C 
BRANCH  22  23
ATOM     23  C   UNL     1      -2.021   1.588  -2.604  1.00  0.00    -0.029 A 
ATOM     24  C   UNL     1      -1.623   2.924  -2.498  1.00  0.00     0.005 A 
ATOM     25  C   UNL     1      -3.390   1.325  -2.763  1.00  0.00     0.009 A 
ATOM     26  C   UNL     1      -2.537   3.974  -2.571  1.00  0.00     0.001 A 
ATOM     27  C   UNL     1      -4.327   2.373  -2.814  1.00  0.00    -0.051 A 
ATOM     28  C   UNL     1      -3.888   3.699  -2.729  1.00  0.00     0.003 A 
ATOM     29  C   UNL     1      -5.797   2.101  -2.942  1.00  0.00     0.044 C 
ENDBRANCH  22  23
ENDBRANCH  20  22
ENDBRANCH  17  18
ENDBRANCH  12  17
ENDBRANCH   7   9
ENDBRANCH   6   7
ENDBRANCH   5   6
ENDBRANCH   4   5
ENDBRANCH   3   4
ENDBRANCH   2   3
ENDBRANCH   1   2
BRANCH   1  30
ATOM     30  O   UNL     1      -0.067   2.552  -5.947  1.00  0.00    -0.377 OA
BRANCH  30  31
ATOM     31  C   UNL     1       0.613   2.152  -7.118  1.00  0.00     0.188 C 
BRANCH  31  32
ATOM     32  C   UNL     1       0.325   3.058  -8.333  1.00  0.00     0.188 C 
BRANCH  32  33
ATOM     33  O   UNL     1      -0.471   4.243  -8.265  1.00  0.00    -0.376 OA
BRANCH  33  34
ATOM     34  C   UNL     1      -1.489   4.494  -7.308  1.00  0.00     0.202 C 
BRANCH  34  35
ATOM     35  C   UNL     1      -2.673   3.557  -7.086  1.00  0.00     0.261 C 
BRANCH  35  36
ATOM     36  O   UNL     1      -2.367   2.190  -7.221  1.00  0.00    -0.460 OA
BRANCH  36  37
ATOM     37  C   UNL     1      -2.370   1.761  -8.487  1.00  0.00     0.338 C 
ATOM     38  O   UNL     1      -2.577   2.420  -9.507  1.00  0.00    -0.246 OA
BRANCH  37  39
ATOM     39  C   UNL     1      -2.211   0.311  -8.476  1.00  0.00     0.060 A 
ATOM     40  C   UNL     1      -2.151  -0.296  -9.729  1.00  0.00     0.016 A 
ATOM     41  C   UNL     1      -2.524  -0.392  -7.300  1.00  0.00     0.016 A 
ATOM     42  C   UNL     1      -2.737  -1.525  -9.856  1.00  0.00     0.010 A 
ATOM     43  C   UNL     1      -3.118  -1.617  -7.430  1.00  0.00     0.010 A 
ATOM     44  C   UNL     1      -3.325  -2.092  -8.721  1.00  0.00    -0.014 A 
BRANCH  44  45
ATOM     45  C   UNL     1      -4.221  -3.199  -8.931  1.00  0.00     0.031 A 
ATOM     46  C   UNL     1      -3.517  -4.459  -9.211  1.00  0.00     0.074 A 
ATOM     47  C   UNL     1      -5.552  -3.050  -8.811  1.00  0.00     0.049 A 
ATOM     48  N   UNL     1      -3.491  -5.122 -10.316  1.00  0.00    -0.248 NA
ATOM     49  C   UNL     1      -2.578  -4.939  -8.185  1.00  0.00     0.031 C 
ATOM     50  C   UNL     1      -6.301  -1.905  -8.281  1.00  0.00     0.029 A 
ATOM     51  N   UNL     1      -6.523  -3.962  -9.063  1.00  0.00    -0.354 N 
ATOM     52  C   UNL     1      -2.696  -6.230 -10.052  1.00  0.00     0.074 A 
ATOM     53  C   UNL     1      -2.007  -5.961  -8.819  1.00  0.00     0.031 C 
ATOM     54  C   UNL     1      -7.578  -2.284  -8.043  1.00  0.00     0.029 A 
ATOM     55  C   UNL     1      -7.759  -3.642  -8.525  1.00  0.00     0.049 A 
ATOM     56  H   UNL     1      -6.364  -4.781  -9.585  1.00  0.00     0.167 HD
ATOM     57  C   UNL     1      -2.897  -7.399 -10.713  1.00  0.00     0.037 A 
ATOM     58  C   UNL     1      -8.809  -4.491  -8.411  1.00  0.00     0.037 A 
ATOM     59  C   UNL     1      -3.605  -7.189 -11.951  1.00  0.00     0.049 A 
ATOM     60  C   UNL     1      -8.575  -5.615  -9.357  1.00  0.00     0.074 A 
ATOM     61  C   UNL     1      -3.358  -6.462 -13.100  1.00  0.00     0.029 A 
ATOM     62  N   UNL     1      -4.945  -7.491 -11.982  1.00  0.00    -0.354 N 
ATOM     63  N   UNL     1      -8.600  -5.485 -10.656  1.00  0.00    -0.248 NA
ATOM     64  C   UNL     1      -7.850  -6.778  -8.864  1.00  0.00     0.031 C 
ATOM     65  C   UNL     1      -4.633  -5.976 -13.516  1.00  0.00     0.029 A 
ATOM     66  C   UNL     1      -5.588  -6.464 -12.623  1.00  0.00     0.049 A 
ATOM     67  H   UNL     1      -5.367  -8.299 -11.610  1.00  0.00     0.167 HD
ATOM     68  C   UNL     1      -7.568  -6.292 -11.118  1.00  0.00     0.074 A 
ATOM     69  C   UNL     1      -7.199  -7.127  -9.978  1.00  0.00     0.031 C 
ATOM     70  C   UNL     1      -6.917  -6.008 -12.285  1.00  0.00     0.037 A 
BRANCH  57  71
ATOM     71  C   UNL     1      -2.827  -8.741 -10.031  1.00  0.00     0.057 A 
ATOM     72  C   UNL     1      -2.934  -9.902 -10.814  1.00  0.00     0.134 A 
ATOM     73  C   UNL     1      -2.964  -8.941  -8.640  1.00  0.00     0.134 A 
ATOM     74  F   UNL     1      -2.831  -9.842 -12.150  1.00  0.00    -0.206 F 
ATOM     75  C   UNL     1      -3.241 -11.149 -10.261  1.00  0.00     0.040 A 
ATOM     76  C   UNL     1      -3.216 -10.191  -8.074  1.00  0.00     0.040 A 
ATOM     77  F   UNL     1      -2.968  -7.936  -7.756  1.00  0.00    -0.206 F 
ATOM     78  C   UNL     1      -3.393 -11.295  -8.888  1.00  0.00     0.006 A 
ENDBRANCH  57  71
BRANCH  58  79
ATOM     79  C   UNL     1      -9.778  -4.566  -7.295  1.00  0.00     0.057 A 
ATOM     80  C   UNL     1     -10.997  -5.241  -7.431  1.00  0.00     0.134 A 
ATOM     81  C   UNL     1      -9.421  -4.192  -5.986  1.00  0.00     0.134 A 
ATOM     82  F   UNL     1     -11.398  -5.685  -8.630  1.00  0.00    -0.206 F 
ATOM     83  C   UNL     1     -11.812  -5.532  -6.328  1.00  0.00     0.040 A 
ATOM     84  C   UNL     1     -10.229  -4.468  -4.878  1.00  0.00     0.040 A 
ATOM     85  F   UNL     1      -8.236  -3.621  -5.724  1.00  0.00    -0.206 F 
ATOM     86  C   UNL     1     -11.426  -5.151  -5.045  1.00  0.00     0.006 A 
ENDBRANCH  58  79
BRANCH  70  87
ATOM     87  C   UNL     1      -7.502  -4.938 -13.165  1.00  0.00     0.057 A 
ATOM     88  C   UNL     1      -7.549  -3.581 -12.809  1.00  0.00     0.134 A 
ATOM     89  C   UNL     1      -7.872  -5.262 -14.474  1.00  0.00     0.134 A 
ATOM     90  F   UNL     1      -7.120  -3.166 -11.611  1.00  0.00    -0.206 F 
ATOM     91  C   UNL     1      -7.979  -2.597 -13.704  1.00  0.00     0.040 A 
ATOM     92  C   UNL     1      -8.274  -4.285 -15.388  1.00  0.00     0.040 A 
ATOM     93  F   UNL     1      -7.795  -6.532 -14.903  1.00  0.00    -0.206 F 
ATOM     94  C   UNL     1      -8.336  -2.948 -15.002  1.00  0.00     0.006 A 
ENDBRANCH  70  87
ENDBRANCH  44  45
ENDBRANCH  37  39
ENDBRANCH  36  37
ENDBRANCH  35  36
ENDBRANCH  34  35
ENDBRANCH  33  34
ENDBRANCH  32  33
ENDBRANCH  31  32
ENDBRANCH  30  31
ENDBRANCH   1  30
TORSDOF 25
