REMARK SMILES C[C@H](NC(=O)c1c(C(=O)OCCOCCOCCOCCOC(=O)c2ccc(-c3c4nc(c(-c5c(F)cccc5F)c5ccc([nH]5)c(-c5c(F)cccc5F)c5nc(c(-c6c(F)cccc6F)c6ccc3[nH]6)C=C5)C=C4)cc2)cnn1C)[C@]12C[C@H]3C[C@H](C[C@H](C3)C1)C2
REMARK SMILES IDX 15 1 14 2 13 3 12 4 11 5 10 6 8 7 9 8 7 9 6 10 81 11 79 12
REMARK SMILES IDX 80 13 82 14 4 15 3 16 5 18 2 19 1 20 83 21 84 22 91 23 92 24
REMARK SMILES IDX 85 25 89 26 87 27 86 28 90 29 88 30 16 31 17 32 18 33 19 34
REMARK SMILES IDX 20 35 21 36 22 37 23 38 24 39 25 40 26 41 78 42 27 43 77 44
REMARK SMILES IDX 28 45 29 46 30 47 71 48 31 49 76 50 70 51 72 52 32 53 75 54
REMARK SMILES IDX 69 55 68 56 33 58 59 59 42 60 58 61 43 62 46 63 57 64 73 65
REMARK SMILES IDX 44 66 45 67 56 69 74 70 47 71 34 72 35 73 40 74 36 75 37 76
REMARK SMILES IDX 39 77 41 78 38 79 60 80 61 81 66 82 62 83 63 84 65 85 67 86
REMARK SMILES IDX 64 87 48 88 49 89 54 90 50 91 51 92 53 93 55 94 52 95
REMARK H PARENT 3 17 72 57 46 68
REMARK Flexibility Score: inf
ROOT
ATOM      1  C   UNL     1      -1.694   3.485  -1.527  1.00  0.00     0.188 C 
ENDROOT
BRANCH   1   2
ATOM      2  C   UNL     1      -1.601   4.720  -2.435  1.00  0.00     0.188 C 
BRANCH   2   3
ATOM      3  O   UNL     1      -1.807   4.398  -3.800  1.00  0.00    -0.376 OA
BRANCH   3   4
ATOM      4  C   UNL     1      -0.715   4.258  -4.687  1.00  0.00     0.202 C 
BRANCH   4   5
ATOM      5  C   UNL     1       0.370   3.199  -4.420  1.00  0.00     0.261 C 
BRANCH   5   6
ATOM      6  O   UNL     1       0.757   3.004  -3.056  1.00  0.00    -0.460 OA
BRANCH   6   7
ATOM      7  C   UNL     1       1.525   3.966  -2.493  1.00  0.00     0.342 C 
ATOM      8  O   UNL     1       1.948   4.938  -3.109  1.00  0.00    -0.246 OA
BRANCH   7   9
ATOM      9  C   UNL     1       1.649   3.856  -1.044  1.00  0.00     0.111 A 
ATOM     10  C   UNL     1       1.709   2.747  -0.180  1.00  0.00     0.140 A 
ATOM     11  N   UNL     1       2.208   3.316   0.972  1.00  0.00    -0.262 N 
ATOM     12  C   UNL     1       1.693   4.976  -0.182  1.00  0.00     0.151 A 
ATOM     13  N   UNL     1       1.927   4.629   1.080  1.00  0.00    -0.180 NA
ATOM     14  C   UNL     1       3.287   2.815   1.798  1.00  0.00     0.174 C 
BRANCH  10  15
ATOM     15  C   UNL     1       1.632   1.344  -0.503  1.00  0.00     0.270 C 
ATOM     16  N   UNL     1       1.129   0.370   0.323  1.00  0.00    -0.348 N 
ATOM     17  H   UNL     1       1.253  -0.504  -0.113  1.00  0.00     0.164 HD
ATOM     18  O   UNL     1       2.037   0.929  -1.591  1.00  0.00    -0.267 OA
BRANCH  16  19
ATOM     19  C   UNL     1       0.468   0.153   1.635  1.00  0.00     0.085 C 
ATOM     20  C   UNL     1       1.064   0.909   2.813  1.00  0.00     0.031 C 
BRANCH  19  21
ATOM     21  C   UNL     1      -1.104   0.108   1.656  1.00  0.00    -0.009 C 
ATOM     22  C   UNL     1      -1.561  -0.838   2.823  1.00  0.00     0.012 C 
ATOM     23  C   UNL     1      -1.696  -0.474   0.347  1.00  0.00     0.012 C 
ATOM     24  C   UNL     1      -1.750   1.495   1.896  1.00  0.00     0.012 C 
ATOM     25  C   UNL     1      -3.089  -0.943   2.917  1.00  0.00    -0.010 C 
ATOM     26  C   UNL     1      -3.230  -0.596   0.442  1.00  0.00    -0.010 C 
ATOM     27  C   UNL     1      -3.284   1.385   1.999  1.00  0.00    -0.010 C 
ATOM     28  C   UNL     1      -3.664   0.462   3.163  1.00  0.00     0.007 C 
ATOM     29  C   UNL     1      -3.623  -1.520   1.598  1.00  0.00     0.007 C 
ATOM     30  C   UNL     1      -3.852   0.775   0.718  1.00  0.00     0.007 C 
ENDBRANCH  19  21
ENDBRANCH  16  19
ENDBRANCH  10  15
ENDBRANCH   7   9
ENDBRANCH   6   7
ENDBRANCH   5   6
ENDBRANCH   4   5
ENDBRANCH   3   4
ENDBRANCH   2   3
ENDBRANCH   1   2
BRANCH   1  31
ATOM     31  O   UNL     1      -2.846   2.675  -1.691  1.00  0.00    -0.377 OA
BRANCH  31  32
ATOM     32  C   UNL     1      -3.122   2.207  -2.996  1.00  0.00     0.188 C 
BRANCH  32  33
ATOM     33  C   UNL     1      -4.235   3.001  -3.715  1.00  0.00     0.188 C 
BRANCH  33  34
ATOM     34  O   UNL     1      -4.852   4.130  -3.101  1.00  0.00    -0.376 OA
BRANCH  34  35
ATOM     35  C   UNL     1      -5.165   4.110  -1.716  1.00  0.00     0.202 C 
BRANCH  35  36
ATOM     36  C   UNL     1      -6.060   2.998  -1.154  1.00  0.00     0.261 C 
BRANCH  36  37
ATOM     37  O   UNL     1      -5.743   1.673  -1.605  1.00  0.00    -0.460 OA
BRANCH  37  38
ATOM     38  C   UNL     1      -6.621   1.113  -2.463  1.00  0.00     0.338 C 
ATOM     39  O   UNL     1      -7.669   1.588  -2.877  1.00  0.00    -0.246 OA
BRANCH  38  40
ATOM     40  C   UNL     1      -6.049  -0.141  -2.987  1.00  0.00     0.060 A 
ATOM     41  C   UNL     1      -5.801  -0.233  -4.362  1.00  0.00     0.016 A 
ATOM     42  C   UNL     1      -5.806  -1.231  -2.151  1.00  0.00     0.016 A 
ATOM     43  C   UNL     1      -5.330  -1.423  -4.910  1.00  0.00     0.010 A 
ATOM     44  C   UNL     1      -5.343  -2.431  -2.703  1.00  0.00     0.010 A 
ATOM     45  C   UNL     1      -5.144  -2.544  -4.092  1.00  0.00    -0.014 A 
BRANCH  45  46
ATOM     46  C   UNL     1      -4.972  -3.873  -4.729  1.00  0.00     0.031 A 
ATOM     47  C   UNL     1      -6.176  -4.771  -4.835  1.00  0.00     0.074 A 
ATOM     48  C   UNL     1      -3.800  -4.250  -5.271  1.00  0.00     0.049 A 
ATOM     49  N   UNL     1      -6.278  -5.970  -5.349  1.00  0.00    -0.248 NA
ATOM     50  C   UNL     1      -7.437  -4.244  -4.286  1.00  0.00     0.031 C 
ATOM     51  C   UNL     1      -2.575  -3.454  -5.282  1.00  0.00     0.029 A 
ATOM     52  N   UNL     1      -3.456  -5.408  -5.924  1.00  0.00    -0.354 N 
ATOM     53  C   UNL     1      -7.608  -6.337  -5.184  1.00  0.00     0.074 A 
ATOM     54  C   UNL     1      -8.265  -5.257  -4.484  1.00  0.00     0.031 C 
ATOM     55  C   UNL     1      -1.609  -4.151  -5.907  1.00  0.00     0.029 A 
ATOM     56  C   UNL     1      -2.139  -5.452  -6.311  1.00  0.00     0.049 A 
ATOM     57  H   UNL     1      -4.093  -6.138  -6.097  1.00  0.00     0.167 HD
ATOM     58  C   UNL     1      -8.232  -7.466  -5.593  1.00  0.00     0.037 A 
ATOM     59  C   UNL     1      -1.440  -6.440  -6.906  1.00  0.00     0.037 A 
ATOM     60  C   UNL     1      -7.582  -8.540  -6.295  1.00  0.00     0.049 A 
ATOM     61  C   UNL     1      -2.139  -7.725  -7.274  1.00  0.00     0.074 A 
ATOM     62  C   UNL     1      -8.132  -9.723  -6.758  1.00  0.00     0.029 A 
ATOM     63  N   UNL     1      -6.237  -8.566  -6.629  1.00  0.00    -0.354 N 
ATOM     64  N   UNL     1      -3.401  -8.054  -7.133  1.00  0.00    -0.248 NA
ATOM     65  C   UNL     1      -1.316  -8.777  -7.890  1.00  0.00     0.031 C 
ATOM     66  C   UNL     1      -7.108 -10.489  -7.320  1.00  0.00     0.029 A 
ATOM     67  C   UNL     1      -5.934  -9.756  -7.268  1.00  0.00     0.049 A 
ATOM     68  H   UNL     1      -5.594  -7.845  -6.441  1.00  0.00     0.167 HD
ATOM     69  C   UNL     1      -3.528  -9.330  -7.673  1.00  0.00     0.074 A 
ATOM     70  C   UNL     1      -2.219  -9.709  -8.158  1.00  0.00     0.031 C 
ATOM     71  C   UNL     1      -4.629 -10.116  -7.761  1.00  0.00     0.037 A 
BRANCH  58  72
ATOM     72  C   UNL     1      -9.691  -7.607  -5.271  1.00  0.00     0.057 A 
ATOM     73  C   UNL     1     -10.669  -6.835  -5.909  1.00  0.00     0.134 A 
ATOM     74  C   UNL     1     -10.124  -8.558  -4.339  1.00  0.00     0.134 A 
ATOM     75  F   UNL     1     -10.320  -5.894  -6.800  1.00  0.00    -0.206 F 
ATOM     76  C   UNL     1     -12.026  -6.989  -5.617  1.00  0.00     0.040 A 
ATOM     77  C   UNL     1     -11.479  -8.743  -4.061  1.00  0.00     0.040 A 
ATOM     78  F   UNL     1      -9.239  -9.333  -3.694  1.00  0.00    -0.206 F 
ATOM     79  C   UNL     1     -12.434  -7.953  -4.697  1.00  0.00     0.006 A 
ENDBRANCH  58  72
BRANCH  59  80
ATOM     80  C   UNL     1       0.014  -6.277  -7.175  1.00  0.00     0.057 A 
ATOM     81  C   UNL     1       0.517  -6.246  -8.482  1.00  0.00     0.134 A 
ATOM     82  C   UNL     1       0.942  -6.209  -6.128  1.00  0.00     0.134 A 
ATOM     83  F   UNL     1      -0.317  -6.334  -9.528  1.00  0.00    -0.206 F 
ATOM     84  C   UNL     1       1.889  -6.185  -8.738  1.00  0.00     0.040 A 
ATOM     85  C   UNL     1       2.314  -6.116  -6.370  1.00  0.00     0.040 A 
ATOM     86  F   UNL     1       0.529  -6.236  -4.853  1.00  0.00    -0.206 F 
ATOM     87  C   UNL     1       2.791  -6.116  -7.678  1.00  0.00     0.006 A 
ENDBRANCH  59  80
BRANCH  71  88
ATOM     88  C   UNL     1      -4.483 -11.445  -8.449  1.00  0.00     0.057 A 
ATOM     89  C   UNL     1      -3.771 -12.506  -7.877  1.00  0.00     0.134 A 
ATOM     90  C   UNL     1      -5.109 -11.679  -9.681  1.00  0.00     0.134 A 
ATOM     91  F   UNL     1      -3.140 -12.348  -6.703  1.00  0.00    -0.206 F 
ATOM     92  C   UNL     1      -3.662 -13.742  -8.518  1.00  0.00     0.040 A 
ATOM     93  C   UNL     1      -5.035 -12.919 -10.316  1.00  0.00     0.040 A 
ATOM     94  F   UNL     1      -5.820 -10.711 -10.279  1.00  0.00    -0.206 F 
ATOM     95  C   UNL     1      -4.303 -13.953  -9.738  1.00  0.00     0.006 A 
ENDBRANCH  71  88
ENDBRANCH  45  46
ENDBRANCH  38  40
ENDBRANCH  37  38
ENDBRANCH  36  37
ENDBRANCH  35  36
ENDBRANCH  34  35
ENDBRANCH  33  34
ENDBRANCH  32  33
ENDBRANCH  31  32
ENDBRANCH   1  31
TORSDOF 23
