REMARK SMILES O=C(OCCOCCOCCOCCOC(=O)[C@H]1CCc2[nH]nc(C(F)(F)F)c2C1)c1ccc(-c2c3nc(c(-c4c(F)cccc4F)c4ccc([nH]4)c(-c4c(F)cccc4F)c4nc(c(-c5c(F)cccc5F)c5ccc2[nH]5)C=C4)C=C3)cc1
REMARK SMILES IDX 8 1 7 2 6 3 5 4 4 5 3 6 2 7 1 8 31 9 32 10 84 11 33 12 83 13
REMARK SMILES IDX 34 14 35 15 36 16 77 17 37 18 82 19 76 20 78 21 38 22 81 23
REMARK SMILES IDX 75 24 74 25 39 27 65 28 48 29 64 30 49 31 52 32 63 33 79 34
REMARK SMILES IDX 50 35 51 36 62 38 80 39 53 40 40 41 41 42 46 43 42 44 43 45
REMARK SMILES IDX 45 46 47 47 44 48 66 49 67 50 72 51 68 52 69 53 71 54 73 55
REMARK SMILES IDX 70 56 54 57 55 58 60 59 56 60 57 61 59 62 61 63 58 64 9 65
REMARK SMILES IDX 10 66 11 67 12 68 13 69 14 70 15 71 16 72 17 73 18 74 19 75
REMARK SMILES IDX 30 76 20 77 29 78 21 79 24 80 22 81 23 82 25 84 26 85 27 86
REMARK SMILES IDX 28 87
REMARK H PARENT 78 26 52 37 22 83
REMARK Flexibility Score: inf
ROOT
ATOM      1  C   UNL     1       4.324  -6.761   3.276  1.00  0.00     0.188 C 
ENDROOT
BRANCH   1   2
ATOM      2  C   UNL     1       5.223  -6.061   4.271  1.00  0.00     0.188 C 
BRANCH   2   3
ATOM      3  O   UNL     1       4.945  -4.672   4.254  1.00  0.00    -0.376 OA
BRANCH   3   4
ATOM      4  C   UNL     1       6.040  -3.779   4.394  1.00  0.00     0.202 C 
BRANCH   4   5
ATOM      5  C   UNL     1       6.941  -3.991   5.607  1.00  0.00     0.261 C 
BRANCH   5   6
ATOM      6  O   UNL     1       6.676  -5.124   6.466  1.00  0.00    -0.460 OA
BRANCH   6   7
ATOM      7  C   UNL     1       5.776  -5.423   7.420  1.00  0.00     0.338 C 
ATOM      8  O   UNL     1       6.008  -6.415   8.131  1.00  0.00    -0.246 OA
BRANCH   7   9
ATOM      9  C   UNL     1       4.473  -4.737   7.644  1.00  0.00     0.060 A 
ATOM     10  C   UNL     1       3.857  -3.892   6.731  1.00  0.00     0.016 A 
ATOM     11  C   UNL     1       3.758  -5.044   8.816  1.00  0.00     0.016 A 
ATOM     12  C   UNL     1       2.585  -3.392   6.908  1.00  0.00     0.010 A 
ATOM     13  C   UNL     1       2.496  -4.492   9.054  1.00  0.00     0.010 A 
ATOM     14  C   UNL     1       1.925  -3.651   8.094  1.00  0.00    -0.014 A 
BRANCH  14  15
ATOM     15  C   UNL     1       0.809  -2.755   8.396  1.00  0.00     0.031 A 
ATOM     16  C   UNL     1       1.128  -1.564   9.238  1.00  0.00     0.074 A 
ATOM     17  C   UNL     1      -0.363  -2.898   7.761  1.00  0.00     0.049 A 
ATOM     18  N   UNL     1       0.330  -0.699   9.791  1.00  0.00    -0.248 NA
ATOM     19  C   UNL     1       2.562  -1.303   9.475  1.00  0.00     0.031 C 
ATOM     20  C   UNL     1      -0.646  -3.893   6.724  1.00  0.00     0.029 A 
ATOM     21  N   UNL     1      -1.526  -2.195   7.884  1.00  0.00    -0.354 N 
ATOM     22  C   UNL     1       1.158   0.161  10.499  1.00  0.00     0.074 A 
ATOM     23  C   UNL     1       2.520  -0.254  10.278  1.00  0.00     0.031 C 
ATOM     24  C   UNL     1      -1.922  -3.758   6.330  1.00  0.00     0.029 A 
ATOM     25  C   UNL     1      -2.554  -2.737   7.156  1.00  0.00     0.049 A 
ATOM     26  H   UNL     1      -1.617  -1.385   8.437  1.00  0.00     0.167 HD
ATOM     27  C   UNL     1       0.781   1.181  11.302  1.00  0.00     0.037 A 
ATOM     28  C   UNL     1      -3.872  -2.480   7.238  1.00  0.00     0.037 A 
ATOM     29  C   UNL     1      -0.601   1.521  11.486  1.00  0.00     0.049 A 
ATOM     30  C   UNL     1      -4.300  -1.438   8.235  1.00  0.00     0.074 A 
ATOM     31  C   UNL     1      -1.169   2.447  12.333  1.00  0.00     0.029 A 
ATOM     32  N   UNL     1      -1.642   0.910  10.789  1.00  0.00    -0.354 N 
ATOM     33  N   UNL     1      -3.550  -0.700   9.025  1.00  0.00    -0.248 NA
ATOM     34  C   UNL     1      -5.739  -1.205   8.379  1.00  0.00     0.031 C 
ATOM     35  C   UNL     1      -2.559   2.354  12.190  1.00  0.00     0.029 A 
ATOM     36  C   UNL     1      -2.854   1.419  11.204  1.00  0.00     0.049 A 
ATOM     37  H   UNL     1      -1.528   0.215  10.101  1.00  0.00     0.167 HD
ATOM     38  C   UNL     1      -4.420   0.101   9.746  1.00  0.00     0.074 A 
ATOM     39  C   UNL     1      -5.758  -0.244   9.295  1.00  0.00     0.031 C 
ATOM     40  C   UNL     1      -4.151   1.037  10.691  1.00  0.00     0.037 A 
BRANCH  27  41
ATOM     41  C   UNL     1       1.864   1.833  12.110  1.00  0.00     0.057 A 
ATOM     42  C   UNL     1       2.875   2.616  11.535  1.00  0.00     0.134 A 
ATOM     43  C   UNL     1       1.969   1.555  13.479  1.00  0.00     0.134 A 
ATOM     44  F   UNL     1       2.863   2.885  10.220  1.00  0.00    -0.206 F 
ATOM     45  C   UNL     1       3.974   3.053  12.280  1.00  0.00     0.040 A 
ATOM     46  C   UNL     1       3.047   2.010  14.240  1.00  0.00     0.040 A 
ATOM     47  F   UNL     1       1.048   0.798  14.093  1.00  0.00    -0.206 F 
ATOM     48  C   UNL     1       4.063   2.748  13.637  1.00  0.00     0.006 A 
ENDBRANCH  27  41
BRANCH  28  49
ATOM     49  C   UNL     1      -4.833  -3.288   6.445  1.00  0.00     0.057 A 
ATOM     50  C   UNL     1      -5.592  -2.726   5.415  1.00  0.00     0.134 A 
ATOM     51  C   UNL     1      -4.979  -4.666   6.669  1.00  0.00     0.134 A 
ATOM     52  F   UNL     1      -5.510  -1.413   5.155  1.00  0.00    -0.206 F 
ATOM     53  C   UNL     1      -6.457  -3.501   4.637  1.00  0.00     0.040 A 
ATOM     54  C   UNL     1      -5.819  -5.457   5.884  1.00  0.00     0.040 A 
ATOM     55  F   UNL     1      -4.278  -5.273   7.639  1.00  0.00    -0.206 F 
ATOM     56  C   UNL     1      -6.565  -4.873   4.865  1.00  0.00     0.006 A 
ENDBRANCH  28  49
BRANCH  40  57
ATOM     57  C   UNL     1      -5.317   1.789  11.249  1.00  0.00     0.057 A 
ATOM     58  C   UNL     1      -6.173   1.223  12.199  1.00  0.00     0.134 A 
ATOM     59  C   UNL     1      -5.499   3.137  10.916  1.00  0.00     0.134 A 
ATOM     60  F   UNL     1      -6.048  -0.066  12.547  1.00  0.00    -0.206 F 
ATOM     61  C   UNL     1      -7.175   1.979  12.804  1.00  0.00     0.040 A 
ATOM     62  C   UNL     1      -6.478   3.908  11.534  1.00  0.00     0.040 A 
ATOM     63  F   UNL     1      -4.697   3.731  10.019  1.00  0.00    -0.206 F 
ATOM     64  C   UNL     1      -7.319   3.329  12.483  1.00  0.00     0.006 A 
ENDBRANCH  40  57
ENDBRANCH  14  15
ENDBRANCH   7   9
ENDBRANCH   6   7
ENDBRANCH   5   6
ENDBRANCH   4   5
ENDBRANCH   3   4
ENDBRANCH   2   3
ENDBRANCH   1   2
BRANCH   1  65
ATOM     65  O   UNL     1       4.445  -6.266   1.952  1.00  0.00    -0.377 OA
BRANCH  65  66
ATOM     66  C   UNL     1       4.095  -4.914   1.692  1.00  0.00     0.188 C 
BRANCH  66  67
ATOM     67  C   UNL     1       2.639  -4.481   1.815  1.00  0.00     0.188 C 
BRANCH  67  68
ATOM     68  O   UNL     1       1.760  -5.377   2.450  1.00  0.00    -0.376 OA
BRANCH  68  69
ATOM     69  C   UNL     1       1.361  -6.567   1.779  1.00  0.00     0.202 C 
BRANCH  69  70
ATOM     70  C   UNL     1       1.669  -6.890   0.298  1.00  0.00     0.261 C 
BRANCH  70  71
ATOM     71  O   UNL     1       3.051  -7.019  -0.115  1.00  0.00    -0.463 OA
BRANCH  71  72
ATOM     72  C   UNL     1       3.498  -6.149  -1.067  1.00  0.00     0.309 C 
ATOM     73  O   UNL     1       2.842  -5.202  -1.477  1.00  0.00    -0.252 OA
BRANCH  72  74
ATOM     74  C   UNL     1       4.911  -6.428  -1.609  1.00  0.00     0.104 C 
ATOM     75  C   UNL     1       6.107  -5.637  -0.991  1.00  0.00     0.022 C 
ATOM     76  C   UNL     1       5.207  -7.922  -1.774  1.00  0.00     0.055 C 
ATOM     77  C   UNL     1       6.878  -6.277   0.193  1.00  0.00     0.057 C 
ATOM     78  C   UNL     1       5.807  -8.475  -0.539  1.00  0.00     0.006 A 
ATOM     79  C   UNL     1       6.564  -7.717   0.317  1.00  0.00     0.039 A 
ATOM     80  C   UNL     1       5.726  -9.759   0.058  1.00  0.00     0.169 A 
ATOM     81  N   UNL     1       6.868  -8.521   1.371  1.00  0.00    -0.282 N 
ATOM     82  N   UNL     1       6.397  -9.775   1.231  1.00  0.00    -0.171 NA
ATOM     83  H   UNL     1       7.379  -8.217   2.156  1.00  0.00     0.190 HD
BRANCH  80  84
ATOM     84  C   UNL     1       4.985 -10.955  -0.480  1.00  0.00     0.435 C 
ATOM     85  F   UNL     1       5.708 -12.104  -0.410  1.00  0.00    -0.164 F 
ATOM     86  F   UNL     1       3.815 -11.176   0.177  1.00  0.00    -0.164 F 
ATOM     87  F   UNL     1       4.655 -10.801  -1.796  1.00  0.00    -0.164 F 
ENDBRANCH  80  84
ENDBRANCH  72  74
ENDBRANCH  71  72
ENDBRANCH  70  71
ENDBRANCH  69  70
ENDBRANCH  68  69
ENDBRANCH  67  68
ENDBRANCH  66  67
ENDBRANCH  65  66
ENDBRANCH   1  65
TORSDOF 21
