REMARK SMILES C[C@@H]1C[N@@H+](CC(C)(C)C(=O)OCCOCCOCCOCCOC(=O)c2ccc(-c3c4nc(c(-c5c(F)cccc5F)c5ccc([nH]5)c(-c5c(F)cccc5F)c5nc(c(-c6c(F)cccc6F)c6ccc3[nH]6)C=C5)C=C4)cc2)CC[C@@H]1[NH3+]
REMARK SMILES IDX 16 1 15 2 14 3 13 4 12 5 11 6 9 7 10 8 6 9 7 10 8 11 5 12
REMARK SMILES IDX 4 13 1 14 2 15 3 16 82 17 81 18 80 19 83 21 17 25 18 26
REMARK SMILES IDX 19 27 20 28 21 29 22 30 23 31 24 32 25 33 26 34 27 35 79 36
REMARK SMILES IDX 28 37 78 38 29 39 30 40 31 41 72 42 32 43 77 44 71 45 73 46
REMARK SMILES IDX 33 47 76 48 70 49 69 50 34 52 60 53 43 54 59 55 44 56 47 57
REMARK SMILES IDX 58 58 74 59 45 60 46 61 57 63 75 64 48 65 35 66 36 67 41 68
REMARK SMILES IDX 37 69 38 70 40 71 42 72 39 73 61 74 62 75 67 76 63 77 64 78
REMARK SMILES IDX 66 79 68 80 65 81 49 82 50 83 55 84 51 85 52 86 54 87 56 88
REMARK SMILES IDX 53 89
REMARK H PARENT 4 20 83 22 83 23 83 24 73 51 47 62
REMARK Flexibility Score: inf
ROOT
ATOM      1  C   UNL     1      -2.089   0.468   4.375  1.00  0.00     0.188 C 
ENDROOT
BRANCH   1   2
ATOM      2  C   UNL     1      -1.623   0.822   2.958  1.00  0.00     0.188 C 
BRANCH   2   3
ATOM      3  O   UNL     1      -2.583   1.509   2.173  1.00  0.00    -0.376 OA
BRANCH   3   4
ATOM      4  C   UNL     1      -3.186   0.785   1.108  1.00  0.00     0.202 C 
BRANCH   4   5
ATOM      5  C   UNL     1      -3.997  -0.471   1.466  1.00  0.00     0.261 C 
BRANCH   5   6
ATOM      6  O   UNL     1      -3.336  -1.336   2.408  1.00  0.00    -0.463 OA
BRANCH   6   7
ATOM      7  C   UNL     1      -2.728  -2.442   1.928  1.00  0.00     0.317 C 
ATOM      8  O   UNL     1      -2.724  -2.735   0.738  1.00  0.00    -0.251 OA
BRANCH   7   9
ATOM      9  C   UNL     1      -2.013  -3.267   3.013  1.00  0.00     0.111 C 
ATOM     10  C   UNL     1      -2.389  -4.737   2.727  1.00  0.00     0.029 C 
ATOM     11  C   UNL     1      -2.535  -3.022   4.461  1.00  0.00     0.029 C 
BRANCH   9  12
ATOM     12  C   UNL     1      -0.458  -2.966   3.001  1.00  0.00     0.280 C 
BRANCH  12  13
ATOM     13  N   UNL     1       0.386  -2.995   1.785  1.00  0.00    -0.333 N 
ATOM     14  C   UNL     1       1.966  -1.369  -0.948  1.00  0.00     0.020 C 
ATOM     15  C   UNL     1       0.556  -1.822  -0.549  1.00  0.00     0.099 C 
ATOM     16  C   UNL     1       0.330  -1.772   0.978  1.00  0.00     0.271 C 
ATOM     17  C   UNL     1       0.153  -3.198  -1.092  1.00  0.00     0.194 C 
ATOM     18  C   UNL     1       0.904  -4.282  -0.324  1.00  0.00     0.126 C 
ATOM     19  C   UNL     1       0.428  -4.284   1.120  1.00  0.00     0.268 C 
ATOM     20  H   UNL     1       1.355  -2.936   2.097  1.00  0.00     0.348 HD
BRANCH  17  21
ATOM     21  N   UNL     1       0.359  -3.319  -2.536  1.00  0.00    -0.355 N 
ATOM     22  H   UNL     1       1.351  -3.212  -2.748  1.00  0.00     0.344 HD
ATOM     23  H   UNL     1      -0.172  -2.594  -3.018  1.00  0.00     0.344 HD
ATOM     24  H   UNL     1       0.043  -4.237  -2.849  1.00  0.00     0.344 HD
ENDBRANCH  17  21
ENDBRANCH  12  13
ENDBRANCH   9  12
ENDBRANCH   7   9
ENDBRANCH   6   7
ENDBRANCH   5   6
ENDBRANCH   4   5
ENDBRANCH   3   4
ENDBRANCH   2   3
ENDBRANCH   1   2
BRANCH   1  25
ATOM     25  O   UNL     1      -3.481   0.435   4.635  1.00  0.00    -0.377 OA
BRANCH  25  26
ATOM     26  C   UNL     1      -4.255   1.598   4.354  1.00  0.00     0.188 C 
BRANCH  26  27
ATOM     27  C   UNL     1      -3.602   2.999   4.298  1.00  0.00     0.188 C 
BRANCH  27  28
ATOM     28  O   UNL     1      -2.292   3.084   4.833  1.00  0.00    -0.376 OA
BRANCH  28  29
ATOM     29  C   UNL     1      -2.158   3.555   6.165  1.00  0.00     0.202 C 
BRANCH  29  30
ATOM     30  C   UNL     1      -2.827   2.728   7.276  1.00  0.00     0.261 C 
BRANCH  30  31
ATOM     31  O   UNL     1      -4.250   2.554   7.173  1.00  0.00    -0.460 OA
BRANCH  31  32
ATOM     32  C   UNL     1      -5.021   3.666   7.129  1.00  0.00     0.338 C 
ATOM     33  O   UNL     1      -4.663   4.816   7.228  1.00  0.00    -0.246 OA
BRANCH  32  34
ATOM     34  C   UNL     1      -6.381   3.240   6.724  1.00  0.00     0.060 A 
ATOM     35  C   UNL     1      -6.928   3.752   5.539  1.00  0.00     0.016 A 
ATOM     36  C   UNL     1      -7.096   2.325   7.498  1.00  0.00     0.016 A 
ATOM     37  C   UNL     1      -8.212   3.378   5.144  1.00  0.00     0.010 A 
ATOM     38  C   UNL     1      -8.394   1.974   7.118  1.00  0.00     0.010 A 
ATOM     39  C   UNL     1      -8.969   2.530   5.960  1.00  0.00    -0.014 A 
BRANCH  39  40
ATOM     40  C   UNL     1     -10.431   2.422   5.742  1.00  0.00     0.031 A 
ATOM     41  C   UNL     1     -11.329   3.319   6.549  1.00  0.00     0.074 A 
ATOM     42  C   UNL     1     -10.953   1.573   4.841  1.00  0.00     0.049 A 
ATOM     43  N   UNL     1     -12.634   3.387   6.577  1.00  0.00    -0.248 NA
ATOM     44  C   UNL     1     -10.656   4.268   7.453  1.00  0.00     0.031 C 
ATOM     45  C   UNL     1     -10.189   0.694   3.960  1.00  0.00     0.029 A 
ATOM     46  N   UNL     1     -12.264   1.314   4.526  1.00  0.00    -0.354 N 
ATOM     47  C   UNL     1     -12.938   4.370   7.510  1.00  0.00     0.074 A 
ATOM     48  C   UNL     1     -11.685   4.853   8.045  1.00  0.00     0.031 C 
ATOM     49  C   UNL     1     -11.047  -0.014   3.204  1.00  0.00     0.029 A 
ATOM     50  C   UNL     1     -12.418   0.336   3.574  1.00  0.00     0.049 A 
ATOM     51  H   UNL     1     -13.022   1.784   4.942  1.00  0.00     0.167 HD
ATOM     52  C   UNL     1     -14.153   4.832   7.887  1.00  0.00     0.037 A 
ATOM     53  C   UNL     1     -13.539  -0.222   3.078  1.00  0.00     0.037 A 
ATOM     54  C   UNL     1     -15.399   4.349   7.353  1.00  0.00     0.049 A 
ATOM     55  C   UNL     1     -14.883   0.248   3.576  1.00  0.00     0.074 A 
ATOM     56  C   UNL     1     -16.683   4.772   7.645  1.00  0.00     0.029 A 
ATOM     57  N   UNL     1     -15.514   3.322   6.428  1.00  0.00    -0.354 N 
ATOM     58  N   UNL     1     -15.164   1.199   4.435  1.00  0.00    -0.248 NA
ATOM     59  C   UNL     1     -16.066  -0.437   3.035  1.00  0.00     0.031 C 
ATOM     60  C   UNL     1     -17.579   3.957   6.946  1.00  0.00     0.029 A 
ATOM     61  C   UNL     1     -16.851   3.071   6.167  1.00  0.00     0.049 A 
ATOM     62  H   UNL     1     -14.759   2.843   6.018  1.00  0.00     0.167 HD
ATOM     63  C   UNL     1     -16.552   1.251   4.509  1.00  0.00     0.074 A 
ATOM     64  C   UNL     1     -17.055   0.241   3.602  1.00  0.00     0.031 C 
ATOM     65  C   UNL     1     -17.338   2.066   5.255  1.00  0.00     0.037 A 
BRANCH  52  66
ATOM     66  C   UNL     1     -14.190   5.879   8.962  1.00  0.00     0.057 A 
ATOM     67  C   UNL     1     -13.736   7.188   8.749  1.00  0.00     0.134 A 
ATOM     68  C   UNL     1     -14.693   5.571  10.232  1.00  0.00     0.134 A 
ATOM     69  F   UNL     1     -13.224   7.546   7.561  1.00  0.00    -0.206 F 
ATOM     70  C   UNL     1     -13.753   8.142   9.769  1.00  0.00     0.040 A 
ATOM     71  C   UNL     1     -14.745   6.524  11.250  1.00  0.00     0.040 A 
ATOM     72  F   UNL     1     -15.145   4.337  10.505  1.00  0.00    -0.206 F 
ATOM     73  C   UNL     1     -14.265   7.812  11.022  1.00  0.00     0.006 A 
ENDBRANCH  52  66
BRANCH  53  74
ATOM     74  C   UNL     1     -13.451  -1.292   2.051  1.00  0.00     0.057 A 
ATOM     75  C   UNL     1     -13.895  -1.074   0.741  1.00  0.00     0.134 A 
ATOM     76  C   UNL     1     -12.947  -2.562   2.357  1.00  0.00     0.134 A 
ATOM     77  F   UNL     1     -14.413   0.113   0.393  1.00  0.00    -0.206 F 
ATOM     78  C   UNL     1     -13.855  -2.083  -0.223  1.00  0.00     0.040 A 
ATOM     79  C   UNL     1     -12.877  -3.572   1.395  1.00  0.00     0.040 A 
ATOM     80  F   UNL     1     -12.509  -2.838   3.594  1.00  0.00    -0.206 F 
ATOM     81  C   UNL     1     -13.339  -3.336   0.102  1.00  0.00     0.006 A 
ENDBRANCH  53  74
BRANCH  65  82
ATOM     82  C   UNL     1     -18.827   1.935   5.091  1.00  0.00     0.057 A 
ATOM     83  C   UNL     1     -19.535   0.825   5.568  1.00  0.00     0.134 A 
ATOM     84  C   UNL     1     -19.567   2.961   4.487  1.00  0.00     0.134 A 
ATOM     85  F   UNL     1     -18.887  -0.197   6.147  1.00  0.00    -0.206 F 
ATOM     86  C   UNL     1     -20.921   0.728   5.427  1.00  0.00     0.040 A 
ATOM     87  C   UNL     1     -20.956   2.890   4.369  1.00  0.00     0.040 A 
ATOM     88  F   UNL     1     -18.954   4.059   4.019  1.00  0.00    -0.206 F 
ATOM     89  C   UNL     1     -21.636   1.767   4.833  1.00  0.00     0.006 A 
ENDBRANCH  65  82
ENDBRANCH  39  40
ENDBRANCH  32  34
ENDBRANCH  31  32
ENDBRANCH  30  31
ENDBRANCH  29  30
ENDBRANCH  28  29
ENDBRANCH  27  28
ENDBRANCH  26  27
ENDBRANCH  25  26
ENDBRANCH   1  25
TORSDOF 23
