REMARK SMILES O=C(OCCOCCOCCOCCOC(=O)c1cc(OCc2ccccc2C(F)(F)F)cs1)c1ccc(-c2c3nc(c(-c4c(F)cccc4F)c4ccc([nH]4)c(-c4c(F)cccc4F)c4nc(c(-c5c(F)cccc5F)c5ccc2[nH]5)C=C4)C=C3)cc1
REMARK SMILES IDX 10 1 9 2 8 3 7 4 6 5 5 6 4 7 3 8 2 9 1 10 35 11 36 12 88 13
REMARK SMILES IDX 37 14 87 15 38 16 39 17 40 18 81 19 41 20 86 21 80 22 82 23
REMARK SMILES IDX 42 24 85 25 79 26 78 27 43 29 69 30 52 31 68 32 53 33 56 34
REMARK SMILES IDX 67 35 83 36 54 37 55 38 66 40 84 41 57 42 44 43 45 44 50 45
REMARK SMILES IDX 46 46 47 47 49 48 51 49 48 50 70 51 71 52 76 53 72 54 73 55
REMARK SMILES IDX 75 56 77 57 74 58 58 59 59 60 64 61 60 62 61 63 63 64 65 65
REMARK SMILES IDX 62 66 11 67 12 68 13 69 14 70 15 71 16 72 17 73 18 74 19 75
REMARK SMILES IDX 34 76 20 77 33 78 21 79 22 80 23 81 24 82 28 83 25 84 27 85
REMARK SMILES IDX 26 86 29 87 30 88 31 89 32 90
REMARK H PARENT 82 28 56 39
REMARK Flexibility Score: inf
ROOT
ATOM      1  C   UNL     1       4.179   0.972  -3.962  1.00  0.00     0.188 C 
ENDROOT
BRANCH   1   2
ATOM      2  O   UNL     1       2.763   1.042  -4.092  1.00  0.00    -0.377 OA
BRANCH   2   3
ATOM      3  C   UNL     1       2.004   1.008  -2.883  1.00  0.00     0.188 C 
BRANCH   3   4
ATOM      4  C   UNL     1       2.400  -0.080  -1.885  1.00  0.00     0.188 C 
BRANCH   4   5
ATOM      5  O   UNL     1       3.677   0.206  -1.314  1.00  0.00    -0.376 OA
BRANCH   5   6
ATOM      6  C   UNL     1       4.464  -0.924  -0.951  1.00  0.00     0.202 C 
BRANCH   6   7
ATOM      7  C   UNL     1       3.998  -1.672   0.302  1.00  0.00     0.261 C 
BRANCH   7   8
ATOM      8  O   UNL     1       2.607  -1.476   0.610  1.00  0.00    -0.460 OA
BRANCH   8   9
ATOM      9  C   UNL     1       2.054  -0.573   1.457  1.00  0.00     0.338 C 
ATOM     10  O   UNL     1       0.857  -0.667   1.724  1.00  0.00    -0.246 OA
BRANCH   9  11
ATOM     11  C   UNL     1       2.829   0.518   2.119  1.00  0.00     0.060 A 
ATOM     12  C   UNL     1       3.935   1.157   1.564  1.00  0.00     0.016 A 
ATOM     13  C   UNL     1       2.364   0.978   3.362  1.00  0.00     0.016 A 
ATOM     14  C   UNL     1       4.659   2.106   2.270  1.00  0.00     0.010 A 
ATOM     15  C   UNL     1       3.049   1.980   4.058  1.00  0.00     0.010 A 
ATOM     16  C   UNL     1       4.241   2.499   3.538  1.00  0.00    -0.014 A 
BRANCH  16  17
ATOM     17  C   UNL     1       5.190   3.265   4.371  1.00  0.00     0.031 A 
ATOM     18  C   UNL     1       5.858   2.540   5.505  1.00  0.00     0.074 A 
ATOM     19  C   UNL     1       5.565   4.508   4.022  1.00  0.00     0.049 A 
ATOM     20  N   UNL     1       6.678   2.991   6.415  1.00  0.00    -0.248 NA
ATOM     21  C   UNL     1       5.562   1.101   5.626  1.00  0.00     0.031 C 
ATOM     22  C   UNL     1       5.077   5.242   2.853  1.00  0.00     0.029 A 
ATOM     23  N   UNL     1       6.477   5.357   4.591  1.00  0.00    -0.354 N 
ATOM     24  C   UNL     1       6.944   1.909   7.246  1.00  0.00     0.074 A 
ATOM     25  C   UNL     1       6.204   0.780   6.737  1.00  0.00     0.031 C 
ATOM     26  C   UNL     1       5.729   6.413   2.767  1.00  0.00     0.029 A 
ATOM     27  C   UNL     1       6.622   6.543   3.914  1.00  0.00     0.049 A 
ATOM     28  H   UNL     1       6.981   5.137   5.408  1.00  0.00     0.167 HD
ATOM     29  C   UNL     1       7.736   1.870   8.341  1.00  0.00     0.037 A 
ATOM     30  C   UNL     1       7.375   7.618   4.212  1.00  0.00     0.037 A 
ATOM     31  C   UNL     1       8.495   2.998   8.801  1.00  0.00     0.049 A 
ATOM     32  C   UNL     1       8.205   7.572   5.467  1.00  0.00     0.074 A 
ATOM     33  C   UNL     1       9.284   3.115   9.929  1.00  0.00     0.029 A 
ATOM     34  N   UNL     1       8.566   4.212   8.129  1.00  0.00    -0.354 N 
ATOM     35  N   UNL     1       8.371   6.580   6.312  1.00  0.00    -0.248 NA
ATOM     36  C   UNL     1       8.933   8.795   5.824  1.00  0.00     0.031 C 
ATOM     37  C   UNL     1       9.810   4.412   9.954  1.00  0.00     0.029 A 
ATOM     38  C   UNL     1       9.382   5.087   8.819  1.00  0.00     0.049 A 
ATOM     39  H   UNL     1       8.103   4.417   7.284  1.00  0.00     0.167 HD
ATOM     40  C   UNL     1       9.234   7.053   7.291  1.00  0.00     0.074 A 
ATOM     41  C   UNL     1       9.572   8.414   6.922  1.00  0.00     0.031 C 
ATOM     42  C   UNL     1       9.702   6.428   8.400  1.00  0.00     0.037 A 
BRANCH  29  43
ATOM     43  C   UNL     1       7.738   0.594   9.131  1.00  0.00     0.057 A 
ATOM     44  C   UNL     1       8.355  -0.576   8.669  1.00  0.00     0.134 A 
ATOM     45  C   UNL     1       7.049   0.523  10.348  1.00  0.00     0.134 A 
ATOM     46  F   UNL     1       9.000  -0.586   7.493  1.00  0.00    -0.206 F 
ATOM     47  C   UNL     1       8.258  -1.778   9.374  1.00  0.00     0.040 A 
ATOM     48  C   UNL     1       6.966  -0.667  11.074  1.00  0.00     0.040 A 
ATOM     49  F   UNL     1       6.427   1.604  10.843  1.00  0.00    -0.206 F 
ATOM     50  C   UNL     1       7.563  -1.825  10.582  1.00  0.00     0.006 A 
ENDBRANCH  29  43
BRANCH  30  51
ATOM     51  C   UNL     1       7.350   8.826   3.345  1.00  0.00     0.057 A 
ATOM     52  C   UNL     1       8.487   9.247   2.646  1.00  0.00     0.134 A 
ATOM     53  C   UNL     1       6.190   9.600   3.203  1.00  0.00     0.134 A 
ATOM     54  F   UNL     1       9.637   8.566   2.754  1.00  0.00    -0.206 F 
ATOM     55  C   UNL     1       8.476  10.396   1.851  1.00  0.00     0.040 A 
ATOM     56  C   UNL     1       6.157  10.734   2.390  1.00  0.00     0.040 A 
ATOM     57  F   UNL     1       5.064   9.257   3.846  1.00  0.00    -0.206 F 
ATOM     58  C   UNL     1       7.306  11.140   1.716  1.00  0.00     0.006 A 
ENDBRANCH  30  51
BRANCH  42  59
ATOM     59  C   UNL     1      10.656   7.202   9.256  1.00  0.00     0.057 A 
ATOM     60  C   UNL     1      10.225   8.241  10.088  1.00  0.00     0.134 A 
ATOM     61  C   UNL     1      12.016   6.870   9.276  1.00  0.00     0.134 A 
ATOM     62  F   UNL     1       8.935   8.611  10.101  1.00  0.00    -0.206 F 
ATOM     63  C   UNL     1      11.120   8.941  10.896  1.00  0.00     0.040 A 
ATOM     64  C   UNL     1      12.916   7.546  10.098  1.00  0.00     0.040 A 
ATOM     65  F   UNL     1      12.487   5.876   8.507  1.00  0.00    -0.206 F 
ATOM     66  C   UNL     1      12.469   8.589  10.907  1.00  0.00     0.006 A 
ENDBRANCH  42  59
ENDBRANCH  16  17
ENDBRANCH   9  11
ENDBRANCH   8   9
ENDBRANCH   7   8
ENDBRANCH   6   7
ENDBRANCH   5   6
ENDBRANCH   4   5
ENDBRANCH   3   4
ENDBRANCH   2   3
ENDBRANCH   1   2
BRANCH   1  67
ATOM     67  C   UNL     1       4.899   2.087  -3.173  1.00  0.00     0.188 C 
BRANCH  67  68
ATOM     68  O   UNL     1       4.033   3.037  -2.566  1.00  0.00    -0.376 OA
BRANCH  68  69
ATOM     69  C   UNL     1       4.056   4.344  -3.129  1.00  0.00     0.202 C 
BRANCH  69  70
ATOM     70  C   UNL     1       3.346   4.480  -4.482  1.00  0.00     0.261 C 
BRANCH  70  71
ATOM     71  O   UNL     1       3.869   3.669  -5.546  1.00  0.00    -0.459 OA
BRANCH  71  72
ATOM     72  C   UNL     1       5.165   3.835  -5.938  1.00  0.00     0.348 C 
ATOM     73  O   UNL     1       5.912   4.701  -5.525  1.00  0.00    -0.245 OA
BRANCH  72  74
ATOM     74  C   UNL     1       5.496   2.717  -6.804  1.00  0.00     0.116 A 
ATOM     75  C   UNL     1       4.657   2.058  -7.681  1.00  0.00     0.074 A 
ATOM     76  S   UNL     1       7.016   1.941  -6.705  1.00  0.00    -0.133 S 
ATOM     77  C   UNL     1       5.211   0.854  -8.189  1.00  0.00     0.131 A 
ATOM     78  C   UNL     1       6.472   0.634  -7.681  1.00  0.00     0.112 A 
BRANCH  77  79
ATOM     79  O   UNL     1       4.633  -0.075  -8.995  1.00  0.00    -0.488 OA
BRANCH  79  80
ATOM     80  C   UNL     1       3.599   0.418  -9.859  1.00  0.00     0.266 C 
BRANCH  80  81
ATOM     81  C   UNL     1       2.232   0.372  -9.202  1.00  0.00     0.001 A 
ATOM     82  C   UNL     1       1.535   1.585  -9.027  1.00  0.00     0.008 A 
ATOM     83  C   UNL     1       1.654  -0.821  -8.715  1.00  0.00     0.062 A 
ATOM     84  C   UNL     1       0.358   1.643  -8.284  1.00  0.00     0.000 A 
ATOM     85  C   UNL     1       0.461  -0.739  -7.966  1.00  0.00     0.013 A 
ATOM     86  C   UNL     1      -0.170   0.483  -7.737  1.00  0.00     0.001 A 
BRANCH  83  87
ATOM     87  C   UNL     1       2.253  -2.195  -8.932  1.00  0.00     0.416 C 
ATOM     88  F   UNL     1       2.938  -2.653  -7.850  1.00  0.00    -0.166 F 
ATOM     89  F   UNL     1       1.290  -3.134  -9.179  1.00  0.00    -0.166 F 
ATOM     90  F   UNL     1       3.102  -2.285  -9.992  1.00  0.00    -0.166 F 
ENDBRANCH  83  87
ENDBRANCH  80  81
ENDBRANCH  79  80
ENDBRANCH  77  79
ENDBRANCH  72  74
ENDBRANCH  71  72
ENDBRANCH  70  71
ENDBRANCH  69  70
ENDBRANCH  68  69
ENDBRANCH  67  68
ENDBRANCH   1  67
TORSDOF 24
