REMARK SMILES C[C@@H](NC(=O)/C(=C/c1ccc(Cl)cc1)NC(=O)c1ccc(C(C)(C)C)cc1)C(=O)OCCOCCOCCOCCOC(=O)c1ccc(-c2c3nc(c(-c4c(F)cccc4F)c4ccc([nH]4)c(-c4c(F)cccc4F)c4nc(c(-c5c(F)cccc5F)c5ccc2[nH]5)C=C4)C=C3)cc1
REMARK SMILES IDX 34 1 33 2 32 3 31 4 30 5 28 6 29 7 2 8 1 9 3 10 4 11 5 13
REMARK SMILES IDX 6 14 7 15 15 16 16 17 17 19 18 20 19 21 27 22 20 23 26 24
REMARK SMILES IDX 21 25 22 26 23 27 24 28 25 29 8 30 9 31 14 32 10 33 13 34
REMARK SMILES IDX 11 35 12 36 35 37 36 38 37 39 38 40 39 41 40 42 41 43 42 44
REMARK SMILES IDX 43 45 44 46 45 47 46 48 98 49 47 50 97 51 48 52 49 53 50 54
REMARK SMILES IDX 91 55 51 56 96 57 90 58 92 59 52 60 95 61 89 62 88 63 53 65
REMARK SMILES IDX 79 66 62 67 78 68 63 69 66 70 77 71 93 72 64 73 65 74 76 76
REMARK SMILES IDX 94 77 67 78 54 79 55 80 60 81 56 82 57 83 59 84 61 85 58 86
REMARK SMILES IDX 80 87 81 88 86 89 82 90 83 91 85 92 87 93 84 94 68 95 69 96
REMARK SMILES IDX 74 97 70 98 71 99 73 100 75 101 72 102
REMARK H PARENT 3 12 15 18 92 64 66 75
REMARK Flexibility Score: inf
ROOT
ATOM      1  C   UNL     1      -2.297   1.711  -1.385  1.00  0.00     0.188 C 
ENDROOT
BRANCH   1   2
ATOM      2  O   UNL     1      -3.466   1.022  -1.017  1.00  0.00    -0.376 OA
BRANCH   2   3
ATOM      3  C   UNL     1      -3.548  -0.241  -0.409  1.00  0.00     0.202 C 
BRANCH   3   4
ATOM      4  C   UNL     1      -2.469  -1.142   0.200  1.00  0.00     0.261 C 
BRANCH   4   5
ATOM      5  O   UNL     1      -1.082  -0.974  -0.035  1.00  0.00    -0.462 OA
BRANCH   5   6
ATOM      6  C   UNL     1      -0.624  -0.984  -1.299  1.00  0.00     0.328 C 
ATOM      7  O   UNL     1      -1.256  -0.685  -2.299  1.00  0.00    -0.250 OA
BRANCH   6   8
ATOM      8  C   UNL     1       0.711  -1.668  -1.387  1.00  0.00     0.189 C 
ATOM      9  C   UNL     1       1.581  -1.336  -0.167  1.00  0.00     0.043 C 
BRANCH   8  10
ATOM     10  N   UNL     1       0.439  -3.106  -1.583  1.00  0.00    -0.338 N 
ATOM     11  C   UNL     1      -0.328  -3.595  -2.634  1.00  0.00     0.268 C 
ATOM     12  H   UNL     1       0.818  -3.747  -0.940  1.00  0.00     0.164 HD
ATOM     13  O   UNL     1       0.218  -4.000  -3.656  1.00  0.00    -0.268 OA
BRANCH  11  14
ATOM     14  C   UNL     1      -1.835  -3.765  -2.420  1.00  0.00     0.107 C 
ATOM     15  C   UNL     1      -2.656  -2.877  -3.030  1.00  0.00     0.040 C 
BRANCH  14  16
ATOM     16  N   UNL     1      -2.368  -4.828  -1.728  1.00  0.00    -0.317 N 
ATOM     17  C   UNL     1      -1.872  -5.909  -1.060  1.00  0.00     0.255 C 
ATOM     18  H   UNL     1      -3.352  -4.801  -1.709  1.00  0.00     0.170 HD
ATOM     19  O   UNL     1      -2.641  -6.724  -0.556  1.00  0.00    -0.269 OA
BRANCH  17  20
ATOM     20  C   UNL     1      -0.441  -6.151  -0.987  1.00  0.00     0.040 A 
ATOM     21  C   UNL     1       0.139  -6.946  -1.969  1.00  0.00     0.014 A 
ATOM     22  C   UNL     1       0.311  -5.592   0.040  1.00  0.00     0.014 A 
ATOM     23  C   UNL     1       1.517  -7.112  -1.967  1.00  0.00     0.005 A 
ATOM     24  C   UNL     1       1.697  -5.748   0.021  1.00  0.00     0.005 A 
ATOM     25  C   UNL     1       2.330  -6.481  -1.002  1.00  0.00    -0.043 A 
BRANCH  25  26
ATOM     26  C   UNL     1       3.855  -6.635  -1.081  1.00  0.00    -0.013 C 
ATOM     27  C   UNL     1       4.212  -8.077  -0.679  1.00  0.00     0.016 C 
ATOM     28  C   UNL     1       4.355  -6.356  -2.518  1.00  0.00     0.016 C 
ATOM     29  C   UNL     1       4.619  -5.665  -0.153  1.00  0.00     0.016 C 
ENDBRANCH  25  26
ENDBRANCH  17  20
ENDBRANCH  14  16
BRANCH  15  30
ATOM     30  C   UNL     1      -4.116  -2.554  -2.869  1.00  0.00    -0.023 A 
ATOM     31  C   UNL     1      -4.976  -3.088  -1.885  1.00  0.00     0.010 A 
ATOM     32  C   UNL     1      -4.601  -1.433  -3.581  1.00  0.00     0.010 A 
ATOM     33  C   UNL     1      -6.241  -2.533  -1.622  1.00  0.00     0.021 A 
ATOM     34  C   UNL     1      -5.853  -0.856  -3.297  1.00  0.00     0.021 A 
ATOM     35  C   UNL     1      -6.666  -1.406  -2.313  1.00  0.00     0.041 A 
ATOM     36  Cl  UNL     1      -8.146  -0.645  -1.879  1.00  0.00    -0.084 Cl
ENDBRANCH  15  30
ENDBRANCH  11  14
ENDBRANCH   8  10
ENDBRANCH   6   8
ENDBRANCH   5   6
ENDBRANCH   4   5
ENDBRANCH   3   4
ENDBRANCH   2   3
ENDBRANCH   1   2
BRANCH   1  37
ATOM     37  C   UNL     1      -1.249   1.968  -0.300  1.00  0.00     0.188 C 
BRANCH  37  38
ATOM     38  O   UNL     1      -1.533   1.465   0.995  1.00  0.00    -0.377 OA
BRANCH  38  39
ATOM     39  C   UNL     1      -2.700   1.887   1.692  1.00  0.00     0.188 C 
BRANCH  39  40
ATOM     40  C   UNL     1      -3.670   2.917   1.080  1.00  0.00     0.188 C 
BRANCH  40  41
ATOM     41  O   UNL     1      -3.041   3.888   0.269  1.00  0.00    -0.376 OA
BRANCH  41  42
ATOM     42  C   UNL     1      -2.598   5.093   0.860  1.00  0.00     0.202 C 
BRANCH  42  43
ATOM     43  C   UNL     1      -1.651   5.013   2.068  1.00  0.00     0.261 C 
BRANCH  43  44
ATOM     44  O   UNL     1      -2.106   4.300   3.237  1.00  0.00    -0.460 OA
BRANCH  44  45
ATOM     45  C   UNL     1      -3.329   4.554   3.743  1.00  0.00     0.338 C 
ATOM     46  O   UNL     1      -4.079   5.463   3.419  1.00  0.00    -0.246 OA
BRANCH  45  47
ATOM     47  C   UNL     1      -3.736   3.401   4.592  1.00  0.00     0.060 A 
ATOM     48  C   UNL     1      -4.989   2.806   4.371  1.00  0.00     0.016 A 
ATOM     49  C   UNL     1      -2.896   2.896   5.589  1.00  0.00     0.016 A 
ATOM     50  C   UNL     1      -5.442   1.777   5.198  1.00  0.00     0.010 A 
ATOM     51  C   UNL     1      -3.362   1.885   6.440  1.00  0.00     0.010 A 
ATOM     52  C   UNL     1      -4.665   1.374   6.290  1.00  0.00    -0.014 A 
BRANCH  52  53
ATOM     53  C   UNL     1      -5.347   0.714   7.436  1.00  0.00     0.031 A 
ATOM     54  C   UNL     1      -5.822   1.604   8.559  1.00  0.00     0.074 A 
ATOM     55  C   UNL     1      -5.615  -0.603   7.466  1.00  0.00     0.049 A 
ATOM     56  N   UNL     1      -6.444   1.295   9.668  1.00  0.00    -0.248 NA
ATOM     57  C   UNL     1      -5.554   3.044   8.405  1.00  0.00     0.031 C 
ATOM     58  C   UNL     1      -5.274  -1.566   6.422  1.00  0.00     0.029 A 
ATOM     59  N   UNL     1      -6.248  -1.355   8.426  1.00  0.00    -0.354 N 
ATOM     60  C   UNL     1      -6.624   2.497  10.345  1.00  0.00     0.074 A 
ATOM     61  C   UNL     1      -6.017   3.534   9.543  1.00  0.00     0.031 C 
ATOM     62  C   UNL     1      -5.702  -2.785   6.800  1.00  0.00     0.029 A 
ATOM     63  C   UNL     1      -6.320  -2.693   8.123  1.00  0.00     0.049 A 
ATOM     64  H   UNL     1      -6.617  -0.971   9.254  1.00  0.00     0.167 HD
ATOM     65  C   UNL     1      -7.248   2.725  11.524  1.00  0.00     0.037 A 
ATOM     66  C   UNL     1      -6.816  -3.721   8.839  1.00  0.00     0.037 A 
ATOM     67  C   UNL     1      -7.862   1.698  12.320  1.00  0.00     0.049 A 
ATOM     68  C   UNL     1      -7.438  -3.455  10.189  1.00  0.00     0.074 A 
ATOM     69  C   UNL     1      -8.538   1.828  13.521  1.00  0.00     0.029 A 
ATOM     70  N   UNL     1      -7.867   0.349  12.001  1.00  0.00    -0.354 N 
ATOM     71  N   UNL     1      -7.621  -2.314  10.811  1.00  0.00    -0.248 NA
ATOM     72  C   UNL     1      -7.927  -4.625  10.935  1.00  0.00     0.031 C 
ATOM     73  C   UNL     1      -8.894   0.549  13.960  1.00  0.00     0.029 A 
ATOM     74  C   UNL     1      -8.505  -0.369  12.997  1.00  0.00     0.049 A 
ATOM     75  H   UNL     1      -7.474  -0.040  11.186  1.00  0.00     0.167 HD
ATOM     76  C   UNL     1      -8.284  -2.624  11.994  1.00  0.00     0.074 A 
ATOM     77  C   UNL     1      -8.477  -4.059  11.999  1.00  0.00     0.031 C 
ATOM     78  C   UNL     1      -8.702  -1.797  12.985  1.00  0.00     0.037 A 
BRANCH  65  79
ATOM     79  C   UNL     1      -7.255   4.136  12.040  1.00  0.00     0.057 A 
ATOM     80  C   UNL     1      -7.993   5.156  11.425  1.00  0.00     0.134 A 
ATOM     81  C   UNL     1      -6.511   4.475  13.177  1.00  0.00     0.134 A 
ATOM     82  F   UNL     1      -8.711   4.906  10.319  1.00  0.00    -0.206 F 
ATOM     83  C   UNL     1      -7.967   6.468  11.905  1.00  0.00     0.040 A 
ATOM     84  C   UNL     1      -6.503   5.774  13.686  1.00  0.00     0.040 A 
ATOM     85  F   UNL     1      -5.781   3.548  13.815  1.00  0.00    -0.206 F 
ATOM     86  C   UNL     1      -7.226   6.777  13.043  1.00  0.00     0.006 A 
ENDBRANCH  65  79
BRANCH  66  87
ATOM     87  C   UNL     1      -6.754  -5.109   8.307  1.00  0.00     0.057 A 
ATOM     88  C   UNL     1      -7.917  -5.812   7.970  1.00  0.00     0.134 A 
ATOM     89  C   UNL     1      -5.534  -5.782   8.164  1.00  0.00     0.134 A 
ATOM     90  F   UNL     1      -9.119  -5.234   8.112  1.00  0.00    -0.206 F 
ATOM     91  C   UNL     1      -7.873  -7.137   7.532  1.00  0.00     0.040 A 
ATOM     92  C   UNL     1      -5.473  -7.097   7.699  1.00  0.00     0.040 A 
ATOM     93  F   UNL     1      -4.382  -5.169   8.474  1.00  0.00    -0.206 F 
ATOM     94  C   UNL     1      -6.646  -7.781   7.390  1.00  0.00     0.006 A 
ENDBRANCH  66  87
BRANCH  78  95
ATOM     95  C   UNL     1      -9.463  -2.410  14.128  1.00  0.00     0.057 A 
ATOM     96  C   UNL     1      -8.855  -3.253  15.067  1.00  0.00     0.134 A 
ATOM     97  C   UNL     1     -10.824  -2.123  14.307  1.00  0.00     0.134 A 
ATOM     98  F   UNL     1      -7.557  -3.574  14.953  1.00  0.00    -0.206 F 
ATOM     99  C   UNL     1      -9.580  -3.818  16.119  1.00  0.00     0.040 A 
ATOM    100  C   UNL     1     -11.550  -2.654  15.373  1.00  0.00     0.040 A 
ATOM    101  F   UNL     1     -11.468  -1.311  13.455  1.00  0.00    -0.206 F 
ATOM    102  C   UNL     1     -10.931  -3.514  16.277  1.00  0.00     0.006 A 
ENDBRANCH  78  95
ENDBRANCH  52  53
ENDBRANCH  45  47
ENDBRANCH  44  45
ENDBRANCH  43  44
ENDBRANCH  42  43
ENDBRANCH  41  42
ENDBRANCH  40  41
ENDBRANCH  39  40
ENDBRANCH  38  39
ENDBRANCH  37  38
ENDBRANCH   1  37
TORSDOF 26
