REMARK SMILES O=C(OCCOCCOCCOCCOC(=O)c1ccc(-c2c3nc(c(-c4c(F)cccc4F)c4ccc([nH]4)c(-c4c(F)cccc4F)c4nc(c(-c5c(F)cccc5F)c5ccc2[nH]5)C=C4)C=C3)cc1)C1=NN(c2ccc(S(=O)(=O)[O-])cc2)C(=O)/C1=C/Nc1ccccc1
REMARK SMILES IDX 9 1 8 2 7 3 6 4 5 5 4 6 3 7 2 8 1 9 72 10 73 11 87 12 74 13
REMARK SMILES IDX 85 14 88 15 86 16 75 17 76 18 84 19 77 20 83 21 78 22 79 23
REMARK SMILES IDX 80 24 81 25 82 26 89 27 90 29 91 30 95 31 92 32 94 33 93 34
REMARK SMILES IDX 10 35 11 36 12 37 13 38 14 39 15 40 16 41 17 42 18 43 19 44
REMARK SMILES IDX 71 45 20 46 70 47 21 48 22 49 23 50 64 51 24 52 69 53 63 54
REMARK SMILES IDX 65 55 25 56 68 57 62 58 61 59 26 61 52 62 35 63 51 64 36 65
REMARK SMILES IDX 39 66 50 67 66 68 37 69 38 70 49 72 67 73 40 74 27 75 28 76
REMARK SMILES IDX 33 77 29 78 30 79 32 80 34 81 31 82 53 83 54 84 59 85 55 86
REMARK SMILES IDX 56 87 58 88 60 89 57 90 41 91 42 92 47 93 43 94 44 95 46 96
REMARK SMILES IDX 48 97 45 98
REMARK H PARENT 89 28 65 60 39 71
REMARK Flexibility Score: inf
ROOT
ATOM      1  O   UNL     1       4.464  -1.437   2.761  1.00  0.00    -0.377 OA
ENDROOT
BRANCH   1   2
ATOM      2  C   UNL     1       3.300  -0.609   2.719  1.00  0.00     0.188 C 
BRANCH   2   3
ATOM      3  C   UNL     1       2.930   0.153   1.474  1.00  0.00     0.188 C 
BRANCH   3   4
ATOM      4  O   UNL     1       3.926   0.034   0.485  1.00  0.00    -0.376 OA
BRANCH   4   5
ATOM      5  C   UNL     1       4.707   1.142   0.110  1.00  0.00     0.202 C 
BRANCH   5   6
ATOM      6  C   UNL     1       3.859   2.330  -0.274  1.00  0.00     0.261 C 
BRANCH   6   7
ATOM      7  O   UNL     1       2.801   2.037  -1.220  1.00  0.00    -0.458 OA
BRANCH   7   8
ATOM      8  C   UNL     1       2.080   0.885  -1.133  1.00  0.00     0.359 C 
ATOM      9  O   UNL     1       0.901   0.827  -0.826  1.00  0.00    -0.244 OA
BRANCH   8  10
ATOM     10  C   UNL     1       2.731  -0.259  -1.870  1.00  0.00     0.183 C 
ATOM     11  N   UNL     1       2.975   0.013  -3.127  1.00  0.00    -0.157 NA
ATOM     12  C   UNL     1       3.183  -1.647  -1.394  1.00  0.00     0.093 C 
ATOM     13  N   UNL     1       3.565  -1.070  -3.685  1.00  0.00    -0.196 N 
ATOM     14  C   UNL     1       3.840  -2.094  -2.756  1.00  0.00     0.282 C 
ATOM     15  C   UNL     1       3.317  -2.544  -0.338  1.00  0.00     0.099 C 
ATOM     16  O   UNL     1       4.463  -3.127  -2.942  1.00  0.00    -0.267 OA
BRANCH  13  17
ATOM     17  C   UNL     1       3.623  -1.092  -5.119  1.00  0.00     0.069 A 
ATOM     18  C   UNL     1       3.301   0.058  -5.882  1.00  0.00     0.030 A 
ATOM     19  C   UNL     1       3.845  -2.282  -5.821  1.00  0.00     0.030 A 
ATOM     20  C   UNL     1       3.111  -0.004  -7.275  1.00  0.00     0.021 A 
ATOM     21  C   UNL     1       3.640  -2.359  -7.211  1.00  0.00     0.021 A 
ATOM     22  C   UNL     1       3.250  -1.227  -7.927  1.00  0.00     0.054 A 
BRANCH  22  23
ATOM     23  S   UNL     1       2.858  -1.340  -9.654  1.00  0.00     0.124 S 
ATOM     24  O   UNL     1       1.462  -1.001  -9.819  1.00  0.00    -0.237 OA
ATOM     25  O   UNL     1       3.896  -0.660 -10.396  1.00  0.00    -0.237 OA
ATOM     26  O   UNL     1       2.999  -2.903 -10.036  1.00  0.00    -0.744 OA
ENDBRANCH  22  23
ENDBRANCH  13  17
BRANCH  15  27
ATOM     27  N   UNL     1       3.095  -2.944   1.073  1.00  0.00    -0.361 N 
ATOM     28  H   UNL     1       2.203  -2.626   1.341  1.00  0.00     0.166 HD
BRANCH  27  29
ATOM     29  C   UNL     1       3.778  -3.726   2.385  1.00  0.00     0.038 A 
ATOM     30  C   UNL     1       2.484  -4.384   3.485  1.00  0.00     0.026 A 
ATOM     31  C   UNL     1       5.484  -4.418   2.634  1.00  0.00     0.026 A 
ATOM     32  C   UNL     1       2.857  -5.644   4.761  1.00  0.00     0.002 A 
ATOM     33  C   UNL     1       5.900  -5.588   4.011  1.00  0.00     0.002 A 
ATOM     34  C   UNL     1       4.568  -6.151   5.112  1.00  0.00     0.000 A 
ENDBRANCH  27  29
ENDBRANCH  15  27
ENDBRANCH   8  10
ENDBRANCH   7   8
ENDBRANCH   6   7
ENDBRANCH   5   6
ENDBRANCH   4   5
ENDBRANCH   3   4
ENDBRANCH   2   3
ENDBRANCH   1   2
BRANCH   1  35
ATOM     35  C   UNL     1       5.564  -1.581   1.831  1.00  0.00     0.188 C 
BRANCH  35  36
ATOM     36  C   UNL     1       5.851  -2.651   0.478  1.00  0.00     0.188 C 
BRANCH  36  37
ATOM     37  O   UNL     1       5.826  -4.149   0.293  1.00  0.00    -0.376 OA
BRANCH  37  38
ATOM     38  C   UNL     1       4.881  -5.173  -0.182  1.00  0.00     0.202 C 
BRANCH  38  39
ATOM     39  C   UNL     1       3.986  -6.173   0.683  1.00  0.00     0.261 C 
BRANCH  39  40
ATOM     40  O   UNL     1       3.306  -5.673   1.844  1.00  0.00    -0.460 OA
BRANCH  40  41
ATOM     41  C   UNL     1       4.056  -5.724   3.117  1.00  0.00     0.338 C 
ATOM     42  O   UNL     1       4.421  -6.933   3.098  1.00  0.00    -0.246 OA
BRANCH  41  43
ATOM     43  C   UNL     1       4.426  -4.087   4.487  1.00  0.00     0.060 A 
ATOM     44  C   UNL     1       5.756  -3.329   4.756  1.00  0.00     0.016 A 
ATOM     45  C   UNL     1       3.693  -3.627   5.718  1.00  0.00     0.016 A 
ATOM     46  C   UNL     1       6.302  -2.763   5.947  1.00  0.00     0.010 A 
ATOM     47  C   UNL     1       4.245  -3.097   6.964  1.00  0.00     0.010 A 
ATOM     48  C   UNL     1       5.587  -2.779   7.116  1.00  0.00    -0.014 A 
BRANCH  48  49
ATOM     49  C   UNL     1       6.268  -2.411   8.394  1.00  0.00     0.031 A 
ATOM     50  C   UNL     1       6.805  -3.469   9.337  1.00  0.00     0.074 A 
ATOM     51  C   UNL     1       6.543  -1.117   8.647  1.00  0.00     0.049 A 
ATOM     52  N   UNL     1       7.456  -3.330  10.470  1.00  0.00    -0.248 NA
ATOM     53  C   UNL     1       6.593  -4.870   8.945  1.00  0.00     0.031 C 
ATOM     54  C   UNL     1       6.188  -0.009   7.763  1.00  0.00     0.029 A 
ATOM     55  N   UNL     1       7.197  -0.516   9.695  1.00  0.00    -0.354 N 
ATOM     56  C   UNL     1       7.712  -4.619  10.938  1.00  0.00     0.074 A 
ATOM     57  C   UNL     1       7.145  -5.527   9.960  1.00  0.00     0.031 C 
ATOM     58  C   UNL     1       6.629   1.138   8.302  1.00  0.00     0.029 A 
ATOM     59  C   UNL     1       7.250   0.853   9.593  1.00  0.00     0.049 A 
ATOM     60  H   UNL     1       7.589  -1.018  10.446  1.00  0.00     0.167 HD
ATOM     61  C   UNL     1       8.346  -5.006  12.077  1.00  0.00     0.037 A 
ATOM     62  C   UNL     1       7.718   1.780  10.450  1.00  0.00     0.037 A 
ATOM     63  C   UNL     1       8.908  -4.089  13.046  1.00  0.00     0.049 A 
ATOM     64  C   UNL     1       8.335   1.333  11.747  1.00  0.00     0.074 A 
ATOM     65  C   UNL     1       9.568  -4.373  14.231  1.00  0.00     0.029 A 
ATOM     66  N   UNL     1       8.864  -2.705  12.944  1.00  0.00    -0.354 N 
ATOM     67  N   UNL     1       8.547   0.116  12.185  1.00  0.00    -0.248 NA
ATOM     68  C   UNL     1       8.775   2.389  12.668  1.00  0.00     0.031 C 
ATOM     69  C   UNL     1       9.858  -3.165  14.877  1.00  0.00     0.029 A 
ATOM     70  C   UNL     1       9.450  -2.124  14.060  1.00  0.00     0.049 A 
ATOM     71  H   UNL     1       8.475  -2.208  12.189  1.00  0.00     0.167 HD
ATOM     72  C   UNL     1       9.171   0.257  13.418  1.00  0.00     0.074 A 
ATOM     73  C   UNL     1       9.317   1.680  13.648  1.00  0.00     0.031 C 
ATOM     74  C   UNL     1       9.586  -0.704  14.280  1.00  0.00     0.037 A 
BRANCH  61  75
ATOM     75  C   UNL     1       8.417  -6.483  12.387  1.00  0.00     0.057 A 
ATOM     76  C   UNL     1       9.209  -7.375  11.651  1.00  0.00     0.134 A 
ATOM     77  C   UNL     1       7.708  -7.016  13.476  1.00  0.00     0.134 A 
ATOM     78  F   UNL     1       9.922  -6.942  10.600  1.00  0.00    -0.206 F 
ATOM     79  C   UNL     1       9.263  -8.739  11.960  1.00  0.00     0.040 A 
ATOM     80  C   UNL     1       7.777  -8.371  13.813  1.00  0.00     0.040 A 
ATOM     81  F   UNL     1       6.945  -6.224  14.245  1.00  0.00    -0.206 F 
ATOM     82  C   UNL     1       8.548  -9.240  13.046  1.00  0.00     0.006 A 
ENDBRANCH  61  75
BRANCH  62  83
ATOM     83  C   UNL     1       7.595   3.224  10.116  1.00  0.00     0.057 A 
ATOM     84  C   UNL     1       8.722   4.019   9.879  1.00  0.00     0.134 A 
ATOM     85  C   UNL     1       6.341   3.841  10.014  1.00  0.00     0.134 A 
ATOM     86  F   UNL     1       9.952   3.495   9.983  1.00  0.00    -0.206 F 
ATOM     87  C   UNL     1       8.608   5.374   9.560  1.00  0.00     0.040 A 
ATOM     88  C   UNL     1       6.211   5.186   9.663  1.00  0.00     0.040 A 
ATOM     89  F   UNL     1       5.219   3.138  10.227  1.00  0.00    -0.206 F 
ATOM     90  C   UNL     1       7.348   5.958   9.441  1.00  0.00     0.006 A 
ENDBRANCH  62  83
BRANCH  74  91
ATOM     91  C   UNL     1      10.277  -0.240  15.533  1.00  0.00     0.057 A 
ATOM     92  C   UNL     1       9.596   0.431  16.557  1.00  0.00     0.134 A 
ATOM     93  C   UNL     1      11.648  -0.468  15.714  1.00  0.00     0.134 A 
ATOM     94  F   UNL     1       8.285   0.695  16.443  1.00  0.00    -0.206 F 
ATOM     95  C   UNL     1      10.260   0.894  17.695  1.00  0.00     0.040 A 
ATOM     96  C   UNL     1      12.316  -0.040  16.862  1.00  0.00     0.040 A 
ATOM     97  F   UNL     1      12.362  -1.112  14.778  1.00  0.00    -0.206 F 
ATOM     98  C   UNL     1      11.624   0.654  17.852  1.00  0.00     0.006 A 
ENDBRANCH  74  91
ENDBRANCH  48  49
ENDBRANCH  41  43
ENDBRANCH  40  41
ENDBRANCH  39  40
ENDBRANCH  38  39
ENDBRANCH  37  38
ENDBRANCH  36  37
ENDBRANCH  35  36
ENDBRANCH   1  35
TORSDOF 24
