REMARK SMILES Cc1ccc2oc(C(=O)N[C@@H]3C=C[C@H](C(=O)OCCOCCOCCOCCOC(=O)c4ccc(-c5c6nc(c(-c7c(F)cccc7F)c7ccc([nH]7)c(-c7c(F)cccc7F)c7nc(c(-c8c(F)cccc8F)c8ccc5[nH]8)C=C7)C=C6)cc4)C3)cc2c1
REMARK SMILES IDX 23 1 22 2 21 3 20 4 19 5 18 6 17 7 15 8 16 9 14 10 11 11
REMARK SMILES IDX 12 12 86 13 13 14 10 15 8 16 9 17 7 19 1 20 2 21 3 22 89 23
REMARK SMILES IDX 4 24 88 25 5 26 87 27 6 28 24 29 25 30 26 31 27 32 28 33
REMARK SMILES IDX 29 34 30 35 31 36 32 37 33 38 85 39 34 40 84 41 35 42 36 43
REMARK SMILES IDX 37 44 78 45 38 46 83 47 77 48 79 49 39 50 82 51 76 52 75 53
REMARK SMILES IDX 40 55 66 56 49 57 65 58 50 59 53 60 64 61 80 62 51 63 52 64
REMARK SMILES IDX 63 66 81 67 54 68 41 69 42 70 47 71 43 72 44 73 46 74 48 75
REMARK SMILES IDX 45 76 67 77 68 78 73 79 69 80 70 81 72 82 74 83 71 84 55 85
REMARK SMILES IDX 56 86 61 87 57 88 58 89 60 90 62 91 59 92
REMARK H PARENT 10 18 79 54 53 65
REMARK Flexibility Score: inf
ROOT
ATOM      1  O   UNL     1       0.303  -5.770   3.941  1.00  0.00    -0.377 OA
ENDROOT
BRANCH   1   2
ATOM      2  C   UNL     1       0.742  -4.430   3.834  1.00  0.00     0.188 C 
BRANCH   2   3
ATOM      3  C   UNL     1      -0.027  -3.603   2.789  1.00  0.00     0.188 C 
BRANCH   3   4
ATOM      4  O   UNL     1      -1.268  -4.186   2.429  1.00  0.00    -0.376 OA
BRANCH   4   5
ATOM      5  C   UNL     1      -1.369  -5.037   1.297  1.00  0.00     0.202 C 
BRANCH   5   6
ATOM      6  C   UNL     1      -0.368  -6.186   1.015  1.00  0.00     0.261 C 
BRANCH   6   7
ATOM      7  O   UNL     1       1.024  -5.932   1.262  1.00  0.00    -0.463 OA
BRANCH   7   8
ATOM      8  C   UNL     1       1.565  -4.965   0.487  1.00  0.00     0.312 C 
ATOM      9  O   UNL     1       0.954  -4.426  -0.428  1.00  0.00    -0.252 OA
BRANCH   8  10
ATOM     10  C   UNL     1       2.902  -4.462   1.056  1.00  0.00     0.124 C 
ATOM     11  C   UNL     1       3.955  -3.093  -0.632  1.00  0.00     0.106 C 
ATOM     12  C   UNL     1       4.817  -4.243  -0.274  1.00  0.00    -0.006 C 
ATOM     13  C   UNL     1       3.069  -3.003   0.615  1.00  0.00     0.048 C 
ATOM     14  C   UNL     1       4.217  -5.028   0.634  1.00  0.00    -0.014 C 
BRANCH  11  15
ATOM     15  N   UNL     1       3.264  -3.232  -1.920  1.00  0.00    -0.343 N 
ATOM     16  C   UNL     1       2.606  -4.187  -2.687  1.00  0.00     0.287 C 
ATOM     17  O   UNL     1       1.944  -3.711  -3.617  1.00  0.00    -0.266 OA
ATOM     18  H   UNL     1       3.269  -2.370  -2.395  1.00  0.00     0.164 HD
BRANCH  16  19
ATOM     19  C   UNL     1       2.663  -5.622  -2.440  1.00  0.00     0.192 A 
ATOM     20  C   UNL     1       2.512 -10.881   0.419  1.00  0.00     0.044 C 
ATOM     21  C   UNL     1       2.306  -9.802  -0.606  1.00  0.00    -0.050 A 
ATOM     22  C   UNL     1       1.249  -9.856  -1.529  1.00  0.00     0.007 A 
ATOM     23  C   UNL     1       3.159  -8.690  -0.597  1.00  0.00     0.015 A 
ATOM     24  C   UNL     1       0.945  -8.770  -2.374  1.00  0.00     0.048 A 
ATOM     25  C   UNL     1       2.912  -7.637  -1.488  1.00  0.00     0.021 A 
ATOM     26  C   UNL     1       1.770  -7.653  -2.268  1.00  0.00     0.135 A 
ATOM     27  C   UNL     1       3.591  -6.461  -1.861  1.00  0.00     0.065 A 
ATOM     28  O   UNL     1       1.600  -6.423  -2.849  1.00  0.00    -0.451 OA
ENDBRANCH  16  19
ENDBRANCH  11  15
ENDBRANCH   8  10
ENDBRANCH   7   8
ENDBRANCH   6   7
ENDBRANCH   5   6
ENDBRANCH   4   5
ENDBRANCH   3   4
ENDBRANCH   2   3
ENDBRANCH   1   2
BRANCH   1  29
ATOM     29  C   UNL     1      -0.912  -6.012   4.645  1.00  0.00     0.188 C 
BRANCH  29  30
ATOM     30  C   UNL     1      -1.875  -4.867   5.061  1.00  0.00     0.188 C 
BRANCH  30  31
ATOM     31  O   UNL     1      -1.271  -3.610   5.327  1.00  0.00    -0.376 OA
BRANCH  31  32
ATOM     32  C   UNL     1      -1.002  -3.229   6.665  1.00  0.00     0.202 C 
BRANCH  32  33
ATOM     33  C   UNL     1      -0.005  -4.079   7.468  1.00  0.00     0.261 C 
BRANCH  33  34
ATOM     34  O   UNL     1      -0.300  -5.479   7.552  1.00  0.00    -0.460 OA
BRANCH  34  35
ATOM     35  C   UNL     1      -1.474  -5.823   8.132  1.00  0.00     0.338 C 
ATOM     36  O   UNL     1      -2.285  -5.087   8.644  1.00  0.00    -0.246 OA
BRANCH  35  37
ATOM     37  C   UNL     1      -1.700  -7.258   7.851  1.00  0.00     0.060 A 
ATOM     38  C   UNL     1      -2.855  -7.636   7.153  1.00  0.00     0.016 A 
ATOM     39  C   UNL     1      -0.767  -8.216   8.252  1.00  0.00     0.016 A 
ATOM     40  C   UNL     1      -3.104  -8.981   6.892  1.00  0.00     0.010 A 
ATOM     41  C   UNL     1      -1.031  -9.566   8.017  1.00  0.00     0.010 A 
ATOM     42  C   UNL     1      -2.220  -9.954   7.373  1.00  0.00    -0.014 A 
BRANCH  42  43
ATOM     43  C   UNL     1      -2.652 -11.369   7.418  1.00  0.00     0.031 A 
ATOM     44  C   UNL     1      -3.233 -11.887   8.705  1.00  0.00     0.074 A 
ATOM     45  C   UNL     1      -2.557 -12.170   6.344  1.00  0.00     0.049 A 
ATOM     46  N   UNL     1      -3.643 -13.090   9.011  1.00  0.00    -0.248 NA
ATOM     47  C   UNL     1      -3.364 -10.908   9.797  1.00  0.00     0.031 C 
ATOM     48  C   UNL     1      -2.068 -11.769   5.028  1.00  0.00     0.029 A 
ATOM     49  N   UNL     1      -2.870 -13.498   6.201  1.00  0.00    -0.354 N 
ATOM     50  C   UNL     1      -4.063 -13.017  10.334  1.00  0.00     0.074 A 
ATOM     51  C   UNL     1      -3.830 -11.661  10.780  1.00  0.00     0.031 C 
ATOM     52  C   UNL     1      -2.112 -12.833   4.207  1.00  0.00     0.029 A 
ATOM     53  C   UNL     1      -2.596 -13.995   4.952  1.00  0.00     0.049 A 
ATOM     54  H   UNL     1      -3.254 -14.043   6.926  1.00  0.00     0.167 HD
ATOM     55  C   UNL     1      -4.598 -13.991  11.106  1.00  0.00     0.037 A 
ATOM     56  C   UNL     1      -2.709 -15.250   4.476  1.00  0.00     0.037 A 
ATOM     57  C   UNL     1      -4.823 -15.339  10.656  1.00  0.00     0.049 A 
ATOM     58  C   UNL     1      -3.219 -16.341   5.383  1.00  0.00     0.074 A 
ATOM     59  C   UNL     1      -5.385 -16.396  11.349  1.00  0.00     0.029 A 
ATOM     60  N   UNL     1      -4.479 -15.820   9.401  1.00  0.00    -0.354 N 
ATOM     61  N   UNL     1      -3.641 -16.261   6.622  1.00  0.00    -0.248 NA
ATOM     62  C   UNL     1      -3.264 -17.699   4.822  1.00  0.00     0.031 C 
ATOM     63  C   UNL     1      -5.316 -17.534  10.537  1.00  0.00     0.029 A 
ATOM     64  C   UNL     1      -4.779 -17.169   9.313  1.00  0.00     0.049 A 
ATOM     65  H   UNL     1      -4.081 -15.281   8.679  1.00  0.00     0.167 HD
ATOM     66  C   UNL     1      -4.038 -17.547   6.975  1.00  0.00     0.074 A 
ATOM     67  C   UNL     1      -3.811 -18.385   5.816  1.00  0.00     0.031 C 
ATOM     68  C   UNL     1      -4.551 -17.991   8.150  1.00  0.00     0.037 A 
BRANCH  55  69
ATOM     69  C   UNL     1      -4.921 -13.639  12.530  1.00  0.00     0.057 A 
ATOM     70  C   UNL     1      -5.950 -12.750  12.868  1.00  0.00     0.134 A 
ATOM     71  C   UNL     1      -4.181 -14.197  13.581  1.00  0.00     0.134 A 
ATOM     72  F   UNL     1      -6.687 -12.166  11.911  1.00  0.00    -0.206 F 
ATOM     73  C   UNL     1      -6.205 -12.399  14.195  1.00  0.00     0.040 A 
ATOM     74  C   UNL     1      -4.448 -13.879  14.913  1.00  0.00     0.040 A 
ATOM     75  F   UNL     1      -3.183 -15.058  13.331  1.00  0.00    -0.206 F 
ATOM     76  C   UNL     1      -5.456 -12.968  15.223  1.00  0.00     0.006 A 
ENDBRANCH  55  69
BRANCH  56  77
ATOM     77  C   UNL     1      -2.340 -15.549   3.069  1.00  0.00     0.057 A 
ATOM     78  C   UNL     1      -3.313 -15.916   2.132  1.00  0.00     0.134 A 
ATOM     79  C   UNL     1      -1.011 -15.493   2.629  1.00  0.00     0.134 A 
ATOM     80  F   UNL     1      -4.599 -16.012   2.498  1.00  0.00    -0.206 F 
ATOM     81  C   UNL     1      -2.978 -16.230   0.813  1.00  0.00     0.040 A 
ATOM     82  C   UNL     1      -0.666 -15.779   1.307  1.00  0.00     0.040 A 
ATOM     83  F   UNL     1      -0.030 -15.150   3.477  1.00  0.00    -0.206 F 
ATOM     84  C   UNL     1      -1.651 -16.155   0.397  1.00  0.00     0.006 A 
ENDBRANCH  56  77
BRANCH  68  85
ATOM     85  C   UNL     1      -4.947 -19.439   8.229  1.00  0.00     0.057 A 
ATOM     86  C   UNL     1      -4.002 -20.473   8.248  1.00  0.00     0.134 A 
ATOM     87  C   UNL     1      -6.298 -19.801   8.333  1.00  0.00     0.134 A 
ATOM     88  F   UNL     1      -2.692 -20.198   8.142  1.00  0.00    -0.206 F 
ATOM     89  C   UNL     1      -4.385 -21.812   8.341  1.00  0.00     0.040 A 
ATOM     90  C   UNL     1      -6.692 -21.134   8.459  1.00  0.00     0.040 A 
ATOM     91  F   UNL     1      -7.257 -18.863   8.334  1.00  0.00    -0.206 F 
ATOM     92  C   UNL     1      -5.734 -22.145   8.455  1.00  0.00     0.006 A 
ENDBRANCH  68  85
ENDBRANCH  42  43
ENDBRANCH  35  37
ENDBRANCH  34  35
ENDBRANCH  33  34
ENDBRANCH  32  33
ENDBRANCH  31  32
ENDBRANCH  30  31
ENDBRANCH  29  30
ENDBRANCH   1  29
TORSDOF 22
