REMARK SMILES Cc1cccc(-n2c(C)cc(/C=N\c3ccc(O)c(C(=O)OCCOCCOCCOCCOC(=O)c4ccc(-c5c6nc(c(-c7c(F)cccc7F)c7ccc([nH]7)c(-c7c(F)cccc7F)c7nc(c(-c8c(F)cccc8F)c8ccc5[nH]8)C=C7)C=C6)cc4)c3)c2C)c1
REMARK SMILES IDX 27 1 26 2 25 3 24 4 23 5 22 6 20 7 21 8 19 9 14 10 15 11
REMARK SMILES IDX 91 12 16 13 17 14 13 15 12 16 11 17 7 18 8 19 92 20 9 21
REMARK SMILES IDX 10 22 93 23 6 24 1 25 2 26 3 27 94 28 4 29 5 30 18 31 28 33
REMARK SMILES IDX 29 34 30 35 31 36 32 37 33 38 34 39 35 40 36 41 37 42 38 43
REMARK SMILES IDX 90 44 39 45 89 46 40 47 41 48 42 49 83 50 43 51 88 52 82 53
REMARK SMILES IDX 84 54 44 55 87 56 81 57 80 58 45 60 71 61 54 62 70 63 55 64
REMARK SMILES IDX 58 65 69 66 85 67 56 68 57 69 68 71 86 72 59 73 46 74 47 75
REMARK SMILES IDX 52 76 48 77 49 78 51 79 53 80 50 81 72 82 73 83 78 84 74 85
REMARK SMILES IDX 75 86 77 87 79 88 76 89 60 90 61 91 66 92 62 93 63 94 65 95
REMARK SMILES IDX 67 96 64 97
REMARK H PARENT 18 32 84 59 58 70
REMARK Flexibility Score: inf
ROOT
ATOM      1  C   UNL     1      -5.389   2.573   6.745  1.00  0.00     0.188 C 
ENDROOT
BRANCH   1   2
ATOM      2  C   UNL     1      -6.724   2.797   5.998  1.00  0.00     0.188 C 
BRANCH   2   3
ATOM      3  O   UNL     1      -7.780   1.857   6.054  1.00  0.00    -0.376 OA
BRANCH   3   4
ATOM      4  C   UNL     1      -7.571   0.609   5.424  1.00  0.00     0.202 C 
BRANCH   4   5
ATOM      5  C   UNL     1      -7.629   0.504   3.918  1.00  0.00     0.261 C 
BRANCH   5   6
ATOM      6  O   UNL     1      -6.271   0.477   3.495  1.00  0.00    -0.460 OA
BRANCH   6   7
ATOM      7  C   UNL     1      -6.028   1.493   2.667  1.00  0.00     0.342 C 
ATOM      8  O   UNL     1      -6.723   1.853   1.745  1.00  0.00    -0.246 OA
BRANCH   7   9
ATOM      9  C   UNL     1      -4.911   2.252   3.260  1.00  0.00     0.103 A 
ATOM     10  C   UNL     1      -3.739   4.302   2.978  1.00  0.00     0.064 A 
ATOM     11  C   UNL     1      -2.730   3.887   3.844  1.00  0.00     0.032 A 
ATOM     12  C   UNL     1      -4.892   3.561   2.824  1.00  0.00     0.048 A 
ATOM     13  C   UNL     1      -2.794   2.605   4.397  1.00  0.00     0.049 A 
ATOM     14  C   UNL     1      -3.851   1.761   4.040  1.00  0.00     0.130 A 
BRANCH  10  15
ATOM     15  N   UNL     1      -3.650   5.406   2.160  1.00  0.00    -0.256 NA
ATOM     16  C   UNL     1      -3.305   5.275   0.909  1.00  0.00     0.121 C 
BRANCH  16  17
ATOM     17  C   UNL     1      -2.696   4.202   0.096  1.00  0.00     0.014 A 
ATOM     18  N   UNL     1      -1.589   2.441  -0.847  1.00  0.00    -0.318 N 
ATOM     19  C   UNL     1      -1.387   3.529  -1.660  1.00  0.00     0.021 A 
ATOM     20  C   UNL     1      -2.424   2.828   0.199  1.00  0.00     0.029 A 
ATOM     21  C   UNL     1      -0.519   3.507  -2.857  1.00  0.00     0.065 C 
ATOM     22  C   UNL     1      -2.132   4.572  -1.163  1.00  0.00     0.033 A 
ATOM     23  C   UNL     1      -2.750   1.806   1.209  1.00  0.00     0.065 C 
BRANCH  18  24
ATOM     24  C   UNL     1      -0.882   1.202  -0.892  1.00  0.00     0.046 A 
ATOM     25  C   UNL     1       2.616  -0.000  -0.008  1.00  0.00     0.044 C 
ATOM     26  C   UNL     1       1.151   0.010  -0.326  1.00  0.00    -0.049 A 
ATOM     27  C   UNL     1       0.431  -1.193  -0.333  1.00  0.00     0.003 A 
ATOM     28  C   UNL     1       0.486   1.213  -0.602  1.00  0.00     0.030 A 
ATOM     29  C   UNL     1      -0.929  -1.205  -0.644  1.00  0.00     0.002 A 
ATOM     30  C   UNL     1      -1.585  -0.011  -0.948  1.00  0.00     0.026 A 
ENDBRANCH  18  24
ENDBRANCH  16  17
ENDBRANCH  10  15
BRANCH  14  31
ATOM     31  O   UNL     1      -3.717   0.455   4.404  1.00  0.00    -0.507 OA
ATOM     32  H   UNL     1      -2.987   0.187   4.927  1.00  0.00     0.293 HD
ENDBRANCH  14  31
ENDBRANCH   7   9
ENDBRANCH   6   7
ENDBRANCH   5   6
ENDBRANCH   4   5
ENDBRANCH   3   4
ENDBRANCH   2   3
ENDBRANCH   1   2
BRANCH   1  33
ATOM     33  O   UNL     1      -4.849   1.266   6.878  1.00  0.00    -0.377 OA
BRANCH  33  34
ATOM     34  C   UNL     1      -5.241   0.519   8.021  1.00  0.00     0.188 C 
BRANCH  34  35
ATOM     35  C   UNL     1      -5.489   1.265   9.294  1.00  0.00     0.188 C 
BRANCH  35  36
ATOM     36  O   UNL     1      -6.759   1.887   9.127  1.00  0.00    -0.376 OA
BRANCH  36  37
ATOM     37  C   UNL     1      -7.035   2.920  10.053  1.00  0.00     0.202 C 
BRANCH  37  38
ATOM     38  C   UNL     1      -6.973   2.412  11.494  1.00  0.00     0.261 C 
BRANCH  38  39
ATOM     39  O   UNL     1      -7.977   1.382  11.652  1.00  0.00    -0.460 OA
BRANCH  39  40
ATOM     40  C   UNL     1      -7.510   0.112  11.806  1.00  0.00     0.338 C 
ATOM     41  O   UNL     1      -6.628  -0.221  12.582  1.00  0.00    -0.246 OA
BRANCH  40  42
ATOM     42  C   UNL     1      -7.997  -0.767  10.695  1.00  0.00     0.060 A 
ATOM     43  C   UNL     1      -7.458  -2.054  10.525  1.00  0.00     0.016 A 
ATOM     44  C   UNL     1      -8.722  -0.204   9.656  1.00  0.00     0.016 A 
ATOM     45  C   UNL     1      -7.474  -2.681   9.262  1.00  0.00     0.010 A 
ATOM     46  C   UNL     1      -8.672  -0.797   8.405  1.00  0.00     0.010 A 
ATOM     47  C   UNL     1      -7.995  -2.007   8.162  1.00  0.00    -0.014 A 
BRANCH  47  48
ATOM     48  C   UNL     1      -7.808  -2.404   6.740  1.00  0.00     0.031 A 
ATOM     49  C   UNL     1      -9.023  -2.463   5.854  1.00  0.00     0.074 A 
ATOM     50  C   UNL     1      -6.574  -2.331   6.155  1.00  0.00     0.049 A 
ATOM     51  N   UNL     1      -8.992  -2.655   4.582  1.00  0.00    -0.248 NA
ATOM     52  C   UNL     1     -10.380  -2.178   6.306  1.00  0.00     0.031 C 
ATOM     53  C   UNL     1      -6.241  -2.247   4.729  1.00  0.00     0.029 A 
ATOM     54  N   UNL     1      -5.296  -2.227   6.719  1.00  0.00    -0.354 N 
ATOM     55  C   UNL     1     -10.165  -2.198   4.012  1.00  0.00     0.074 A 
ATOM     56  C   UNL     1     -11.026  -1.986   5.147  1.00  0.00     0.031 C 
ATOM     57  C   UNL     1      -4.922  -2.354   4.513  1.00  0.00     0.029 A 
ATOM     58  C   UNL     1      -4.367  -2.729   5.781  1.00  0.00     0.049 A 
ATOM     59  H   UNL     1      -5.083  -1.867   7.610  1.00  0.00     0.167 HD
ATOM     60  C   UNL     1     -10.180  -1.962   2.657  1.00  0.00     0.037 A 
ATOM     61  C   UNL     1      -3.726  -3.899   6.023  1.00  0.00     0.037 A 
ATOM     62  C   UNL     1      -8.909  -2.436   2.041  1.00  0.00     0.049 A 
ATOM     63  C   UNL     1      -4.277  -4.899   5.005  1.00  0.00     0.074 A 
ATOM     64  C   UNL     1      -7.894  -1.857   1.293  1.00  0.00     0.029 A 
ATOM     65  N   UNL     1      -8.425  -3.705   2.390  1.00  0.00    -0.354 N 
ATOM     66  N   UNL     1      -5.519  -4.881   4.546  1.00  0.00    -0.248 NA
ATOM     67  C   UNL     1      -3.388  -5.674   4.141  1.00  0.00     0.031 C 
ATOM     68  C   UNL     1      -6.760  -2.736   1.326  1.00  0.00     0.029 A 
ATOM     69  C   UNL     1      -7.090  -3.870   2.065  1.00  0.00     0.049 A 
ATOM     70  H   UNL     1      -8.974  -4.401   2.820  1.00  0.00     0.167 HD
ATOM     71  C   UNL     1      -5.538  -5.403   3.268  1.00  0.00     0.074 A 
ATOM     72  C   UNL     1      -4.191  -5.944   3.096  1.00  0.00     0.031 C 
ATOM     73  C   UNL     1      -6.444  -5.170   2.254  1.00  0.00     0.037 A 
BRANCH  60  74
ATOM     74  C   UNL     1     -11.252  -1.186   1.866  1.00  0.00     0.057 A 
ATOM     75  C   UNL     1     -11.131  -0.990   0.469  1.00  0.00     0.134 A 
ATOM     76  C   UNL     1     -12.404  -0.569   2.400  1.00  0.00     0.134 A 
ATOM     77  F   UNL     1     -10.112  -1.509  -0.228  1.00  0.00    -0.206 F 
ATOM     78  C   UNL     1     -12.053  -0.256  -0.306  1.00  0.00     0.040 A 
ATOM     79  C   UNL     1     -13.352   0.139   1.632  1.00  0.00     0.040 A 
ATOM     80  F   UNL     1     -12.689  -0.583   3.701  1.00  0.00    -0.206 F 
ATOM     81  C   UNL     1     -13.178   0.305   0.272  1.00  0.00     0.006 A 
ENDBRANCH  60  74
BRANCH  61  82
ATOM     82  C   UNL     1      -3.266  -3.884   7.457  1.00  0.00     0.057 A 
ATOM     83  C   UNL     1      -2.291  -2.888   7.747  1.00  0.00     0.134 A 
ATOM     84  C   UNL     1      -4.110  -4.218   8.524  1.00  0.00     0.134 A 
ATOM     85  F   UNL     1      -1.432  -2.499   6.789  1.00  0.00    -0.206 F 
ATOM     86  C   UNL     1      -2.301  -2.127   8.929  1.00  0.00     0.040 A 
ATOM     87  C   UNL     1      -4.105  -3.478   9.728  1.00  0.00     0.040 A 
ATOM     88  F   UNL     1      -5.079  -5.130   8.362  1.00  0.00    -0.206 F 
ATOM     89  C   UNL     1      -3.248  -2.391   9.907  1.00  0.00     0.006 A 
ENDBRANCH  61  82
BRANCH  73  90
ATOM     90  C   UNL     1      -6.880  -6.281   1.311  1.00  0.00     0.057 A 
ATOM     91  C   UNL     1      -6.508  -7.622   1.470  1.00  0.00     0.134 A 
ATOM     92  C   UNL     1      -7.883  -6.058   0.329  1.00  0.00     0.134 A 
ATOM     93  F   UNL     1      -5.618  -8.007   2.393  1.00  0.00    -0.206 F 
ATOM     94  C   UNL     1      -7.074  -8.651   0.712  1.00  0.00     0.040 A 
ATOM     95  C   UNL     1      -8.499  -7.085  -0.383  1.00  0.00     0.040 A 
ATOM     96  F   UNL     1      -8.351  -4.837   0.032  1.00  0.00    -0.206 F 
ATOM     97  C   UNL     1      -8.088  -8.390  -0.199  1.00  0.00     0.006 A 
ENDBRANCH  73  90
ENDBRANCH  47  48
ENDBRANCH  40  42
ENDBRANCH  39  40
ENDBRANCH  38  39
ENDBRANCH  37  38
ENDBRANCH  36  37
ENDBRANCH  35  36
ENDBRANCH  34  35
ENDBRANCH  33  34
ENDBRANCH   1  33
TORSDOF 24
