REMARK SMILES C[C@@H](CCO)Sc1cc(C(=O)OCCOCCOCCOCCOC(=O)c2ccc(-c3c4nc(c(-c5c(F)cccc5F)c5ccc([nH]5)c(-c5c(F)cccc5F)c5nc(c(-c6c(F)cccc6F)c6ccc3[nH]6)C=C5)C=C4)cc2)c2ccccc2n1
REMARK SMILES IDX 16 1 15 2 14 3 13 4 12 5 10 6 11 7 9 8 7 9 8 10 87 11 86 12
REMARK SMILES IDX 81 13 85 14 82 15 84 16 83 17 6 18 2 19 1 20 3 21 4 22 5 23
REMARK SMILES IDX 17 25 18 26 19 27 20 28 21 29 22 30 23 31 24 32 25 33 26 34
REMARK SMILES IDX 27 35 28 36 80 37 29 38 79 39 30 40 31 41 32 42 73 43 33 44
REMARK SMILES IDX 78 45 72 46 74 47 34 48 77 49 71 50 70 51 35 53 61 54 44 55
REMARK SMILES IDX 60 56 45 57 48 58 59 59 75 60 46 61 47 62 58 64 76 65 49 66
REMARK SMILES IDX 36 67 37 68 42 69 38 70 39 71 41 72 43 73 40 74 62 75 63 76
REMARK SMILES IDX 68 77 64 78 65 79 67 80 69 81 66 82 50 83 51 84 56 85 52 86
REMARK SMILES IDX 53 87 55 88 57 89 54 90
REMARK H PARENT 5 24 74 52 48 63
REMARK Flexibility Score: inf
ROOT
ATOM      1  C   UNL     1      -2.361   1.166   4.015  1.00  0.00     0.188 C 
ENDROOT
BRANCH   1   2
ATOM      2  O   UNL     1      -3.042   1.623   5.168  1.00  0.00    -0.376 OA
BRANCH   2   3
ATOM      3  C   UNL     1      -4.389   1.262   5.402  1.00  0.00     0.202 C 
BRANCH   3   4
ATOM      4  C   UNL     1      -4.882  -0.181   5.229  1.00  0.00     0.261 C 
BRANCH   4   5
ATOM      5  O   UNL     1      -4.170  -0.978   4.283  1.00  0.00    -0.460 OA
BRANCH   5   6
ATOM      6  C   UNL     1      -4.568  -0.947   2.996  1.00  0.00     0.338 C 
ATOM      7  O   UNL     1      -5.471  -0.270   2.537  1.00  0.00    -0.246 OA
BRANCH   6   8
ATOM      8  C   UNL     1      -3.591  -1.702   2.169  1.00  0.00     0.072 A 
ATOM      9  C   UNL     1      -2.213  -1.689   0.214  1.00  0.00     0.098 A 
ATOM     10  C   UNL     1      -3.130  -1.043   1.019  1.00  0.00     0.052 A 
ATOM     11  N   UNL     1      -1.852  -2.965   0.435  1.00  0.00    -0.241 NA
ATOM     12  C   UNL     1      -2.283  -3.599   1.544  1.00  0.00     0.072 A 
ATOM     13  C   UNL     1      -3.113  -2.994   2.505  1.00  0.00     0.015 A 
ATOM     14  C   UNL     1      -1.871  -4.911   1.747  1.00  0.00     0.029 A 
ATOM     15  C   UNL     1      -3.388  -3.713   3.702  1.00  0.00     0.011 A 
ATOM     16  C   UNL     1      -2.161  -5.614   2.914  1.00  0.00     0.002 A 
ATOM     17  C   UNL     1      -2.892  -4.999   3.913  1.00  0.00     0.001 A 
BRANCH   9  18
ATOM     18  S   UNL     1      -1.604  -0.914  -1.265  1.00  0.00    -0.103 SA
BRANCH  18  19
ATOM     19  C   UNL     1       0.234  -0.788  -1.058  1.00  0.00     0.052 C 
ATOM     20  C   UNL     1       0.672  -0.019   0.187  1.00  0.00     0.020 C 
BRANCH  19  21
ATOM     21  C   UNL     1       1.061  -2.059  -1.330  1.00  0.00     0.043 C 
BRANCH  21  22
ATOM     22  C   UNL     1       1.114  -3.112  -0.234  1.00  0.00     0.157 C 
BRANCH  22  23
ATOM     23  O   UNL     1       0.291  -4.208  -0.603  1.00  0.00    -0.396 OA
ATOM     24  H   UNL     1      -0.622  -3.902  -0.721  1.00  0.00     0.210 HD
ENDBRANCH  22  23
ENDBRANCH  21  22
ENDBRANCH  19  21
ENDBRANCH  18  19
ENDBRANCH   9  18
ENDBRANCH   6   8
ENDBRANCH   5   6
ENDBRANCH   4   5
ENDBRANCH   3   4
ENDBRANCH   2   3
ENDBRANCH   1   2
BRANCH   1  25
ATOM     25  C   UNL     1      -1.383   0.002   4.294  1.00  0.00     0.188 C 
BRANCH  25  26
ATOM     26  O   UNL     1      -1.539  -0.706   5.514  1.00  0.00    -0.377 OA
BRANCH  26  27
ATOM     27  C   UNL     1      -1.435  -0.010   6.756  1.00  0.00     0.188 C 
BRANCH  27  28
ATOM     28  C   UNL     1      -0.908   1.443   6.862  1.00  0.00     0.188 C 
BRANCH  28  29
ATOM     29  O   UNL     1      -0.230   1.923   5.715  1.00  0.00    -0.376 OA
BRANCH  29  30
ATOM     30  C   UNL     1       1.174   2.083   5.782  1.00  0.00     0.202 C 
BRANCH  30  31
ATOM     31  C   UNL     1       2.003   0.805   5.966  1.00  0.00     0.261 C 
BRANCH  31  32
ATOM     32  O   UNL     1       1.641  -0.015   7.087  1.00  0.00    -0.460 OA
BRANCH  32  33
ATOM     33  C   UNL     1       1.849   0.510   8.311  1.00  0.00     0.338 C 
ATOM     34  O   UNL     1       2.331   1.603   8.573  1.00  0.00    -0.246 OA
BRANCH  33  35
ATOM     35  C   UNL     1       1.221  -0.378   9.306  1.00  0.00     0.060 A 
ATOM     36  C   UNL     1       0.218   0.141  10.134  1.00  0.00     0.016 A 
ATOM     37  C   UNL     1       1.633  -1.707   9.434  1.00  0.00     0.016 A 
ATOM     38  C   UNL     1      -0.334  -0.652  11.136  1.00  0.00     0.010 A 
ATOM     39  C   UNL     1       1.091  -2.496  10.453  1.00  0.00     0.010 A 
ATOM     40  C   UNL     1       0.142  -1.955  11.337  1.00  0.00    -0.014 A 
BRANCH  40  41
ATOM     41  C   UNL     1      -0.188  -2.646  12.607  1.00  0.00     0.031 A 
ATOM     42  C   UNL     1       0.819  -2.599  13.725  1.00  0.00     0.074 A 
ATOM     43  C   UNL     1      -1.380  -3.239  12.792  1.00  0.00     0.049 A 
ATOM     44  N   UNL     1       0.747  -3.099  14.932  1.00  0.00    -0.248 NA
ATOM     45  C   UNL     1       2.078  -1.891  13.441  1.00  0.00     0.031 C 
ATOM     46  C   UNL     1      -2.451  -3.314  11.802  1.00  0.00     0.029 A 
ATOM     47  N   UNL     1      -1.885  -3.889  13.890  1.00  0.00    -0.354 N 
ATOM     48  C   UNL     1       1.949  -2.768  15.547  1.00  0.00     0.074 A 
ATOM     49  C   UNL     1       2.747  -2.062  14.570  1.00  0.00     0.031 C 
ATOM     50  C   UNL     1      -3.492  -3.977  12.339  1.00  0.00     0.029 A 
ATOM     51  C   UNL     1      -3.147  -4.394  13.697  1.00  0.00     0.049 A 
ATOM     52  H   UNL     1      -1.391  -3.983  14.736  1.00  0.00     0.167 HD
ATOM     53  C   UNL     1       2.347  -3.017  16.817  1.00  0.00     0.037 A 
ATOM     54  C   UNL     1      -3.926  -5.120  14.522  1.00  0.00     0.037 A 
ATOM     55  C   UNL     1       1.553  -3.723  17.788  1.00  0.00     0.049 A 
ATOM     56  C   UNL     1      -3.432  -5.445  15.908  1.00  0.00     0.074 A 
ATOM     57  C   UNL     1       1.860  -4.017  19.104  1.00  0.00     0.029 A 
ATOM     58  N   UNL     1       0.296  -4.256  17.541  1.00  0.00    -0.354 N 
ATOM     59  N   UNL     1      -2.307  -5.104  16.491  1.00  0.00    -0.248 NA
ATOM     60  C   UNL     1      -4.326  -6.246  16.756  1.00  0.00     0.031 C 
ATOM     61  C   UNL     1       0.816  -4.780  19.636  1.00  0.00     0.029 A 
ATOM     62  C   UNL     1      -0.174  -4.901  18.674  1.00  0.00     0.049 A 
ATOM     63  H   UNL     1      -0.190  -4.186  16.688  1.00  0.00     0.167 HD
ATOM     64  C   UNL     1      -2.372  -5.621  17.780  1.00  0.00     0.074 A 
ATOM     65  C   UNL     1      -3.656  -6.280  17.899  1.00  0.00     0.031 C 
ATOM     66  C   UNL     1      -1.455  -5.554  18.778  1.00  0.00     0.037 A 
BRANCH  53  67
ATOM     67  C   UNL     1       3.719  -2.550  17.214  1.00  0.00     0.057 A 
ATOM     68  C   UNL     1       4.032  -1.191  17.357  1.00  0.00     0.134 A 
ATOM     69  C   UNL     1       4.738  -3.476  17.471  1.00  0.00     0.134 A 
ATOM     70  F   UNL     1       3.109  -0.250  17.108  1.00  0.00    -0.206 F 
ATOM     71  C   UNL     1       5.315  -0.771  17.715  1.00  0.00     0.040 A 
ATOM     72  C   UNL     1       6.015  -3.069  17.860  1.00  0.00     0.040 A 
ATOM     73  F   UNL     1       4.508  -4.793  17.355  1.00  0.00    -0.206 F 
ATOM     74  C   UNL     1       6.308  -1.712  17.975  1.00  0.00     0.006 A 
ENDBRANCH  53  67
BRANCH  54  75
ATOM     75  C   UNL     1      -5.255  -5.601  14.062  1.00  0.00     0.057 A 
ATOM     76  C   UNL     1      -6.441  -5.125  14.633  1.00  0.00     0.134 A 
ATOM     77  C   UNL     1      -5.369  -6.574  13.061  1.00  0.00     0.134 A 
ATOM     78  F   UNL     1      -6.399  -4.211  15.613  1.00  0.00    -0.206 F 
ATOM     79  C   UNL     1      -7.689  -5.615  14.243  1.00  0.00     0.040 A 
ATOM     80  C   UNL     1      -6.611  -7.051  12.641  1.00  0.00     0.040 A 
ATOM     81  F   UNL     1      -4.271  -7.071  12.472  1.00  0.00    -0.206 F 
ATOM     82  C   UNL     1      -7.776  -6.578  13.240  1.00  0.00     0.006 A 
ENDBRANCH  54  75
BRANCH  66  83
ATOM     83  C   UNL     1      -1.828  -6.172  20.098  1.00  0.00     0.057 A 
ATOM     84  C   UNL     1      -1.960  -7.557  20.263  1.00  0.00     0.134 A 
ATOM     85  C   UNL     1      -2.046  -5.366  21.224  1.00  0.00     0.134 A 
ATOM     86  F   UNL     1      -1.774  -8.387  19.226  1.00  0.00    -0.206 F 
ATOM     87  C   UNL     1      -2.338  -8.114  21.487  1.00  0.00     0.040 A 
ATOM     88  C   UNL     1      -2.389  -5.914  22.461  1.00  0.00     0.040 A 
ATOM     89  F   UNL     1      -1.923  -4.033  21.143  1.00  0.00    -0.206 F 
ATOM     90  C   UNL     1      -2.549  -7.291  22.591  1.00  0.00     0.006 A 
ENDBRANCH  66  83
ENDBRANCH  40  41
ENDBRANCH  33  35
ENDBRANCH  32  33
ENDBRANCH  31  32
ENDBRANCH  30  31
ENDBRANCH  29  30
ENDBRANCH  28  29
ENDBRANCH  27  28
ENDBRANCH  26  27
ENDBRANCH  25  26
ENDBRANCH   1  25
TORSDOF 25
