REMARK SMILES CS(=O)(=O)c1ccc(/C=C(/C(=O)OCCOCCOCCOCCOC(=O)c2ccc(-c3c4nc(c(-c5c(F)cccc5F)c5ccc([nH]5)c(-c5c(F)cccc5F)c5nc(c(-c6c(F)cccc6F)c6ccc3[nH]6)C=C5)C=C4)cc2)c2ccc(-c3ccc(F)cc3F)cc2)cc1
REMARK SMILES IDX 19 1 18 2 17 3 16 4 15 5 14 6 13 7 11 8 12 9 10 10 9 11 8 12
REMARK SMILES IDX 5 13 6 14 97 15 7 16 96 17 2 18 1 19 3 20 4 21 82 22 83 23
REMARK SMILES IDX 95 24 84 25 94 26 85 27 86 28 87 29 92 30 88 31 91 32 93 33
REMARK SMILES IDX 89 34 90 35 20 36 21 37 22 38 23 39 24 40 25 41 26 42 27 43
REMARK SMILES IDX 28 44 29 45 81 46 30 47 80 48 31 49 32 50 33 51 74 52 34 53
REMARK SMILES IDX 79 54 73 55 75 56 35 57 78 58 72 59 71 60 36 62 62 63 45 64
REMARK SMILES IDX 61 65 46 66 49 67 60 68 76 69 47 70 48 71 59 73 77 74 50 75
REMARK SMILES IDX 37 76 38 77 43 78 39 79 40 80 42 81 44 82 41 83 63 84 64 85
REMARK SMILES IDX 69 86 65 87 66 88 68 89 70 90 67 91 51 92 52 93 57 94 53 95
REMARK SMILES IDX 54 96 56 97 58 98 55 99
REMARK H PARENT 75 61 49 72
REMARK Flexibility Score: inf
ROOT
ATOM      1  O   UNL     1       0.137  -3.616   9.741  1.00  0.00    -0.377 OA
ENDROOT
BRANCH   1   2
ATOM      2  C   UNL     1       0.069  -4.462   8.605  1.00  0.00     0.188 C 
BRANCH   2   3
ATOM      3  C   UNL     1       0.872  -5.783   8.612  1.00  0.00     0.188 C 
BRANCH   3   4
ATOM      4  O   UNL     1       1.521  -6.042   9.844  1.00  0.00    -0.376 OA
BRANCH   4   5
ATOM      5  C   UNL     1       2.922  -5.856   9.901  1.00  0.00     0.202 C 
BRANCH   5   6
ATOM      6  C   UNL     1       3.502  -4.473   9.553  1.00  0.00     0.261 C 
BRANCH   6   7
ATOM      7  O   UNL     1       2.926  -3.800   8.422  1.00  0.00    -0.460 OA
BRANCH   7   8
ATOM      8  C   UNL     1       3.295  -4.226   7.190  1.00  0.00     0.338 C 
ATOM      9  O   UNL     1       4.116  -5.101   6.965  1.00  0.00    -0.246 OA
BRANCH   8  10
ATOM     10  C   UNL     1       2.438  -3.586   6.131  1.00  0.00     0.067 C 
ATOM     11  C   UNL     1       2.112  -2.272   6.232  1.00  0.00     0.024 C 
BRANCH  11  12
ATOM     12  C   UNL     1       1.460  -1.398   5.219  1.00  0.00    -0.025 A 
ATOM     13  C   UNL     1       0.689   0.235   3.064  1.00  0.00     0.067 A 
ATOM     14  C   UNL     1       0.180  -1.054   3.168  1.00  0.00     0.021 A 
ATOM     15  C   UNL     1       1.465   0.768   4.092  1.00  0.00     0.021 A 
ATOM     16  C   UNL     1       0.536  -1.843   4.263  1.00  0.00     0.009 A 
ATOM     17  C   UNL     1       1.847  -0.050   5.164  1.00  0.00     0.009 A 
BRANCH  13  18
ATOM     18  S   UNL     1       0.352   1.174   1.596  1.00  0.00     0.175 S 
ATOM     19  C   UNL     1       1.110   0.226   0.296  1.00  0.00     0.163 C 
ATOM     20  O   UNL     1       1.076   2.427   1.698  1.00  0.00    -0.224 OA
ATOM     21  O   UNL     1      -1.084   1.150   1.401  1.00  0.00    -0.224 OA
ENDBRANCH  13  18
ENDBRANCH  11  12
BRANCH  10  22
ATOM     22  C   UNL     1       2.014  -4.422   4.990  1.00  0.00    -0.011 A 
ATOM     23  C   UNL     1       0.839  -5.189   5.063  1.00  0.00     0.009 A 
ATOM     24  C   UNL     1       2.682  -4.334   3.772  1.00  0.00     0.009 A 
ATOM     25  C   UNL     1       0.309  -5.806   3.928  1.00  0.00     0.009 A 
ATOM     26  C   UNL     1       2.141  -4.939   2.635  1.00  0.00     0.009 A 
ATOM     27  C   UNL     1       0.936  -5.667   2.684  1.00  0.00    -0.015 A 
BRANCH  27  28
ATOM     28  C   UNL     1       0.339  -6.227   1.460  1.00  0.00     0.018 A 
ATOM     29  C   UNL     1      -1.032  -6.059   1.175  1.00  0.00     0.015 A 
ATOM     30  C   UNL     1       1.118  -6.918   0.517  1.00  0.00     0.133 A 
ATOM     31  C   UNL     1      -1.582  -6.553  -0.012  1.00  0.00     0.040 A 
ATOM     32  C   UNL     1       0.579  -7.409  -0.666  1.00  0.00     0.079 A 
ATOM     33  F   UNL     1       2.426  -7.120   0.741  1.00  0.00    -0.206 F 
ATOM     34  C   UNL     1      -0.769  -7.218  -0.921  1.00  0.00     0.126 A 
ATOM     35  F   UNL     1      -1.295  -7.676  -2.064  1.00  0.00    -0.207 F 
ENDBRANCH  27  28
ENDBRANCH  10  22
ENDBRANCH   8  10
ENDBRANCH   7   8
ENDBRANCH   6   7
ENDBRANCH   5   6
ENDBRANCH   4   5
ENDBRANCH   3   4
ENDBRANCH   2   3
ENDBRANCH   1   2
BRANCH   1  36
ATOM     36  C   UNL     1      -0.039  -4.176  11.038  1.00  0.00     0.188 C 
BRANCH  36  37
ATOM     37  C   UNL     1      -0.826  -5.492  11.247  1.00  0.00     0.188 C 
BRANCH  37  38
ATOM     38  O   UNL     1      -1.506  -5.977  10.100  1.00  0.00    -0.376 OA
BRANCH  38  39
ATOM     39  C   UNL     1      -2.915  -5.840  10.052  1.00  0.00     0.202 C 
BRANCH  39  40
ATOM     40  C   UNL     1      -3.471  -4.410  10.004  1.00  0.00     0.261 C 
BRANCH  40  41
ATOM     41  O   UNL     1      -3.025  -3.531  11.047  1.00  0.00    -0.460 OA
BRANCH  41  42
ATOM     42  C   UNL     1      -3.395  -3.847  12.304  1.00  0.00     0.338 C 
ATOM     43  O   UNL     1      -4.093  -4.789  12.654  1.00  0.00    -0.246 OA
BRANCH  42  44
ATOM     44  C   UNL     1      -2.656  -2.975  13.234  1.00  0.00     0.060 A 
ATOM     45  C   UNL     1      -1.829  -3.568  14.198  1.00  0.00     0.016 A 
ATOM     46  C   UNL     1      -2.784  -1.586  13.165  1.00  0.00     0.016 A 
ATOM     47  C   UNL     1      -1.178  -2.774  15.138  1.00  0.00     0.010 A 
ATOM     48  C   UNL     1      -2.150  -0.791  14.123  1.00  0.00     0.010 A 
ATOM     49  C   UNL     1      -1.390  -1.390  15.144  1.00  0.00    -0.014 A 
BRANCH  49  50
ATOM     50  C   UNL     1      -1.027  -0.626  16.362  1.00  0.00     0.031 A 
ATOM     51  C   UNL     1      -2.108  -0.355  17.374  1.00  0.00     0.074 A 
ATOM     52  C   UNL     1       0.241  -0.256  16.606  1.00  0.00     0.049 A 
ATOM     53  N   UNL     1      -2.034   0.252  18.530  1.00  0.00    -0.248 NA
ATOM     54  C   UNL     1      -3.457  -0.838  17.034  1.00  0.00     0.031 C 
ATOM     55  C   UNL     1       1.381  -0.501  15.725  1.00  0.00     0.029 A 
ATOM     56  N   UNL     1       0.780   0.402  17.683  1.00  0.00    -0.354 N 
ATOM     57  C   UNL     1      -3.322   0.224  19.052  1.00  0.00     0.074 A 
ATOM     58  C   UNL     1      -4.166  -0.419  18.070  1.00  0.00     0.031 C 
ATOM     59  C   UNL     1       2.488   0.002  16.298  1.00  0.00     0.029 A 
ATOM     60  C   UNL     1       2.130   0.626  17.571  1.00  0.00     0.049 A 
ATOM     61  H   UNL     1       0.249   0.687  18.461  1.00  0.00     0.167 HD
ATOM     62  C   UNL     1      -3.762   0.680  20.248  1.00  0.00     0.037 A 
ATOM     63  C   UNL     1       2.972   1.271  18.401  1.00  0.00     0.037 A 
ATOM     64  C   UNL     1      -2.921   1.323  21.223  1.00  0.00     0.049 A 
ATOM     65  C   UNL     1       2.445   1.833  19.696  1.00  0.00     0.074 A 
ATOM     66  C   UNL     1      -3.265   1.815  22.469  1.00  0.00     0.029 A 
ATOM     67  N   UNL     1      -1.567   1.571  21.054  1.00  0.00    -0.354 N 
ATOM     68  N   UNL     1       1.231   1.781  20.192  1.00  0.00    -0.248 NA
ATOM     69  C   UNL     1       3.411   2.534  20.553  1.00  0.00     0.031 C 
ATOM     70  C   UNL     1      -2.133   2.414  23.030  1.00  0.00     0.029 A 
ATOM     71  C   UNL     1      -1.066   2.233  22.164  1.00  0.00     0.049 A 
ATOM     72  H   UNL     1      -1.039   1.315  20.264  1.00  0.00     0.167 HD
ATOM     73  C   UNL     1       1.297   2.410  21.431  1.00  0.00     0.074 A 
ATOM     74  C   UNL     1       2.674   2.817  21.617  1.00  0.00     0.031 C 
ATOM     75  C   UNL     1       0.309   2.631  22.335  1.00  0.00     0.037 A 
BRANCH  62  76
ATOM     76  C   UNL     1      -5.225   0.525  20.550  1.00  0.00     0.057 A 
ATOM     77  C   UNL     1      -5.810  -0.727  20.784  1.00  0.00     0.134 A 
ATOM     78  C   UNL     1      -6.058   1.649  20.621  1.00  0.00     0.134 A 
ATOM     79  F   UNL     1      -5.074  -1.846  20.713  1.00  0.00    -0.206 F 
ATOM     80  C   UNL     1      -7.175  -0.857  21.052  1.00  0.00     0.040 A 
ATOM     81  C   UNL     1      -7.417   1.534  20.918  1.00  0.00     0.040 A 
ATOM     82  F   UNL     1      -5.565   2.878  20.408  1.00  0.00    -0.206 F 
ATOM     83  C   UNL     1      -7.980   0.277  21.127  1.00  0.00     0.006 A 
ENDBRANCH  62  76
BRANCH  63  84
ATOM     84  C   UNL     1       4.404   1.429  18.037  1.00  0.00     0.057 A 
ATOM     85  C   UNL     1       5.418   0.801  18.770  1.00  0.00     0.134 A 
ATOM     86  C   UNL     1       4.796   2.245  16.968  1.00  0.00     0.134 A 
ATOM     87  F   UNL     1       5.110   0.026  19.821  1.00  0.00    -0.206 F 
ATOM     88  C   UNL     1       6.768   0.996  18.471  1.00  0.00     0.040 A 
ATOM     89  C   UNL     1       6.140   2.426  16.639  1.00  0.00     0.040 A 
ATOM     90  F   UNL     1       3.875   2.876  16.225  1.00  0.00    -0.206 F 
ATOM     91  C   UNL     1       7.131   1.808  17.398  1.00  0.00     0.006 A 
ENDBRANCH  63  84
BRANCH  75  92
ATOM     92  C   UNL     1       0.695   3.301  23.624  1.00  0.00     0.057 A 
ATOM     93  C   UNL     1       1.097   4.643  23.678  1.00  0.00     0.134 A 
ATOM     94  C   UNL     1       0.654   2.594  24.833  1.00  0.00     0.134 A 
ATOM     95  F   UNL     1       1.167   5.378  22.558  1.00  0.00    -0.206 F 
ATOM     96  C   UNL     1       1.486   5.241  24.878  1.00  0.00     0.040 A 
ATOM     97  C   UNL     1       1.006   3.191  26.044  1.00  0.00     0.040 A 
ATOM     98  F   UNL     1       0.263   1.310  24.860  1.00  0.00    -0.206 F 
ATOM     99  C   UNL     1       1.437   4.515  26.067  1.00  0.00     0.006 A 
ENDBRANCH  75  92
ENDBRANCH  49  50
ENDBRANCH  42  44
ENDBRANCH  41  42
ENDBRANCH  40  41
ENDBRANCH  39  40
ENDBRANCH  38  39
ENDBRANCH  37  38
ENDBRANCH  36  37
ENDBRANCH   1  36
TORSDOF 24
