REMARK SMILES C/C(=C\C(=O)c1c(O)n(C)c2ccccc2c1=O)Nc1ccc(C(=O)OCCOCCOCCOCCOC(=O)c2ccc(-c3c4nc(c(-c5c(F)cccc5F)c5ccc([nH]5)c(-c5c(F)cccc5F)c5nc(c(-c6c(F)cccc6F)c6ccc3[nH]6)C=C5)C=C4)cc2)cc1
REMARK SMILES IDX 30 1 29 2 28 3 27 4 26 5 24 6 25 7 23 8 20 9 21 10 96 11
REMARK SMILES IDX 22 12 95 13 19 14 2 16 1 17 3 18 4 19 5 20 6 21 7 22 17 23
REMARK SMILES IDX 9 24 16 25 18 26 10 27 11 28 15 29 12 30 14 31 13 32 8 33
REMARK SMILES IDX 31 35 32 36 33 37 34 38 35 39 36 40 37 41 38 42 39 43 40 44
REMARK SMILES IDX 41 45 42 46 94 47 43 48 93 49 44 50 45 51 46 52 87 53 47 54
REMARK SMILES IDX 92 55 86 56 88 57 48 58 91 59 85 60 84 61 49 63 75 64 58 65
REMARK SMILES IDX 74 66 59 67 62 68 73 69 89 70 60 71 61 72 72 74 90 75 63 76
REMARK SMILES IDX 50 77 51 78 56 79 52 80 53 81 55 82 57 83 54 84 76 85 77 86
REMARK SMILES IDX 82 87 78 88 79 89 81 90 83 91 80 92 64 93 65 94 70 95 66 96
REMARK SMILES IDX 67 97 69 98 71 99 68 100
REMARK H PARENT 19 15 8 34 88 62 62 73
REMARK Flexibility Score: inf
ROOT
ATOM      1  C   UNL     1       4.368   4.637   2.845  1.00  0.00     0.188 C 
ENDROOT
BRANCH   1   2
ATOM      2  O   UNL     1       4.992   5.816   3.341  1.00  0.00    -0.376 OA
BRANCH   2   3
ATOM      3  C   UNL     1       5.915   6.452   2.465  1.00  0.00     0.202 C 
BRANCH   3   4
ATOM      4  C   UNL     1       5.273   7.230   1.307  1.00  0.00     0.261 C 
BRANCH   4   5
ATOM      5  O   UNL     1       4.460   6.424   0.440  1.00  0.00    -0.460 OA
BRANCH   5   6
ATOM      6  C   UNL     1       5.112   5.535  -0.344  1.00  0.00     0.338 C 
ATOM      7  O   UNL     1       6.321   5.417  -0.448  1.00  0.00    -0.246 OA
BRANCH   6   8
ATOM      8  C   UNL     1       4.125   4.574  -0.900  1.00  0.00     0.060 A 
ATOM      9  C   UNL     1       2.267   2.599  -1.697  1.00  0.00     0.038 A 
ATOM     10  C   UNL     1       3.610   2.279  -1.476  1.00  0.00     0.027 A 
ATOM     11  C   UNL     1       1.880   3.942  -1.560  1.00  0.00     0.027 A 
ATOM     12  C   UNL     1       4.532   3.249  -1.073  1.00  0.00     0.018 A 
ATOM     13  C   UNL     1       2.798   4.926  -1.166  1.00  0.00     0.018 A 
BRANCH   9  14
ATOM     14  N   UNL     1       1.287   1.633  -1.991  1.00  0.00    -0.359 N 
ATOM     15  H   UNL     1       0.699   1.860  -2.747  1.00  0.00     0.166 HD
BRANCH  14  16
ATOM     16  C   UNL     1       1.011   0.401  -1.384  1.00  0.00     0.016 C 
ATOM     17  C   UNL     1       1.820   0.008  -0.167  1.00  0.00     0.064 C 
ATOM     18  C   UNL     1      -0.019  -0.341  -1.859  1.00  0.00     0.074 C 
BRANCH  18  19
ATOM     19  C   UNL     1      -0.713  -1.586  -1.381  1.00  0.00     0.196 C 
ATOM     20  O   UNL     1      -1.566  -2.099  -2.103  1.00  0.00    -0.289 OA
BRANCH  19  21
ATOM     21  C   UNL     1      -0.493  -2.078  -0.008  1.00  0.00     0.130 A 
ATOM     22  C   UNL     1      -0.774  -1.306   1.062  1.00  0.00     0.206 A 
ATOM     23  C   UNL     1       0.142  -3.397   0.216  1.00  0.00     0.204 A 
ATOM     24  N   UNL     1      -0.362  -1.613   2.354  1.00  0.00    -0.315 N 
ATOM     25  C   UNL     1       0.387  -3.814   1.615  1.00  0.00     0.047 A 
ATOM     26  O   UNL     1       0.492  -4.113  -0.717  1.00  0.00    -0.288 OA
ATOM     27  C   UNL     1      -0.298  -0.594   3.407  1.00  0.00     0.153 C 
ATOM     28  C   UNL     1       0.162  -2.892   2.654  1.00  0.00     0.055 A 
ATOM     29  C   UNL     1       0.885  -5.102   1.868  1.00  0.00     0.014 A 
ATOM     30  C   UNL     1       0.469  -3.314   3.959  1.00  0.00     0.027 A 
ATOM     31  C   UNL     1       1.175  -5.491   3.172  1.00  0.00     0.001 A 
ATOM     32  C   UNL     1       0.972  -4.595   4.216  1.00  0.00     0.002 A 
BRANCH  22  33
ATOM     33  O   UNL     1      -1.449  -0.103   0.936  1.00  0.00    -0.494 OA
ATOM     34  H   UNL     1      -1.759   0.175   0.097  1.00  0.00     0.295 HD
ENDBRANCH  22  33
ENDBRANCH  19  21
ENDBRANCH  18  19
ENDBRANCH  14  16
ENDBRANCH   9  14
ENDBRANCH   6   8
ENDBRANCH   5   6
ENDBRANCH   4   5
ENDBRANCH   3   4
ENDBRANCH   2   3
ENDBRANCH   1   2
BRANCH   1  35
ATOM     35  C   UNL     1       2.859   4.785   2.589  1.00  0.00     0.188 C 
BRANCH  35  36
ATOM     36  O   UNL     1       2.324   6.097   2.606  1.00  0.00    -0.377 OA
BRANCH  36  37
ATOM     37  C   UNL     1       2.452   6.890   3.783  1.00  0.00     0.188 C 
BRANCH  37  38
ATOM     38  C   UNL     1       2.838   6.293   5.155  1.00  0.00     0.188 C 
BRANCH  38  39
ATOM     39  O   UNL     1       2.566   4.906   5.306  1.00  0.00    -0.376 OA
BRANCH  39  40
ATOM     40  C   UNL     1       1.540   4.567   6.227  1.00  0.00     0.202 C 
BRANCH  40  41
ATOM     41  C   UNL     1       0.129   4.768   5.665  1.00  0.00     0.261 C 
BRANCH  41  42
ATOM     42  O   UNL     1      -0.193   6.122   5.311  1.00  0.00    -0.460 OA
BRANCH  42  43
ATOM     43  C   UNL     1      -0.190   7.042   6.301  1.00  0.00     0.338 C 
ATOM     44  O   UNL     1       0.029   6.856   7.485  1.00  0.00    -0.246 OA
BRANCH  43  45
ATOM     45  C   UNL     1      -0.317   8.369   5.666  1.00  0.00     0.060 A 
ATOM     46  C   UNL     1      -1.350   8.618   4.759  1.00  0.00     0.016 A 
ATOM     47  C   UNL     1       0.633   9.358   5.953  1.00  0.00     0.016 A 
ATOM     48  C   UNL     1      -1.456   9.875   4.164  1.00  0.00     0.010 A 
ATOM     49  C   UNL     1       0.532  10.612   5.347  1.00  0.00     0.010 A 
ATOM     50  C   UNL     1      -0.531  10.887   4.473  1.00  0.00    -0.014 A 
BRANCH  50  51
ATOM     51  C   UNL     1      -0.809  12.281   4.057  1.00  0.00     0.031 A 
ATOM     52  C   UNL     1      -0.153  12.915   2.871  1.00  0.00     0.074 A 
ATOM     53  C   UNL     1      -1.682  12.981   4.805  1.00  0.00     0.049 A 
ATOM     54  N   UNL     1      -0.350  14.107   2.367  1.00  0.00    -0.248 NA
ATOM     55  C   UNL     1       0.856  12.117   2.163  1.00  0.00     0.031 C 
ATOM     56  C   UNL     1      -2.362  12.469   5.998  1.00  0.00     0.029 A 
ATOM     57  N   UNL     1      -2.146  14.264   4.679  1.00  0.00    -0.354 N 
ATOM     58  C   UNL     1       0.490  14.201   1.267  1.00  0.00     0.074 A 
ATOM     59  C   UNL     1       1.233  12.956   1.205  1.00  0.00     0.031 C 
ATOM     60  C   UNL     1      -3.164  13.425   6.488  1.00  0.00     0.029 A 
ATOM     61  C   UNL     1      -3.037  14.620   5.661  1.00  0.00     0.049 A 
ATOM     62  H   UNL     1      -1.867  14.871   3.956  1.00  0.00     0.167 HD
ATOM     63  C   UNL     1       0.616  15.226   0.387  1.00  0.00     0.037 A 
ATOM     64  C   UNL     1      -3.678  15.782   5.874  1.00  0.00     0.037 A 
ATOM     65  C   UNL     1      -0.105  16.473   0.477  1.00  0.00     0.049 A 
ATOM     66  C   UNL     1      -3.466  16.921   4.921  1.00  0.00     0.074 A 
ATOM     67  C   UNL     1      -0.079  17.552  -0.392  1.00  0.00     0.029 A 
ATOM     68  N   UNL     1      -0.965  16.821   1.510  1.00  0.00    -0.354 N 
ATOM     69  N   UNL     1      -2.735  16.965   3.835  1.00  0.00    -0.248 NA
ATOM     70  C   UNL     1      -4.175  18.171   5.225  1.00  0.00     0.031 C 
ATOM     71  C   UNL     1      -0.879  18.570   0.142  1.00  0.00     0.029 A 
ATOM     72  C   UNL     1      -1.444  18.109   1.319  1.00  0.00     0.049 A 
ATOM     73  H   UNL     1      -1.201  16.238   2.267  1.00  0.00     0.167 HD
ATOM     74  C   UNL     1      -2.908  18.240   3.315  1.00  0.00     0.074 A 
ATOM     75  C   UNL     1      -3.834  18.927   4.192  1.00  0.00     0.031 C 
ATOM     76  C   UNL     1      -2.348  18.792   2.211  1.00  0.00     0.037 A 
BRANCH  63  77
ATOM     77  C   UNL     1       1.575  15.046  -0.754  1.00  0.00     0.057 A 
ATOM     78  C   UNL     1       2.758  15.794  -0.827  1.00  0.00     0.134 A 
ATOM     79  C   UNL     1       1.300  14.172  -1.815  1.00  0.00     0.134 A 
ATOM     80  F   UNL     1       3.078  16.658   0.148  1.00  0.00    -0.206 F 
ATOM     81  C   UNL     1       3.630  15.680  -1.911  1.00  0.00     0.040 A 
ATOM     82  C   UNL     1       2.176  14.032  -2.894  1.00  0.00     0.040 A 
ATOM     83  F   UNL     1       0.186  13.425  -1.808  1.00  0.00    -0.206 F 
ATOM     84  C   UNL     1       3.343  14.792  -2.946  1.00  0.00     0.006 A 
ENDBRANCH  63  77
BRANCH  64  85
ATOM     85  C   UNL     1      -4.590  15.920   7.034  1.00  0.00     0.057 A 
ATOM     86  C   UNL     1      -4.101  15.961   8.345  1.00  0.00     0.134 A 
ATOM     87  C   UNL     1      -5.973  16.025   6.854  1.00  0.00     0.134 A 
ATOM     88  F   UNL     1      -2.785  15.856   8.581  1.00  0.00    -0.206 F 
ATOM     89  C   UNL     1      -4.956  16.097   9.438  1.00  0.00     0.040 A 
ATOM     90  C   UNL     1      -6.838  16.188   7.937  1.00  0.00     0.040 A 
ATOM     91  F   UNL     1      -6.497  16.008   5.620  1.00  0.00    -0.206 F 
ATOM     92  C   UNL     1      -6.329  16.221   9.234  1.00  0.00     0.006 A 
ENDBRANCH  64  85
BRANCH  76  93
ATOM     93  C   UNL     1      -2.734  20.209   1.899  1.00  0.00     0.057 A 
ATOM     94  C   UNL     1      -3.568  20.505   0.814  1.00  0.00     0.134 A 
ATOM     95  C   UNL     1      -2.290  21.283   2.683  1.00  0.00     0.134 A 
ATOM     96  F   UNL     1      -4.027  19.525   0.020  1.00  0.00    -0.206 F 
ATOM     97  C   UNL     1      -3.952  21.815   0.523  1.00  0.00     0.040 A 
ATOM     98  C   UNL     1      -2.689  22.594   2.419  1.00  0.00     0.040 A 
ATOM     99  F   UNL     1      -1.505  21.067   3.749  1.00  0.00    -0.206 F 
ATOM    100  C   UNL     1      -3.520  22.863   1.333  1.00  0.00     0.006 A 
ENDBRANCH  76  93
ENDBRANCH  50  51
ENDBRANCH  43  45
ENDBRANCH  42  43
ENDBRANCH  41  42
ENDBRANCH  40  41
ENDBRANCH  39  40
ENDBRANCH  38  39
ENDBRANCH  37  38
ENDBRANCH  36  37
ENDBRANCH  35  36
ENDBRANCH   1  35
TORSDOF 25
