REMARK SMILES C#CC[N@H+](CC(=O)OCCOCCOCCOCCOC(=O)c1ccc(-c2c3nc(c(-c4c(F)cccc4F)c4ccc([nH]4)c(-c4c(F)cccc4F)c4nc(c(-c5c(F)cccc5F)c5ccc2[nH]5)C=C4)C=C3)cc1)[C@H](C)[C@@H](C)O
REMARK SMILES IDX 13 1 12 2 11 3 10 4 9 5 8 6 6 7 7 8 5 9 4 10 3 12 2 13 1 14
REMARK SMILES IDX 77 15 78 16 79 17 80 18 81 19 14 21 15 22 16 23 17 24 18 25
REMARK SMILES IDX 19 26 20 27 21 28 22 29 23 30 24 31 76 32 25 33 75 34 26 35
REMARK SMILES IDX 27 36 28 37 69 38 29 39 74 40 68 41 70 42 30 43 73 44 67 45
REMARK SMILES IDX 66 46 31 48 57 49 40 50 56 51 41 52 44 53 55 54 71 55 42 56
REMARK SMILES IDX 43 57 54 59 72 60 45 61 32 62 33 63 38 64 34 65 35 66 37 67
REMARK SMILES IDX 39 68 36 69 58 70 59 71 64 72 60 73 61 74 63 75 65 76 62 77
REMARK SMILES IDX 46 78 47 79 52 80 48 81 49 82 51 83 53 84 50 85
REMARK H PARENT 4 11 81 20 70 47 44 58
REMARK Flexibility Score: inf
ROOT
ATOM      1  C   UNL     1      -2.739   2.099   4.869  1.00  0.00     0.188 C 
ENDROOT
BRANCH   1   2
ATOM      2  C   UNL     1      -4.215   2.402   5.176  1.00  0.00     0.188 C 
BRANCH   2   3
ATOM      3  O   UNL     1      -4.859   1.695   6.218  1.00  0.00    -0.376 OA
BRANCH   3   4
ATOM      4  C   UNL     1      -5.264   0.342   6.088  1.00  0.00     0.202 C 
BRANCH   4   5
ATOM      5  C   UNL     1      -5.237  -0.491   4.795  1.00  0.00     0.261 C 
BRANCH   5   6
ATOM      6  O   UNL     1      -4.371  -0.041   3.753  1.00  0.00    -0.459 OA
BRANCH   6   7
ATOM      7  C   UNL     1      -4.962   0.511   2.676  1.00  0.00     0.361 C 
ATOM      8  O   UNL     1      -6.183   0.592   2.542  1.00  0.00    -0.245 OA
BRANCH   7   9
ATOM      9  C   UNL     1      -4.038   1.101   1.617  1.00  0.00     0.387 C 
BRANCH   9  10
ATOM     10  N   UNL     1      -2.544   1.090   1.754  1.00  0.00    -0.311 N 
ATOM     11  H   UNL     1      -2.285   1.549   2.627  1.00  0.00     0.349 HD
BRANCH  10  12
ATOM     12  C   UNL     1      -1.977  -0.259   1.930  1.00  0.00     0.354 C 
BRANCH  12  13
ATOM     13  C   UNL     1      -0.582  -0.258   2.405  1.00  0.00    -0.047 C 
ATOM     14  C   UNL     1       0.564  -0.240   2.783  1.00  0.00     0.010 C 
ENDBRANCH  12  13
ENDBRANCH  10  12
BRANCH  10  15
ATOM     15  C   UNL     1      -1.946   1.884   0.620  1.00  0.00     0.210 C 
ATOM     16  C   UNL     1      -2.266   1.281  -0.764  1.00  0.00     0.078 C 
BRANCH  15  17
ATOM     17  C   UNL     1      -0.425   2.282   0.710  1.00  0.00     0.169 C 
ATOM     18  C   UNL     1       0.055   3.170  -0.442  1.00  0.00     0.045 C 
BRANCH  17  19
ATOM     19  O   UNL     1      -0.137   2.994   1.918  1.00  0.00    -0.387 OA
ATOM     20  H   UNL     1      -0.617   3.837   1.920  1.00  0.00     0.211 HD
ENDBRANCH  17  19
ENDBRANCH  15  17
ENDBRANCH  10  15
ENDBRANCH   9  10
ENDBRANCH   7   9
ENDBRANCH   6   7
ENDBRANCH   5   6
ENDBRANCH   4   5
ENDBRANCH   3   4
ENDBRANCH   2   3
ENDBRANCH   1   2
BRANCH   1  21
ATOM     21  O   UNL     1      -2.296   0.784   5.123  1.00  0.00    -0.377 OA
BRANCH  21  22
ATOM     22  C   UNL     1      -2.032   0.366   6.451  1.00  0.00     0.188 C 
BRANCH  22  23
ATOM     23  C   UNL     1      -2.273   1.284   7.671  1.00  0.00     0.188 C 
BRANCH  23  24
ATOM     24  O   UNL     1      -2.291   2.672   7.405  1.00  0.00    -0.376 OA
BRANCH  24  25
ATOM     25  C   UNL     1      -1.120   3.438   7.632  1.00  0.00     0.202 C 
BRANCH  25  26
ATOM     26  C   UNL     1       0.200   3.037   6.949  1.00  0.00     0.261 C 
BRANCH  26  27
ATOM     27  O   UNL     1       0.585   1.659   7.042  1.00  0.00    -0.460 OA
BRANCH  27  28
ATOM     28  C   UNL     1       0.926   1.190   8.260  1.00  0.00     0.338 C 
ATOM     29  O   UNL     1       0.952   1.809   9.307  1.00  0.00    -0.246 OA
BRANCH  28  30
ATOM     30  C   UNL     1       1.095  -0.276   8.149  1.00  0.00     0.060 A 
ATOM     31  C   UNL     1       0.211  -1.117   8.840  1.00  0.00     0.016 A 
ATOM     32  C   UNL     1       2.119  -0.817   7.369  1.00  0.00     0.016 A 
ATOM     33  C   UNL     1       0.373  -2.501   8.784  1.00  0.00     0.010 A 
ATOM     34  C   UNL     1       2.296  -2.204   7.335  1.00  0.00     0.010 A 
ATOM     35  C   UNL     1       1.446  -3.050   8.071  1.00  0.00    -0.014 A 
BRANCH  35  36
ATOM     36  C   UNL     1       1.787  -4.483   8.245  1.00  0.00     0.031 A 
ATOM     37  C   UNL     1       2.917  -4.847   9.168  1.00  0.00     0.074 A 
ATOM     38  C   UNL     1       1.094  -5.449   7.616  1.00  0.00     0.049 A 
ATOM     39  N   UNL     1       3.430  -6.020   9.436  1.00  0.00    -0.248 NA
ATOM     40  C   UNL     1       3.559  -3.732   9.882  1.00  0.00     0.031 C 
ATOM     41  C   UNL     1      -0.049  -5.230   6.733  1.00  0.00     0.029 A 
ATOM     42  N   UNL     1       1.265  -6.811   7.619  1.00  0.00    -0.354 N 
ATOM     43  C   UNL     1       4.462  -5.784  10.336  1.00  0.00     0.074 A 
ATOM     44  C   UNL     1       4.524  -4.353  10.542  1.00  0.00     0.031 C 
ATOM     45  C   UNL     1      -0.470  -6.418   6.267  1.00  0.00     0.029 A 
ATOM     46  C   UNL     1       0.398  -7.474   6.787  1.00  0.00     0.049 A 
ATOM     47  H   UNL     1       1.944  -7.268   8.166  1.00  0.00     0.167 HD
ATOM     48  C   UNL     1       5.280  -6.678  10.940  1.00  0.00     0.037 A 
ATOM     49  C   UNL     1       0.333  -8.780   6.458  1.00  0.00     0.037 A 
ATOM     50  C   UNL     1       5.219  -8.101  10.724  1.00  0.00     0.049 A 
ATOM     51  C   UNL     1       1.309  -9.748   7.077  1.00  0.00     0.074 A 
ATOM     52  C   UNL     1       5.989  -9.093  11.304  1.00  0.00     0.029 A 
ATOM     53  N   UNL     1       4.351  -8.731   9.845  1.00  0.00    -0.354 N 
ATOM     54  N   UNL     1       2.262  -9.522   7.949  1.00  0.00    -0.248 NA
ATOM     55  C   UNL     1       1.196 -11.156   6.669  1.00  0.00     0.031 C 
ATOM     56  C   UNL     1       5.639 -10.315  10.721  1.00  0.00     0.029 A 
ATOM     57  C   UNL     1       4.593 -10.096   9.839  1.00  0.00     0.049 A 
ATOM     58  H   UNL     1       3.664  -8.277   9.306  1.00  0.00     0.167 HD
ATOM     59  C   UNL     1       2.838 -10.759   8.218  1.00  0.00     0.074 A 
ATOM     60  C   UNL     1       2.117 -11.733   7.426  1.00  0.00     0.031 C 
ATOM     61  C   UNL     1       3.868 -11.060   9.049  1.00  0.00     0.037 A 
BRANCH  48  62
ATOM     62  C   UNL     1       6.341  -6.138  11.857  1.00  0.00     0.057 A 
ATOM     63  C   UNL     1       6.034  -5.529  13.081  1.00  0.00     0.134 A 
ATOM     64  C   UNL     1       7.696  -6.248  11.517  1.00  0.00     0.134 A 
ATOM     65  F   UNL     1       4.757  -5.379  13.466  1.00  0.00    -0.206 F 
ATOM     66  C   UNL     1       7.032  -5.020  13.916  1.00  0.00     0.040 A 
ATOM     67  C   UNL     1       8.704  -5.776  12.359  1.00  0.00     0.040 A 
ATOM     68  F   UNL     1       8.065  -6.826  10.363  1.00  0.00    -0.206 F 
ATOM     69  C   UNL     1       8.372  -5.149  13.558  1.00  0.00     0.006 A 
ENDBRANCH  48  62
BRANCH  49  70
ATOM     70  C   UNL     1      -0.681  -9.250   5.479  1.00  0.00     0.057 A 
ATOM     71  C   UNL     1      -1.725 -10.100   5.862  1.00  0.00     0.134 A 
ATOM     72  C   UNL     1      -0.621  -8.874   4.131  1.00  0.00     0.134 A 
ATOM     73  F   UNL     1      -1.824 -10.517   7.133  1.00  0.00    -0.206 F 
ATOM     74  C   UNL     1      -2.660 -10.574   4.940  1.00  0.00     0.040 A 
ATOM     75  C   UNL     1      -1.567  -9.314   3.204  1.00  0.00     0.040 A 
ATOM     76  F   UNL     1       0.354  -8.062   3.696  1.00  0.00    -0.206 F 
ATOM     77  C   UNL     1      -2.586 -10.174   3.607  1.00  0.00     0.006 A 
ENDBRANCH  49  70
BRANCH  61  78
ATOM     78  C   UNL     1       4.251 -12.509   9.185  1.00  0.00     0.057 A 
ATOM     79  C   UNL     1       4.854 -13.225   8.143  1.00  0.00     0.134 A 
ATOM     80  C   UNL     1       4.050 -13.185  10.396  1.00  0.00     0.134 A 
ATOM     81  F   UNL     1       5.069 -12.644   6.952  1.00  0.00    -0.206 F 
ATOM     82  C   UNL     1       5.213 -14.567   8.290  1.00  0.00     0.040 A 
ATOM     83  C   UNL     1       4.438 -14.515  10.567  1.00  0.00     0.040 A 
ATOM     84  F   UNL     1       3.489 -12.559  11.442  1.00  0.00    -0.206 F 
ATOM     85  C   UNL     1       5.013 -15.213   9.508  1.00  0.00     0.006 A 
ENDBRANCH  61  78
ENDBRANCH  35  36
ENDBRANCH  28  30
ENDBRANCH  27  28
ENDBRANCH  26  27
ENDBRANCH  25  26
ENDBRANCH  24  25
ENDBRANCH  23  24
ENDBRANCH  22  23
ENDBRANCH  21  22
ENDBRANCH   1  21
TORSDOF 26
