REMARK SMILES CC(C)Cc1cc2c(cc1Cl)C=C(C(=O)OCCOCCOCCOCCOC(=O)c1ccc(-c3c4nc(c(-c5c(F)cccc5F)c5ccc([nH]5)c(-c5c(F)cccc5F)c5nc(c(-c6c(F)cccc6F)c6ccc3[nH]6)C=C5)C=C4)cc1)[C@H](C(F)(F)F)O2
REMARK SMILES IDX 22 1 21 2 20 3 19 4 18 5 17 6 16 7 14 8 15 9 13 10 5 11 6 12
REMARK SMILES IDX 10 13 7 14 9 15 11 16 8 17 90 18 12 19 85 20 4 21 2 22 1 23
REMARK SMILES IDX 3 24 86 25 87 26 88 27 89 28 23 29 24 30 25 31 26 32 27 33
REMARK SMILES IDX 28 34 29 35 30 36 31 37 32 38 84 39 33 40 83 41 34 42 35 43
REMARK SMILES IDX 36 44 77 45 37 46 82 47 76 48 78 49 38 50 81 51 75 52 74 53
REMARK SMILES IDX 39 55 65 56 48 57 64 58 49 59 52 60 63 61 79 62 50 63 51 64
REMARK SMILES IDX 62 66 80 67 53 68 40 69 41 70 46 71 42 72 43 73 45 74 47 75
REMARK SMILES IDX 44 76 66 77 67 78 72 79 68 80 69 81 71 82 73 83 70 84 54 85
REMARK SMILES IDX 55 86 60 87 56 88 57 89 59 90 61 91 58 92
REMARK H PARENT 78 54 52 65
REMARK Flexibility Score: inf
ROOT
ATOM      1  O   UNL     1      -1.709   5.540   5.637  1.00  0.00    -0.377 OA
ENDROOT
BRANCH   1   2
ATOM      2  C   UNL     1      -1.524   5.967   4.294  1.00  0.00     0.188 C 
BRANCH   2   3
ATOM      3  C   UNL     1      -2.010   7.333   3.763  1.00  0.00     0.188 C 
BRANCH   3   4
ATOM      4  O   UNL     1      -2.878   8.057   4.624  1.00  0.00    -0.376 OA
BRANCH   4   5
ATOM      5  C   UNL     1      -4.205   8.264   4.168  1.00  0.00     0.202 C 
BRANCH   5   6
ATOM      6  C   UNL     1      -5.125   7.062   4.402  1.00  0.00     0.261 C 
BRANCH   6   7
ATOM      7  O   UNL     1      -4.611   5.835   3.859  1.00  0.00    -0.460 OA
BRANCH   7   8
ATOM      8  C   UNL     1      -4.760   5.662   2.535  1.00  0.00     0.338 C 
ATOM      9  O   UNL     1      -5.323   6.429   1.772  1.00  0.00    -0.246 OA
BRANCH   8  10
ATOM     10  C   UNL     1      -4.003   4.473   2.098  1.00  0.00     0.087 C 
ATOM     11  C   UNL     1      -1.374   1.293  -0.791  1.00  0.00    -0.025 A 
ATOM     12  C   UNL     1      -2.280   1.144   0.279  1.00  0.00     0.052 A 
ATOM     13  C   UNL     1      -1.066   2.595  -1.220  1.00  0.00     0.045 A 
ATOM     14  C   UNL     1      -2.860   2.256   0.897  1.00  0.00     0.128 A 
ATOM     15  C   UNL     1      -1.611   3.707  -0.571  1.00  0.00     0.032 A 
ATOM     16  Cl  UNL     1      -0.088   2.910  -2.610  1.00  0.00    -0.084 Cl
ATOM     17  C   UNL     1      -2.515   3.538   0.479  1.00  0.00     0.019 A 
ATOM     18  O   UNL     1      -3.824   2.008   1.837  1.00  0.00    -0.475 OA
ATOM     19  C   UNL     1      -3.184   4.687   1.060  1.00  0.00     0.027 C 
ATOM     20  C   UNL     1      -4.250   3.111   2.699  1.00  0.00     0.316 C 
BRANCH  11  21
ATOM     21  C   UNL     1      -0.838   0.048  -1.468  1.00  0.00     0.040 C 
BRANCH  21  22
ATOM     22  C   UNL     1       0.687  -0.172  -1.373  1.00  0.00    -0.013 C 
ATOM     23  C   UNL     1       1.171  -0.295   0.072  1.00  0.00     0.008 C 
ATOM     24  C   UNL     1       1.077  -1.423  -2.166  1.00  0.00     0.008 C 
ENDBRANCH  21  22
ENDBRANCH  11  21
BRANCH  20  25
ATOM     25  C   UNL     1      -3.676   2.843   4.106  1.00  0.00     0.430 C 
ATOM     26  F   UNL     1      -4.144   3.698   5.039  1.00  0.00    -0.167 F 
ATOM     27  F   UNL     1      -4.038   1.601   4.528  1.00  0.00    -0.167 F 
ATOM     28  F   UNL     1      -2.326   2.885   4.124  1.00  0.00    -0.167 F 
ENDBRANCH  20  25
ENDBRANCH   8  10
ENDBRANCH   7   8
ENDBRANCH   6   7
ENDBRANCH   5   6
ENDBRANCH   4   5
ENDBRANCH   3   4
ENDBRANCH   2   3
ENDBRANCH   1   2
BRANCH   1  29
ATOM     29  C   UNL     1      -2.033   6.487   6.641  1.00  0.00     0.188 C 
BRANCH  29  30
ATOM     30  C   UNL     1      -1.086   7.689   6.798  1.00  0.00     0.188 C 
BRANCH  30  31
ATOM     31  O   UNL     1      -0.002   7.671   5.878  1.00  0.00    -0.376 OA
BRANCH  31  32
ATOM     32  C   UNL     1       1.252   7.232   6.383  1.00  0.00     0.202 C 
BRANCH  32  33
ATOM     33  C   UNL     1       1.341   5.790   6.905  1.00  0.00     0.261 C 
BRANCH  33  34
ATOM     34  O   UNL     1       0.444   5.432   7.970  1.00  0.00    -0.460 OA
BRANCH  34  35
ATOM     35  C   UNL     1       0.520   6.095   9.142  1.00  0.00     0.338 C 
ATOM     36  O   UNL     1       1.291   6.989   9.441  1.00  0.00    -0.246 OA
BRANCH  35  37
ATOM     37  C   UNL     1      -0.649   5.671   9.948  1.00  0.00     0.060 A 
ATOM     38  C   UNL     1      -0.894   4.313  10.165  1.00  0.00     0.016 A 
ATOM     39  C   UNL     1      -1.539   6.636  10.440  1.00  0.00     0.016 A 
ATOM     40  C   UNL     1      -2.015   3.921  10.898  1.00  0.00     0.010 A 
ATOM     41  C   UNL     1      -2.666   6.241  11.168  1.00  0.00     0.010 A 
ATOM     42  C   UNL     1      -2.899   4.881  11.422  1.00  0.00    -0.014 A 
BRANCH  42  43
ATOM     43  C   UNL     1      -3.945   4.457  12.385  1.00  0.00     0.031 A 
ATOM     44  C   UNL     1      -5.385   4.310  11.999  1.00  0.00     0.074 A 
ATOM     45  C   UNL     1      -3.557   4.194  13.648  1.00  0.00     0.049 A 
ATOM     46  N   UNL     1      -6.381   3.841  12.710  1.00  0.00    -0.248 NA
ATOM     47  C   UNL     1      -5.760   4.755  10.652  1.00  0.00     0.031 C 
ATOM     48  C   UNL     1      -2.189   4.340  14.151  1.00  0.00     0.029 A 
ATOM     49  N   UNL     1      -4.266   3.742  14.730  1.00  0.00    -0.354 N 
ATOM     50  C   UNL     1      -7.500   3.907  11.890  1.00  0.00     0.074 A 
ATOM     51  C   UNL     1      -7.066   4.514  10.646  1.00  0.00     0.031 C 
ATOM     52  C   UNL     1      -2.153   3.958  15.436  1.00  0.00     0.029 A 
ATOM     53  C   UNL     1      -3.494   3.559  15.850  1.00  0.00     0.049 A 
ATOM     54  H   UNL     1      -5.234   3.567  14.706  1.00  0.00     0.167 HD
ATOM     55  C   UNL     1      -8.764   3.485  12.149  1.00  0.00     0.037 A 
ATOM     56  C   UNL     1      -3.826   3.110  17.073  1.00  0.00     0.037 A 
ATOM     57  C   UNL     1      -9.195   2.912  13.402  1.00  0.00     0.049 A 
ATOM     58  C   UNL     1      -5.242   2.689  17.343  1.00  0.00     0.074 A 
ATOM     59  C   UNL     1     -10.445   2.422  13.745  1.00  0.00     0.029 A 
ATOM     60  N   UNL     1      -8.394   2.769  14.527  1.00  0.00    -0.354 N 
ATOM     61  N   UNL     1      -6.269   2.667  16.529  1.00  0.00    -0.248 NA
ATOM     62  C   UNL     1      -5.538   2.216  18.701  1.00  0.00     0.031 C 
ATOM     63  C   UNL     1     -10.414   2.032  15.090  1.00  0.00     0.029 A 
ATOM     64  C   UNL     1      -9.130   2.227  15.571  1.00  0.00     0.049 A 
ATOM     65  H   UNL     1      -7.443   3.016  14.576  1.00  0.00     0.167 HD
ATOM     66  C   UNL     1      -7.325   2.151  17.267  1.00  0.00     0.074 A 
ATOM     67  C   UNL     1      -6.807   1.854  18.587  1.00  0.00     0.031 C 
ATOM     68  C   UNL     1      -8.609   1.940  16.884  1.00  0.00     0.037 A 
BRANCH  55  69
ATOM     69  C   UNL     1      -9.778   3.628  11.049  1.00  0.00     0.057 A 
ATOM     70  C   UNL     1     -10.845   4.529  11.162  1.00  0.00     0.134 A 
ATOM     71  C   UNL     1      -9.727   2.834   9.895  1.00  0.00     0.134 A 
ATOM     72  F   UNL     1     -10.966   5.310  12.246  1.00  0.00    -0.206 F 
ATOM     73  C   UNL     1     -11.820   4.638  10.168  1.00  0.00     0.040 A 
ATOM     74  C   UNL     1     -10.682   2.952   8.882  1.00  0.00     0.040 A 
ATOM     75  F   UNL     1      -8.733   1.951   9.721  1.00  0.00    -0.206 F 
ATOM     76  C   UNL     1     -11.736   3.853   9.020  1.00  0.00     0.006 A 
ENDBRANCH  55  69
BRANCH  56  77
ATOM     77  C   UNL     1      -2.791   3.001  18.130  1.00  0.00     0.057 A 
ATOM     78  C   UNL     1      -2.226   4.138  18.717  1.00  0.00     0.134 A 
ATOM     79  C   UNL     1      -2.359   1.752  18.591  1.00  0.00     0.134 A 
ATOM     80  F   UNL     1      -2.591   5.363  18.311  1.00  0.00    -0.206 F 
ATOM     81  C   UNL     1      -1.269   4.038  19.727  1.00  0.00     0.040 A 
ATOM     82  C   UNL     1      -1.424   1.637  19.619  1.00  0.00     0.040 A 
ATOM     83  F   UNL     1      -2.876   0.626  18.076  1.00  0.00    -0.206 F 
ATOM     84  C   UNL     1      -0.874   2.784  20.188  1.00  0.00     0.006 A 
ENDBRANCH  56  77
BRANCH  68  85
ATOM     85  C   UNL     1      -9.527   1.330  17.906  1.00  0.00     0.057 A 
ATOM     86  C   UNL     1      -9.984   0.014  17.760  1.00  0.00     0.134 A 
ATOM     87  C   UNL     1      -9.951   2.037  19.040  1.00  0.00     0.134 A 
ATOM     88  F   UNL     1      -9.623  -0.719  16.695  1.00  0.00    -0.206 F 
ATOM     89  C   UNL     1     -10.819  -0.580  18.708  1.00  0.00     0.040 A 
ATOM     90  C   UNL     1     -10.761   1.443  20.011  1.00  0.00     0.040 A 
ATOM     91  F   UNL     1      -9.537   3.295  19.251  1.00  0.00    -0.206 F 
ATOM     92  C   UNL     1     -11.200   0.132  19.843  1.00  0.00     0.006 A 
ENDBRANCH  68  85
ENDBRANCH  42  43
ENDBRANCH  35  37
ENDBRANCH  34  35
ENDBRANCH  33  34
ENDBRANCH  32  33
ENDBRANCH  31  32
ENDBRANCH  30  31
ENDBRANCH  29  30
ENDBRANCH   1  29
TORSDOF 23
