REMARK SMILES Cc1c(CC(=O)OCCOCCOCCOCCOC(=O)c2ccc(-c3c4nc(c(-c5c(F)cccc5F)c5ccc([nH]5)c(-c5c(F)cccc5F)c5nc(c(-c6c(F)cccc6F)c6ccc3[nH]6)C=C5)C=C4)cc2)cc(-c2ccc(S(C)(=O)=O)cc2)n1-c1ccccc1
REMARK SMILES IDX 12 1 11 2 10 3 9 4 8 5 7 6 5 7 6 8 4 9 3 10 1 11 2 12 88 13
REMARK SMILES IDX 76 14 77 15 89 16 90 17 94 18 91 19 93 20 92 21 78 22 79 23
REMARK SMILES IDX 87 24 80 25 86 26 81 27 82 28 83 29 84 30 85 31 13 32 14 33
REMARK SMILES IDX 15 34 16 35 17 36 18 37 19 38 20 39 21 40 22 41 23 42 75 43
REMARK SMILES IDX 24 44 74 45 25 46 26 47 27 48 68 49 28 50 73 51 67 52 69 53
REMARK SMILES IDX 29 54 72 55 66 56 65 57 30 59 56 60 39 61 55 62 40 63 43 64
REMARK SMILES IDX 54 65 70 66 41 67 42 68 53 70 71 71 44 72 31 73 32 74 37 75
REMARK SMILES IDX 33 76 34 77 36 78 38 79 35 80 57 81 58 82 63 83 59 84 60 85
REMARK SMILES IDX 62 86 64 87 61 88 45 89 46 90 51 91 47 92 48 93 50 94 52 95
REMARK SMILES IDX 49 96
REMARK H PARENT 69 58 43 69
REMARK Flexibility Score: inf
ROOT
ATOM      1  C   UNL     1       0.252  -0.505  -2.240  1.00  0.00     0.188 C 
ENDROOT
BRANCH   1   2
ATOM      2  C   UNL     1       1.602   0.245  -2.294  1.00  0.00     0.188 C 
BRANCH   2   3
ATOM      3  O   UNL     1       2.475   0.147  -3.418  1.00  0.00    -0.376 OA
BRANCH   3   4
ATOM      4  C   UNL     1       2.224  -0.833  -4.408  1.00  0.00     0.202 C 
BRANCH   4   5
ATOM      5  C   UNL     1       2.383  -2.308  -3.994  1.00  0.00     0.261 C 
BRANCH   5   6
ATOM      6  O   UNL     1       2.068  -2.624  -2.618  1.00  0.00    -0.463 OA
BRANCH   6   7
ATOM      7  C   UNL     1       3.113  -2.706  -1.760  1.00  0.00     0.310 C 
ATOM      8  O   UNL     1       4.287  -2.626  -2.119  1.00  0.00    -0.252 OA
BRANCH   7   9
ATOM      9  C   UNL     1       2.773  -2.973  -0.301  1.00  0.00     0.160 C 
BRANCH   9  10
ATOM     10  C   UNL     1       1.376  -2.792   0.262  1.00  0.00    -0.015 A 
ATOM     11  C   UNL     1       1.447  -0.379   1.300  1.00  0.00     0.065 C 
ATOM     12  C   UNL     1       0.843  -1.701   0.960  1.00  0.00     0.024 A 
ATOM     13  N   UNL     1      -0.441  -2.031   1.380  1.00  0.00    -0.314 N 
ATOM     14  C   UNL     1       0.394  -3.829   0.362  1.00  0.00     0.033 A 
ATOM     15  C   UNL     1      -0.677  -3.369   1.109  1.00  0.00     0.053 A 
BRANCH  13  16
ATOM     16  C   UNL     1      -1.405  -1.152   1.937  1.00  0.00     0.046 A 
ATOM     17  C   UNL     1      -1.619  -1.105   3.317  1.00  0.00     0.026 A 
ATOM     18  C   UNL     1      -2.279  -0.503   1.066  1.00  0.00     0.026 A 
ATOM     19  C   UNL     1      -2.698  -0.369   3.821  1.00  0.00     0.002 A 
ATOM     20  C   UNL     1      -3.357   0.217   1.584  1.00  0.00     0.002 A 
ATOM     21  C   UNL     1      -3.565   0.293   2.955  1.00  0.00     0.000 A 
ENDBRANCH  13  16
BRANCH  15  22
ATOM     22  C   UNL     1      -1.830  -4.099   1.644  1.00  0.00    -0.001 A 
ATOM     23  C   UNL     1      -3.119  -3.916   1.126  1.00  0.00     0.011 A 
ATOM     24  C   UNL     1      -1.649  -4.931   2.757  1.00  0.00     0.011 A 
ATOM     25  C   UNL     1      -4.218  -4.541   1.723  1.00  0.00     0.021 A 
ATOM     26  C   UNL     1      -2.740  -5.559   3.359  1.00  0.00     0.021 A 
ATOM     27  C   UNL     1      -4.021  -5.353   2.845  1.00  0.00     0.067 A 
BRANCH  27  28
ATOM     28  S   UNL     1      -5.419  -6.175   3.574  1.00  0.00     0.175 S 
ATOM     29  C   UNL     1      -6.397  -4.865   4.262  1.00  0.00     0.163 C 
ATOM     30  O   UNL     1      -6.156  -6.791   2.508  1.00  0.00    -0.224 OA
ATOM     31  O   UNL     1      -4.918  -6.968   4.700  1.00  0.00    -0.224 OA
ENDBRANCH  27  28
ENDBRANCH  15  22
ENDBRANCH   9  10
ENDBRANCH   7   9
ENDBRANCH   6   7
ENDBRANCH   5   6
ENDBRANCH   4   5
ENDBRANCH   3   4
ENDBRANCH   2   3
ENDBRANCH   1   2
BRANCH   1  32
ATOM     32  O   UNL     1      -0.314  -0.807  -3.498  1.00  0.00    -0.377 OA
BRANCH  32  33
ATOM     33  C   UNL     1      -1.515  -0.163  -3.874  1.00  0.00     0.188 C 
BRANCH  33  34
ATOM     34  C   UNL     1      -1.504   1.363  -3.911  1.00  0.00     0.188 C 
BRANCH  34  35
ATOM     35  O   UNL     1      -1.035   2.008  -2.745  1.00  0.00    -0.376 OA
BRANCH  35  36
ATOM     36  C   UNL     1      -1.823   2.102  -1.565  1.00  0.00     0.202 C 
BRANCH  36  37
ATOM     37  C   UNL     1      -3.372   1.930  -1.541  1.00  0.00     0.261 C 
BRANCH  37  38
ATOM     38  O   UNL     1      -4.003   0.588  -1.437  1.00  0.00    -0.460 OA
BRANCH  38  39
ATOM     39  C   UNL     1      -5.365   0.570  -1.727  1.00  0.00     0.338 C 
ATOM     40  O   UNL     1      -5.885   1.459  -2.394  1.00  0.00    -0.246 OA
BRANCH  39  41
ATOM     41  C   UNL     1      -6.280  -0.553  -1.164  1.00  0.00     0.060 A 
ATOM     42  C   UNL     1      -6.613  -1.655  -1.941  1.00  0.00     0.016 A 
ATOM     43  C   UNL     1      -7.158  -0.367  -0.063  1.00  0.00     0.016 A 
ATOM     44  C   UNL     1      -7.738  -2.520  -1.607  1.00  0.00     0.010 A 
ATOM     45  C   UNL     1      -8.345  -1.222   0.239  1.00  0.00     0.010 A 
ATOM     46  C   UNL     1      -8.710  -2.335  -0.540  1.00  0.00    -0.014 A 
BRANCH  46  47
ATOM     47  C   UNL     1     -10.204  -3.100  -0.697  1.00  0.00     0.031 A 
ATOM     48  C   UNL     1     -10.409  -3.027  -2.172  1.00  0.00     0.074 A 
ATOM     49  C   UNL     1     -11.349  -3.635  -0.053  1.00  0.00     0.049 A 
ATOM     50  N   UNL     1     -10.363  -1.867  -2.766  1.00  0.00    -0.248 NA
ATOM     51  C   UNL     1     -10.278  -4.180  -3.063  1.00  0.00     0.031 C 
ATOM     52  C   UNL     1     -11.665  -3.674   1.390  1.00  0.00     0.029 A 
ATOM     53  N   UNL     1     -12.558  -4.290  -0.546  1.00  0.00    -0.354 N 
ATOM     54  C   UNL     1     -10.533  -2.123  -4.099  1.00  0.00     0.074 A 
ATOM     55  C   UNL     1     -10.228  -3.540  -4.238  1.00  0.00     0.031 C 
ATOM     56  C   UNL     1     -12.809  -4.379   1.664  1.00  0.00     0.029 A 
ATOM     57  C   UNL     1     -13.466  -4.863   0.446  1.00  0.00     0.049 A 
ATOM     58  H   UNL     1     -12.754  -4.343  -1.510  1.00  0.00     0.167 HD
ATOM     59  C   UNL     1     -11.502  -1.388  -4.716  1.00  0.00     0.037 A 
ATOM     60  C   UNL     1     -14.676  -5.578   0.339  1.00  0.00     0.037 A 
ATOM     61  C   UNL     1     -12.682  -2.159  -4.981  1.00  0.00     0.049 A 
ATOM     62  C   UNL     1     -15.274  -5.218  -0.950  1.00  0.00     0.074 A 
ATOM     63  C   UNL     1     -12.886  -3.446  -5.437  1.00  0.00     0.029 A 
ATOM     64  N   UNL     1     -13.836  -1.782  -4.328  1.00  0.00    -0.354 N 
ATOM     65  N   UNL     1     -15.928  -4.106  -1.082  1.00  0.00    -0.248 NA
ATOM     66  C   UNL     1     -15.356  -6.127  -2.088  1.00  0.00     0.031 C 
ATOM     67  C   UNL     1     -13.888  -3.964  -4.591  1.00  0.00     0.029 A 
ATOM     68  C   UNL     1     -14.514  -2.911  -3.937  1.00  0.00     0.049 A 
ATOM     69  H   UNL     1     -14.126  -0.855  -4.168  1.00  0.00     0.167 HD
ATOM     70  C   UNL     1     -16.015  -3.954  -2.423  1.00  0.00     0.074 A 
ATOM     71  C   UNL     1     -15.928  -5.298  -2.965  1.00  0.00     0.031 C 
ATOM     72  C   UNL     1     -15.487  -2.797  -2.884  1.00  0.00     0.037 A 
BRANCH  59  73
ATOM     73  C   UNL     1     -11.508   0.058  -4.306  1.00  0.00     0.057 A 
ATOM     74  C   UNL     1     -11.005   1.018  -5.184  1.00  0.00     0.134 A 
ATOM     75  C   UNL     1     -11.842   0.490  -3.007  1.00  0.00     0.134 A 
ATOM     76  F   UNL     1     -10.717   0.690  -6.452  1.00  0.00    -0.206 F 
ATOM     77  C   UNL     1     -10.773   2.332  -4.769  1.00  0.00     0.040 A 
ATOM     78  C   UNL     1     -11.560   1.781  -2.564  1.00  0.00     0.040 A 
ATOM     79  F   UNL     1     -12.432  -0.344  -2.134  1.00  0.00    -0.206 F 
ATOM     80  C   UNL     1     -11.011   2.705  -3.446  1.00  0.00     0.006 A 
ENDBRANCH  59  73
BRANCH  60  81
ATOM     81  C   UNL     1     -15.776  -6.429   1.099  1.00  0.00     0.057 A 
ATOM     82  C   UNL     1     -17.176  -6.360   0.743  1.00  0.00     0.134 A 
ATOM     83  C   UNL     1     -15.479  -7.593   1.818  1.00  0.00     0.134 A 
ATOM     84  F   UNL     1     -17.696  -5.299   0.112  1.00  0.00    -0.206 F 
ATOM     85  C   UNL     1     -18.126  -7.386   0.954  1.00  0.00     0.040 A 
ATOM     86  C   UNL     1     -16.444  -8.616   2.078  1.00  0.00     0.040 A 
ATOM     87  F   UNL     1     -14.226  -7.828   2.226  1.00  0.00    -0.206 F 
ATOM     88  C   UNL     1     -17.756  -8.538   1.612  1.00  0.00     0.006 A 
ENDBRANCH  60  81
BRANCH  72  89
ATOM     89  C   UNL     1     -15.822  -1.541  -2.093  1.00  0.00     0.057 A 
ATOM     90  C   UNL     1     -15.704  -1.349  -0.696  1.00  0.00     0.134 A 
ATOM     91  C   UNL     1     -16.418  -0.486  -2.794  1.00  0.00     0.134 A 
ATOM     92  F   UNL     1     -15.040  -2.202   0.098  1.00  0.00    -0.206 F 
ATOM     93  C   UNL     1     -16.253  -0.237  -0.041  1.00  0.00     0.040 A 
ATOM     94  C   UNL     1     -16.916   0.656  -2.157  1.00  0.00     0.040 A 
ATOM     95  F   UNL     1     -16.526  -0.546  -4.130  1.00  0.00    -0.206 F 
ATOM     96  C   UNL     1     -16.866   0.769  -0.772  1.00  0.00     0.006 A 
ENDBRANCH  72  89
ENDBRANCH  46  47
ENDBRANCH  39  41
ENDBRANCH  38  39
ENDBRANCH  37  38
ENDBRANCH  36  37
ENDBRANCH  35  36
ENDBRANCH  34  35
ENDBRANCH  33  34
ENDBRANCH  32  33
ENDBRANCH   1  32
TORSDOF 24
