REMARK SMILES CC(=O)Nc1cccc(-c2ccc(F)c(C(=O)OCCOCCOCCOCCOC(=O)c3ccc(-c4c5nc(c(-c6c(F)cccc6F)c6ccc([nH]6)c(-c6c(F)cccc6F)c6nc(c(-c7c(F)cccc7F)c7ccc4[nH]7)C=C6)C=C5)cc3)c2)c1
REMARK SMILES IDX 24 1 23 2 22 3 21 4 20 5 19 6 18 7 16 8 17 9 15 10 10 11
REMARK SMILES IDX 11 12 87 13 12 14 13 15 14 16 9 17 5 18 6 19 88 20 7 21 8 22
REMARK SMILES IDX 4 23 1 24 2 25 3 26 25 28 26 29 27 30 28 31 29 32 30 33
REMARK SMILES IDX 31 34 32 35 33 36 34 37 86 38 35 39 85 40 36 41 37 42 38 43
REMARK SMILES IDX 79 44 39 45 84 46 78 47 80 48 40 49 83 50 77 51 76 52 41 54
REMARK SMILES IDX 67 55 50 56 66 57 51 58 54 59 65 60 81 61 52 62 53 63 64 65
REMARK SMILES IDX 82 66 55 67 42 68 43 69 48 70 44 71 45 72 47 73 49 74 46 75
REMARK SMILES IDX 68 76 69 77 74 78 70 79 71 80 73 81 75 82 72 83 56 84 57 85
REMARK SMILES IDX 62 86 58 87 59 88 61 89 63 90 60 91
REMARK H PARENT 4 27 80 53 54 64
REMARK Flexibility Score: inf
ROOT
ATOM      1  O   UNL     1       8.555   3.477   1.078  1.00  0.00    -0.377 OA
ENDROOT
BRANCH   1   2
ATOM      2  C   UNL     1       9.010   2.257   1.637  1.00  0.00     0.188 C 
BRANCH   2   3
ATOM      3  C   UNL     1       9.919   1.357   0.783  1.00  0.00     0.188 C 
BRANCH   3   4
ATOM      4  O   UNL     1      10.205   1.873  -0.515  1.00  0.00    -0.376 OA
BRANCH   4   5
ATOM      5  C   UNL     1       9.674   1.125  -1.603  1.00  0.00     0.202 C 
BRANCH   5   6
ATOM      6  C   UNL     1       8.212   1.466  -1.896  1.00  0.00     0.261 C 
BRANCH   6   7
ATOM      7  O   UNL     1       7.332   1.166  -0.803  1.00  0.00    -0.460 OA
BRANCH   7   8
ATOM      8  C   UNL     1       7.161  -0.139  -0.492  1.00  0.00     0.341 C 
ATOM      9  O   UNL     1       7.594  -1.098  -1.105  1.00  0.00    -0.246 OA
BRANCH   8  10
ATOM     10  C   UNL     1       6.459  -0.188   0.803  1.00  0.00     0.096 A 
ATOM     11  C   UNL     1       4.748   0.694   2.314  1.00  0.00    -0.017 A 
ATOM     12  C   UNL     1       5.229  -0.172   3.310  1.00  0.00     0.012 A 
ATOM     13  C   UNL     1       5.399   0.687   1.066  1.00  0.00     0.027 A 
ATOM     14  C   UNL     1       6.301  -1.034   3.055  1.00  0.00     0.041 A 
ATOM     15  C   UNL     1       6.903  -1.048   1.800  1.00  0.00     0.137 A 
ATOM     16  F   UNL     1       7.956  -1.853   1.602  1.00  0.00    -0.206 F 
BRANCH  11  17
ATOM     17  C   UNL     1       3.565   1.548   2.521  1.00  0.00    -0.016 A 
ATOM     18  C   UNL     1       1.432   2.385   1.645  1.00  0.00     0.041 A 
ATOM     19  C   UNL     1       1.298   3.195   2.773  1.00  0.00     0.026 A 
ATOM     20  C   UNL     1       2.571   1.593   1.525  1.00  0.00     0.034 A 
ATOM     21  C   UNL     1       2.260   3.157   3.786  1.00  0.00     0.003 A 
ATOM     22  C   UNL     1       3.383   2.334   3.664  1.00  0.00     0.009 A 
BRANCH  18  23
ATOM     23  N   UNL     1       0.444   2.461   0.649  1.00  0.00    -0.326 N 
ATOM     24  C   UNL     1       0.582   0.168  -0.333  1.00  0.00     0.114 C 
ATOM     25  C   UNL     1       0.111   1.600  -0.359  1.00  0.00     0.221 C 
ATOM     26  O   UNL     1      -0.630   1.996  -1.262  1.00  0.00    -0.275 OA
ATOM     27  H   UNL     1      -0.105   3.278   0.683  1.00  0.00     0.169 HD
ENDBRANCH  18  23
ENDBRANCH  11  17
ENDBRANCH   8  10
ENDBRANCH   7   8
ENDBRANCH   6   7
ENDBRANCH   5   6
ENDBRANCH   4   5
ENDBRANCH   3   4
ENDBRANCH   2   3
ENDBRANCH   1   2
BRANCH   1  28
ATOM     28  C   UNL     1       9.500   4.391   0.533  1.00  0.00     0.188 C 
BRANCH  28  29
ATOM     29  C   UNL     1      10.992   4.334   0.922  1.00  0.00     0.188 C 
BRANCH  29  30
ATOM     30  O   UNL     1      11.255   3.752   2.193  1.00  0.00    -0.376 OA
BRANCH  30  31
ATOM     31  C   UNL     1      11.678   4.644   3.215  1.00  0.00     0.202 C 
BRANCH  31  32
ATOM     32  C   UNL     1      10.527   5.446   3.828  1.00  0.00     0.261 C 
BRANCH  32  33
ATOM     33  O   UNL     1       9.913   6.385   2.931  1.00  0.00    -0.460 OA
BRANCH  33  34
ATOM     34  C   UNL     1      10.695   7.369   2.434  1.00  0.00     0.338 C 
ATOM     35  O   UNL     1      11.865   7.590   2.682  1.00  0.00    -0.246 OA
BRANCH  34  36
ATOM     36  C   UNL     1       9.918   8.047   1.383  1.00  0.00     0.060 A 
ATOM     37  C   UNL     1      10.410   8.060   0.071  1.00  0.00     0.016 A 
ATOM     38  C   UNL     1       8.691   8.635   1.694  1.00  0.00     0.016 A 
ATOM     39  C   UNL     1       9.666   8.670  -0.940  1.00  0.00     0.010 A 
ATOM     40  C   UNL     1       7.960   9.262   0.687  1.00  0.00     0.010 A 
ATOM     41  C   UNL     1       8.450   9.294  -0.630  1.00  0.00    -0.014 A 
BRANCH  41  42
ATOM     42  C   UNL     1       7.732  10.100  -1.642  1.00  0.00     0.031 A 
ATOM     43  C   UNL     1       7.979  11.578  -1.690  1.00  0.00     0.074 A 
ATOM     44  C   UNL     1       6.832   9.532  -2.462  1.00  0.00     0.049 A 
ATOM     45  N   UNL     1       7.382  12.495  -2.405  1.00  0.00    -0.248 NA
ATOM     46  C   UNL     1       9.036  12.092  -0.804  1.00  0.00     0.031 C 
ATOM     47  C   UNL     1       6.521   8.105  -2.519  1.00  0.00     0.029 A 
ATOM     48  N   UNL     1       5.993  10.100  -3.387  1.00  0.00    -0.354 N 
ATOM     49  C   UNL     1       7.985  13.695  -2.054  1.00  0.00     0.074 A 
ATOM     50  C   UNL     1       8.981  13.393  -1.048  1.00  0.00     0.031 C 
ATOM     51  C   UNL     1       5.533   7.913  -3.411  1.00  0.00     0.029 A 
ATOM     52  C   UNL     1       5.124   9.205  -3.960  1.00  0.00     0.049 A 
ATOM     53  H   UNL     1       6.012  11.057  -3.617  1.00  0.00     0.167 HD
ATOM     54  C   UNL     1       7.731  14.936  -2.529  1.00  0.00     0.037 A 
ATOM     55  C   UNL     1       4.093   9.413  -4.802  1.00  0.00     0.037 A 
ATOM     56  C   UNL     1       6.733  15.235  -3.520  1.00  0.00     0.049 A 
ATOM     57  C   UNL     1       3.778  10.813  -5.257  1.00  0.00     0.074 A 
ATOM     58  C   UNL     1       6.435  16.454  -4.103  1.00  0.00     0.029 A 
ATOM     59  N   UNL     1       5.857  14.306  -4.060  1.00  0.00    -0.354 N 
ATOM     60  N   UNL     1       4.386  11.936  -4.961  1.00  0.00    -0.248 NA
ATOM     61  C   UNL     1       2.625  10.976  -6.156  1.00  0.00     0.031 C 
ATOM     62  C   UNL     1       5.343  16.272  -4.958  1.00  0.00     0.029 A 
ATOM     63  C   UNL     1       4.990  14.932  -4.939  1.00  0.00     0.049 A 
ATOM     64  H   UNL     1       5.853  13.345  -3.849  1.00  0.00     0.167 HD
ATOM     65  C   UNL     1       3.702  12.934  -5.644  1.00  0.00     0.074 A 
ATOM     66  C   UNL     1       2.641  12.282  -6.383  1.00  0.00     0.031 C 
ATOM     67  C   UNL     1       3.931  14.270  -5.658  1.00  0.00     0.037 A 
BRANCH  54  68
ATOM     68  C   UNL     1       8.530  16.066  -1.955  1.00  0.00     0.057 A 
ATOM     69  C   UNL     1       9.878  16.257  -2.280  1.00  0.00     0.134 A 
ATOM     70  C   UNL     1       7.936  16.983  -1.080  1.00  0.00     0.134 A 
ATOM     71  F   UNL     1      10.509  15.401  -3.098  1.00  0.00    -0.206 F 
ATOM     72  C   UNL     1      10.615  17.312  -1.738  1.00  0.00     0.040 A 
ATOM     73  C   UNL     1       8.656  18.054  -0.549  1.00  0.00     0.040 A 
ATOM     74  F   UNL     1       6.647  16.854  -0.729  1.00  0.00    -0.206 F 
ATOM     75  C   UNL     1      10.001  18.217  -0.874  1.00  0.00     0.006 A 
ENDBRANCH  54  68
BRANCH  55  76
ATOM     76  C   UNL     1       3.256   8.270  -5.242  1.00  0.00     0.057 A 
ATOM     77  C   UNL     1       3.301   7.803  -6.560  1.00  0.00     0.134 A 
ATOM     78  C   UNL     1       2.382   7.627  -4.357  1.00  0.00     0.134 A 
ATOM     79  F   UNL     1       4.100   8.396  -7.459  1.00  0.00    -0.206 F 
ATOM     80  C   UNL     1       2.499   6.742  -6.986  1.00  0.00     0.040 A 
ATOM     81  C   UNL     1       1.591   6.551  -4.763  1.00  0.00     0.040 A 
ATOM     82  F   UNL     1       2.291   8.031  -3.082  1.00  0.00    -0.206 F 
ATOM     83  C   UNL     1       1.645   6.110  -6.084  1.00  0.00     0.006 A 
ENDBRANCH  55  76
BRANCH  67  84
ATOM     84  C   UNL     1       3.022  15.117  -6.498  1.00  0.00     0.057 A 
ATOM     85  C   UNL     1       1.712  15.406  -6.098  1.00  0.00     0.134 A 
ATOM     86  C   UNL     1       3.478  15.695  -7.689  1.00  0.00     0.134 A 
ATOM     87  F   UNL     1       1.211  14.874  -4.973  1.00  0.00    -0.206 F 
ATOM     88  C   UNL     1       0.882  16.230  -6.861  1.00  0.00     0.040 A 
ATOM     89  C   UNL     1       2.667  16.538  -8.449  1.00  0.00     0.040 A 
ATOM     90  F   UNL     1       4.727  15.465  -8.124  1.00  0.00    -0.206 F 
ATOM     91  C   UNL     1       1.363  16.805  -8.036  1.00  0.00     0.006 A 
ENDBRANCH  67  84
ENDBRANCH  41  42
ENDBRANCH  34  36
ENDBRANCH  33  34
ENDBRANCH  32  33
ENDBRANCH  31  32
ENDBRANCH  30  31
ENDBRANCH  29  30
ENDBRANCH  28  29
ENDBRANCH   1  28
TORSDOF 22
