REMARK SMILES CCC[N@@H+]1CC2(CC[NH+](c3nccnc3C)CC2)C[C@H]1C(=O)OCCOCCOCCOCCOC(=O)c1ccc(-c2c3nc(c(-c4c(F)cccc4F)c4ccc([nH]4)c(-c4c(F)cccc4F)c4nc(c(-c5c(F)cccc5F)c5ccc2[nH]5)C=C4)C=C3)cc1
REMARK SMILES IDX 29 1 28 2 27 3 26 4 25 5 24 6 23 7 21 8 22 9 20 10 4 11 5 12
REMARK SMILES IDX 6 14 19 15 7 16 18 17 8 18 17 19 9 20 3 22 2 23 1 24 10 25
REMARK SMILES IDX 11 26 15 27 12 28 14 29 16 30 13 31 30 32 31 33 32 34 33 35
REMARK SMILES IDX 34 36 35 37 36 38 37 39 38 40 39 41 91 42 40 43 90 44 41 45
REMARK SMILES IDX 42 46 43 47 84 48 44 49 89 50 83 51 85 52 45 53 88 54 82 55
REMARK SMILES IDX 81 56 46 58 72 59 55 60 71 61 56 62 59 63 70 64 86 65 57 66
REMARK SMILES IDX 58 67 69 69 87 70 60 71 47 72 48 73 53 74 49 75 50 76 52 77
REMARK SMILES IDX 54 78 51 79 73 80 74 81 79 82 75 83 76 84 78 85 80 86 77 87
REMARK SMILES IDX 61 88 62 89 67 90 63 91 64 92 66 93 68 94 65 95
REMARK H PARENT 4 13 9 21 85 57 59 68
REMARK Flexibility Score: inf
ROOT
ATOM      1  O   UNL     1      -0.174   2.571  -3.562  1.00  0.00    -0.377 OA
ENDROOT
BRANCH   1   2
ATOM      2  C   UNL     1      -0.671   1.678  -2.584  1.00  0.00     0.188 C 
BRANCH   2   3
ATOM      3  C   UNL     1      -2.204   1.593  -2.490  1.00  0.00     0.188 C 
BRANCH   3   4
ATOM      4  O   UNL     1      -3.043   2.306  -3.393  1.00  0.00    -0.376 OA
BRANCH   4   5
ATOM      5  C   UNL     1      -2.647   3.564  -3.915  1.00  0.00     0.202 C 
BRANCH   5   6
ATOM      6  C   UNL     1      -2.192   4.699  -2.980  1.00  0.00     0.261 C 
BRANCH   6   7
ATOM      7  O   UNL     1      -1.362   4.324  -1.869  1.00  0.00    -0.459 OA
BRANCH   7   8
ATOM      8  C   UNL     1      -1.992   4.155  -0.682  1.00  0.00     0.365 C 
ATOM      9  O   UNL     1      -3.192   4.370  -0.516  1.00  0.00    -0.245 OA
BRANCH   8  10
ATOM     10  C   UNL     1      -1.085   3.768   0.500  1.00  0.00     0.295 C 
ATOM     11  N   UNL     1       0.229   3.102   0.227  1.00  0.00    -0.323 N 
ATOM     12  C   UNL     1       1.164   4.190  -0.097  1.00  0.00     0.270 C 
ATOM     13  H   UNL     1       0.140   2.431  -0.536  1.00  0.00     0.348 HD
ATOM     14  C   UNL     1       0.683   5.432   0.674  1.00  0.00     0.036 C 
ATOM     15  C   UNL     1      -0.721   5.059   1.202  1.00  0.00     0.091 C 
ATOM     16  C   UNL     1       0.616   6.636  -0.306  1.00  0.00     0.075 C 
ATOM     17  C   UNL     1       1.563   5.718   1.915  1.00  0.00     0.075 C 
ATOM     18  C   UNL     1       1.960   7.346  -0.497  1.00  0.00     0.269 C 
ATOM     19  C   UNL     1       2.890   6.378   1.572  1.00  0.00     0.269 C 
ATOM     20  N   UNL     1       2.562   7.561   0.804  1.00  0.00    -0.284 N 
ATOM     21  H   UNL     1       2.750   7.097  -0.044  1.00  0.00     0.355 HD
BRANCH  11  22
ATOM     22  C   UNL     1       0.714   2.321   1.384  1.00  0.00     0.262 C 
BRANCH  22  23
ATOM     23  C   UNL     1       0.265   0.853   1.363  1.00  0.00     0.058 C 
ATOM     24  C   UNL     1       1.072  -0.016   0.405  1.00  0.00     0.010 C 
ENDBRANCH  22  23
ENDBRANCH  11  22
BRANCH  20  25
ATOM     25  C   UNL     1       3.021   8.776   1.247  1.00  0.00     0.247 A 
ATOM     26  N   UNL     1       4.302   8.809   1.690  1.00  0.00    -0.202 NA
ATOM     27  C   UNL     1       2.219   9.932   1.355  1.00  0.00     0.119 A 
ATOM     28  C   UNL     1       4.759   9.978   2.186  1.00  0.00     0.137 A 
ATOM     29  N   UNL     1       2.698  11.117   1.835  1.00  0.00    -0.252 NA
ATOM     30  C   UNL     1       0.755   9.949   1.040  1.00  0.00     0.075 C 
ATOM     31  C   UNL     1       3.976  11.110   2.251  1.00  0.00     0.132 A 
ENDBRANCH  20  25
ENDBRANCH   8  10
ENDBRANCH   7   8
ENDBRANCH   6   7
ENDBRANCH   5   6
ENDBRANCH   4   5
ENDBRANCH   3   4
ENDBRANCH   2   3
ENDBRANCH   1   2
BRANCH   1  32
ATOM     32  C   UNL     1       0.308   1.968  -4.750  1.00  0.00     0.188 C 
BRANCH  32  33
ATOM     33  C   UNL     1      -0.558   0.846  -5.355  1.00  0.00     0.188 C 
BRANCH  33  34
ATOM     34  O   UNL     1      -0.892  -0.186  -4.436  1.00  0.00    -0.376 OA
BRANCH  34  35
ATOM     35  C   UNL     1      -0.117  -1.374  -4.391  1.00  0.00     0.202 C 
BRANCH  35  36
ATOM     36  C   UNL     1       1.361  -1.297  -3.969  1.00  0.00     0.261 C 
BRANCH  36  37
ATOM     37  O   UNL     1       2.197  -0.365  -4.666  1.00  0.00    -0.460 OA
BRANCH  37  38
ATOM     38  C   UNL     1       2.332  -0.499  -6.000  1.00  0.00     0.338 C 
ATOM     39  O   UNL     1       1.853  -1.370  -6.706  1.00  0.00    -0.246 OA
BRANCH  38  40
ATOM     40  C   UNL     1       3.009   0.717  -6.498  1.00  0.00     0.060 A 
ATOM     41  C   UNL     1       2.361   1.525  -7.443  1.00  0.00     0.016 A 
ATOM     42  C   UNL     1       4.272   1.069  -6.016  1.00  0.00     0.016 A 
ATOM     43  C   UNL     1       2.990   2.668  -7.938  1.00  0.00     0.010 A 
ATOM     44  C   UNL     1       4.914   2.195  -6.534  1.00  0.00     0.010 A 
ATOM     45  C   UNL     1       4.292   2.976  -7.525  1.00  0.00    -0.014 A 
BRANCH  45  46
ATOM     46  C   UNL     1       5.109   3.940  -8.299  1.00  0.00     0.031 A 
ATOM     47  C   UNL     1       6.037   3.379  -9.343  1.00  0.00     0.074 A 
ATOM     48  C   UNL     1       5.044   5.266  -8.088  1.00  0.00     0.049 A 
ATOM     49  N   UNL     1       6.960   3.979 -10.047  1.00  0.00    -0.248 NA
ATOM     50  C   UNL     1       5.906   1.938  -9.622  1.00  0.00     0.031 C 
ATOM     51  C   UNL     1       4.141   5.935  -7.155  1.00  0.00     0.029 A 
ATOM     52  N   UNL     1       5.777   6.287  -8.640  1.00  0.00    -0.354 N 
ATOM     53  C   UNL     1       7.520   2.990 -10.848  1.00  0.00     0.074 A 
ATOM     54  C   UNL     1       6.862   1.746 -10.517  1.00  0.00     0.031 C 
ATOM     55  C   UNL     1       4.391   7.258  -7.181  1.00  0.00     0.029 A 
ATOM     56  C   UNL     1       5.500   7.519  -8.098  1.00  0.00     0.049 A 
ATOM     57  H   UNL     1       6.438   6.150  -9.357  1.00  0.00     0.167 HD
ATOM     58  C   UNL     1       8.489   3.110 -11.784  1.00  0.00     0.037 A 
ATOM     59  C   UNL     1       6.104   8.708  -8.296  1.00  0.00     0.037 A 
ATOM     60  C   UNL     1       9.150   4.346 -12.100  1.00  0.00     0.049 A 
ATOM     61  C   UNL     1       7.264   8.793  -9.260  1.00  0.00     0.074 A 
ATOM     62  C   UNL     1      10.167   4.572 -13.010  1.00  0.00     0.029 A 
ATOM     63  N   UNL     1       8.857   5.566 -11.512  1.00  0.00    -0.354 N 
ATOM     64  N   UNL     1       7.793   7.855 -10.009  1.00  0.00    -0.248 NA
ATOM     65  C   UNL     1       7.914  10.105  -9.404  1.00  0.00     0.031 C 
ATOM     66  C   UNL     1      10.519   5.922 -12.941  1.00  0.00     0.029 A 
ATOM     67  C   UNL     1       9.680   6.548 -12.033  1.00  0.00     0.049 A 
ATOM     68  H   UNL     1       8.166   5.712 -10.826  1.00  0.00     0.167 HD
ATOM     69  C   UNL     1       8.797   8.474 -10.746  1.00  0.00     0.074 A 
ATOM     70  C   UNL     1       8.803   9.867 -10.358  1.00  0.00     0.031 C 
ATOM     71  C   UNL     1       9.639   7.939 -11.665  1.00  0.00     0.037 A 
BRANCH  58  72
ATOM     72  C   UNL     1       8.898   1.870 -12.521  1.00  0.00     0.057 A 
ATOM     73  C   UNL     1       8.057   1.263 -13.464  1.00  0.00     0.134 A 
ATOM     74  C   UNL     1      10.160   1.298 -12.318  1.00  0.00     0.134 A 
ATOM     75  F   UNL     1       6.828   1.750 -13.691  1.00  0.00    -0.206 F 
ATOM     76  C   UNL     1       8.451   0.123 -14.166  1.00  0.00     0.040 A 
ATOM     77  C   UNL     1      10.576   0.175 -13.034  1.00  0.00     0.040 A 
ATOM     78  F   UNL     1      11.014   1.829 -11.430  1.00  0.00    -0.206 F 
ATOM     79  C   UNL     1       9.718  -0.418 -13.959  1.00  0.00     0.006 A 
ENDBRANCH  58  72
BRANCH  59  80
ATOM     80  C   UNL     1       5.664   9.920  -7.554  1.00  0.00     0.057 A 
ATOM     81  C   UNL     1       5.127  11.026  -8.225  1.00  0.00     0.134 A 
ATOM     82  C   UNL     1       5.843  10.036  -6.170  1.00  0.00     0.134 A 
ATOM     83  F   UNL     1       4.953  10.990  -9.554  1.00  0.00    -0.206 F 
ATOM     84  C   UNL     1       4.822  12.214  -7.556  1.00  0.00     0.040 A 
ATOM     85  C   UNL     1       5.511  11.205  -5.482  1.00  0.00     0.040 A 
ATOM     86  F   UNL     1       6.352   9.015  -5.464  1.00  0.00    -0.206 F 
ATOM     87  C   UNL     1       5.014  12.304  -6.179  1.00  0.00     0.006 A 
ENDBRANCH  59  80
BRANCH  71  88
ATOM     88  C   UNL     1      10.575   8.870 -12.381  1.00  0.00     0.057 A 
ATOM     89  C   UNL     1      11.686   9.444 -11.752  1.00  0.00     0.134 A 
ATOM     90  C   UNL     1      10.396   9.136 -13.746  1.00  0.00     0.134 A 
ATOM     91  F   UNL     1      11.910   9.237 -10.445  1.00  0.00    -0.206 F 
ATOM     92  C   UNL     1      12.573  10.266 -12.449  1.00  0.00     0.040 A 
ATOM     93  C   UNL     1      11.293   9.930 -14.460  1.00  0.00     0.040 A 
ATOM     94  F   UNL     1       9.359   8.606 -14.413  1.00  0.00    -0.206 F 
ATOM     95  C   UNL     1      12.383  10.502 -13.810  1.00  0.00     0.006 A 
ENDBRANCH  71  88
ENDBRANCH  45  46
ENDBRANCH  38  40
ENDBRANCH  37  38
ENDBRANCH  36  37
ENDBRANCH  35  36
ENDBRANCH  34  35
ENDBRANCH  33  34
ENDBRANCH  32  33
ENDBRANCH   1  32
TORSDOF 23
