REMARK SMILES CCCC[C@H](C(=O)OCCOCCOCCOCCOC(=O)c1ccc(-c2c3nc(c(-c4c(F)cccc4F)c4ccc([nH]4)c(-c4c(F)cccc4F)c4nc(c(-c5c(F)cccc5F)c5ccc2[nH]5)C=C4)C=C3)cc1)N1C(=O)/C(=C/c2cccc(Br)c2)SC1=S
REMARK SMILES IDX 13 1 12 2 11 3 10 4 9 5 8 6 6 7 7 8 5 9 4 10 3 11 2 12 1 13
REMARK SMILES IDX 77 14 78 15 90 16 79 17 80 18 89 19 91 20 81 21 82 22 83 23
REMARK SMILES IDX 88 24 84 25 86 26 85 27 87 28 14 29 15 30 16 31 17 32 18 33
REMARK SMILES IDX 19 34 20 35 21 36 22 37 23 38 24 39 76 40 25 41 75 42 26 43
REMARK SMILES IDX 27 44 28 45 69 46 29 47 74 48 68 49 70 50 30 51 73 52 67 53
REMARK SMILES IDX 66 54 31 56 57 57 40 58 56 59 41 60 44 61 55 62 71 63 42 64
REMARK SMILES IDX 43 65 54 67 72 68 45 69 32 70 33 71 38 72 34 73 35 74 37 75
REMARK SMILES IDX 39 76 36 77 58 78 59 79 64 80 60 81 61 82 63 83 65 84 62 85
REMARK SMILES IDX 46 86 47 87 52 88 48 89 49 90 51 91 53 92 50 93
REMARK H PARENT 70 55 44 66
REMARK Flexibility Score: inf
ROOT
ATOM      1  C   UNL     1       0.988   1.530   4.895  1.00  0.00     0.188 C 
ENDROOT
BRANCH   1   2
ATOM      2  C   UNL     1       1.833   0.282   4.598  1.00  0.00     0.188 C 
BRANCH   2   3
ATOM      3  O   UNL     1       3.153   0.501   4.157  1.00  0.00    -0.376 OA
BRANCH   3   4
ATOM      4  C   UNL     1       3.421   0.746   2.786  1.00  0.00     0.202 C 
BRANCH   4   5
ATOM      5  C   UNL     1       2.352   0.843   1.676  1.00  0.00     0.261 C 
BRANCH   5   6
ATOM      6  O   UNL     1       1.038   1.283   2.058  1.00  0.00    -0.462 OA
BRANCH   6   7
ATOM      7  C   UNL     1       0.003   0.475   1.698  1.00  0.00     0.329 C 
ATOM      8  O   UNL     1       0.150  -0.589   1.099  1.00  0.00    -0.250 OA
BRANCH   7   9
ATOM      9  C   UNL     1      -1.389   0.905   2.264  1.00  0.00     0.202 C 
BRANCH   9  10
ATOM     10  C   UNL     1      -1.698  -0.268   3.268  1.00  0.00     0.038 C 
BRANCH  10  11
ATOM     11  C   UNL     1      -2.766  -0.300   4.357  1.00  0.00     0.002 C 
BRANCH  11  12
ATOM     12  C   UNL     1      -4.147   0.189   3.953  1.00  0.00    -0.003 C 
ATOM     13  C   UNL     1      -4.944  -0.917   3.288  1.00  0.00     0.004 C 
ENDBRANCH  11  12
ENDBRANCH  10  11
ENDBRANCH   9  10
BRANCH   9  14
ATOM     14  N   UNL     1      -1.520   2.359   2.608  1.00  0.00    -0.278 N 
ATOM     15  C   UNL     1      -2.033   2.848   3.793  1.00  0.00     0.266 C 
ATOM     16  C   UNL     1      -1.328   3.352   1.646  1.00  0.00     0.149 C 
ATOM     17  O   UNL     1      -2.138   2.287   4.871  1.00  0.00    -0.268 OA
ATOM     18  C   UNL     1      -2.494   4.256   3.647  1.00  0.00     0.081 C 
ATOM     19  S   UNL     1      -1.738   4.945   2.290  1.00  0.00    -0.054 SA
ATOM     20  S   UNL     1      -0.854   3.202   0.048  1.00  0.00    -0.052 S 
ATOM     21  C   UNL     1      -3.400   4.765   4.497  1.00  0.00     0.029 C 
BRANCH  21  22
ATOM     22  C   UNL     1      -3.946   6.129   4.599  1.00  0.00    -0.023 A 
ATOM     23  C   UNL     1      -4.198   6.621   5.891  1.00  0.00     0.008 A 
ATOM     24  C   UNL     1      -4.244   6.946   3.504  1.00  0.00     0.023 A 
ATOM     25  C   UNL     1      -4.657   7.924   6.090  1.00  0.00     0.002 A 
ATOM     26  C   UNL     1      -4.690   8.255   3.708  1.00  0.00     0.018 A 
ATOM     27  C   UNL     1      -4.885   8.752   4.995  1.00  0.00     0.016 A 
ATOM     28  Br  UNL     1      -5.013   9.378   2.220  1.00  0.00    -0.051 Br
ENDBRANCH  21  22
ENDBRANCH   9  14
ENDBRANCH   7   9
ENDBRANCH   6   7
ENDBRANCH   5   6
ENDBRANCH   4   5
ENDBRANCH   3   4
ENDBRANCH   2   3
ENDBRANCH   1   2
BRANCH   1  29
ATOM     29  O   UNL     1       1.321   2.749   4.255  1.00  0.00    -0.377 OA
BRANCH  29  30
ATOM     30  C   UNL     1       2.543   3.396   4.587  1.00  0.00     0.188 C 
BRANCH  30  31
ATOM     31  C   UNL     1       3.397   2.933   5.787  1.00  0.00     0.188 C 
BRANCH  31  32
ATOM     32  O   UNL     1       2.697   2.231   6.798  1.00  0.00    -0.376 OA
BRANCH  32  33
ATOM     33  C   UNL     1       2.235   2.954   7.928  1.00  0.00     0.202 C 
BRANCH  33  34
ATOM     34  C   UNL     1       1.250   4.111   7.690  1.00  0.00     0.261 C 
BRANCH  34  35
ATOM     35  O   UNL     1       1.717   5.179   6.851  1.00  0.00    -0.460 OA
BRANCH  35  36
ATOM     36  C   UNL     1       2.833   5.838   7.226  1.00  0.00     0.338 C 
ATOM     37  O   UNL     1       3.491   5.668   8.239  1.00  0.00    -0.246 OA
BRANCH  36  38
ATOM     38  C   UNL     1       3.243   6.695   6.097  1.00  0.00     0.060 A 
ATOM     39  C   UNL     1       4.462   6.441   5.453  1.00  0.00     0.016 A 
ATOM     40  C   UNL     1       2.419   7.737   5.668  1.00  0.00     0.016 A 
ATOM     41  C   UNL     1       4.870   7.245   4.390  1.00  0.00     0.010 A 
ATOM     42  C   UNL     1       2.842   8.558   4.620  1.00  0.00     0.010 A 
ATOM     43  C   UNL     1       4.081   8.332   3.994  1.00  0.00    -0.014 A 
BRANCH  43  44
ATOM     44  C   UNL     1       4.624   9.332   3.045  1.00  0.00     0.031 A 
ATOM     45  C   UNL     1       5.217  10.598   3.598  1.00  0.00     0.074 A 
ATOM     46  C   UNL     1       4.603   9.118   1.718  1.00  0.00     0.049 A 
ATOM     47  N   UNL     1       5.687  11.642   2.966  1.00  0.00    -0.248 NA
ATOM     48  C   UNL     1       5.285  10.699   5.065  1.00  0.00     0.031 C 
ATOM     49  C   UNL     1       4.098   7.913   1.064  1.00  0.00     0.029 A 
ATOM     50  N   UNL     1       5.009   9.922   0.682  1.00  0.00    -0.354 N 
ATOM     51  C   UNL     1       6.099  12.526   3.956  1.00  0.00     0.074 A 
ATOM     52  C   UNL     1       5.798  11.909   5.229  1.00  0.00     0.031 C 
ATOM     53  C   UNL     1       4.209   8.064  -0.268  1.00  0.00     0.029 A 
ATOM     54  C   UNL     1       4.755   9.389  -0.557  1.00  0.00     0.049 A 
ATOM     55  H   UNL     1       5.441  10.796   0.816  1.00  0.00     0.167 HD
ATOM     56  C   UNL     1       6.681  13.740   3.814  1.00  0.00     0.037 A 
ATOM     57  C   UNL     1       4.916   9.926  -1.783  1.00  0.00     0.037 A 
ATOM     58  C   UNL     1       6.972  14.354   2.545  1.00  0.00     0.049 A 
ATOM     59  C   UNL     1       5.480  11.318  -1.913  1.00  0.00     0.074 A 
ATOM     60  C   UNL     1       7.579  15.572   2.296  1.00  0.00     0.029 A 
ATOM     61  N   UNL     1       6.662  13.801   1.311  1.00  0.00    -0.354 N 
ATOM     62  N   UNL     1       5.896  12.135  -0.975  1.00  0.00    -0.248 NA
ATOM     63  C   UNL     1       5.595  11.863  -3.274  1.00  0.00     0.031 C 
ATOM     64  C   UNL     1       7.579  15.785   0.914  1.00  0.00     0.029 A 
ATOM     65  C   UNL     1       7.032  14.671   0.298  1.00  0.00     0.049 A 
ATOM     66  H   UNL     1       6.243  12.921   1.175  1.00  0.00     0.167 HD
ATOM     67  C   UNL     1       6.342  13.277  -1.632  1.00  0.00     0.074 A 
ATOM     68  C   UNL     1       6.166  13.037  -3.049  1.00  0.00     0.031 C 
ATOM     69  C   UNL     1       6.850  14.421  -1.110  1.00  0.00     0.037 A 
BRANCH  56  70
ATOM     70  C   UNL     1       7.010  14.501   5.067  1.00  0.00     0.057 A 
ATOM     71  C   UNL     1       8.034  14.100   5.934  1.00  0.00     0.134 A 
ATOM     72  C   UNL     1       6.309  15.669   5.393  1.00  0.00     0.134 A 
ATOM     73  F   UNL     1       8.735  12.982   5.689  1.00  0.00    -0.206 F 
ATOM     74  C   UNL     1       8.334  14.821   7.092  1.00  0.00     0.040 A 
ATOM     75  C   UNL     1       6.619  16.414   6.532  1.00  0.00     0.040 A 
ATOM     76  F   UNL     1       5.317  16.112   4.605  1.00  0.00    -0.206 F 
ATOM     77  C   UNL     1       7.630  15.986   7.389  1.00  0.00     0.006 A 
ENDBRANCH  56  70
BRANCH  57  78
ATOM     78  C   UNL     1       4.513   9.161  -2.992  1.00  0.00     0.057 A 
ATOM     79  C   UNL     1       5.461   8.719  -3.922  1.00  0.00     0.134 A 
ATOM     80  C   UNL     1       3.168   8.879  -3.261  1.00  0.00     0.134 A 
ATOM     81  F   UNL     1       6.763   8.981  -3.736  1.00  0.00    -0.206 F 
ATOM     82  C   UNL     1       5.085   8.043  -5.085  1.00  0.00     0.040 A 
ATOM     83  C   UNL     1       2.780   8.178  -4.404  1.00  0.00     0.040 A 
ATOM     84  F   UNL     1       2.209   9.278  -2.412  1.00  0.00    -0.206 F 
ATOM     85  C   UNL     1       3.741   7.765  -5.324  1.00  0.00     0.006 A 
ENDBRANCH  57  78
BRANCH  69  86
ATOM     86  C   UNL     1       7.277  15.491  -2.074  1.00  0.00     0.057 A 
ATOM     87  C   UNL     1       6.349  16.235  -2.815  1.00  0.00     0.134 A 
ATOM     88  C   UNL     1       8.633  15.810  -2.233  1.00  0.00     0.134 A 
ATOM     89  F   UNL     1       5.037  15.975  -2.719  1.00  0.00    -0.206 F 
ATOM     90  C   UNL     1       6.756  17.239  -3.697  1.00  0.00     0.040 A 
ATOM     91  C   UNL     1       9.049  16.832  -3.088  1.00  0.00     0.040 A 
ATOM     92  F   UNL     1       9.574  15.146  -1.546  1.00  0.00    -0.206 F 
ATOM     93  C   UNL     1       8.109  17.544  -3.829  1.00  0.00     0.006 A 
ENDBRANCH  69  86
ENDBRANCH  43  44
ENDBRANCH  36  38
ENDBRANCH  35  36
ENDBRANCH  34  35
ENDBRANCH  33  34
ENDBRANCH  32  33
ENDBRANCH  31  32
ENDBRANCH  30  31
ENDBRANCH  29  30
ENDBRANCH   1  29
TORSDOF 25
