REMARK SMILES Cc1cccc(CC(=O)N[C@H]2CCCCC[C@@H]2C(=O)OCCOCCOCCOCCOC(=O)c2ccc(-c3c4nc(c(-c5c(F)cccc5F)c5ccc([nH]5)c(-c5c(F)cccc5F)c5nc(c(-c6c(F)cccc6F)c6ccc3[nH]6)C=C5)C=C4)cc2)c1
REMARK SMILES IDX 25 1 24 2 23 3 22 4 21 5 20 6 18 7 19 8 17 9 11 10 10 11
REMARK SMILES IDX 8 12 9 13 7 15 6 16 1 17 2 18 3 19 89 20 4 21 5 22 12 23
REMARK SMILES IDX 13 24 14 25 16 27 15 28 26 30 27 31 28 32 29 33 30 34 31 35
REMARK SMILES IDX 32 36 33 37 34 38 35 39 36 40 88 41 37 42 87 43 38 44 39 45
REMARK SMILES IDX 40 46 81 47 41 48 86 49 80 50 82 51 42 52 85 53 79 54 78 55
REMARK SMILES IDX 43 57 69 58 52 59 68 60 53 61 56 62 67 63 83 64 54 65 55 66
REMARK SMILES IDX 66 68 84 69 57 70 44 71 45 72 50 73 46 74 47 75 49 76 51 77
REMARK SMILES IDX 48 78 70 79 71 80 76 81 72 82 73 83 75 84 77 85 74 86 58 87
REMARK SMILES IDX 59 88 64 89 60 90 61 91 63 92 65 93 62 94
REMARK H PARENT 10 14 82 56 56 67
REMARK Flexibility Score: 100.00
ROOT
ATOM      1  C   UNL     1       1.253   5.050  -4.744  1.00  0.00     0.188 C 
ENDROOT
BRANCH   1   2
ATOM      2  C   UNL     1       0.920   4.137  -5.944  1.00  0.00     0.188 C 
BRANCH   2   3
ATOM      3  O   UNL     1      -0.245   4.252  -6.735  1.00  0.00    -0.376 OA
BRANCH   3   4
ATOM      4  C   UNL     1      -1.460   4.544  -6.092  1.00  0.00     0.202 C 
BRANCH   4   5
ATOM      5  C   UNL     1      -2.004   3.503  -5.149  1.00  0.00     0.261 C 
BRANCH   5   6
ATOM      6  O   UNL     1      -1.266   3.468  -3.932  1.00  0.00    -0.463 OA
BRANCH   6   7
ATOM      7  C   UNL     1      -0.721   2.263  -3.721  1.00  0.00     0.311 C 
ATOM      8  O   UNL     1      -0.870   1.328  -4.476  1.00  0.00    -0.252 OA
BRANCH   7   9
ATOM      9  C   UNL     1       0.201   2.236  -2.497  1.00  0.00     0.121 C 
BRANCH   9  10
ATOM     10  C   UNL     1       0.292   0.738  -2.231  1.00  0.00     0.096 C 
BRANCH  10  11
ATOM     11  N   UNL     1       1.124   0.055  -3.268  1.00  0.00    -0.352 N 
ATOM     12  C   UNL     1       2.101   0.592  -4.088  1.00  0.00     0.224 C 
ATOM     13  O   UNL     1       1.949   0.500  -5.309  1.00  0.00    -0.275 OA
ATOM     14  H   UNL     1       0.954  -0.907  -3.384  1.00  0.00     0.163 HD
BRANCH  12  15
ATOM     15  C   UNL     1       3.404   1.125  -3.522  1.00  0.00     0.135 C 
BRANCH  15  16
ATOM     16  C   UNL     1       3.725   2.606  -3.641  1.00  0.00    -0.038 A 
ATOM     17  C   UNL     1       3.678   5.717  -1.415  1.00  0.00     0.044 C 
ATOM     18  C   UNL     1       3.991   4.809  -2.572  1.00  0.00    -0.051 A 
ATOM     19  C   UNL     1       4.443   5.340  -3.780  1.00  0.00     0.003 A 
ATOM     20  C   UNL     1       3.701   3.434  -2.505  1.00  0.00     0.007 A 
ATOM     21  C   UNL     1       4.514   4.526  -4.916  1.00  0.00     0.001 A 
ATOM     22  C   UNL     1       4.118   3.182  -4.856  1.00  0.00     0.004 A 
ENDBRANCH  15  16
ENDBRANCH  12  15
ENDBRANCH  10  11
BRANCH  10  23
ATOM     23  C   UNL     1       0.486   0.281  -0.800  1.00  0.00     0.026 C 
BRANCH  23  24
ATOM     24  C   UNL     1       1.702   0.876  -0.137  1.00  0.00     0.002 C 
BRANCH  24  25
ATOM     25  C   UNL     1       1.386   2.156   0.614  1.00  0.00     0.000 CG0
ATOM     26  G   UNL     1       0.874   3.342  -0.202  1.00  0.00     0.000 G0
ENDBRANCH  24  25
ENDBRANCH  23  24
ENDBRANCH  10  23
ENDBRANCH   9  10
BRANCH   9  27
ATOM     27  C   UNL     1      -0.170   3.146  -1.317  1.00  0.00     0.017 C 
BRANCH  27  28
ATOM     28  C   UNL     1       0.874   3.342  -0.202  1.00  0.00     0.001 CG0
ATOM     29  G   UNL     1       1.386   2.156   0.614  1.00  0.00     0.000 G0
ENDBRANCH  27  28
ENDBRANCH   9  27
ENDBRANCH   7   9
ENDBRANCH   6   7
ENDBRANCH   5   6
ENDBRANCH   4   5
ENDBRANCH   3   4
ENDBRANCH   2   3
ENDBRANCH   1   2
BRANCH   1  30
ATOM     30  O   UNL     1       0.338   6.003  -4.276  1.00  0.00    -0.377 OA
BRANCH  30  31
ATOM     31  C   UNL     1       0.605   7.377  -4.509  1.00  0.00     0.188 C 
BRANCH  31  32
ATOM     32  C   UNL     1       1.732   7.806  -5.435  1.00  0.00     0.188 C 
BRANCH  32  33
ATOM     33  O   UNL     1       1.534   7.210  -6.712  1.00  0.00    -0.376 OA
BRANCH  33  34
ATOM     34  C   UNL     1       2.593   7.421  -7.641  1.00  0.00     0.202 C 
BRANCH  34  35
ATOM     35  C   UNL     1       2.822   8.903  -7.971  1.00  0.00     0.261 C 
BRANCH  35  36
ATOM     36  O   UNL     1       1.598   9.461  -8.492  1.00  0.00    -0.460 OA
BRANCH  36  37
ATOM     37  C   UNL     1       0.953  10.343  -7.684  1.00  0.00     0.338 C 
ATOM     38  O   UNL     1       1.483  11.236  -7.038  1.00  0.00    -0.246 OA
BRANCH  37  39
ATOM     39  C   UNL     1      -0.449   9.884  -7.442  1.00  0.00     0.060 A 
ATOM     40  C   UNL     1      -1.245  10.534  -6.482  1.00  0.00     0.016 A 
ATOM     41  C   UNL     1      -0.830   8.632  -7.909  1.00  0.00     0.016 A 
ATOM     42  C   UNL     1      -2.322   9.863  -5.876  1.00  0.00     0.010 A 
ATOM     43  C   UNL     1      -1.831   7.947  -7.243  1.00  0.00     0.010 A 
ATOM     44  C   UNL     1      -2.564   8.524  -6.188  1.00  0.00    -0.014 A 
BRANCH  44  45
ATOM     45  C   UNL     1      -3.313   7.569  -5.325  1.00  0.00     0.031 A 
ATOM     46  C   UNL     1      -4.160   6.484  -5.960  1.00  0.00     0.074 A 
ATOM     47  C   UNL     1      -2.838   7.414  -4.059  1.00  0.00     0.049 A 
ATOM     48  N   UNL     1      -4.686   5.468  -5.352  1.00  0.00    -0.248 NA
ATOM     49  C   UNL     1      -4.492   6.473  -7.390  1.00  0.00     0.031 C 
ATOM     50  C   UNL     1      -2.626   6.147  -3.388  1.00  0.00     0.029 A 
ATOM     51  N   UNL     1      -2.253   8.298  -3.159  1.00  0.00    -0.354 N 
ATOM     52  C   UNL     1      -5.088   4.537  -6.308  1.00  0.00     0.074 A 
ATOM     53  C   UNL     1      -5.060   5.271  -7.548  1.00  0.00     0.031 C 
ATOM     54  C   UNL     1      -2.021   6.289  -2.210  1.00  0.00     0.029 A 
ATOM     55  C   UNL     1      -2.106   7.669  -1.903  1.00  0.00     0.049 A 
ATOM     56  H   UNL     1      -1.982   9.222  -3.366  1.00  0.00     0.167 HD
ATOM     57  C   UNL     1      -5.244   3.211  -5.978  1.00  0.00     0.037 A 
ATOM     58  C   UNL     1      -2.819   8.092  -0.823  1.00  0.00     0.037 A 
ATOM     59  C   UNL     1      -5.149   2.964  -4.513  1.00  0.00     0.049 A 
ATOM     60  C   UNL     1      -4.036   7.189  -0.510  1.00  0.00     0.074 A 
ATOM     61  C   UNL     1      -4.561   1.998  -3.708  1.00  0.00     0.029 A 
ATOM     62  N   UNL     1      -5.599   3.938  -3.620  1.00  0.00    -0.354 N 
ATOM     63  N   UNL     1      -4.293   6.044  -1.120  1.00  0.00    -0.248 NA
ATOM     64  C   UNL     1      -5.075   7.483   0.471  1.00  0.00     0.031 C 
ATOM     65  C   UNL     1      -4.641   2.429  -2.343  1.00  0.00     0.029 A 
ATOM     66  C   UNL     1      -5.342   3.622  -2.302  1.00  0.00     0.049 A 
ATOM     67  H   UNL     1      -6.054   4.765  -3.901  1.00  0.00     0.167 HD
ATOM     68  C   UNL     1      -5.497   5.511  -0.729  1.00  0.00     0.074 A 
ATOM     69  C   UNL     1      -5.945   6.471   0.274  1.00  0.00     0.031 C 
ATOM     70  C   UNL     1      -6.053   4.364  -1.261  1.00  0.00     0.037 A 
BRANCH  57  71
ATOM     71  C   UNL     1      -5.289   2.046  -6.996  1.00  0.00     0.057 A 
ATOM     72  C   UNL     1      -5.732   0.760  -6.609  1.00  0.00     0.134 A 
ATOM     73  C   UNL     1      -4.799   2.086  -8.322  1.00  0.00     0.134 A 
ATOM     74  F   UNL     1      -6.238   0.539  -5.388  1.00  0.00    -0.206 F 
ATOM     75  C   UNL     1      -5.676  -0.373  -7.448  1.00  0.00     0.040 A 
ATOM     76  C   UNL     1      -4.801   0.975  -9.193  1.00  0.00     0.040 A 
ATOM     77  F   UNL     1      -4.236   3.186  -8.838  1.00  0.00    -0.206 F 
ATOM     78  C   UNL     1      -5.225  -0.268  -8.753  1.00  0.00     0.006 A 
ENDBRANCH  57  71
BRANCH  58  79
ATOM     79  C   UNL     1      -2.397   9.522  -0.581  1.00  0.00     0.057 A 
ATOM     80  C   UNL     1      -1.018   9.610  -0.237  1.00  0.00     0.134 A 
ATOM     81  C   UNL     1      -2.855  10.501  -1.482  1.00  0.00     0.134 A 
ATOM     82  F   UNL     1      -0.495   8.736   0.640  1.00  0.00    -0.206 F 
ATOM     83  C   UNL     1      -0.107  10.357  -1.004  1.00  0.00     0.040 A 
ATOM     84  C   UNL     1      -1.946  11.272  -2.240  1.00  0.00     0.040 A 
ATOM     85  F   UNL     1      -4.140  10.510  -1.864  1.00  0.00    -0.206 F 
ATOM     86  C   UNL     1      -0.568  11.143  -2.054  1.00  0.00     0.006 A 
ENDBRANCH  58  79
BRANCH  70  87
ATOM     87  C   UNL     1      -7.453   3.844  -0.949  1.00  0.00     0.057 A 
ATOM     88  C   UNL     1      -8.091   4.003   0.280  1.00  0.00     0.134 A 
ATOM     89  C   UNL     1      -8.216   3.126  -1.911  1.00  0.00     0.134 A 
ATOM     90  F   UNL     1      -7.415   4.402   1.365  1.00  0.00    -0.206 F 
ATOM     91  C   UNL     1      -9.449   3.702   0.462  1.00  0.00     0.040 A 
ATOM     92  C   UNL     1      -9.553   2.774  -1.728  1.00  0.00     0.040 A 
ATOM     93  F   UNL     1      -7.714   2.715  -3.081  1.00  0.00    -0.206 F 
ATOM     94  C   UNL     1     -10.195   3.119  -0.556  1.00  0.00     0.006 A 
ENDBRANCH  70  87
ENDBRANCH  44  45
ENDBRANCH  37  39
ENDBRANCH  36  37
ENDBRANCH  35  36
ENDBRANCH  34  35
ENDBRANCH  33  34
ENDBRANCH  32  33
ENDBRANCH  31  32
ENDBRANCH  30  31
ENDBRANCH   1  30
TORSDOF 23
