REMARK SMILES CCC1(C(=O)NCCc2ccc(C(=O)OCCOCCOCCOCCOC(=O)c3ccc(-c4c5nc(c(-c6c(F)cccc6F)c6ccc([nH]6)c(-c6c(F)cccc6F)c6nc(c(-c7c(F)cccc7F)c7ccc4[nH]7)C=C6)C=C5)cc3)cc2)CCCC1
REMARK SMILES IDX 19 1 18 2 17 3 16 4 15 5 13 6 14 7 12 8 9 9 10 10 85 11
REMARK SMILES IDX 11 12 84 13 8 14 7 15 6 16 4 17 5 18 3 20 86 21 89 22 87 23
REMARK SMILES IDX 88 24 2 25 1 26 20 27 21 28 22 29 23 30 24 31 25 32 26 33
REMARK SMILES IDX 27 34 28 35 29 36 30 37 31 38 83 39 32 40 82 41 33 42 34 43
REMARK SMILES IDX 35 44 76 45 36 46 81 47 75 48 77 49 37 50 80 51 74 52 73 53
REMARK SMILES IDX 38 55 64 56 47 57 63 58 48 59 51 60 62 61 78 62 49 63 50 64
REMARK SMILES IDX 61 66 79 67 52 68 39 69 40 70 45 71 41 72 42 73 44 74 46 75
REMARK SMILES IDX 43 76 65 77 66 78 71 79 67 80 68 81 70 82 72 83 69 84 53 85
REMARK SMILES IDX 54 86 59 87 55 88 56 89 58 90 60 91 57 92
REMARK H PARENT 6 19 77 54 51 65
REMARK Flexibility Score: inf
ROOT
ATOM      1  C   UNL     1       9.958   2.223  -4.273  1.00  0.00     0.188 C 
ENDROOT
BRANCH   1   2
ATOM      2  O   UNL     1      11.296   2.517  -4.644  1.00  0.00    -0.376 OA
BRANCH   2   3
ATOM      3  C   UNL     1      11.569   2.856  -5.992  1.00  0.00     0.202 C 
BRANCH   3   4
ATOM      4  C   UNL     1      10.980   4.169  -6.531  1.00  0.00     0.261 C 
BRANCH   4   5
ATOM      5  O   UNL     1       9.591   4.372  -6.252  1.00  0.00    -0.460 OA
BRANCH   5   6
ATOM      6  C   UNL     1       8.731   3.616  -6.965  1.00  0.00     0.338 C 
ATOM      7  O   UNL     1       9.010   2.845  -7.867  1.00  0.00    -0.246 OA
BRANCH   6   8
ATOM      8  C   UNL     1       7.410   3.680  -6.306  1.00  0.00     0.060 A 
ATOM      9  C   UNL     1       4.916   3.651  -5.026  1.00  0.00    -0.046 A 
ATOM     10  C   UNL     1       5.520   2.455  -5.433  1.00  0.00     0.004 A 
ATOM     11  C   UNL     1       5.615   4.858  -5.207  1.00  0.00     0.004 A 
ATOM     12  C   UNL     1       6.746   2.470  -6.089  1.00  0.00     0.016 A 
ATOM     13  C   UNL     1       6.864   4.875  -5.832  1.00  0.00     0.016 A 
BRANCH   9  14
ATOM     14  C   UNL     1       3.496   3.719  -4.511  1.00  0.00     0.056 C 
BRANCH  14  15
ATOM     15  C   UNL     1       2.799   2.389  -4.214  1.00  0.00     0.120 C 
BRANCH  15  16
ATOM     16  N   UNL     1       3.122   1.895  -2.897  1.00  0.00    -0.355 N 
ATOM     17  C   UNL     1       2.362   1.727  -1.786  1.00  0.00     0.226 C 
ATOM     18  O   UNL     1       3.009   1.535  -0.750  1.00  0.00    -0.274 OA
ATOM     19  H   UNL     1       4.064   1.633  -2.785  1.00  0.00     0.163 HD
BRANCH  17  20
ATOM     20  C   UNL     1       0.807   1.806  -1.773  1.00  0.00     0.049 C 
ATOM     21  C   UNL     1       0.100   0.952  -2.843  1.00  0.00     0.017 C 
ATOM     22  C   UNL     1       0.320   3.252  -2.013  1.00  0.00     0.017 C 
ATOM     23  C   UNL     1      -0.561   1.881  -3.857  1.00  0.00     0.001 C 
ATOM     24  C   UNL     1      -0.411   3.305  -3.350  1.00  0.00     0.001 C 
BRANCH  20  25
ATOM     25  C   UNL     1       0.323   1.356  -0.353  1.00  0.00     0.013 C 
ATOM     26  C   UNL     1       0.610  -0.102   0.011  1.00  0.00     0.005 C 
ENDBRANCH  20  25
ENDBRANCH  17  20
ENDBRANCH  15  16
ENDBRANCH  14  15
ENDBRANCH   9  14
ENDBRANCH   6   8
ENDBRANCH   5   6
ENDBRANCH   4   5
ENDBRANCH   3   4
ENDBRANCH   2   3
ENDBRANCH   1   2
BRANCH   1  27
ATOM     27  C   UNL     1       9.325   3.264  -3.325  1.00  0.00     0.188 C 
BRANCH  27  28
ATOM     28  O   UNL     1       9.970   4.519  -3.169  1.00  0.00    -0.377 OA
BRANCH  28  29
ATOM     29  C   UNL     1      11.362   4.564  -2.862  1.00  0.00     0.188 C 
BRANCH  29  30
ATOM     30  C   UNL     1      12.097   3.376  -2.194  1.00  0.00     0.188 C 
BRANCH  30  31
ATOM     31  O   UNL     1      11.247   2.353  -1.704  1.00  0.00    -0.376 OA
BRANCH  31  32
ATOM     32  C   UNL     1      11.115   2.228  -0.301  1.00  0.00     0.202 C 
BRANCH  32  33
ATOM     33  C   UNL     1      10.475   3.409   0.441  1.00  0.00     0.261 C 
BRANCH  33  34
ATOM     34  O   UNL     1      11.057   4.700   0.198  1.00  0.00    -0.460 OA
BRANCH  34  35
ATOM     35  C   UNL     1      12.315   4.911   0.639  1.00  0.00     0.338 C 
ATOM     36  O   UNL     1      13.032   4.123   1.236  1.00  0.00    -0.246 OA
BRANCH  35  37
ATOM     37  C   UNL     1      12.761   6.214   0.105  1.00  0.00     0.060 A 
ATOM     38  C   UNL     1      13.863   6.264  -0.760  1.00  0.00     0.016 A 
ATOM     39  C   UNL     1      12.075   7.382   0.446  1.00  0.00     0.016 A 
ATOM     40  C   UNL     1      14.302   7.490  -1.262  1.00  0.00     0.010 A 
ATOM     41  C   UNL     1      12.530   8.611  -0.037  1.00  0.00     0.010 A 
ATOM     42  C   UNL     1      13.666   8.673  -0.866  1.00  0.00    -0.014 A 
BRANCH  42  43
ATOM     43  C   UNL     1      14.303   9.983  -1.139  1.00  0.00     0.031 A 
ATOM     44  C   UNL     1      15.115  10.619  -0.044  1.00  0.00     0.074 A 
ATOM     45  C   UNL     1      14.178  10.595  -2.329  1.00  0.00     0.049 A 
ATOM     46  N   UNL     1      15.708  11.784  -0.014  1.00  0.00    -0.248 NA
ATOM     47  C   UNL     1      15.273   9.830   1.190  1.00  0.00     0.031 C 
ATOM     48  C   UNL     1      13.457  10.065  -3.484  1.00  0.00     0.029 A 
ATOM     49  N   UNL     1      14.650  11.812  -2.755  1.00  0.00    -0.354 N 
ATOM     50  C   UNL     1      16.299  11.871   1.241  1.00  0.00     0.074 A 
ATOM     51  C   UNL     1      15.967  10.658   1.954  1.00  0.00     0.031 C 
ATOM     52  C   UNL     1      13.522  10.960  -4.486  1.00  0.00     0.029 A 
ATOM     53  C   UNL     1      14.257  12.139  -4.030  1.00  0.00     0.049 A 
ATOM     54  H   UNL     1      15.216  12.395  -2.200  1.00  0.00     0.167 HD
ATOM     55  C   UNL     1      17.058  12.870   1.750  1.00  0.00     0.037 A 
ATOM     56  C   UNL     1      14.447  13.273  -4.734  1.00  0.00     0.037 A 
ATOM     57  C   UNL     1      17.382  14.078   1.040  1.00  0.00     0.049 A 
ATOM     58  C   UNL     1      15.224  14.408  -4.114  1.00  0.00     0.074 A 
ATOM     59  C   UNL     1      18.157  15.144   1.463  1.00  0.00     0.029 A 
ATOM     60  N   UNL     1      16.939  14.387  -0.237  1.00  0.00    -0.354 N 
ATOM     61  N   UNL     1      15.801  14.473  -2.938  1.00  0.00    -0.248 NA
ATOM     62  C   UNL     1      15.376  15.627  -4.922  1.00  0.00     0.031 C 
ATOM     63  C   UNL     1      18.132  16.124   0.465  1.00  0.00     0.029 A 
ATOM     64  C   UNL     1      17.398  15.640  -0.606  1.00  0.00     0.049 A 
ATOM     65  H   UNL     1      16.380  13.801  -0.798  1.00  0.00     0.167 HD
ATOM     66  C   UNL     1      16.412  15.721  -2.880  1.00  0.00     0.074 A 
ATOM     67  C   UNL     1      16.145  16.375  -4.144  1.00  0.00     0.031 C 
ATOM     68  C   UNL     1      17.131  16.276  -1.872  1.00  0.00     0.037 A 
BRANCH  55  69
ATOM     69  C   UNL     1      17.560  12.707   3.156  1.00  0.00     0.057 A 
ATOM     70  C   UNL     1      18.541  11.765   3.492  1.00  0.00     0.134 A 
ATOM     71  C   UNL     1      17.069  13.522   4.184  1.00  0.00     0.134 A 
ATOM     72  F   UNL     1      19.042  10.942   2.558  1.00  0.00    -0.206 F 
ATOM     73  C   UNL     1      18.996  11.621   4.804  1.00  0.00     0.040 A 
ATOM     74  C   UNL     1      17.538  13.408   5.494  1.00  0.00     0.040 A 
ATOM     75  F   UNL     1      16.130  14.447   3.932  1.00  0.00    -0.206 F 
ATOM     76  C   UNL     1      18.499  12.450   5.808  1.00  0.00     0.006 A 
ENDBRANCH  55  69
BRANCH  56  77
ATOM     77  C   UNL     1      13.878  13.409  -6.100  1.00  0.00     0.057 A 
ATOM     78  C   UNL     1      14.705  13.498  -7.226  1.00  0.00     0.134 A 
ATOM     79  C   UNL     1      12.496  13.488  -6.311  1.00  0.00     0.134 A 
ATOM     80  F   UNL     1      16.039  13.456  -7.089  1.00  0.00    -0.206 F 
ATOM     81  C   UNL     1      14.182  13.680  -8.508  1.00  0.00     0.040 A 
ATOM     82  C   UNL     1      11.957  13.641  -7.590  1.00  0.00     0.040 A 
ATOM     83  F   UNL     1      11.647  13.412  -5.276  1.00  0.00    -0.206 F 
ATOM     84  C   UNL     1      12.802  13.747  -8.692  1.00  0.00     0.006 A 
ENDBRANCH  56  77
BRANCH  68  85
ATOM     85  C   UNL     1      17.723  17.637  -2.109  1.00  0.00     0.057 A 
ATOM     86  C   UNL     1      16.932  18.792  -2.176  1.00  0.00     0.134 A 
ATOM     87  C   UNL     1      19.110  17.799  -2.224  1.00  0.00     0.134 A 
ATOM     88  F   UNL     1      15.596  18.708  -2.084  1.00  0.00    -0.206 F 
ATOM     89  C   UNL     1      17.498  20.053  -2.376  1.00  0.00     0.040 A 
ATOM     90  C   UNL     1      19.689  19.057  -2.391  1.00  0.00     0.040 A 
ATOM     91  F   UNL     1      19.928  16.738  -2.155  1.00  0.00    -0.206 F 
ATOM     92  C   UNL     1      18.881  20.189  -2.476  1.00  0.00     0.006 A 
ENDBRANCH  68  85
ENDBRANCH  42  43
ENDBRANCH  35  37
ENDBRANCH  34  35
ENDBRANCH  33  34
ENDBRANCH  32  33
ENDBRANCH  31  32
ENDBRANCH  30  31
ENDBRANCH  29  30
ENDBRANCH  28  29
ENDBRANCH  27  28
ENDBRANCH   1  27
TORSDOF 25
