REMARK SMILES CCc1cc(/C=C/C(=O)OCCOCCOCCOCCOC(=O)c2ccc(-c3c4nc(c(-c5c(F)cccc5F)c5ccc([nH]5)c(-c5c(F)cccc5F)c5nc(c(-c6c(F)cccc6F)c6ccc3[nH]6)C=C5)C=C4)cc2)cc(C(=O)c2ccccc2)c1
REMARK SMILES IDX 15 1 14 2 13 3 12 4 11 5 10 6 8 7 9 8 7 9 6 10 5 11 3 12
REMARK SMILES IDX 4 13 89 14 80 15 79 16 2 17 1 18 81 19 82 20 83 21 84 22
REMARK SMILES IDX 88 23 85 24 87 25 86 26 16 27 17 28 18 29 19 30 20 31 21 32
REMARK SMILES IDX 22 33 23 34 24 35 25 36 26 37 78 38 27 39 77 40 28 41 29 42
REMARK SMILES IDX 30 43 71 44 31 45 76 46 70 47 72 48 32 49 75 50 69 51 68 52
REMARK SMILES IDX 33 54 59 55 42 56 58 57 43 58 46 59 57 60 73 61 44 62 45 63
REMARK SMILES IDX 56 65 74 66 47 67 34 68 35 69 40 70 36 71 37 72 39 73 41 74
REMARK SMILES IDX 38 75 60 76 61 77 66 78 62 79 63 80 65 81 67 82 64 83 48 84
REMARK SMILES IDX 49 85 54 86 50 87 51 88 53 89 55 90 52 91
REMARK H PARENT 72 53 46 64
REMARK Flexibility Score: inf
ROOT
ATOM      1  C   UNL     1      -0.057   0.787   8.012  1.00  0.00     0.188 C 
ENDROOT
BRANCH   1   2
ATOM      2  C   UNL     1       0.954  -0.179   8.662  1.00  0.00     0.188 C 
BRANCH   2   3
ATOM      3  O   UNL     1       1.251   0.134  10.011  1.00  0.00    -0.376 OA
BRANCH   3   4
ATOM      4  C   UNL     1       2.517   0.674  10.339  1.00  0.00     0.202 C 
BRANCH   4   5
ATOM      5  C   UNL     1       3.005   1.955   9.645  1.00  0.00     0.261 C 
BRANCH   5   6
ATOM      6  O   UNL     1       2.744   2.054   8.240  1.00  0.00    -0.460 OA
BRANCH   6   7
ATOM      7  C   UNL     1       3.551   1.353   7.416  1.00  0.00     0.330 C 
ATOM      8  O   UNL     1       4.489   0.649   7.754  1.00  0.00    -0.247 OA
BRANCH   7   9
ATOM      9  C   UNL     1       3.044   1.394   6.023  1.00  0.00     0.094 C 
ATOM     10  C   UNL     1       2.205   2.331   5.547  1.00  0.00     0.015 C 
BRANCH  10  11
ATOM     11  C   UNL     1       1.649   2.324   4.182  1.00  0.00    -0.024 A 
ATOM     12  C   UNL     1       0.857   1.145   2.186  1.00  0.00    -0.047 A 
ATOM     13  C   UNL     1       1.364   1.133   3.495  1.00  0.00     0.011 A 
ATOM     14  C   UNL     1       0.603   2.381   1.578  1.00  0.00     0.016 A 
ATOM     15  C   UNL     1       0.811   3.583   2.266  1.00  0.00     0.023 A 
ATOM     16  C   UNL     1       1.335   3.545   3.567  1.00  0.00     0.020 A 
BRANCH  12  17
ATOM     17  C   UNL     1       0.528  -0.152   1.483  1.00  0.00     0.032 C 
ATOM     18  C   UNL     1       1.026  -0.238   0.044  1.00  0.00     0.009 C 
ENDBRANCH  12  17
BRANCH  15  19
ATOM     19  C   UNL     1       0.541   4.914   1.641  1.00  0.00     0.193 C 
ATOM     20  O   UNL     1       0.903   5.944   2.202  1.00  0.00    -0.289 OA
BRANCH  19  21
ATOM     21  C   UNL     1      -0.102   5.030   0.311  1.00  0.00     0.022 A 
ATOM     22  C   UNL     1       0.555   5.769  -0.677  1.00  0.00     0.012 A 
ATOM     23  C   UNL     1      -1.328   4.415   0.032  1.00  0.00     0.012 A 
ATOM     24  C   UNL     1       0.016   5.844  -1.962  1.00  0.00     0.001 A 
ATOM     25  C   UNL     1      -1.858   4.484  -1.258  1.00  0.00     0.001 A 
ATOM     26  C   UNL     1      -1.182   5.191  -2.254  1.00  0.00     0.000 A 
ENDBRANCH  19  21
ENDBRANCH  15  19
ENDBRANCH  10  11
ENDBRANCH   7   9
ENDBRANCH   6   7
ENDBRANCH   5   6
ENDBRANCH   4   5
ENDBRANCH   3   4
ENDBRANCH   2   3
ENDBRANCH   1   2
BRANCH   1  27
ATOM     27  O   UNL     1      -0.311   2.032   8.647  1.00  0.00    -0.377 OA
BRANCH  27  28
ATOM     28  C   UNL     1      -0.684   2.070  10.024  1.00  0.00     0.188 C 
BRANCH  28  29
ATOM     29  C   UNL     1      -1.278   0.843  10.759  1.00  0.00     0.188 C 
BRANCH  29  30
ATOM     30  O   UNL     1      -1.627  -0.241   9.917  1.00  0.00    -0.376 OA
BRANCH  30  31
ATOM     31  C   UNL     1      -3.003  -0.506   9.718  1.00  0.00     0.202 C 
BRANCH  31  32
ATOM     32  C   UNL     1      -3.822   0.582   9.009  1.00  0.00     0.261 C 
BRANCH  32  33
ATOM     33  O   UNL     1      -3.729   1.904   9.561  1.00  0.00    -0.460 OA
BRANCH  33  34
ATOM     34  C   UNL     1      -4.272   2.106  10.779  1.00  0.00     0.338 C 
ATOM     35  O   UNL     1      -4.840   1.283  11.481  1.00  0.00    -0.246 OA
BRANCH  34  36
ATOM     36  C   UNL     1      -3.908   3.470  11.210  1.00  0.00     0.060 A 
ATOM     37  C   UNL     1      -3.135   3.640  12.367  1.00  0.00     0.016 A 
ATOM     38  C   UNL     1      -4.323   4.577  10.467  1.00  0.00     0.016 A 
ATOM     39  C   UNL     1      -2.806   4.924  12.803  1.00  0.00     0.010 A 
ATOM     40  C   UNL     1      -4.008   5.862  10.915  1.00  0.00     0.010 A 
ATOM     41  C   UNL     1      -3.279   6.043  12.103  1.00  0.00    -0.014 A 
BRANCH  41  42
ATOM     42  C   UNL     1      -3.183   7.391  12.715  1.00  0.00     0.031 A 
ATOM     43  C   UNL     1      -4.394   7.944  13.415  1.00  0.00     0.074 A 
ATOM     44  C   UNL     1      -2.044   8.104  12.670  1.00  0.00     0.049 A 
ATOM     45  N   UNL     1      -4.569   9.110  13.982  1.00  0.00    -0.248 NA
ATOM     46  C   UNL     1      -5.570   7.060  13.478  1.00  0.00     0.031 C 
ATOM     47  C   UNL     1      -0.794   7.665  12.056  1.00  0.00     0.029 A 
ATOM     48  N   UNL     1      -1.765   9.361  13.146  1.00  0.00    -0.354 N 
ATOM     49  C   UNL     1      -5.874   9.102  14.461  1.00  0.00     0.074 A 
ATOM     50  C   UNL     1      -6.456   7.832  14.088  1.00  0.00     0.031 C 
ATOM     51  C   UNL     1       0.120   8.644  12.183  1.00  0.00     0.029 A 
ATOM     52  C   UNL     1      -0.492   9.789  12.856  1.00  0.00     0.049 A 
ATOM     53  H   UNL     1      -2.414   9.904  13.648  1.00  0.00     0.167 HD
ATOM     54  C   UNL     1      -6.525  10.062  15.159  1.00  0.00     0.037 A 
ATOM     55  C   UNL     1       0.099  10.979  13.086  1.00  0.00     0.037 A 
ATOM     56  C   UNL     1      -5.944  11.327  15.524  1.00  0.00     0.049 A 
ATOM     57  C   UNL     1      -0.673  12.063  13.795  1.00  0.00     0.074 A 
ATOM     58  C   UNL     1      -6.516  12.361  16.245  1.00  0.00     0.029 A 
ATOM     59  N   UNL     1      -4.662  11.735  15.186  1.00  0.00    -0.354 N 
ATOM     60  N   UNL     1      -1.894  12.037  14.272  1.00  0.00    -0.248 NA
ATOM     61  C   UNL     1       0.021  13.344  14.002  1.00  0.00     0.031 C 
ATOM     62  C   UNL     1      -5.602  13.419  16.290  1.00  0.00     0.029 A 
ATOM     63  C   UNL     1      -4.436  13.017  15.658  1.00  0.00     0.049 A 
ATOM     64  H   UNL     1      -4.011  11.194  14.684  1.00  0.00     0.167 HD
ATOM     65  C   UNL     1      -2.101  13.278  14.865  1.00  0.00     0.074 A 
ATOM     66  C   UNL     1      -0.875  14.029  14.697  1.00  0.00     0.031 C 
ATOM     67  C   UNL     1      -3.205  13.751  15.496  1.00  0.00     0.037 A 
BRANCH  54  68
ATOM     68  C   UNL     1      -7.951   9.792  15.544  1.00  0.00     0.057 A 
ATOM     69  C   UNL     1      -8.293   8.832  16.506  1.00  0.00     0.134 A 
ATOM     70  C   UNL     1      -8.995  10.520  14.960  1.00  0.00     0.134 A 
ATOM     71  F   UNL     1      -7.343   8.088  17.093  1.00  0.00    -0.206 F 
ATOM     72  C   UNL     1      -9.623   8.589  16.854  1.00  0.00     0.040 A 
ATOM     73  C   UNL     1     -10.326  10.308  15.322  1.00  0.00     0.040 A 
ATOM     74  F   UNL     1      -8.739  11.457  14.034  1.00  0.00    -0.206 F 
ATOM     75  C   UNL     1     -10.644   9.334  16.267  1.00  0.00     0.006 A 
ENDBRANCH  54  68
BRANCH  55  76
ATOM     76  C   UNL     1       1.494  11.220  12.634  1.00  0.00     0.057 A 
ATOM     77  C   UNL     1       2.535  11.406  13.551  1.00  0.00     0.134 A 
ATOM     78  C   UNL     1       1.814  11.303  11.273  1.00  0.00     0.134 A 
ATOM     79  F   UNL     1       2.289  11.364  14.869  1.00  0.00    -0.206 F 
ATOM     80  C   UNL     1       3.838  11.686  13.133  1.00  0.00     0.040 A 
ATOM     81  C   UNL     1       3.118  11.553  10.841  1.00  0.00     0.040 A 
ATOM     82  F   UNL     1       0.863  11.137  10.342  1.00  0.00    -0.206 F 
ATOM     83  C   UNL     1       4.133  11.754  11.773  1.00  0.00     0.006 A 
ENDBRANCH  55  76
BRANCH  67  84
ATOM     84  C   UNL     1      -3.126  15.124  16.101  1.00  0.00     0.057 A 
ATOM     85  C   UNL     1      -3.079  16.285  15.318  1.00  0.00     0.134 A 
ATOM     86  C   UNL     1      -3.144  15.287  17.493  1.00  0.00     0.134 A 
ATOM     87  F   UNL     1      -3.049  16.201  13.979  1.00  0.00    -0.206 F 
ATOM     88  C   UNL     1      -3.026  17.554  15.897  1.00  0.00     0.040 A 
ATOM     89  C   UNL     1      -3.125  16.552  18.083  1.00  0.00     0.040 A 
ATOM     90  F   UNL     1      -3.201  14.219  18.304  1.00  0.00    -0.206 F 
ATOM     91  C   UNL     1      -3.058  17.690  17.284  1.00  0.00     0.006 A 
ENDBRANCH  67  84
ENDBRANCH  41  42
ENDBRANCH  34  36
ENDBRANCH  33  34
ENDBRANCH  32  33
ENDBRANCH  31  32
ENDBRANCH  30  31
ENDBRANCH  29  30
ENDBRANCH  28  29
ENDBRANCH  27  28
ENDBRANCH   1  27
TORSDOF 24
