REMARK SMILES O=C(OCCOCCOCCOCCOC(=O)c1cccc(OS(=O)(=O)c2cccc([N+](=O)[O-])c2)c1)c1ccc(-c2c3nc(c(-c4c(F)cccc4F)c4ccc([nH]4)c(-c4c(F)cccc4F)c4nc(c(-c5c(F)cccc5F)c5ccc2[nH]5)C=C4)C=C3)cc1
REMARK SMILES IDX 10 1 9 2 8 3 7 4 6 5 5 6 4 7 3 8 2 9 1 10 37 11 38 12 90 13
REMARK SMILES IDX 39 14 89 15 40 16 41 17 42 18 83 19 43 20 88 21 82 22 84 23
REMARK SMILES IDX 44 24 87 25 81 26 80 27 45 29 71 30 54 31 70 32 55 33 58 34
REMARK SMILES IDX 69 35 85 36 56 37 57 38 68 40 86 41 59 42 46 43 47 44 52 45
REMARK SMILES IDX 48 46 49 47 51 48 53 49 50 50 72 51 73 52 78 53 74 54 75 55
REMARK SMILES IDX 77 56 79 57 76 58 60 59 61 60 66 61 62 62 63 63 65 64 67 65
REMARK SMILES IDX 64 66 11 67 12 68 13 69 14 70 15 71 16 72 17 73 18 74 19 75
REMARK SMILES IDX 36 76 20 77 22 78 21 79 23 80 24 81 25 82 26 83 27 84 28 85
REMARK SMILES IDX 35 86 29 87 31 88 30 89 32 90 33 91 34 92
REMARK H PARENT 84 28 58 39
REMARK Flexibility Score: inf
ROOT
ATOM      1  C   UNL     1       3.953  -1.615  -3.347  1.00  0.00     0.188 C 
ENDROOT
BRANCH   1   2
ATOM      2  O   UNL     1       2.535  -1.644  -3.454  1.00  0.00    -0.377 OA
BRANCH   2   3
ATOM      3  C   UNL     1       1.798  -0.887  -2.497  1.00  0.00     0.188 C 
BRANCH   3   4
ATOM      4  C   UNL     1       2.186  -1.129  -1.037  1.00  0.00     0.188 C 
BRANCH   4   5
ATOM      5  O   UNL     1       3.509  -0.646  -0.786  1.00  0.00    -0.376 OA
BRANCH   5   6
ATOM      6  C   UNL     1       4.295  -1.452   0.090  1.00  0.00     0.202 C 
BRANCH   6   7
ATOM      7  C   UNL     1       4.135  -1.084   1.565  1.00  0.00     0.261 C 
BRANCH   7   8
ATOM      8  O   UNL     1       2.783  -0.728   1.883  1.00  0.00    -0.460 OA
BRANCH   8   9
ATOM      9  C   UNL     1       2.217   0.504   1.844  1.00  0.00     0.338 C 
ATOM     10  O   UNL     1       1.031   0.604   2.158  1.00  0.00    -0.246 OA
BRANCH   9  11
ATOM     11  C   UNL     1       2.945   1.765   1.481  1.00  0.00     0.060 A 
ATOM     12  C   UNL     1       4.090   1.855   0.687  1.00  0.00     0.016 A 
ATOM     13  C   UNL     1       2.381   2.967   1.947  1.00  0.00     0.016 A 
ATOM     14  C   UNL     1       4.705   3.073   0.425  1.00  0.00     0.010 A 
ATOM     15  C   UNL     1       2.978   4.201   1.673  1.00  0.00     0.010 A 
ATOM     16  C   UNL     1       4.166   4.247   0.939  1.00  0.00    -0.014 A 
BRANCH  16  17
ATOM     17  C   UNL     1       4.986   5.467   0.865  1.00  0.00     0.031 A 
ATOM     18  C   UNL     1       5.757   5.858   2.089  1.00  0.00     0.074 A 
ATOM     19  C   UNL     1       5.147   6.106  -0.305  1.00  0.00     0.049 A 
ATOM     20  N   UNL     1       6.519   6.897   2.297  1.00  0.00    -0.248 NA
ATOM     21  C   UNL     1       5.671   4.934   3.235  1.00  0.00     0.031 C 
ATOM     22  C   UNL     1       4.548   5.699  -1.578  1.00  0.00     0.029 A 
ATOM     23  N   UNL     1       5.888   7.213  -0.620  1.00  0.00    -0.354 N 
ATOM     24  C   UNL     1       6.974   6.767   3.603  1.00  0.00     0.074 A 
ATOM     25  C   UNL     1       6.407   5.554   4.142  1.00  0.00     0.031 C 
ATOM     26  C   UNL     1       4.959   6.541  -2.542  1.00  0.00     0.029 A 
ATOM     27  C   UNL     1       5.794   7.576  -1.941  1.00  0.00     0.049 A 
ATOM     28  H   UNL     1       6.436   7.701   0.036  1.00  0.00     0.167 HD
ATOM     29  C   UNL     1       7.790   7.600   4.288  1.00  0.00     0.037 A 
ATOM     30  C   UNL     1       6.303   8.650  -2.572  1.00  0.00     0.037 A 
ATOM     31  C   UNL     1       8.333   8.803   3.722  1.00  0.00     0.049 A 
ATOM     32  C   UNL     1       7.117   9.623  -1.761  1.00  0.00     0.074 A 
ATOM     33  C   UNL     1       9.109   9.774   4.324  1.00  0.00     0.029 A 
ATOM     34  N   UNL     1       8.147   9.194   2.401  1.00  0.00    -0.354 N 
ATOM     35  N   UNL     1       7.481   9.546  -0.501  1.00  0.00    -0.248 NA
ATOM     36  C   UNL     1       7.572  10.838  -2.446  1.00  0.00     0.031 C 
ATOM     37  C   UNL     1       9.356  10.775   3.376  1.00  0.00     0.029 A 
ATOM     38  C   UNL     1       8.776  10.403   2.172  1.00  0.00     0.049 A 
ATOM     39  H   UNL     1       7.641   8.684   1.728  1.00  0.00     0.167 HD
ATOM     40  C   UNL     1       8.217  10.694  -0.244  1.00  0.00     0.074 A 
ATOM     41  C   UNL     1       8.264  11.440  -1.488  1.00  0.00     0.031 C 
ATOM     42  C   UNL     1       8.798  11.104   0.911  1.00  0.00     0.037 A 
BRANCH  29  43
ATOM     43  C   UNL     1       8.045   7.263   5.727  1.00  0.00     0.057 A 
ATOM     44  C   UNL     1       8.844   6.177   6.112  1.00  0.00     0.134 A 
ATOM     45  C   UNL     1       7.419   7.994   6.744  1.00  0.00     0.134 A 
ATOM     46  F   UNL     1       9.444   5.412   5.187  1.00  0.00    -0.206 F 
ATOM     47  C   UNL     1       8.981   5.811   7.453  1.00  0.00     0.040 A 
ATOM     48  C   UNL     1       7.568   7.653   8.089  1.00  0.00     0.040 A 
ATOM     49  F   UNL     1       6.632   9.039   6.445  1.00  0.00    -0.206 F 
ATOM     50  C   UNL     1       8.341   6.551   8.446  1.00  0.00     0.006 A 
ENDBRANCH  29  43
BRANCH  30  51
ATOM     51  C   UNL     1       6.017   8.883  -4.012  1.00  0.00     0.057 A 
ATOM     52  C   UNL     1       7.031   8.852  -4.975  1.00  0.00     0.134 A 
ATOM     53  C   UNL     1       4.716   9.149  -4.461  1.00  0.00     0.134 A 
ATOM     54  F   UNL     1       8.302   8.625  -4.611  1.00  0.00    -0.206 F 
ATOM     55  C   UNL     1       6.766   9.084  -6.328  1.00  0.00     0.040 A 
ATOM     56  C   UNL     1       4.431   9.356  -5.812  1.00  0.00     0.040 A 
ATOM     57  F   UNL     1       3.696   9.198  -3.592  1.00  0.00    -0.206 F 
ATOM     58  C   UNL     1       5.460   9.329  -6.750  1.00  0.00     0.006 A 
ENDBRANCH  30  51
BRANCH  42  59
ATOM     59  C   UNL     1       9.549  12.399   0.866  1.00  0.00     0.057 A 
ATOM     60  C   UNL     1       8.887  13.632   0.818  1.00  0.00     0.134 A 
ATOM     61  C   UNL     1      10.948  12.410   0.927  1.00  0.00     0.134 A 
ATOM     62  F   UNL     1       7.549  13.683   0.745  1.00  0.00    -0.206 F 
ATOM     63  C   UNL     1       9.595  14.834   0.815  1.00  0.00     0.040 A 
ATOM     64  C   UNL     1      11.664  13.605   0.951  1.00  0.00     0.040 A 
ATOM     65  F   UNL     1      11.636  11.260   0.986  1.00  0.00    -0.206 F 
ATOM     66  C   UNL     1      10.987  14.822   0.890  1.00  0.00     0.006 A 
ENDBRANCH  42  59
ENDBRANCH  16  17
ENDBRANCH   9  11
ENDBRANCH   8   9
ENDBRANCH   7   8
ENDBRANCH   6   7
ENDBRANCH   5   6
ENDBRANCH   4   5
ENDBRANCH   3   4
ENDBRANCH   2   3
ENDBRANCH   1   2
BRANCH   1  67
ATOM     67  C   UNL     1       4.684  -0.255  -3.421  1.00  0.00     0.188 C 
BRANCH  67  68
ATOM     68  O   UNL     1       3.845   0.879  -3.598  1.00  0.00    -0.376 OA
BRANCH  68  69
ATOM     69  C   UNL     1       3.878   1.474  -4.893  1.00  0.00     0.202 C 
BRANCH  69  70
ATOM     70  C   UNL     1       3.135   0.677  -5.969  1.00  0.00     0.261 C 
BRANCH  70  71
ATOM     71  O   UNL     1       3.675  -0.625  -6.234  1.00  0.00    -0.460 OA
BRANCH  71  72
ATOM     72  C   UNL     1       4.962  -0.751  -6.628  1.00  0.00     0.338 C 
ATOM     73  O   UNL     1       5.763   0.136  -6.856  1.00  0.00    -0.246 OA
BRANCH  72  74
ATOM     74  C   UNL     1       5.284  -2.194  -6.531  1.00  0.00     0.063 A 
ATOM     75  C   UNL     1       6.450  -2.625  -5.892  1.00  0.00     0.016 A 
ATOM     76  C   UNL     1       4.341  -3.124  -6.969  1.00  0.00     0.064 A 
ATOM     77  C   UNL     1       6.639  -3.991  -5.667  1.00  0.00     0.005 A 
ATOM     78  C   UNL     1       4.576  -4.490  -6.841  1.00  0.00     0.143 A 
ATOM     79  C   UNL     1       5.707  -4.922  -6.146  1.00  0.00     0.048 A 
BRANCH  78  80
ATOM     80  O   UNL     1       3.760  -5.455  -7.386  1.00  0.00    -0.379 OA
BRANCH  80  81
ATOM     81  S   UNL     1       2.576  -5.046  -8.442  1.00  0.00     0.339 S 
ATOM     82  O   UNL     1       1.354  -4.819  -7.698  1.00  0.00    -0.181 OA
ATOM     83  O   UNL     1       3.084  -4.062  -9.382  1.00  0.00    -0.181 OA
BRANCH  81  84
ATOM     84  C   UNL     1       2.279  -6.474  -9.446  1.00  0.00     0.112 A 
ATOM     85  C   UNL     1       1.458  -6.287 -10.568  1.00  0.00     0.024 A 
ATOM     86  C   UNL     1       2.896  -7.697  -9.193  1.00  0.00     0.109 A 
ATOM     87  C   UNL     1       1.244  -7.335 -11.457  1.00  0.00     0.009 A 
ATOM     88  C   UNL     1       2.671  -8.745 -10.096  1.00  0.00     0.270 A 
ATOM     89  C   UNL     1       1.850  -8.569 -11.224  1.00  0.00     0.086 A 
BRANCH  88  90
ATOM     90  N   UNL     1       3.315 -10.046  -9.872  1.00  0.00     0.062 N 
ATOM     91  O   UNL     1       3.064 -10.959 -10.671  1.00  0.00    -0.258 OA
ATOM     92  O   UNL     1       4.073 -10.148  -8.898  1.00  0.00    -0.258 OA
ENDBRANCH  88  90
ENDBRANCH  81  84
ENDBRANCH  80  81
ENDBRANCH  78  80
ENDBRANCH  72  74
ENDBRANCH  71  72
ENDBRANCH  70  71
ENDBRANCH  69  70
ENDBRANCH  68  69
ENDBRANCH  67  68
ENDBRANCH   1  67
TORSDOF 24
