REMARK SMILES Cc1cc(CNS(=O)(=O)c2ccc(C(=O)OCCOCCOCCOCCOC(=O)c3ccc(-c4c5nc(c(-c6c(F)cccc6F)c6ccc([nH]6)c(-c6c(F)cccc6F)c6nc(c(-c7c(F)cccc7F)c7ccc4[nH]7)C=C6)C=C5)cc3)cc2F)no1
REMARK SMILES IDX 21 1 20 2 19 3 18 4 17 5 16 6 14 7 15 8 13 9 10 10 11 11
REMARK SMILES IDX 86 12 12 13 85 14 87 15 7 16 8 17 9 18 6 19 5 21 4 22 1 23
REMARK SMILES IDX 2 24 3 25 89 26 88 27 22 28 23 29 24 30 25 31 26 32 27 33
REMARK SMILES IDX 28 34 29 35 30 36 31 37 32 38 84 39 33 40 83 41 34 42 35 43
REMARK SMILES IDX 36 44 77 45 37 46 82 47 76 48 78 49 38 50 81 51 75 52 74 53
REMARK SMILES IDX 39 55 65 56 48 57 64 58 49 59 52 60 63 61 79 62 50 63 51 64
REMARK SMILES IDX 62 66 80 67 53 68 40 69 41 70 46 71 42 72 43 73 45 74 47 75
REMARK SMILES IDX 44 76 66 77 67 78 72 79 68 80 69 81 71 82 73 83 70 84 54 85
REMARK SMILES IDX 55 86 60 87 56 88 57 89 59 90 61 91 58 92
REMARK H PARENT 6 20 78 54 52 65
REMARK Flexibility Score: inf
ROOT
ATOM      1  C   UNL     1      -6.602  -1.230  -4.920  1.00  0.00     0.188 C 
ENDROOT
BRANCH   1   2
ATOM      2  C   UNL     1      -7.935  -1.909  -5.273  1.00  0.00     0.188 C 
BRANCH   2   3
ATOM      3  O   UNL     1      -8.808  -1.095  -6.051  1.00  0.00    -0.376 OA
BRANCH   3   4
ATOM      4  C   UNL     1      -9.960  -0.602  -5.381  1.00  0.00     0.202 C 
BRANCH   4   5
ATOM      5  C   UNL     1      -9.686   0.577  -4.438  1.00  0.00     0.261 C 
BRANCH   5   6
ATOM      6  O   UNL     1      -8.804   0.280  -3.341  1.00  0.00    -0.460 OA
BRANCH   6   7
ATOM      7  C   UNL     1      -9.231  -0.634  -2.445  1.00  0.00     0.338 C 
ATOM      8  O   UNL     1     -10.309  -1.202  -2.434  1.00  0.00    -0.246 OA
BRANCH   7   9
ATOM      9  C   UNL     1      -8.097  -0.995  -1.563  1.00  0.00     0.063 A 
ATOM     10  C   UNL     1      -5.988  -1.762   0.097  1.00  0.00     0.118 A 
ATOM     11  C   UNL     1      -6.823  -2.739  -0.463  1.00  0.00     0.026 A 
ATOM     12  C   UNL     1      -6.190  -0.419  -0.197  1.00  0.00     0.144 A 
ATOM     13  C   UNL     1      -7.886  -2.352  -1.282  1.00  0.00     0.017 A 
ATOM     14  C   UNL     1      -7.233  -0.027  -1.039  1.00  0.00     0.056 A 
ATOM     15  F   UNL     1      -5.405   0.528   0.334  1.00  0.00    -0.205 F 
BRANCH  10  16
ATOM     16  S   UNL     1      -4.787  -2.241   1.300  1.00  0.00     0.243 S 
ATOM     17  O   UNL     1      -4.468  -3.632   1.045  1.00  0.00    -0.207 OA
ATOM     18  O   UNL     1      -5.297  -1.807   2.579  1.00  0.00    -0.207 OA
BRANCH  16  19
ATOM     19  N   UNL     1      -3.407  -1.371   0.994  1.00  0.00    -0.205 NA
ATOM     20  H   UNL     1      -3.683  -0.391   0.946  1.00  0.00     0.141 HD
BRANCH  19  21
ATOM     21  C   UNL     1      -2.613  -1.640  -0.199  1.00  0.00     0.158 C 
BRANCH  21  22
ATOM     22  C   UNL     1      -1.344  -0.852  -0.111  1.00  0.00     0.099 A 
ATOM     23  C   UNL     1       2.202   0.089   0.064  1.00  0.00     0.091 C 
ATOM     24  C   UNL     1       0.754  -0.185   0.007  1.00  0.00     0.133 A 
ATOM     25  C   UNL     1      -0.010  -1.325  -0.045  1.00  0.00     0.073 A 
ATOM     26  O   UNL     1      -0.063   0.902  -0.008  1.00  0.00    -0.361 OA
ATOM     27  N   UNL     1      -1.381   0.489  -0.082  1.00  0.00    -0.083 NA
ENDBRANCH  21  22
ENDBRANCH  19  21
ENDBRANCH  16  19
ENDBRANCH  10  16
ENDBRANCH   7   9
ENDBRANCH   6   7
ENDBRANCH   5   6
ENDBRANCH   4   5
ENDBRANCH   3   4
ENDBRANCH   2   3
ENDBRANCH   1   2
BRANCH   1  28
ATOM     28  O   UNL     1      -6.450   0.120  -5.316  1.00  0.00    -0.377 OA
BRANCH  28  29
ATOM     29  C   UNL     1      -6.509   0.456  -6.700  1.00  0.00     0.188 C 
BRANCH  29  30
ATOM     30  C   UNL     1      -6.542  -0.613  -7.814  1.00  0.00     0.188 C 
BRANCH  30  31
ATOM     31  O   UNL     1      -5.877  -1.830  -7.495  1.00  0.00    -0.376 OA
BRANCH  31  32
ATOM     32  C   UNL     1      -4.668  -2.087  -8.196  1.00  0.00     0.202 C 
BRANCH  32  33
ATOM     33  C   UNL     1      -3.472  -1.324  -7.620  1.00  0.00     0.261 C 
BRANCH  33  34
ATOM     34  O   UNL     1      -3.560   0.104  -7.750  1.00  0.00    -0.460 OA
BRANCH  34  35
ATOM     35  C   UNL     1      -3.620   0.597  -9.006  1.00  0.00     0.338 C 
ATOM     36  O   UNL     1      -3.565  -0.024 -10.051  1.00  0.00    -0.246 OA
BRANCH  35  37
ATOM     37  C   UNL     1      -3.934   2.033  -8.910  1.00  0.00     0.060 A 
ATOM     38  C   UNL     1      -5.060   2.526  -9.582  1.00  0.00     0.016 A 
ATOM     39  C   UNL     1      -3.114   2.884  -8.167  1.00  0.00     0.016 A 
ATOM     40  C   UNL     1      -5.343   3.891  -9.545  1.00  0.00     0.010 A 
ATOM     41  C   UNL     1      -3.389   4.250  -8.145  1.00  0.00     0.010 A 
ATOM     42  C   UNL     1      -4.483   4.762  -8.863  1.00  0.00    -0.014 A 
BRANCH  42  43
ATOM     43  C   UNL     1      -4.600   6.224  -9.058  1.00  0.00     0.031 A 
ATOM     44  C   UNL     1      -3.751   6.868 -10.118  1.00  0.00     0.074 A 
ATOM     45  C   UNL     1      -5.434   6.966  -8.311  1.00  0.00     0.049 A 
ATOM     46  N   UNL     1      -3.625   8.132 -10.426  1.00  0.00    -0.248 NA
ATOM     47  C   UNL     1      -2.932   5.961 -10.941  1.00  0.00     0.031 C 
ATOM     48  C   UNL     1      -6.335   6.451  -7.282  1.00  0.00     0.029 A 
ATOM     49  N   UNL     1      -5.648   8.322  -8.302  1.00  0.00    -0.354 N 
ATOM     50  C   UNL     1      -2.717   8.172 -11.476  1.00  0.00     0.074 A 
ATOM     51  C   UNL     1      -2.301   6.812 -11.735  1.00  0.00     0.031 C 
ATOM     52  C   UNL     1      -7.000   7.483  -6.733  1.00  0.00     0.029 A 
ATOM     53  C   UNL     1      -6.548   8.730  -7.349  1.00  0.00     0.049 A 
ATOM     54  H   UNL     1      -5.198   8.942  -8.920  1.00  0.00     0.167 HD
ATOM     55  C   UNL     1      -2.277   9.247 -12.168  1.00  0.00     0.037 A 
ATOM     56  C   UNL     1      -6.942   9.971  -7.003  1.00  0.00     0.037 A 
ATOM     57  C   UNL     1      -2.686  10.599 -11.905  1.00  0.00     0.049 A 
ATOM     58  C   UNL     1      -6.371  11.161  -7.729  1.00  0.00     0.074 A 
ATOM     59  C   UNL     1      -2.300  11.756 -12.558  1.00  0.00     0.029 A 
ATOM     60  N   UNL     1      -3.567  10.975 -10.903  1.00  0.00    -0.354 N 
ATOM     61  N   UNL     1      -5.523  11.190  -8.729  1.00  0.00    -0.248 NA
ATOM     62  C   UNL     1      -6.806  12.491  -7.276  1.00  0.00     0.031 C 
ATOM     63  C   UNL     1      -2.915  12.839 -11.923  1.00  0.00     0.029 A 
ATOM     64  C   UNL     1      -3.719  12.351 -10.905  1.00  0.00     0.049 A 
ATOM     65  H   UNL     1      -4.017  10.357 -10.284  1.00  0.00     0.167 HD
ATOM     66  C   UNL     1      -5.341  12.533  -9.039  1.00  0.00     0.074 A 
ATOM     67  C   UNL     1      -6.173  13.289  -8.126  1.00  0.00     0.031 C 
ATOM     68  C   UNL     1      -4.558  13.088  -9.995  1.00  0.00     0.037 A 
BRANCH  55  69
ATOM     69  C   UNL     1      -1.291   9.006 -13.269  1.00  0.00     0.057 A 
ATOM     70  C   UNL     1       0.048   9.389 -13.125  1.00  0.00     0.134 A 
ATOM     71  C   UNL     1      -1.678   8.440 -14.490  1.00  0.00     0.134 A 
ATOM     72  F   UNL     1       0.481   9.937 -11.980  1.00  0.00    -0.206 F 
ATOM     73  C   UNL     1       0.965   9.230 -14.164  1.00  0.00     0.040 A 
ATOM     74  C   UNL     1      -0.764   8.256 -15.528  1.00  0.00     0.040 A 
ATOM     75  F   UNL     1      -2.943   8.036 -14.682  1.00  0.00    -0.206 F 
ATOM     76  C   UNL     1       0.560   8.661 -15.370  1.00  0.00     0.006 A 
ENDBRANCH  55  69
BRANCH  56  77
ATOM     77  C   UNL     1      -7.926  10.155  -5.908  1.00  0.00     0.057 A 
ATOM     78  C   UNL     1      -7.588   9.905  -4.572  1.00  0.00     0.134 A 
ATOM     79  C   UNL     1      -9.230  10.586  -6.174  1.00  0.00     0.134 A 
ATOM     80  F   UNL     1      -6.353   9.493  -4.252  1.00  0.00    -0.206 F 
ATOM     81  C   UNL     1      -8.516  10.061  -3.542  1.00  0.00     0.040 A 
ATOM     82  C   UNL     1     -10.163  10.767  -5.151  1.00  0.00     0.040 A 
ATOM     83  F   UNL     1      -9.606  10.865  -7.430  1.00  0.00    -0.206 F 
ATOM     84  C   UNL     1      -9.808  10.497  -3.830  1.00  0.00     0.006 A 
ENDBRANCH  56  77
BRANCH  68  85
ATOM     85  C   UNL     1      -4.568  14.582 -10.131  1.00  0.00     0.057 A 
ATOM     86  C   UNL     1      -5.173  15.191 -11.239  1.00  0.00     0.134 A 
ATOM     87  C   UNL     1      -3.896  15.407  -9.223  1.00  0.00     0.134 A 
ATOM     88  F   UNL     1      -5.822  14.453 -12.152  1.00  0.00    -0.206 F 
ATOM     89  C   UNL     1      -5.091  16.568 -11.448  1.00  0.00     0.040 A 
ATOM     90  C   UNL     1      -3.827  16.789  -9.409  1.00  0.00     0.040 A 
ATOM     91  F   UNL     1      -3.304  14.884  -8.139  1.00  0.00    -0.206 F 
ATOM     92  C   UNL     1      -4.416  17.371 -10.531  1.00  0.00     0.006 A 
ENDBRANCH  68  85
ENDBRANCH  42  43
ENDBRANCH  35  37
ENDBRANCH  34  35
ENDBRANCH  33  34
ENDBRANCH  32  33
ENDBRANCH  31  32
ENDBRANCH  30  31
ENDBRANCH  29  30
ENDBRANCH  28  29
ENDBRANCH   1  28
TORSDOF 24
