REMARK SMILES C[C@H]1[C@H](C(=O)OCCOCCOCCOCCOC(=O)c2ccc(-c3c4nc(c(-c5c(F)cccc5F)c5ccc([nH]5)c(-c5c(F)cccc5F)c5nc(c(-c6c(F)cccc6F)c6ccc3[nH]6)C=C5)C=C4)cc2)CCN1C(=O)[C@H]1CC=CCC1
REMARK SMILES IDX 12 1 11 2 10 3 9 4 8 5 7 6 6 7 4 8 5 9 3 10 1 11 2 12 77 13
REMARK SMILES IDX 75 14 76 15 78 16 79 17 80 18 81 19 85 20 82 21 84 22 83 23
REMARK SMILES IDX 13 24 14 25 15 26 16 27 17 28 18 29 19 30 20 31 21 32 22 33
REMARK SMILES IDX 74 34 23 35 73 36 24 37 25 38 26 39 67 40 27 41 72 42 66 43
REMARK SMILES IDX 68 44 28 45 71 46 65 47 64 48 29 50 55 51 38 52 54 53 39 54
REMARK SMILES IDX 42 55 53 56 69 57 40 58 41 59 52 61 70 62 43 63 30 64 31 65
REMARK SMILES IDX 36 66 32 67 33 68 35 69 37 70 34 71 56 72 57 73 62 74 58 75
REMARK SMILES IDX 59 76 61 77 63 78 60 79 44 80 45 81 50 82 46 83 47 84 49 85
REMARK SMILES IDX 51 86 48 87
REMARK H PARENT 68 49 42 60
REMARK Flexibility Score: inf
ROOT
ATOM      1  O   UNL     1       1.892   2.388   2.451  1.00  0.00    -0.377 OA
ENDROOT
BRANCH   1   2
ATOM      2  C   UNL     1       2.144   3.421   1.511  1.00  0.00     0.188 C 
BRANCH   2   3
ATOM      3  C   UNL     1       1.031   4.464   1.377  1.00  0.00     0.188 C 
BRANCH   3   4
ATOM      4  O   UNL     1       0.506   5.018   2.573  1.00  0.00    -0.376 OA
BRANCH   4   5
ATOM      5  C   UNL     1      -0.241   4.168   3.440  1.00  0.00     0.202 C 
BRANCH   5   6
ATOM      6  C   UNL     1      -1.338   3.264   2.857  1.00  0.00     0.261 C 
BRANCH   6   7
ATOM      7  O   UNL     1      -0.866   2.201   1.989  1.00  0.00    -0.463 OA
BRANCH   7   8
ATOM      8  C   UNL     1      -1.374   2.220   0.735  1.00  0.00     0.311 C 
ATOM      9  O   UNL     1      -2.133   3.095   0.318  1.00  0.00    -0.252 OA
BRANCH   8  10
ATOM     10  C   UNL     1      -1.020   1.054  -0.161  1.00  0.00     0.123 C 
ATOM     11  C   UNL     1       1.178   0.233  -0.992  1.00  0.00     0.032 C 
ATOM     12  C   UNL     1       0.144   0.068   0.136  1.00  0.00     0.096 C 
ATOM     13  N   UNL     1      -0.467  -1.283   0.075  1.00  0.00    -0.339 N 
ATOM     14  C   UNL     1      -2.270   0.186  -0.276  1.00  0.00     0.039 C 
ATOM     15  C   UNL     1      -1.753  -1.192  -0.595  1.00  0.00     0.121 C 
BRANCH  13  16
ATOM     16  C   UNL     1      -0.044  -2.546   0.433  1.00  0.00     0.226 C 
ATOM     17  O   UNL     1      -0.784  -3.511   0.170  1.00  0.00    -0.275 OA
BRANCH  16  18
ATOM     18  C   UNL     1       1.268  -2.905   1.147  1.00  0.00     0.083 C 
ATOM     19  C   UNL     1       2.556  -2.714   0.348  1.00  0.00     0.040 C 
ATOM     20  C   UNL     1       1.367  -2.526   2.625  1.00  0.00     0.018 C 
ATOM     21  C   UNL     1       3.393  -1.561   0.797  1.00  0.00    -0.030 C 
ATOM     22  C   UNL     1       2.078  -1.212   2.909  1.00  0.00     0.028 C 
ATOM     23  C   UNL     1       3.163  -0.893   1.931  1.00  0.00    -0.031 C 
ENDBRANCH  16  18
ENDBRANCH  13  16
ENDBRANCH   8  10
ENDBRANCH   7   8
ENDBRANCH   6   7
ENDBRANCH   5   6
ENDBRANCH   4   5
ENDBRANCH   3   4
ENDBRANCH   2   3
ENDBRANCH   1   2
BRANCH   1  24
ATOM     24  C   UNL     1       2.641   2.353   3.668  1.00  0.00     0.188 C 
BRANCH  24  25
ATOM     25  C   UNL     1       3.662   3.455   3.974  1.00  0.00     0.188 C 
BRANCH  25  26
ATOM     26  O   UNL     1       4.854   3.532   3.186  1.00  0.00    -0.376 OA
BRANCH  26  27
ATOM     27  C   UNL     1       5.286   2.392   2.451  1.00  0.00     0.202 C 
BRANCH  27  28
ATOM     28  C   UNL     1       6.097   1.355   3.234  1.00  0.00     0.261 C 
BRANCH  28  29
ATOM     29  O   UNL     1       5.337   0.725   4.279  1.00  0.00    -0.460 OA
BRANCH  29  30
ATOM     30  C   UNL     1       5.551   1.238   5.511  1.00  0.00     0.338 C 
ATOM     31  O   UNL     1       6.324   2.130   5.813  1.00  0.00    -0.246 OA
BRANCH  30  32
ATOM     32  C   UNL     1       4.614   0.651   6.488  1.00  0.00     0.060 A 
ATOM     33  C   UNL     1       4.016   1.528   7.400  1.00  0.00     0.016 A 
ATOM     34  C   UNL     1       4.437  -0.731   6.609  1.00  0.00     0.016 A 
ATOM     35  C   UNL     1       3.323   1.027   8.495  1.00  0.00     0.010 A 
ATOM     36  C   UNL     1       3.743  -1.235   7.715  1.00  0.00     0.010 A 
ATOM     37  C   UNL     1       3.243  -0.357   8.694  1.00  0.00    -0.014 A 
BRANCH  37  38
ATOM     38  C   UNL     1       2.849  -0.850  10.034  1.00  0.00     0.031 A 
ATOM     39  C   UNL     1       3.934  -1.219  11.012  1.00  0.00     0.074 A 
ATOM     40  C   UNL     1       1.559  -0.876  10.409  1.00  0.00     0.049 A 
ATOM     41  N   UNL     1       3.834  -1.618  12.254  1.00  0.00    -0.248 NA
ATOM     42  C   UNL     1       5.319  -1.118  10.524  1.00  0.00     0.031 C 
ATOM     43  C   UNL     1       0.427  -0.496   9.565  1.00  0.00     0.029 A 
ATOM     44  N   UNL     1       0.988  -1.229  11.604  1.00  0.00    -0.354 N 
ATOM     45  C   UNL     1       5.139  -1.817  12.692  1.00  0.00     0.074 A 
ATOM     46  C   UNL     1       6.011  -1.532  11.575  1.00  0.00     0.031 C 
ATOM     47  C   UNL     1      -0.707  -0.637  10.272  1.00  0.00     0.029 A 
ATOM     48  C   UNL     1      -0.381  -1.136  11.607  1.00  0.00     0.049 A 
ATOM     49  H   UNL     1       1.511  -1.520  12.386  1.00  0.00     0.167 HD
ATOM     50  C   UNL     1       5.573  -2.190  13.920  1.00  0.00     0.037 A 
ATOM     51  C   UNL     1      -1.267  -1.431  12.577  1.00  0.00     0.037 A 
ATOM     52  C   UNL     1       4.703  -2.470  15.031  1.00  0.00     0.049 A 
ATOM     53  C   UNL     1      -0.763  -1.902  13.915  1.00  0.00     0.074 A 
ATOM     54  C   UNL     1       5.040  -2.850  16.318  1.00  0.00     0.029 A 
ATOM     55  N   UNL     1       3.318  -2.405  14.982  1.00  0.00    -0.354 N 
ATOM     56  N   UNL     1       0.472  -2.068  14.325  1.00  0.00    -0.248 NA
ATOM     57  C   UNL     1      -1.778  -2.216  14.931  1.00  0.00     0.031 C 
ATOM     58  C   UNL     1       3.857  -3.060  17.035  1.00  0.00     0.029 A 
ATOM     59  C   UNL     1       2.785  -2.757  16.210  1.00  0.00     0.049 A 
ATOM     60  H   UNL     1       2.793  -2.145  14.191  1.00  0.00     0.167 HD
ATOM     61  C   UNL     1       0.384  -2.475  15.651  1.00  0.00     0.074 A 
ATOM     62  C   UNL     1      -1.026  -2.515  15.980  1.00  0.00     0.031 C 
ATOM     63  C   UNL     1       1.378  -2.786  16.520  1.00  0.00     0.037 A 
BRANCH  50  64
ATOM     64  C   UNL     1       7.054  -2.340  14.111  1.00  0.00     0.057 A 
ATOM     65  C   UNL     1       7.915  -1.234  14.148  1.00  0.00     0.134 A 
ATOM     66  C   UNL     1       7.626  -3.607  14.279  1.00  0.00     0.134 A 
ATOM     67  F   UNL     1       7.435   0.007  13.976  1.00  0.00    -0.206 F 
ATOM     68  C   UNL     1       9.293  -1.386  14.319  1.00  0.00     0.040 A 
ATOM     69  C   UNL     1       8.999  -3.770  14.477  1.00  0.00     0.040 A 
ATOM     70  F   UNL     1       6.861  -4.709  14.256  1.00  0.00    -0.206 F 
ATOM     71  C   UNL     1       9.837  -2.657  14.491  1.00  0.00     0.006 A 
ENDBRANCH  50  64
BRANCH  51  72
ATOM     72  C   UNL     1      -2.723  -1.292  12.322  1.00  0.00     0.057 A 
ATOM     73  C   UNL     1      -3.486  -0.312  12.967  1.00  0.00     0.134 A 
ATOM     74  C   UNL     1      -3.390  -2.151  11.440  1.00  0.00     0.134 A 
ATOM     75  F   UNL     1      -2.909   0.528  13.839  1.00  0.00    -0.206 F 
ATOM     76  C   UNL     1      -4.863  -0.205  12.761  1.00  0.00     0.040 A 
ATOM     77  C   UNL     1      -4.760  -2.039  11.205  1.00  0.00     0.040 A 
ATOM     78  F   UNL     1      -2.715  -3.110  10.789  1.00  0.00    -0.206 F 
ATOM     79  C   UNL     1      -5.503  -1.068  11.873  1.00  0.00     0.006 A 
ENDBRANCH  51  72
BRANCH  63  80
ATOM     80  C   UNL     1       0.974  -3.157  17.918  1.00  0.00     0.057 A 
ATOM     81  C   UNL     1       0.340  -4.371  18.210  1.00  0.00     0.134 A 
ATOM     82  C   UNL     1       1.245  -2.294  18.988  1.00  0.00     0.134 A 
ATOM     83  F   UNL     1       0.043  -5.237  17.230  1.00  0.00    -0.206 F 
ATOM     84  C   UNL     1      -0.040  -4.699  19.513  1.00  0.00     0.040 A 
ATOM     85  C   UNL     1       0.896  -2.624  20.298  1.00  0.00     0.040 A 
ATOM     86  F   UNL     1       1.861  -1.121  18.779  1.00  0.00    -0.206 F 
ATOM     87  C   UNL     1       0.242  -3.826  20.562  1.00  0.00     0.006 A 
ENDBRANCH  63  80
ENDBRANCH  37  38
ENDBRANCH  30  32
ENDBRANCH  29  30
ENDBRANCH  28  29
ENDBRANCH  27  28
ENDBRANCH  26  27
ENDBRANCH  25  26
ENDBRANCH  24  25
ENDBRANCH   1  24
TORSDOF 22
