REMARK SMILES CC(=O)c1nnn(-c2ccc(C(=O)OCCOCCOCCOCCOC(=O)c3ccc(-c4c5nc(c(-c6c(F)cccc6F)c6ccc([nH]6)c(-c6c(F)cccc6F)c6nc(c(-c7c(F)cccc7F)c7ccc4[nH]7)C=C6)C=C5)cc3)cc2)c1C
REMARK SMILES IDX 20 1 19 2 18 3 17 4 16 5 15 6 14 7 12 8 13 9 11 10 8 11 9 12
REMARK SMILES IDX 84 13 10 14 83 15 7 16 4 17 5 18 85 19 6 20 86 21 2 22 1 23
REMARK SMILES IDX 3 24 21 25 22 26 23 27 24 28 25 29 26 30 27 31 28 32 29 33
REMARK SMILES IDX 30 34 82 35 31 36 81 37 32 38 33 39 34 40 75 41 35 42 80 43
REMARK SMILES IDX 74 44 76 45 36 46 79 47 73 48 72 49 37 51 63 52 46 53 62 54
REMARK SMILES IDX 47 55 50 56 61 57 77 58 48 59 49 60 60 62 78 63 51 64 38 65
REMARK SMILES IDX 39 66 44 67 40 68 41 69 43 70 45 71 42 72 64 73 65 74 70 75
REMARK SMILES IDX 66 76 67 77 69 78 71 79 68 80 52 81 53 82 58 83 54 84 55 85
REMARK SMILES IDX 57 86 59 87 56 88
REMARK H PARENT 76 50 50 61
REMARK Flexibility Score: inf
ROOT
ATOM      1  O   UNL     1       7.470   6.776  -6.279  1.00  0.00    -0.377 OA
ENDROOT
BRANCH   1   2
ATOM      2  C   UNL     1       6.481   7.420  -5.487  1.00  0.00     0.188 C 
BRANCH   2   3
ATOM      3  C   UNL     1       6.906   8.398  -4.367  1.00  0.00     0.188 C 
BRANCH   3   4
ATOM      4  O   UNL     1       8.280   8.734  -4.401  1.00  0.00    -0.376 OA
BRANCH   4   5
ATOM      5  C   UNL     1       9.165   8.246  -3.421  1.00  0.00     0.202 C 
BRANCH   5   6
ATOM      6  C   UNL     1       9.246   6.739  -3.152  1.00  0.00     0.261 C 
BRANCH   6   7
ATOM      7  O   UNL     1       8.010   6.024  -3.194  1.00  0.00    -0.460 OA
BRANCH   7   8
ATOM      8  C   UNL     1       7.179   6.180  -2.144  1.00  0.00     0.338 C 
ATOM      9  O   UNL     1       7.378   6.846  -1.140  1.00  0.00    -0.246 OA
BRANCH   8  10
ATOM     10  C   UNL     1       5.889   5.542  -2.485  1.00  0.00     0.060 A 
ATOM     11  C   UNL     1       3.469   4.264  -2.877  1.00  0.00     0.067 A 
ATOM     12  C   UNL     1       3.465   5.556  -2.348  1.00  0.00     0.029 A 
ATOM     13  C   UNL     1       4.648   3.674  -3.354  1.00  0.00     0.029 A 
ATOM     14  C   UNL     1       4.692   6.183  -2.124  1.00  0.00     0.018 A 
ATOM     15  C   UNL     1       5.863   4.319  -3.164  1.00  0.00     0.018 A 
BRANCH  11  16
ATOM     16  N   UNL     1       2.340   3.445  -2.684  1.00  0.00    -0.217 N 
ATOM     17  C   UNL     1       0.997   1.843  -2.067  1.00  0.00     0.151 A 
ATOM     18  N   UNL     1       0.285   2.807  -2.746  1.00  0.00    -0.126 NA
ATOM     19  C   UNL     1       2.314   2.262  -1.957  1.00  0.00     0.073 A 
ATOM     20  N   UNL     1       1.093   3.826  -3.005  1.00  0.00    -0.061 NA
ATOM     21  C   UNL     1       3.507   1.750  -1.234  1.00  0.00     0.069 C 
BRANCH  17  22
ATOM     22  C   UNL     1       0.347   0.642  -1.554  1.00  0.00     0.181 C 
ATOM     23  C   UNL     1       0.762   0.104  -0.208  1.00  0.00     0.095 C 
ATOM     24  O   UNL     1      -0.533   0.067  -2.194  1.00  0.00    -0.293 OA
ENDBRANCH  17  22
ENDBRANCH  11  16
ENDBRANCH   8  10
ENDBRANCH   7   8
ENDBRANCH   6   7
ENDBRANCH   5   6
ENDBRANCH   4   5
ENDBRANCH   3   4
ENDBRANCH   2   3
ENDBRANCH   1   2
BRANCH   1  25
ATOM     25  C   UNL     1       8.557   7.522  -6.822  1.00  0.00     0.188 C 
BRANCH  25  26
ATOM     26  C   UNL     1       8.483   9.049  -7.112  1.00  0.00     0.188 C 
BRANCH  26  27
ATOM     27  O   UNL     1       7.323   9.710  -6.647  1.00  0.00    -0.376 OA
BRANCH  27  28
ATOM     28  C   UNL     1       6.300  10.208  -7.480  1.00  0.00     0.202 C 
BRANCH  28  29
ATOM     29  C   UNL     1       5.626   9.306  -8.506  1.00  0.00     0.261 C 
BRANCH  29  30
ATOM     30  O   UNL     1       6.436   8.245  -8.959  1.00  0.00    -0.460 OA
BRANCH  30  31
ATOM     31  C   UNL     1       7.359   8.602  -9.861  1.00  0.00     0.338 C 
ATOM     32  O   UNL     1       7.653   9.744 -10.213  1.00  0.00    -0.246 OA
BRANCH  31  33
ATOM     33  C   UNL     1       7.914   7.385 -10.447  1.00  0.00     0.060 A 
ATOM     34  C   UNL     1       8.930   7.569 -11.381  1.00  0.00     0.016 A 
ATOM     35  C   UNL     1       7.179   6.190 -10.348  1.00  0.00     0.016 A 
ATOM     36  C   UNL     1       8.973   6.693 -12.432  1.00  0.00     0.010 A 
ATOM     37  C   UNL     1       7.227   5.313 -11.397  1.00  0.00     0.010 A 
ATOM     38  C   UNL     1       8.024   5.662 -12.478  1.00  0.00    -0.014 A 
BRANCH  38  39
ATOM     39  C   UNL     1       7.852   4.993 -13.741  1.00  0.00     0.031 A 
ATOM     40  C   UNL     1       8.993   4.141 -14.103  1.00  0.00     0.074 A 
ATOM     41  C   UNL     1       6.751   5.158 -14.496  1.00  0.00     0.049 A 
ATOM     42  N   UNL     1       9.887   4.377 -15.002  1.00  0.00    -0.248 NA
ATOM     43  C   UNL     1       9.277   2.991 -13.237  1.00  0.00     0.031 C 
ATOM     44  C   UNL     1       5.467   5.776 -14.155  1.00  0.00     0.029 A 
ATOM     45  N   UNL     1       6.552   4.718 -15.762  1.00  0.00    -0.354 N 
ATOM     46  C   UNL     1      10.752   3.295 -14.949  1.00  0.00     0.074 A 
ATOM     47  C   UNL     1      10.433   2.567 -13.747  1.00  0.00     0.031 C 
ATOM     48  C   UNL     1       4.557   5.461 -15.108  1.00  0.00     0.029 A 
ATOM     49  C   UNL     1       5.233   4.756 -16.184  1.00  0.00     0.049 A 
ATOM     50  H   UNL     1       7.285   4.397 -16.336  1.00  0.00     0.167 HD
ATOM     51  C   UNL     1      11.504   2.949 -16.024  1.00  0.00     0.037 A 
ATOM     52  C   UNL     1       4.757   4.160 -17.304  1.00  0.00     0.037 A 
ATOM     53  C   UNL     1      11.603   4.021 -16.980  1.00  0.00     0.049 A 
ATOM     54  C   UNL     1       5.913   3.945 -18.216  1.00  0.00     0.074 A 
ATOM     55  C   UNL     1      12.122   5.302 -16.949  1.00  0.00     0.029 A 
ATOM     56  N   UNL     1      10.778   3.982 -18.078  1.00  0.00    -0.354 N 
ATOM     57  N   UNL     1       6.562   4.917 -18.797  1.00  0.00    -0.248 NA
ATOM     58  C   UNL     1       6.648   2.692 -18.097  1.00  0.00     0.031 C 
ATOM     59  C   UNL     1      11.223   6.087 -17.729  1.00  0.00     0.029 A 
ATOM     60  C   UNL     1      10.236   5.234 -18.225  1.00  0.00     0.049 A 
ATOM     61  H   UNL     1      10.607   3.201 -18.652  1.00  0.00     0.167 HD
ATOM     62  C   UNL     1       7.899   4.544 -18.735  1.00  0.00     0.074 A 
ATOM     63  C   UNL     1       7.883   3.132 -18.360  1.00  0.00     0.031 C 
ATOM     64  C   UNL     1       8.896   5.478 -18.709  1.00  0.00     0.037 A 
BRANCH  51  65
ATOM     65  C   UNL     1      11.818   1.523 -16.369  1.00  0.00     0.057 A 
ATOM     66  C   UNL     1      12.790   1.249 -17.342  1.00  0.00     0.134 A 
ATOM     67  C   UNL     1      11.004   0.433 -15.995  1.00  0.00     0.134 A 
ATOM     68  F   UNL     1      13.605   2.215 -17.791  1.00  0.00    -0.206 F 
ATOM     69  C   UNL     1      12.903  -0.009 -17.943  1.00  0.00     0.040 A 
ATOM     70  C   UNL     1      11.144  -0.838 -16.549  1.00  0.00     0.040 A 
ATOM     71  F   UNL     1       9.968   0.566 -15.156  1.00  0.00    -0.206 F 
ATOM     72  C   UNL     1      12.075  -1.055 -17.551  1.00  0.00     0.006 A 
ENDBRANCH  51  65
BRANCH  52  73
ATOM     73  C   UNL     1       3.485   3.417 -17.439  1.00  0.00     0.057 A 
ATOM     74  C   UNL     1       2.963   3.091 -18.697  1.00  0.00     0.134 A 
ATOM     75  C   UNL     1       2.894   2.768 -16.338  1.00  0.00     0.134 A 
ATOM     76  F   UNL     1       3.493   3.621 -19.809  1.00  0.00    -0.206 F 
ATOM     77  C   UNL     1       1.925   2.162 -18.855  1.00  0.00     0.040 A 
ATOM     78  C   UNL     1       1.856   1.843 -16.480  1.00  0.00     0.040 A 
ATOM     79  F   UNL     1       3.367   2.941 -15.095  1.00  0.00    -0.206 F 
ATOM     80  C   UNL     1       1.375   1.527 -17.744  1.00  0.00     0.006 A 
ENDBRANCH  52  73
BRANCH  64  81
ATOM     81  C   UNL     1       8.512   6.911 -18.961  1.00  0.00     0.057 A 
ATOM     82  C   UNL     1       7.686   7.659 -18.107  1.00  0.00     0.134 A 
ATOM     83  C   UNL     1       9.110   7.599 -20.021  1.00  0.00     0.134 A 
ATOM     84  F   UNL     1       7.154   7.113 -17.007  1.00  0.00    -0.206 F 
ATOM     85  C   UNL     1       7.428   9.016 -18.328  1.00  0.00     0.040 A 
ATOM     86  C   UNL     1       8.886   8.961 -20.235  1.00  0.00     0.040 A 
ATOM     87  F   UNL     1       9.962   6.965 -20.842  1.00  0.00    -0.206 F 
ATOM     88  C   UNL     1       8.034   9.672 -19.394  1.00  0.00     0.006 A 
ENDBRANCH  64  81
ENDBRANCH  38  39
ENDBRANCH  31  33
ENDBRANCH  30  31
ENDBRANCH  29  30
ENDBRANCH  28  29
ENDBRANCH  27  28
ENDBRANCH  26  27
ENDBRANCH  25  26
ENDBRANCH   1  25
TORSDOF 22
