REMARK SMILES CC1(C)Oc2ccc(NC(=O)[C@H]3CC=CC[C@@H]3C(=O)OCCOCCOCCOCCOC(=O)c3ccc(-c4c5nc(c(-c6c(F)cccc6F)c6ccc([nH]6)c(-c6c(F)cccc6F)c6nc(c(-c7c(F)cccc7F)c7ccc4[nH]7)C=C6)C=C5)cc3)cc2NC1=O
REMARK SMILES IDX 26 1 25 2 24 3 23 4 22 5 21 6 20 7 18 8 19 9 17 10 12 11
REMARK SMILES IDX 13 12 14 13 16 14 15 15 10 16 9 17 11 19 8 20 1 21 2 22 3 23
REMARK SMILES IDX 4 24 92 25 5 26 91 27 93 28 6 29 90 30 7 32 89 33 27 34
REMARK SMILES IDX 28 35 29 36 30 37 31 38 32 39 33 40 34 41 35 42 36 43 88 44
REMARK SMILES IDX 37 45 87 46 38 47 39 48 40 49 81 50 41 51 86 52 80 53 82 54
REMARK SMILES IDX 42 55 85 56 79 57 78 58 43 60 69 61 52 62 68 63 53 64 56 65
REMARK SMILES IDX 67 66 83 67 54 68 55 69 66 71 84 72 57 73 44 74 45 75 50 76
REMARK SMILES IDX 46 77 47 78 49 79 51 80 48 81 70 82 71 83 76 84 72 85 73 86
REMARK SMILES IDX 75 87 77 88 74 89 58 90 59 91 64 92 60 93 61 94 63 95 65 96
REMARK SMILES IDX 62 97
REMARK H PARENT 9 18 91 31 82 59 56 70
REMARK Flexibility Score: inf
ROOT
ATOM      1  O   UNL     1       3.791  -5.049  -3.391  1.00  0.00    -0.377 OA
ENDROOT
BRANCH   1   2
ATOM      2  C   UNL     1       2.582  -4.936  -2.666  1.00  0.00     0.188 C 
BRANCH   2   3
ATOM      3  C   UNL     1       2.182  -6.113  -1.759  1.00  0.00     0.188 C 
BRANCH   3   4
ATOM      4  O   UNL     1       3.277  -6.956  -1.436  1.00  0.00    -0.376 OA
BRANCH   4   5
ATOM      5  C   UNL     1       3.214  -8.304  -1.868  1.00  0.00     0.202 C 
BRANCH   5   6
ATOM      6  C   UNL     1       3.279  -8.574  -3.380  1.00  0.00     0.261 C 
BRANCH   6   7
ATOM      7  O   UNL     1       2.612  -7.618  -4.214  1.00  0.00    -0.463 OA
BRANCH   7   8
ATOM      8  C   UNL     1       1.283  -7.778  -4.416  1.00  0.00     0.310 C 
ATOM      9  O   UNL     1       0.615  -8.657  -3.885  1.00  0.00    -0.252 OA
BRANCH   8  10
ATOM     10  C   UNL     1       0.695  -6.622  -5.232  1.00  0.00     0.116 C 
ATOM     11  C   UNL     1      -0.686  -7.019  -5.775  1.00  0.00     0.097 C 
ATOM     12  C   UNL     1      -0.472  -8.129  -6.848  1.00  0.00     0.041 C 
ATOM     13  C   UNL     1       0.709  -7.890  -7.760  1.00  0.00    -0.030 C 
ATOM     14  C   UNL     1       1.623  -6.081  -6.324  1.00  0.00     0.043 C 
ATOM     15  C   UNL     1       1.639  -6.950  -7.538  1.00  0.00    -0.030 C 
BRANCH  11  16
ATOM     16  C   UNL     1      -1.535  -5.872  -6.342  1.00  0.00     0.228 C 
ATOM     17  N   UNL     1      -1.817  -4.690  -5.726  1.00  0.00    -0.326 N 
ATOM     18  H   UNL     1      -2.364  -4.111  -6.305  1.00  0.00     0.169 HD
ATOM     19  O   UNL     1      -2.059  -5.983  -7.461  1.00  0.00    -0.274 OA
BRANCH  17  20
ATOM     20  C   UNL     1      -1.547  -4.066  -4.499  1.00  0.00     0.043 A 
ATOM     21  C   UNL     1       0.409   0.107  -0.117  1.00  0.00     0.067 C 
ATOM     22  C   UNL     1       0.201  -0.498  -1.509  1.00  0.00     0.182 C 
ATOM     23  C   UNL     1       1.460  -0.201  -2.348  1.00  0.00     0.067 C 
ATOM     24  O   UNL     1       0.040  -1.912  -1.306  1.00  0.00    -0.476 OA
ATOM     25  C   UNL     1      -0.967   0.188  -2.250  1.00  0.00     0.268 C 
ATOM     26  C   UNL     1      -0.606  -2.573  -2.316  1.00  0.00     0.144 A 
ATOM     27  N   UNL     1      -1.464  -0.551  -3.298  1.00  0.00    -0.319 N 
ATOM     28  O   UNL     1      -1.347   1.337  -2.042  1.00  0.00    -0.270 OA
ATOM     29  C   UNL     1      -0.655  -3.962  -2.251  1.00  0.00     0.051 A 
ATOM     30  C   UNL     1      -1.235  -1.928  -3.375  1.00  0.00     0.086 A 
ATOM     31  H   UNL     1      -1.987  -0.105  -4.003  1.00  0.00     0.170 HD
ATOM     32  C   UNL     1      -1.151  -4.710  -3.332  1.00  0.00     0.030 A 
ATOM     33  C   UNL     1      -1.689  -2.666  -4.470  1.00  0.00     0.056 A 
ENDBRANCH  17  20
ENDBRANCH  11  16
ENDBRANCH   8  10
ENDBRANCH   7   8
ENDBRANCH   6   7
ENDBRANCH   5   6
ENDBRANCH   4   5
ENDBRANCH   3   4
ENDBRANCH   2   3
ENDBRANCH   1   2
BRANCH   1  34
ATOM     34  C   UNL     1       5.003  -5.244  -2.669  1.00  0.00     0.188 C 
BRANCH  34  35
ATOM     35  C   UNL     1       5.136  -4.867  -1.172  1.00  0.00     0.188 C 
BRANCH  35  36
ATOM     36  O   UNL     1       4.143  -3.990  -0.661  1.00  0.00    -0.376 OA
BRANCH  36  37
ATOM     37  C   UNL     1       4.518  -2.630  -0.491  1.00  0.00     0.202 C 
BRANCH  37  38
ATOM     38  C   UNL     1       4.718  -1.850  -1.795  1.00  0.00     0.261 C 
BRANCH  38  39
ATOM     39  O   UNL     1       5.795  -2.289  -2.628  1.00  0.00    -0.460 OA
BRANCH  39  40
ATOM     40  C   UNL     1       7.040  -2.318  -2.108  1.00  0.00     0.338 C 
ATOM     41  O   UNL     1       7.398  -1.965  -1.001  1.00  0.00    -0.246 OA
BRANCH  40  42
ATOM     42  C   UNL     1       7.856  -3.075  -3.074  1.00  0.00     0.060 A 
ATOM     43  C   UNL     1       7.905  -2.669  -4.411  1.00  0.00     0.016 A 
ATOM     44  C   UNL     1       8.481  -4.256  -2.658  1.00  0.00     0.016 A 
ATOM     45  C   UNL     1       8.612  -3.436  -5.333  1.00  0.00     0.010 A 
ATOM     46  C   UNL     1       9.168  -5.035  -3.587  1.00  0.00     0.010 A 
ATOM     47  C   UNL     1       9.261  -4.612  -4.922  1.00  0.00    -0.014 A 
BRANCH  47  48
ATOM     48  C   UNL     1      10.228  -5.266  -5.828  1.00  0.00     0.031 A 
ATOM     49  C   UNL     1       9.879  -6.468  -6.644  1.00  0.00     0.074 A 
ATOM     50  C   UNL     1      11.466  -4.741  -5.868  1.00  0.00     0.049 A 
ATOM     51  N   UNL     1      10.630  -7.122  -7.495  1.00  0.00    -0.248 NA
ATOM     52  C   UNL     1       8.524  -7.012  -6.488  1.00  0.00     0.031 C 
ATOM     53  C   UNL     1      11.908  -3.578  -5.093  1.00  0.00     0.029 A 
ATOM     54  N   UNL     1      12.576  -5.114  -6.575  1.00  0.00    -0.354 N 
ATOM     55  C   UNL     1       9.836  -8.143  -7.996  1.00  0.00     0.074 A 
ATOM     56  C   UNL     1       8.556  -8.046  -7.321  1.00  0.00     0.031 C 
ATOM     57  C   UNL     1      13.197  -3.334  -5.367  1.00  0.00     0.029 A 
ATOM     58  C   UNL     1      13.674  -4.334  -6.314  1.00  0.00     0.049 A 
ATOM     59  H   UNL     1      12.586  -5.868  -7.209  1.00  0.00     0.167 HD
ATOM     60  C   UNL     1      10.152  -9.064  -8.940  1.00  0.00     0.037 A 
ATOM     61  C   UNL     1      14.932  -4.424  -6.777  1.00  0.00     0.037 A 
ATOM     62  C   UNL     1      11.441  -9.163  -9.581  1.00  0.00     0.049 A 
ATOM     63  C   UNL     1      15.270  -5.505  -7.760  1.00  0.00     0.074 A 
ATOM     64  C   UNL     1      11.841 -10.024 -10.590  1.00  0.00     0.029 A 
ATOM     65  N   UNL     1      12.549  -8.391  -9.258  1.00  0.00    -0.354 N 
ATOM     66  N   UNL     1      14.486  -6.409  -8.295  1.00  0.00    -0.248 NA
ATOM     67  C   UNL     1      16.668  -5.577  -8.203  1.00  0.00     0.031 C 
ATOM     68  C   UNL     1      13.204  -9.813 -10.834  1.00  0.00     0.029 A 
ATOM     69  C   UNL     1      13.642  -8.787 -10.014  1.00  0.00     0.049 A 
ATOM     70  H   UNL     1      12.556  -7.667  -8.591  1.00  0.00     0.167 HD
ATOM     71  C   UNL     1      15.292  -7.150  -9.147  1.00  0.00     0.074 A 
ATOM     72  C   UNL     1      16.619  -6.572  -9.077  1.00  0.00     0.031 C 
ATOM     73  C   UNL     1      14.963  -8.217  -9.915  1.00  0.00     0.037 A 
BRANCH  60  74
ATOM     74  C   UNL     1       9.088 -10.046  -9.337  1.00  0.00     0.057 A 
ATOM     75  C   UNL     1       9.206 -11.404  -9.014  1.00  0.00     0.134 A 
ATOM     76  C   UNL     1       7.975  -9.659 -10.095  1.00  0.00     0.134 A 
ATOM     77  F   UNL     1      10.253 -11.846  -8.300  1.00  0.00    -0.206 F 
ATOM     78  C   UNL     1       8.258 -12.341  -9.431  1.00  0.00     0.040 A 
ATOM     79  C   UNL     1       7.008 -10.583 -10.498  1.00  0.00     0.040 A 
ATOM     80  F   UNL     1       7.799  -8.374 -10.438  1.00  0.00    -0.206 F 
ATOM     81  C   UNL     1       7.152 -11.930 -10.171  1.00  0.00     0.006 A 
ENDBRANCH  60  74
BRANCH  61  82
ATOM     82  C   UNL     1      15.960  -3.464  -6.312  1.00  0.00     0.057 A 
ATOM     83  C   UNL     1      16.440  -3.490  -4.997  1.00  0.00     0.134 A 
ATOM     84  C   UNL     1      16.487  -2.499  -7.176  1.00  0.00     0.134 A 
ATOM     85  F   UNL     1      15.964  -4.386  -4.120  1.00  0.00    -0.206 F 
ATOM     86  C   UNL     1      17.407  -2.587  -4.556  1.00  0.00     0.040 A 
ATOM     87  C   UNL     1      17.473  -1.606  -6.756  1.00  0.00     0.040 A 
ATOM     88  F   UNL     1      16.073  -2.435  -8.450  1.00  0.00    -0.206 F 
ATOM     89  C   UNL     1      17.932  -1.647  -5.440  1.00  0.00     0.006 A 
ENDBRANCH  61  82
BRANCH  73  90
ATOM     90  C   UNL     1      16.066  -8.824 -10.732  1.00  0.00     0.057 A 
ATOM     91  C   UNL     1      16.101  -8.670 -12.123  1.00  0.00     0.134 A 
ATOM     92  C   UNL     1      17.097  -9.564 -10.137  1.00  0.00     0.134 A 
ATOM     93  F   UNL     1      15.144  -7.975 -12.756  1.00  0.00    -0.206 F 
ATOM     94  C   UNL     1      17.120  -9.233 -12.894  1.00  0.00     0.040 A 
ATOM     95  C   UNL     1      18.135 -10.108 -10.894  1.00  0.00     0.040 A 
ATOM     96  F   UNL     1      17.134  -9.729  -8.806  1.00  0.00    -0.206 F 
ATOM     97  C   UNL     1      18.145  -9.948 -12.278  1.00  0.00     0.006 A 
ENDBRANCH  73  90
ENDBRANCH  47  48
ENDBRANCH  40  42
ENDBRANCH  39  40
ENDBRANCH  38  39
ENDBRANCH  37  38
ENDBRANCH  36  37
ENDBRANCH  35  36
ENDBRANCH  34  35
ENDBRANCH   1  34
TORSDOF 22
