REMARK SMILES CC[C@@H](C)[C@H](NC(=O)[C@H](C)N1C(=O)N2CCC3=c4cc(OC)ccc4=N[C@@H]3[C@@]2(C)C1=O)C(=O)OCCOCCOCCOCCOC(=O)c1ccc(-c2c3nc(c(-c4c(F)cccc4F)c4ccc([nH]4)c(-c4c(F)cccc4F)c4nc(c(-c5c(F)cccc5F)c5ccc2[nH]5)C=C4)C=C3)cc1
REMARK SMILES IDX 39 1 38 2 37 3 36 4 35 5 34 6 32 7 33 8 5 9 3 10 4 11 2 12
REMARK SMILES IDX 1 13 6 14 7 15 8 17 9 18 10 19 11 20 12 21 30 22 14 23 13 24
REMARK SMILES IDX 28 25 31 26 15 27 27 28 29 29 16 30 17 31 26 32 18 33 25 34
REMARK SMILES IDX 19 35 24 36 20 37 23 38 21 39 22 40 40 41 41 42 42 43 43 44
REMARK SMILES IDX 44 45 45 46 46 47 47 48 48 49 49 50 50 51 102 52 51 53
REMARK SMILES IDX 101 54 52 55 53 56 54 57 95 58 55 59 100 60 94 61 96 62
REMARK SMILES IDX 56 63 99 64 93 65 92 66 57 68 83 69 66 70 82 71 67 72 70 73
REMARK SMILES IDX 81 74 97 75 68 76 69 77 80 79 98 80 71 81 58 82 59 83 64 84
REMARK SMILES IDX 60 85 61 86 63 87 65 88 62 89 84 90 85 91 90 92 86 93 87 94
REMARK SMILES IDX 89 95 91 96 88 97 72 98 73 99 78 100 74 101 75 102 77 103
REMARK SMILES IDX 79 104 76 105
REMARK H PARENT 6 16 96 67 70 78
REMARK Flexibility Score: inf
ROOT
ATOM      1  C   UNL     1       1.075  -0.954  -0.194  1.00  0.00     0.188 C 
ENDROOT
BRANCH   1   2
ATOM      2  C   UNL     1       2.485  -1.414  -0.606  1.00  0.00     0.188 C 
BRANCH   2   3
ATOM      3  O   UNL     1       3.260  -0.619  -1.501  1.00  0.00    -0.376 OA
BRANCH   3   4
ATOM      4  C   UNL     1       2.562   0.219  -2.408  1.00  0.00     0.202 C 
BRANCH   4   5
ATOM      5  C   UNL     1       1.802  -0.501  -3.519  1.00  0.00     0.261 C 
BRANCH   5   6
ATOM      6  O   UNL     1       1.118  -1.661  -3.024  1.00  0.00    -0.462 OA
BRANCH   6   7
ATOM      7  C   UNL     1       1.370  -2.848  -3.636  1.00  0.00     0.328 C 
ATOM      8  O   UNL     1       2.115  -2.992  -4.596  1.00  0.00    -0.250 OA
BRANCH   7   9
ATOM      9  C   UNL     1       0.359  -3.913  -3.168  1.00  0.00     0.195 C 
BRANCH   9  10
ATOM     10  C   UNL     1      -0.883  -3.718  -4.164  1.00  0.00     0.019 C 
ATOM     11  C   UNL     1      -1.501  -2.304  -4.169  1.00  0.00     0.010 C 
BRANCH  10  12
ATOM     12  C   UNL     1      -1.997  -4.768  -4.020  1.00  0.00     0.002 C 
ATOM     13  C   UNL     1      -2.911  -4.869  -5.247  1.00  0.00     0.004 C 
ENDBRANCH  10  12
ENDBRANCH   9  10
BRANCH   9  14
ATOM     14  N   UNL     1       0.016  -3.883  -1.700  1.00  0.00    -0.341 N 
ATOM     15  C   UNL     1       0.459  -4.275  -0.461  1.00  0.00     0.243 C 
ATOM     16  H   UNL     1      -0.839  -3.408  -1.589  1.00  0.00     0.164 HD
ATOM     17  O   UNL     1      -0.214  -3.693   0.417  1.00  0.00    -0.273 OA
BRANCH  15  18
ATOM     18  C   UNL     1       1.716  -5.235   0.084  1.00  0.00     0.181 C 
ATOM     19  C   UNL     1       2.913  -4.458   0.607  1.00  0.00     0.042 C 
BRANCH  18  20
ATOM     20  N   UNL     1       1.999  -6.527  -0.584  1.00  0.00    -0.250 N 
ATOM     21  C   UNL     1       2.019  -7.850  -0.075  1.00  0.00     0.328 C 
ATOM     22  C   UNL     1       1.205  -6.717  -1.622  1.00  0.00     0.259 C 
ATOM     23  N   UNL     1       0.913  -8.612  -0.830  1.00  0.00    -0.307 N 
ATOM     24  O   UNL     1       2.590  -8.269   0.923  1.00  0.00    -0.248 OA
ATOM     25  C   UNL     1       0.033  -7.523  -1.105  1.00  0.00     0.147 C 
ATOM     26  O   UNL     1       1.624  -6.645  -2.772  1.00  0.00    -0.271 OA
ATOM     27  C   UNL     1       0.133  -9.846  -0.401  1.00  0.00     0.127 C 
ATOM     28  C   UNL     1      -0.536  -7.477   0.408  1.00  0.00     0.168 C 
ATOM     29  C   UNL     1      -0.895  -7.736  -2.308  1.00  0.00     0.048 C 
ATOM     30  C   UNL     1      -1.541  -9.556  -0.122  1.00  0.00     0.055 C 
ATOM     31  C   UNL     1      -1.835  -8.192   0.517  1.00  0.00    -0.032 C 
ATOM     32  N   UNL     1      -0.558  -6.273   1.204  1.00  0.00    -0.274 NA
ATOM     33  C   UNL     1      -2.677  -7.223   0.916  1.00  0.00     0.005 A 
ATOM     34  C   UNL     1      -1.732  -6.386   1.698  1.00  0.00     0.066 A 
ATOM     35  C   UNL     1      -3.966  -6.583   0.754  1.00  0.00     0.056 A 
ATOM     36  C   UNL     1      -2.218  -5.745   2.918  1.00  0.00     0.032 A 
ATOM     37  C   UNL     1      -4.174  -5.491   1.549  1.00  0.00     0.119 A 
ATOM     38  C   UNL     1      -3.493  -5.368   2.833  1.00  0.00     0.048 A 
BRANCH  37  39
ATOM     39  O   UNL     1      -4.731  -4.315   1.065  1.00  0.00    -0.497 OA
ATOM     40  C   UNL     1      -3.909  -3.143   1.317  1.00  0.00     0.278 C 
ENDBRANCH  37  39
ENDBRANCH  18  20
ENDBRANCH  15  18
ENDBRANCH   9  14
ENDBRANCH   7   9
ENDBRANCH   6   7
ENDBRANCH   5   6
ENDBRANCH   4   5
ENDBRANCH   3   4
ENDBRANCH   2   3
ENDBRANCH   1   2
BRANCH   1  41
ATOM     41  O   UNL     1       1.004   0.387   0.269  1.00  0.00    -0.377 OA
BRANCH  41  42
ATOM     42  C   UNL     1       1.647   0.585   1.526  1.00  0.00     0.188 C 
BRANCH  42  43
ATOM     43  C   UNL     1       0.945  -0.173   2.651  1.00  0.00     0.188 C 
BRANCH  43  44
ATOM     44  O   UNL     1       1.524  -1.453   2.915  1.00  0.00    -0.376 OA
BRANCH  44  45
ATOM     45  C   UNL     1       0.634  -2.369   3.581  1.00  0.00     0.202 C 
BRANCH  45  46
ATOM     46  C   UNL     1       0.014  -1.873   4.900  1.00  0.00     0.261 C 
BRANCH  46  47
ATOM     47  O   UNL     1      -1.049  -0.938   4.612  1.00  0.00    -0.460 OA
BRANCH  47  48
ATOM     48  C   UNL     1      -0.905   0.303   5.137  1.00  0.00     0.338 C 
ATOM     49  O   UNL     1      -0.135   0.645   6.018  1.00  0.00    -0.246 OA
BRANCH  48  50
ATOM     50  C   UNL     1      -1.622   1.262   4.264  1.00  0.00     0.060 A 
ATOM     51  C   UNL     1      -2.912   1.010   3.788  1.00  0.00     0.016 A 
ATOM     52  C   UNL     1      -0.943   2.429   3.886  1.00  0.00     0.016 A 
ATOM     53  C   UNL     1      -3.548   1.965   2.991  1.00  0.00     0.010 A 
ATOM     54  C   UNL     1      -1.566   3.369   3.070  1.00  0.00     0.010 A 
ATOM     55  C   UNL     1      -2.891   3.165   2.662  1.00  0.00    -0.014 A 
BRANCH  55  56
ATOM     56  C   UNL     1      -3.661   4.326   2.164  1.00  0.00     0.031 A 
ATOM     57  C   UNL     1      -3.686   4.727   0.724  1.00  0.00     0.074 A 
ATOM     58  C   UNL     1      -4.284   5.072   3.096  1.00  0.00     0.049 A 
ATOM     59  N   UNL     1      -4.326   5.724   0.167  1.00  0.00    -0.248 NA
ATOM     60  C   UNL     1      -2.891   3.918  -0.209  1.00  0.00     0.031 C 
ATOM     61  C   UNL     1      -4.273   4.793   4.536  1.00  0.00     0.029 A 
ATOM     62  N   UNL     1      -5.022   6.219   2.986  1.00  0.00    -0.354 N 
ATOM     63  C   UNL     1      -4.034   5.655  -1.187  1.00  0.00     0.074 A 
ATOM     64  C   UNL     1      -3.125   4.538  -1.361  1.00  0.00     0.031 C 
ATOM     65  C   UNL     1      -4.965   5.745   5.175  1.00  0.00     0.029 A 
ATOM     66  C   UNL     1      -5.455   6.705   4.194  1.00  0.00     0.049 A 
ATOM     67  H   UNL     1      -5.222   6.653   2.125  1.00  0.00     0.167 HD
ATOM     68  C   UNL     1      -4.495   6.447  -2.186  1.00  0.00     0.037 A 
ATOM     69  C   UNL     1      -6.167   7.808   4.483  1.00  0.00     0.037 A 
ATOM     70  C   UNL     1      -5.368   7.580  -1.989  1.00  0.00     0.049 A 
ATOM     71  C   UNL     1      -6.625   8.688   3.362  1.00  0.00     0.074 A 
ATOM     72  C   UNL     1      -5.932   8.415  -2.940  1.00  0.00     0.029 A 
ATOM     73  N   UNL     1      -5.786   8.051  -0.752  1.00  0.00    -0.354 N 
ATOM     74  N   UNL     1      -6.424   8.553   2.074  1.00  0.00    -0.248 NA
ATOM     75  C   UNL     1      -7.419   9.865   3.734  1.00  0.00     0.031 C 
ATOM     76  C   UNL     1      -6.653   9.415  -2.276  1.00  0.00     0.029 A 
ATOM     77  C   UNL     1      -6.575   9.181  -0.913  1.00  0.00     0.049 A 
ATOM     78  H   UNL     1      -5.556   7.643   0.114  1.00  0.00     0.167 HD
ATOM     79  C   UNL     1      -7.084   9.616   1.477  1.00  0.00     0.074 A 
ATOM     80  C   UNL     1      -7.704  10.376   2.545  1.00  0.00     0.031 C 
ATOM     81  C   UNL     1      -7.170   9.933   0.162  1.00  0.00     0.037 A 
BRANCH  68  82
ATOM     82  C   UNL     1      -4.066   6.117  -3.587  1.00  0.00     0.057 A 
ATOM     83  C   UNL     1      -3.185   6.949  -4.289  1.00  0.00     0.134 A 
ATOM     84  C   UNL     1      -4.573   4.999  -4.262  1.00  0.00     0.134 A 
ATOM     85  F   UNL     1      -2.671   8.043  -3.706  1.00  0.00    -0.206 F 
ATOM     86  C   UNL     1      -2.824   6.681  -5.611  1.00  0.00     0.040 A 
ATOM     87  C   UNL     1      -4.204   4.710  -5.578  1.00  0.00     0.040 A 
ATOM     88  F   UNL     1      -5.418   4.159  -3.647  1.00  0.00    -0.206 F 
ATOM     89  C   UNL     1      -3.331   5.556  -6.258  1.00  0.00     0.006 A 
ENDBRANCH  68  82
BRANCH  69  90
ATOM     90  C   UNL     1      -6.512   8.110   5.891  1.00  0.00     0.057 A 
ATOM     91  C   UNL     1      -5.545   8.550   6.802  1.00  0.00     0.134 A 
ATOM     92  C   UNL     1      -7.818   7.941   6.361  1.00  0.00     0.134 A 
ATOM     93  F   UNL     1      -4.272   8.716   6.412  1.00  0.00    -0.206 F 
ATOM     94  C   UNL     1      -5.865   8.808   8.135  1.00  0.00     0.040 A 
ATOM     95  C   UNL     1      -8.157   8.215   7.686  1.00  0.00     0.040 A 
ATOM     96  F   UNL     1      -8.786   7.529   5.529  1.00  0.00    -0.206 F 
ATOM     97  C   UNL     1      -7.176   8.646   8.578  1.00  0.00     0.006 A 
ENDBRANCH  69  90
BRANCH  81  98
ATOM     98  C   UNL     1      -7.979  11.149  -0.178  1.00  0.00     0.057 A 
ATOM     99  C   UNL     1      -9.247  11.024  -0.759  1.00  0.00     0.134 A 
ATOM    100  C   UNL     1      -7.510  12.442   0.086  1.00  0.00     0.134 A 
ATOM    101  F   UNL     1      -9.753   9.813  -1.037  1.00  0.00    -0.206 F 
ATOM    102  C   UNL     1     -10.022  12.143  -1.062  1.00  0.00     0.040 A 
ATOM    103  C   UNL     1      -8.287  13.568  -0.190  1.00  0.00     0.040 A 
ATOM    104  F   UNL     1      -6.313  12.626   0.663  1.00  0.00    -0.206 F 
ATOM    105  C   UNL     1      -9.546  13.420  -0.769  1.00  0.00     0.006 A 
ENDBRANCH  81  98
ENDBRANCH  55  56
ENDBRANCH  48  50
ENDBRANCH  47  48
ENDBRANCH  46  47
ENDBRANCH  45  46
ENDBRANCH  44  45
ENDBRANCH  43  44
ENDBRANCH  42  43
ENDBRANCH  41  42
ENDBRANCH   1  41
TORSDOF 26
