REMARK SMILES C[C@H](CS[C@H]1CCOC2(CCCCC2)C1)C(=O)OCCOCCOCCOCCOC(=O)c1ccc(-c2c3nc(c(-c4c(F)cccc4F)c4ccc([nH]4)c(-c4c(F)cccc4F)c4nc(c(-c5c(F)cccc5F)c5ccc2[nH]5)C=C4)C=C3)cc1
REMARK SMILES IDX 23 1 22 2 21 3 20 4 19 5 18 6 16 7 17 8 2 9 1 10 3 11 4 12
REMARK SMILES IDX 5 13 6 14 15 15 7 16 9 17 8 18 10 19 14 20 11 21 13 22 12 23
REMARK SMILES IDX 24 24 25 25 26 26 27 27 28 28 29 29 30 30 31 31 32 32 33 33
REMARK SMILES IDX 34 34 86 35 35 36 85 37 36 38 37 39 38 40 79 41 39 42 84 43
REMARK SMILES IDX 78 44 80 45 40 46 83 47 77 48 76 49 41 51 67 52 50 53 66 54
REMARK SMILES IDX 51 55 54 56 65 57 81 58 52 59 53 60 64 62 82 63 55 64 42 65
REMARK SMILES IDX 43 66 48 67 44 68 45 69 47 70 49 71 46 72 68 73 69 74 74 75
REMARK SMILES IDX 70 76 71 77 73 78 75 79 72 80 56 81 57 82 62 83 58 84 59 85
REMARK SMILES IDX 61 86 63 87 60 88
REMARK H PARENT 80 50 54 61
REMARK Flexibility Score: inf
ROOT
ATOM      1  C   UNL     1      -2.188   2.537   0.168  1.00  0.00     0.188 C 
ENDROOT
BRANCH   1   2
ATOM      2  C   UNL     1      -2.785   1.711  -0.970  1.00  0.00     0.188 C 
BRANCH   2   3
ATOM      3  O   UNL     1      -3.738   0.725  -0.599  1.00  0.00    -0.376 OA
BRANCH   3   4
ATOM      4  C   UNL     1      -3.234  -0.526  -0.118  1.00  0.00     0.202 C 
BRANCH   4   5
ATOM      5  C   UNL     1      -1.931  -1.046  -0.736  1.00  0.00     0.261 C 
BRANCH   5   6
ATOM      6  O   UNL     1      -0.795  -0.338  -0.189  1.00  0.00    -0.463 OA
BRANCH   6   7
ATOM      7  C   UNL     1       0.397  -0.646  -0.746  1.00  0.00     0.309 C 
ATOM      8  O   UNL     1       0.519  -1.415  -1.694  1.00  0.00    -0.252 OA
BRANCH   7   9
ATOM      9  C   UNL     1       1.592   0.057  -0.107  1.00  0.00     0.106 C 
ATOM     10  C   UNL     1       2.761  -0.910   0.059  1.00  0.00     0.021 C 
BRANCH   9  11
ATOM     11  C   UNL     1       1.365   1.012   1.077  1.00  0.00     0.084 C 
BRANCH  11  12
ATOM     12  S   UNL     1       1.373   0.784   2.908  1.00  0.00    -0.158 SA
BRANCH  12  13
ATOM     13  C   UNL     1       0.769  -0.882   3.387  1.00  0.00     0.052 C 
ATOM     14  C   UNL     1      -0.178  -0.736   4.591  1.00  0.00     0.043 C 
ATOM     15  C   UNL     1       0.092  -1.741   2.347  1.00  0.00     0.050 C 
ATOM     16  C   UNL     1      -0.789  -2.066   5.034  1.00  0.00     0.162 C 
ATOM     17  C   UNL     1      -0.318  -3.110   2.915  1.00  0.00     0.069 C 
ATOM     18  O   UNL     1      -1.266  -2.877   3.963  1.00  0.00    -0.375 OA
ATOM     19  C   UNL     1       0.893  -3.936   3.409  1.00  0.00     0.035 C 
ATOM     20  C   UNL     1      -1.050  -3.886   1.797  1.00  0.00     0.035 C 
ATOM     21  C   UNL     1       0.500  -5.352   3.823  1.00  0.00     0.003 C 
ATOM     22  C   UNL     1      -1.385  -5.329   2.169  1.00  0.00     0.003 C 
ATOM     23  C   UNL     1      -0.162  -6.087   2.667  1.00  0.00     0.000 C 
ENDBRANCH  12  13
ENDBRANCH  11  12
ENDBRANCH   9  11
ENDBRANCH   7   9
ENDBRANCH   6   7
ENDBRANCH   5   6
ENDBRANCH   4   5
ENDBRANCH   3   4
ENDBRANCH   2   3
ENDBRANCH   1   2
BRANCH   1  24
ATOM     24  O   UNL     1      -1.789   1.801   1.313  1.00  0.00    -0.377 OA
BRANCH  24  25
ATOM     25  C   UNL     1      -2.626   1.778   2.466  1.00  0.00     0.188 C 
BRANCH  25  26
ATOM     26  C   UNL     1      -3.794   2.760   2.563  1.00  0.00     0.188 C 
BRANCH  26  27
ATOM     27  O   UNL     1      -3.503   4.154   2.441  1.00  0.00    -0.376 OA
BRANCH  27  28
ATOM     28  C   UNL     1      -2.242   4.639   2.894  1.00  0.00     0.202 C 
BRANCH  28  29
ATOM     29  C   UNL     1      -2.210   4.999   4.375  1.00  0.00     0.261 C 
BRANCH  29  30
ATOM     30  O   UNL     1      -1.985   3.840   5.196  1.00  0.00    -0.460 OA
BRANCH  30  31
ATOM     31  C   UNL     1      -3.081   3.339   5.799  1.00  0.00     0.338 C 
ATOM     32  O   UNL     1      -4.236   3.728   5.678  1.00  0.00    -0.246 OA
BRANCH  31  33
ATOM     33  C   UNL     1      -2.726   2.195   6.656  1.00  0.00     0.060 A 
ATOM     34  C   UNL     1      -3.642   1.141   6.752  1.00  0.00     0.016 A 
ATOM     35  C   UNL     1      -1.601   2.237   7.486  1.00  0.00     0.016 A 
ATOM     36  C   UNL     1      -3.493   0.183   7.752  1.00  0.00     0.010 A 
ATOM     37  C   UNL     1      -1.451   1.275   8.487  1.00  0.00     0.010 A 
ATOM     38  C   UNL     1      -2.434   0.287   8.664  1.00  0.00    -0.014 A 
BRANCH  38  39
ATOM     39  C   UNL     1      -2.478  -0.504   9.916  1.00  0.00     0.031 A 
ATOM     40  C   UNL     1      -3.010   0.146  11.164  1.00  0.00     0.074 A 
ATOM     41  C   UNL     1      -2.094  -1.791   9.936  1.00  0.00     0.049 A 
ATOM     42  N   UNL     1      -3.166  -0.359  12.360  1.00  0.00    -0.248 NA
ATOM     43  C   UNL     1      -3.415   1.557  11.049  1.00  0.00     0.031 C 
ATOM     44  C   UNL     1      -1.586  -2.529   8.786  1.00  0.00     0.029 A 
ATOM     45  N   UNL     1      -2.076  -2.705  10.956  1.00  0.00    -0.354 N 
ATOM     46  C   UNL     1      -3.680   0.669  13.139  1.00  0.00     0.074 A 
ATOM     47  C   UNL     1      -3.778   1.837  12.291  1.00  0.00     0.031 C 
ATOM     48  C   UNL     1      -1.313  -3.790   9.156  1.00  0.00     0.029 A 
ATOM     49  C   UNL     1      -1.603  -3.937  10.579  1.00  0.00     0.049 A 
ATOM     50  H   UNL     1      -2.373  -2.498  11.872  1.00  0.00     0.167 HD
ATOM     51  C   UNL     1      -4.048   0.639  14.441  1.00  0.00     0.037 A 
ATOM     52  C   UNL     1      -1.420  -5.055  11.306  1.00  0.00     0.037 A 
ATOM     53  C   UNL     1      -3.956  -0.528  15.278  1.00  0.00     0.049 A 
ATOM     54  C   UNL     1      -1.795  -5.050  12.761  1.00  0.00     0.074 A 
ATOM     55  C   UNL     1      -4.332  -0.673  16.602  1.00  0.00     0.029 A 
ATOM     56  N   UNL     1      -3.445  -1.751  14.870  1.00  0.00    -0.354 N 
ATOM     57  N   UNL     1      -2.318  -4.084  13.478  1.00  0.00    -0.248 NA
ATOM     58  C   UNL     1      -1.560  -6.293  13.508  1.00  0.00     0.031 C 
ATOM     59  C   UNL     1      -4.008  -1.972  17.007  1.00  0.00     0.029 A 
ATOM     60  C   UNL     1      -3.473  -2.650  15.923  1.00  0.00     0.049 A 
ATOM     61  H   UNL     1      -3.111  -1.950  13.966  1.00  0.00     0.167 HD
ATOM     62  C   UNL     1      -2.507  -4.611  14.748  1.00  0.00     0.074 A 
ATOM     63  C   UNL     1      -2.048  -5.985  14.701  1.00  0.00     0.031 C 
ATOM     64  C   UNL     1      -3.019  -4.015  15.853  1.00  0.00     0.037 A 
BRANCH  51  65
ATOM     65  C   UNL     1      -4.560   1.915  15.041  1.00  0.00     0.057 A 
ATOM     66  C   UNL     1      -5.819   2.435  14.714  1.00  0.00     0.134 A 
ATOM     67  C   UNL     1      -3.789   2.625  15.970  1.00  0.00     0.134 A 
ATOM     68  F   UNL     1      -6.600   1.813  13.818  1.00  0.00    -0.206 F 
ATOM     69  C   UNL     1      -6.282   3.629  15.271  1.00  0.00     0.040 A 
ATOM     70  C   UNL     1      -4.251   3.806  16.552  1.00  0.00     0.040 A 
ATOM     71  F   UNL     1      -2.574   2.181  16.328  1.00  0.00    -0.206 F 
ATOM     72  C   UNL     1      -5.499   4.315  16.197  1.00  0.00     0.006 A 
ENDBRANCH  51  65
BRANCH  52  73
ATOM     73  C   UNL     1      -0.872  -6.276  10.666  1.00  0.00     0.057 A 
ATOM     74  C   UNL     1      -1.672  -7.404  10.458  1.00  0.00     0.134 A 
ATOM     75  C   UNL     1       0.465  -6.347  10.256  1.00  0.00     0.134 A 
ATOM     76  F   UNL     1      -2.956  -7.402  10.846  1.00  0.00    -0.206 F 
ATOM     77  C   UNL     1      -1.160  -8.567   9.882  1.00  0.00     0.040 A 
ATOM     78  C   UNL     1       0.985  -7.496   9.659  1.00  0.00     0.040 A 
ATOM     79  F   UNL     1       1.282  -5.296  10.424  1.00  0.00    -0.206 F 
ATOM     80  C   UNL     1       0.173  -8.613   9.476  1.00  0.00     0.006 A 
ENDBRANCH  52  73
BRANCH  64  81
ATOM     81  C   UNL     1      -3.148  -4.860  17.085  1.00  0.00     0.057 A 
ATOM     82  C   UNL     1      -2.033  -5.241  17.842  1.00  0.00     0.134 A 
ATOM     83  C   UNL     1      -4.408  -5.276  17.532  1.00  0.00     0.134 A 
ATOM     84  F   UNL     1      -0.797  -4.885  17.459  1.00  0.00    -0.206 F 
ATOM     85  C   UNL     1      -2.165  -6.028  18.987  1.00  0.00     0.040 A 
ATOM     86  C   UNL     1      -4.555  -6.042  18.689  1.00  0.00     0.040 A 
ATOM     87  F   UNL     1      -5.517  -4.938  16.857  1.00  0.00    -0.206 F 
ATOM     88  C   UNL     1      -3.430  -6.426  19.416  1.00  0.00     0.006 A 
ENDBRANCH  64  81
ENDBRANCH  38  39
ENDBRANCH  31  33
ENDBRANCH  30  31
ENDBRANCH  29  30
ENDBRANCH  28  29
ENDBRANCH  27  28
ENDBRANCH  26  27
ENDBRANCH  25  26
ENDBRANCH  24  25
ENDBRANCH   1  24
TORSDOF 23
