REMARK SMILES COc1ccc(N2C(=O)/C(=C\c3ccc(-c4ccc(Cl)c(C(=O)OCCOCCOCCOCCOC(=O)c5ccc(-c6c7nc(c(-c8c(F)cccc8F)c8ccc([nH]8)c(-c8c(F)cccc8F)c8nc(c(-c9c(F)cccc9F)c9ccc6[nH]9)C=C8)C=C7)cc5)c4)o3)SC2=S)cc1
REMARK SMILES IDX 29 1 28 2 27 3 26 4 25 5 24 6 22 7 23 8 21 9 16 10 17 11
REMARK SMILES IDX 93 12 18 13 19 14 20 15 15 16 12 17 13 18 94 19 14 20 11 21
REMARK SMILES IDX 7 22 8 23 96 24 9 25 10 26 95 27 97 28 6 29 3 30 4 31 99 32
REMARK SMILES IDX 5 33 98 34 2 35 1 36 30 37 31 38 32 39 33 40 34 41 35 42
REMARK SMILES IDX 36 43 37 44 38 45 39 46 40 47 92 48 41 49 91 50 42 51 43 52
REMARK SMILES IDX 44 53 85 54 45 55 90 56 84 57 86 58 46 59 89 60 83 61 82 62
REMARK SMILES IDX 47 64 73 65 56 66 72 67 57 68 60 69 71 70 87 71 58 72 59 73
REMARK SMILES IDX 70 75 88 76 61 77 48 78 49 79 54 80 50 81 51 82 53 83 55 84
REMARK SMILES IDX 52 85 74 86 75 87 80 88 76 89 77 90 79 91 81 92 78 93 62 94
REMARK SMILES IDX 63 95 68 96 64 97 65 98 67 99 69 100 66 101
REMARK H PARENT 86 63 60 74
REMARK Flexibility Score: inf
ROOT
ATOM      1  C   UNL     1      -2.450 -13.753   7.462  1.00  0.00     0.188 C 
ENDROOT
BRANCH   1   2
ATOM      2  C   UNL     1      -3.660 -14.569   6.979  1.00  0.00     0.188 C 
BRANCH   2   3
ATOM      3  O   UNL     1      -3.320 -15.671   6.139  1.00  0.00    -0.376 OA
BRANCH   3   4
ATOM      4  C   UNL     1      -3.715 -15.548   4.777  1.00  0.00     0.202 C 
BRANCH   4   5
ATOM      5  C   UNL     1      -2.797 -14.641   3.957  1.00  0.00     0.261 C 
BRANCH   5   6
ATOM      6  O   UNL     1      -2.764 -13.287   4.431  1.00  0.00    -0.460 OA
BRANCH   6   7
ATOM      7  C   UNL     1      -3.870 -12.527   4.254  1.00  0.00     0.339 C 
ATOM      8  O   UNL     1      -4.882 -12.843   3.658  1.00  0.00    -0.246 OA
BRANCH   7   9
ATOM      9  C   UNL     1      -3.644 -11.278   5.017  1.00  0.00     0.079 A 
ATOM     10  C   UNL     1      -2.068  -9.518   5.643  1.00  0.00     0.018 A 
ATOM     11  C   UNL     1      -2.990  -9.055   6.587  1.00  0.00     0.013 A 
ATOM     12  C   UNL     1      -2.405 -10.635   4.869  1.00  0.00     0.029 A 
ATOM     13  C   UNL     1      -4.236  -9.679   6.729  1.00  0.00     0.022 A 
ATOM     14  C   UNL     1      -4.572 -10.785   5.939  1.00  0.00     0.055 A 
ATOM     15  Cl  UNL     1      -6.110 -11.517   6.216  1.00  0.00    -0.083 Cl
BRANCH  10  16
ATOM     16  C   UNL     1      -0.798  -8.848   5.411  1.00  0.00     0.134 A 
ATOM     17  C   UNL     1       0.926  -7.591   6.015  1.00  0.00     0.128 A 
ATOM     18  C   UNL     1       1.096  -7.935   4.679  1.00  0.00     0.051 A 
ATOM     19  O   UNL     1      -0.231  -8.188   6.461  1.00  0.00    -0.457 OA
ATOM     20  C   UNL     1      -0.002  -8.728   4.295  1.00  0.00     0.051 A 
BRANCH  17  21
ATOM     21  C   UNL     1       1.776  -6.795   6.827  1.00  0.00     0.068 C 
ATOM     22  N   UNL     1       2.101  -3.474   5.341  1.00  0.00    -0.261 N 
ATOM     23  C   UNL     1       1.389  -4.659   5.507  1.00  0.00     0.270 C 
ATOM     24  C   UNL     1       3.153  -3.257   6.216  1.00  0.00     0.152 C 
ATOM     25  O   UNL     1       0.382  -4.995   4.897  1.00  0.00    -0.268 OA
ATOM     26  C   UNL     1       2.035  -5.509   6.550  1.00  0.00     0.084 C 
ATOM     27  S   UNL     1       3.275  -4.614   7.343  1.00  0.00    -0.054 SA
ATOM     28  S   UNL     1       4.165  -1.934   6.371  1.00  0.00    -0.051 S 
BRANCH  22  29
ATOM     29  C   UNL     1       1.695  -2.569   4.316  1.00  0.00     0.051 A 
ATOM     30  C   UNL     1       0.834  -0.893   2.221  1.00  0.00     0.119 A 
ATOM     31  C   UNL     1      -0.068  -1.336   3.187  1.00  0.00     0.048 A 
ATOM     32  C   UNL     1       2.173  -1.272   2.312  1.00  0.00     0.048 A 
ATOM     33  C   UNL     1       0.352  -2.184   4.213  1.00  0.00     0.030 A 
ATOM     34  C   UNL     1       2.603  -2.101   3.358  1.00  0.00     0.030 A 
BRANCH  30  35
ATOM     35  O   UNL     1       0.303  -0.075   1.264  1.00  0.00    -0.497 OA
ATOM     36  C   UNL     1       0.963  -0.086   0.004  1.00  0.00     0.278 C 
ENDBRANCH  30  35
ENDBRANCH  22  29
ENDBRANCH  17  21
ENDBRANCH  10  16
ENDBRANCH   7   9
ENDBRANCH   6   7
ENDBRANCH   5   6
ENDBRANCH   4   5
ENDBRANCH   3   4
ENDBRANCH   2   3
ENDBRANCH   1   2
BRANCH   1  37
ATOM     37  O   UNL     1      -1.172 -14.159   7.004  1.00  0.00    -0.377 OA
BRANCH  37  38
ATOM     38  C   UNL     1      -0.720 -15.482   7.275  1.00  0.00     0.188 C 
BRANCH  38  39
ATOM     39  C   UNL     1      -1.448 -16.415   8.267  1.00  0.00     0.188 C 
BRANCH  39  40
ATOM     40  O   UNL     1      -2.161 -15.752   9.303  1.00  0.00    -0.376 OA
BRANCH  40  41
ATOM     41  C   UNL     1      -1.613 -15.850  10.610  1.00  0.00     0.202 C 
BRANCH  41  42
ATOM     42  C   UNL     1      -0.426 -14.910  10.838  1.00  0.00     0.261 C 
BRANCH  42  43
ATOM     43  O   UNL     1       0.733 -15.215  10.046  1.00  0.00    -0.460 OA
BRANCH  43  44
ATOM     44  C   UNL     1       1.299 -16.426  10.238  1.00  0.00     0.338 C 
ATOM     45  O   UNL     1       0.975 -17.279  11.043  1.00  0.00    -0.246 OA
BRANCH  44  46
ATOM     46  C   UNL     1       2.297 -16.628   9.173  1.00  0.00     0.060 A 
ATOM     47  C   UNL     1       2.181 -17.749   8.343  1.00  0.00     0.016 A 
ATOM     48  C   UNL     1       3.342 -15.717   9.004  1.00  0.00     0.016 A 
ATOM     49  C   UNL     1       3.141 -17.983   7.359  1.00  0.00     0.010 A 
ATOM     50  C   UNL     1       4.310 -15.961   8.030  1.00  0.00     0.010 A 
ATOM     51  C   UNL     1       4.232 -17.112   7.228  1.00  0.00    -0.014 A 
BRANCH  51  52
ATOM     52  C   UNL     1       5.389 -17.503   6.391  1.00  0.00     0.031 A 
ATOM     53  C   UNL     1       6.548 -18.190   7.057  1.00  0.00     0.074 A 
ATOM     54  C   UNL     1       5.413 -17.253   5.070  1.00  0.00     0.049 A 
ATOM     55  N   UNL     1       7.682 -18.591   6.543  1.00  0.00    -0.248 NA
ATOM     56  C   UNL     1       6.411 -18.456   8.499  1.00  0.00     0.031 C 
ATOM     57  C   UNL     1       4.344 -16.609   4.309  1.00  0.00     0.029 A 
ATOM     58  N   UNL     1       6.389 -17.503   4.139  1.00  0.00    -0.354 N 
ATOM     59  C   UNL     1       8.393 -19.152   7.597  1.00  0.00     0.074 A 
ATOM     60  C   UNL     1       7.577 -19.017   8.783  1.00  0.00     0.031 C 
ATOM     61  C   UNL     1       4.732 -16.498   3.026  1.00  0.00     0.029 A 
ATOM     62  C   UNL     1       6.082 -17.042   2.883  1.00  0.00     0.049 A 
ATOM     63  H   UNL     1       7.229 -17.969   4.351  1.00  0.00     0.167 HD
ATOM     64  C   UNL     1       9.614 -19.734   7.576  1.00  0.00     0.037 A 
ATOM     65  C   UNL     1       6.818 -17.043   1.755  1.00  0.00     0.037 A 
ATOM     66  C   UNL     1      10.426 -19.869   6.397  1.00  0.00     0.049 A 
ATOM     67  C   UNL     1       8.196 -17.654   1.770  1.00  0.00     0.074 A 
ATOM     68  C   UNL     1      11.664 -20.474   6.269  1.00  0.00     0.029 A 
ATOM     69  N   UNL     1      10.084 -19.383   5.146  1.00  0.00    -0.354 N 
ATOM     70  N   UNL     1       8.838 -18.227   2.759  1.00  0.00    -0.248 NA
ATOM     71  C   UNL     1       8.950 -17.623   0.507  1.00  0.00     0.031 C 
ATOM     72  C   UNL     1      12.092 -20.314   4.948  1.00  0.00     0.029 A 
ATOM     73  C   UNL     1      11.099 -19.651   4.244  1.00  0.00     0.049 A 
ATOM     74  H   UNL     1       9.244 -18.917   4.930  1.00  0.00     0.167 HD
ATOM     75  C   UNL     1      10.054 -18.647   2.233  1.00  0.00     0.074 A 
ATOM     76  C   UNL     1      10.056 -18.276   0.835  1.00  0.00     0.031 C 
ATOM     77  C   UNL     1      11.079 -19.283   2.852  1.00  0.00     0.037 A 
BRANCH  64  78
ATOM     78  C   UNL     1      10.154 -20.253   8.873  1.00  0.00     0.057 A 
ATOM     79  C   UNL     1       9.660 -21.422   9.464  1.00  0.00     0.134 A 
ATOM     80  C   UNL     1      11.211 -19.597   9.516  1.00  0.00     0.134 A 
ATOM     81  F   UNL     1       8.636 -22.086   8.906  1.00  0.00    -0.206 F 
ATOM     82  C   UNL     1      10.190 -21.914  10.658  1.00  0.00     0.040 A 
ATOM     83  C   UNL     1      11.764 -20.091  10.698  1.00  0.00     0.040 A 
ATOM     84  F   UNL     1      11.729 -18.471   9.001  1.00  0.00    -0.206 F 
ATOM     85  C   UNL     1      11.251 -21.253  11.273  1.00  0.00     0.006 A 
ENDBRANCH  64  78
BRANCH  65  86
ATOM     86  C   UNL     1       6.285 -16.430   0.512  1.00  0.00     0.057 A 
ATOM     87  C   UNL     1       5.960 -17.211  -0.603  1.00  0.00     0.134 A 
ATOM     88  C   UNL     1       6.136 -15.043   0.394  1.00  0.00     0.134 A 
ATOM     89  F   UNL     1       6.107 -18.543  -0.561  1.00  0.00    -0.206 F 
ATOM     90  C   UNL     1       5.528 -16.633  -1.799  1.00  0.00     0.040 A 
ATOM     91  C   UNL     1       5.682 -14.454  -0.787  1.00  0.00     0.040 A 
ATOM     92  F   UNL     1       6.433 -14.239   1.425  1.00  0.00    -0.206 F 
ATOM     93  C   UNL     1       5.386 -15.250  -1.892  1.00  0.00     0.006 A 
ENDBRANCH  65  86
BRANCH  77  94
ATOM     94  C   UNL     1      12.271 -19.648   2.016  1.00  0.00     0.057 A 
ATOM     95  C   UNL     1      13.185 -18.686   1.571  1.00  0.00     0.134 A 
ATOM     96  C   UNL     1      12.529 -20.986   1.690  1.00  0.00     0.134 A 
ATOM     97  F   UNL     1      12.988 -17.386   1.840  1.00  0.00    -0.206 F 
ATOM     98  C   UNL     1      14.303 -19.038   0.813  1.00  0.00     0.040 A 
ATOM     99  C   UNL     1      13.656 -21.354   0.955  1.00  0.00     0.040 A 
ATOM    100  F   UNL     1      11.698 -21.959   2.095  1.00  0.00    -0.206 F 
ATOM    101  C   UNL     1      14.544 -20.377   0.509  1.00  0.00     0.006 A 
ENDBRANCH  77  94
ENDBRANCH  51  52
ENDBRANCH  44  46
ENDBRANCH  43  44
ENDBRANCH  42  43
ENDBRANCH  41  42
ENDBRANCH  40  41
ENDBRANCH  39  40
ENDBRANCH  38  39
ENDBRANCH  37  38
ENDBRANCH   1  37
TORSDOF 24
