REMARK SMILES CC(C)CN(C)c1cc2c(cc1Cl)C=C(C(=O)OCCOCCOCCOCCOC(=O)c1ccc(-c3c4nc(c(-c5c(F)cccc5F)c5ccc([nH]5)c(-c5c(F)cccc5F)c5nc(c(-c6c(F)cccc6F)c6ccc3[nH]6)C=C5)C=C4)cc1)[C@@H](C(F)(F)F)O2
REMARK SMILES IDX 23 1 22 2 21 3 20 4 19 5 18 6 16 7 17 8 15 9 7 10 8 11 12 12
REMARK SMILES IDX 9 13 11 14 13 15 10 16 92 17 14 18 87 19 5 20 6 21 4 22 2 23
REMARK SMILES IDX 1 24 3 25 88 26 89 27 90 28 91 29 24 30 25 31 26 32 27 33
REMARK SMILES IDX 28 34 29 35 30 36 31 37 32 38 33 39 34 40 86 41 35 42 85 43
REMARK SMILES IDX 36 44 37 45 38 46 79 47 39 48 84 49 78 50 80 51 40 52 83 53
REMARK SMILES IDX 77 54 76 55 41 57 67 58 50 59 66 60 51 61 54 62 65 63 81 64
REMARK SMILES IDX 52 65 53 66 64 68 82 69 55 70 42 71 43 72 48 73 44 74 45 75
REMARK SMILES IDX 47 76 49 77 46 78 68 79 69 80 74 81 70 82 71 83 73 84 75 85
REMARK SMILES IDX 72 86 56 87 57 88 62 89 58 90 59 91 61 92 63 93 60 94
REMARK H PARENT 80 56 54 67
REMARK Flexibility Score: inf
ROOT
ATOM      1  C   UNL     1      -0.568  -7.396   1.329  1.00  0.00     0.188 C 
ENDROOT
BRANCH   1   2
ATOM      2  C   UNL     1       0.804  -7.678   1.968  1.00  0.00     0.188 C 
BRANCH   2   3
ATOM      3  O   UNL     1       0.861  -8.944   2.619  1.00  0.00    -0.376 OA
BRANCH   3   4
ATOM      4  C   UNL     1       0.764  -8.967   4.037  1.00  0.00     0.202 C 
BRANCH   4   5
ATOM      5  C   UNL     1      -0.552  -8.497   4.684  1.00  0.00     0.261 C 
BRANCH   5   6
ATOM      6  O   UNL     1      -1.002  -7.191   4.292  1.00  0.00    -0.460 OA
BRANCH   6   7
ATOM      7  C   UNL     1      -0.246  -6.152   4.688  1.00  0.00     0.338 C 
ATOM      8  O   UNL     1       0.721  -6.206   5.429  1.00  0.00    -0.246 OA
BRANCH   7   9
ATOM      9  C   UNL     1      -0.666  -4.940   3.954  1.00  0.00     0.087 C 
ATOM     10  C   UNL     1      -0.778  -0.367   1.838  1.00  0.00     0.059 A 
ATOM     11  C   UNL     1      -1.718  -1.415   1.958  1.00  0.00     0.074 A 
ATOM     12  C   UNL     1       0.511  -0.594   2.365  1.00  0.00     0.065 A 
ATOM     13  C   UNL     1      -1.376  -2.632   2.567  1.00  0.00     0.130 A 
ATOM     14  C   UNL     1       0.881  -1.841   2.867  1.00  0.00     0.034 A 
ATOM     15  Cl  UNL     1       1.692   0.663   2.523  1.00  0.00    -0.082 Cl
ATOM     16  C   UNL     1      -0.064  -2.855   2.979  1.00  0.00     0.019 A 
ATOM     17  O   UNL     1      -2.364  -3.568   2.726  1.00  0.00    -0.475 OA
ATOM     18  C   UNL     1       0.318  -4.112   3.589  1.00  0.00     0.027 C 
ATOM     19  C   UNL     1      -2.120  -4.673   3.657  1.00  0.00     0.316 C 
BRANCH  10  20
ATOM     20  N   UNL     1      -1.125   0.854   1.248  1.00  0.00    -0.373 N 
ATOM     21  C   UNL     1      -2.197   1.594   1.905  1.00  0.00     0.143 C 
BRANCH  20  22
ATOM     22  C   UNL     1      -0.983   1.009  -0.215  1.00  0.00     0.119 C 
BRANCH  22  23
ATOM     23  C   UNL     1       0.485   1.176  -0.665  1.00  0.00     0.002 C 
ATOM     24  C   UNL     1       1.119  -0.161  -1.061  1.00  0.00     0.009 C 
ATOM     25  C   UNL     1       0.618   2.151  -1.838  1.00  0.00     0.009 C 
ENDBRANCH  22  23
ENDBRANCH  20  22
ENDBRANCH  10  20
BRANCH  19  26
ATOM     26  C   UNL     1      -2.913  -4.466   4.955  1.00  0.00     0.430 C 
ATOM     27  F   UNL     1      -4.214  -4.187   4.709  1.00  0.00    -0.167 F 
ATOM     28  F   UNL     1      -2.893  -5.579   5.730  1.00  0.00    -0.167 F 
ATOM     29  F   UNL     1      -2.413  -3.453   5.699  1.00  0.00    -0.167 F 
ENDBRANCH  19  26
ENDBRANCH   7   9
ENDBRANCH   6   7
ENDBRANCH   5   6
ENDBRANCH   4   5
ENDBRANCH   3   4
ENDBRANCH   2   3
ENDBRANCH   1   2
BRANCH   1  30
ATOM     30  O   UNL     1      -1.592  -8.260   1.795  1.00  0.00    -0.377 OA
BRANCH  30  31
ATOM     31  C   UNL     1      -1.663  -9.576   1.242  1.00  0.00     0.188 C 
BRANCH  31  32
ATOM     32  C   UNL     1      -0.477 -10.227   0.489  1.00  0.00     0.188 C 
BRANCH  32  33
ATOM     33  O   UNL     1       0.209  -9.347  -0.394  1.00  0.00    -0.376 OA
BRANCH  33  34
ATOM     34  C   UNL     1       0.040  -9.566  -1.787  1.00  0.00     0.202 C 
BRANCH  34  35
ATOM     35  C   UNL     1      -1.306  -9.080  -2.337  1.00  0.00     0.261 C 
BRANCH  35  36
ATOM     36  O   UNL     1      -2.462  -9.719  -1.776  1.00  0.00    -0.460 OA
BRANCH  36  37
ATOM     37  C   UNL     1      -2.576 -11.058  -1.919  1.00  0.00     0.338 C 
ATOM     38  O   UNL     1      -1.824 -11.806  -2.518  1.00  0.00    -0.246 OA
BRANCH  37  39
ATOM     39  C   UNL     1      -3.683 -11.495  -1.043  1.00  0.00     0.060 A 
ATOM     40  C   UNL     1      -4.919 -10.847  -1.101  1.00  0.00     0.016 A 
ATOM     41  C   UNL     1      -3.464 -12.529  -0.123  1.00  0.00     0.016 A 
ATOM     42  C   UNL     1      -5.950 -11.256  -0.258  1.00  0.00     0.010 A 
ATOM     43  C   UNL     1      -4.499 -12.935   0.724  1.00  0.00     0.010 A 
ATOM     44  C   UNL     1      -5.755 -12.316   0.643  1.00  0.00    -0.014 A 
BRANCH  44  45
ATOM     45  C   UNL     1      -6.926 -12.885   1.350  1.00  0.00     0.031 A 
ATOM     46  C   UNL     1      -7.217 -12.592   2.787  1.00  0.00     0.074 A 
ATOM     47  C   UNL     1      -7.745 -13.688   0.646  1.00  0.00     0.049 A 
ATOM     48  N   UNL     1      -8.271 -12.918   3.493  1.00  0.00    -0.248 NA
ATOM     49  C   UNL     1      -6.193 -11.850   3.531  1.00  0.00     0.031 C 
ATOM     50  C   UNL     1      -7.534 -14.083  -0.748  1.00  0.00     0.029 A 
ATOM     51  N   UNL     1      -8.915 -14.307   0.999  1.00  0.00    -0.354 N 
ATOM     52  C   UNL     1      -8.054 -12.399   4.762  1.00  0.00     0.074 A 
ATOM     53  C   UNL     1      -6.739 -11.786   4.739  1.00  0.00     0.031 C 
ATOM     54  C   UNL     1      -8.553 -14.860  -1.140  1.00  0.00     0.029 A 
ATOM     55  C   UNL     1      -9.476 -15.030  -0.023  1.00  0.00     0.049 A 
ATOM     56  H   UNL     1      -9.314 -14.239   1.896  1.00  0.00     0.167 HD
ATOM     57  C   UNL     1      -8.882 -12.420   5.836  1.00  0.00     0.037 A 
ATOM     58  C   UNL     1     -10.614 -15.746  -0.060  1.00  0.00     0.037 A 
ATOM     59  C   UNL     1     -10.171 -13.071   5.859  1.00  0.00     0.049 A 
ATOM     60  C   UNL     1     -11.497 -15.786   1.151  1.00  0.00     0.074 A 
ATOM     61  C   UNL     1     -11.103 -13.111   6.883  1.00  0.00     0.029 A 
ATOM     62  N   UNL     1     -10.699 -13.823   4.818  1.00  0.00    -0.354 N 
ATOM     63  N   UNL     1     -11.332 -15.203   2.313  1.00  0.00    -0.248 NA
ATOM     64  C   UNL     1     -12.731 -16.573   1.040  1.00  0.00     0.031 C 
ATOM     65  C   UNL     1     -12.165 -13.932   6.482  1.00  0.00     0.029 A 
ATOM     66  C   UNL     1     -11.924 -14.360   5.187  1.00  0.00     0.049 A 
ATOM     67  H   UNL     1     -10.266 -13.955   3.943  1.00  0.00     0.167 HD
ATOM     68  C   UNL     1     -12.448 -15.537   3.068  1.00  0.00     0.074 A 
ATOM     69  C   UNL     1     -13.293 -16.355   2.220  1.00  0.00     0.031 C 
ATOM     70  C   UNL     1     -12.747 -15.195   4.346  1.00  0.00     0.037 A 
BRANCH  57  71
ATOM     71  C   UNL     1      -8.405 -11.724   7.080  1.00  0.00     0.057 A 
ATOM     72  C   UNL     1      -8.082 -12.448   8.234  1.00  0.00     0.134 A 
ATOM     73  C   UNL     1      -8.274 -10.329   7.139  1.00  0.00     0.134 A 
ATOM     74  F   UNL     1      -8.197 -13.784   8.255  1.00  0.00    -0.206 F 
ATOM     75  C   UNL     1      -7.633 -11.814   9.394  1.00  0.00     0.040 A 
ATOM     76  C   UNL     1      -7.798  -9.685   8.284  1.00  0.00     0.040 A 
ATOM     77  F   UNL     1      -8.563  -9.573   6.069  1.00  0.00    -0.206 F 
ATOM     78  C   UNL     1      -7.478 -10.429   9.417  1.00  0.00     0.006 A 
ENDBRANCH  57  71
BRANCH  58  79
ATOM     79  C   UNL     1     -10.987 -16.454  -1.308  1.00  0.00     0.057 A 
ATOM     80  C   UNL     1     -10.274 -17.576  -1.746  1.00  0.00     0.134 A 
ATOM     81  C   UNL     1     -12.048 -16.009  -2.102  1.00  0.00     0.134 A 
ATOM     82  F   UNL     1      -9.237 -18.041  -1.033  1.00  0.00    -0.206 F 
ATOM     83  C   UNL     1     -10.595 -18.224  -2.938  1.00  0.00     0.040 A 
ATOM     84  C   UNL     1     -12.397 -16.663  -3.284  1.00  0.00     0.040 A 
ATOM     85  F   UNL     1     -12.774 -14.946  -1.726  1.00  0.00    -0.206 F 
ATOM     86  C   UNL     1     -11.665 -17.771  -3.708  1.00  0.00     0.006 A 
ENDBRANCH  58  79
BRANCH  70  87
ATOM     87  C   UNL     1     -14.049 -15.706   4.895  1.00  0.00     0.057 A 
ATOM     88  C   UNL     1     -15.119 -14.834   5.132  1.00  0.00     0.134 A 
ATOM     89  C   UNL     1     -14.248 -17.063   5.186  1.00  0.00     0.134 A 
ATOM     90  F   UNL     1     -14.997 -13.522   4.881  1.00  0.00    -0.206 F 
ATOM     91  C   UNL     1     -16.339 -15.292   5.633  1.00  0.00     0.040 A 
ATOM     92  C   UNL     1     -15.473 -17.538   5.659  1.00  0.00     0.040 A 
ATOM     93  F   UNL     1     -13.271 -17.956   4.965  1.00  0.00    -0.206 F 
ATOM     94  C   UNL     1     -16.522 -16.649   5.889  1.00  0.00     0.006 A 
ENDBRANCH  70  87
ENDBRANCH  44  45
ENDBRANCH  37  39
ENDBRANCH  36  37
ENDBRANCH  35  36
ENDBRANCH  34  35
ENDBRANCH  33  34
ENDBRANCH  32  33
ENDBRANCH  31  32
ENDBRANCH  30  31
ENDBRANCH   1  30
TORSDOF 24
