REMARK SMILES CC(C)(C)c1cc2c(cc1Cl)C=C(C(=O)NCCCCCCNC(=O)c1ccc(-c3c4nc(c(-c5ccccc5)c5ccc([nH]5)c(-c5ccccc5)c5nc(c(-c6ccccc6)c6ccc3[nH]6)C=C5)C=C4)cc1)[C@H](C(F)(F)F)O2
REMARK SMILES IDX 20 1 19 2 18 3 17 4 16 5 14 6 15 7 13 9 5 10 6 11 10 12 7 13
REMARK SMILES IDX 9 14 11 15 8 16 79 17 12 18 74 19 2 20 1 21 3 22 4 23 75 24
REMARK SMILES IDX 76 25 77 26 78 27 21 28 22 29 23 30 24 31 25 33 26 34 27 35
REMARK SMILES IDX 73 36 28 37 72 38 29 39 30 40 31 41 66 42 32 43 71 44 65 45
REMARK SMILES IDX 67 46 33 47 70 48 64 49 63 50 34 52 56 53 41 54 55 55 42 56
REMARK SMILES IDX 45 57 54 58 68 59 43 60 44 61 53 63 69 64 46 65 35 66 36 67
REMARK SMILES IDX 40 68 37 69 39 70 38 71 57 72 58 73 62 74 59 75 61 76 60 77
REMARK SMILES IDX 47 78 48 79 52 80 49 81 51 82 50 83
REMARK H PARENT 16 8 23 32 67 51 45 62
REMARK Flexibility Score: inf
ROOT
ATOM      1  C   UNL     1       4.498   1.318 -11.655  1.00  0.00     0.002 C 
ENDROOT
BRANCH   1   2
ATOM      2  C   UNL     1       5.299   0.413 -10.712  1.00  0.00     0.002 C 
BRANCH   2   3
ATOM      3  C   UNL     1       4.932   0.511  -9.230  1.00  0.00     0.021 C 
BRANCH   3   4
ATOM      4  C   UNL     1       3.472   0.196  -8.915  1.00  0.00     0.116 C 
BRANCH   4   5
ATOM      5  N   UNL     1       3.239  -1.234  -8.800  1.00  0.00    -0.352 N 
ATOM      6  C   UNL     1       2.845  -2.110  -7.846  1.00  0.00     0.251 C 
ATOM      7  O   UNL     1       2.768  -3.285  -8.219  1.00  0.00    -0.270 OA
ATOM      8  H   UNL     1       3.419  -1.693  -9.652  1.00  0.00     0.163 HD
BRANCH   6   9
ATOM      9  C   UNL     1       2.498  -1.764  -6.433  1.00  0.00     0.067 C 
ATOM     10  C   UNL     1       0.802  -1.890  -1.631  1.00  0.00    -0.020 A 
ATOM     11  C   UNL     1       1.239  -0.899  -2.534  1.00  0.00     0.053 A 
ATOM     12  C   UNL     1       0.753  -3.209  -2.143  1.00  0.00     0.045 A 
ATOM     13  C   UNL     1       1.628  -1.197  -3.840  1.00  0.00     0.128 A 
ATOM     14  C   UNL     1       1.154  -3.503  -3.463  1.00  0.00     0.032 A 
ATOM     15  Cl  UNL     1       0.152  -4.570  -1.262  1.00  0.00    -0.084 Cl
ATOM     16  C   UNL     1       1.593  -2.496  -4.318  1.00  0.00     0.019 A 
ATOM     17  O   UNL     1       1.982  -0.131  -4.609  1.00  0.00    -0.475 OA
ATOM     18  C   UNL     1       1.954  -2.758  -5.705  1.00  0.00     0.025 C 
ATOM     19  C   UNL     1       2.749  -0.423  -5.805  1.00  0.00     0.314 C 
BRANCH  10  20
ATOM     20  C   UNL     1       0.362  -1.461  -0.209  1.00  0.00    -0.012 C 
ATOM     21  C   UNL     1       0.803  -0.013   0.158  1.00  0.00     0.016 C 
ATOM     22  C   UNL     1       0.959  -2.347   0.906  1.00  0.00     0.016 C 
ATOM     23  C   UNL     1      -1.178  -1.481  -0.142  1.00  0.00     0.016 C 
ENDBRANCH  10  20
BRANCH  19  24
ATOM     24  C   UNL     1       4.236  -0.160  -5.519  1.00  0.00     0.429 C 
ATOM     25  F   UNL     1       4.635  -0.665  -4.330  1.00  0.00    -0.167 F 
ATOM     26  F   UNL     1       5.051  -0.685  -6.461  1.00  0.00    -0.167 F 
ATOM     27  F   UNL     1       4.484   1.175  -5.497  1.00  0.00    -0.167 F 
ENDBRANCH  19  24
ENDBRANCH   6   9
ENDBRANCH   4   5
ENDBRANCH   3   4
ENDBRANCH   2   3
ENDBRANCH   1   2
BRANCH   1  28
ATOM     28  C   UNL     1       4.376   2.780 -11.224  1.00  0.00     0.021 C 
BRANCH  28  29
ATOM     29  C   UNL     1       5.700   3.490 -10.973  1.00  0.00     0.116 C 
BRANCH  29  30
ATOM     30  N   UNL     1       6.512   3.605 -12.173  1.00  0.00    -0.352 N 
ATOM     31  C   UNL     1       7.045   4.730 -12.761  1.00  0.00     0.251 C 
ATOM     32  H   UNL     1       6.710   2.756 -12.631  1.00  0.00     0.163 HD
ATOM     33  O   UNL     1       7.579   4.666 -13.857  1.00  0.00    -0.269 OA
BRANCH  31  34
ATOM     34  C   UNL     1       6.935   6.030 -12.063  1.00  0.00     0.039 A 
ATOM     35  C   UNL     1       7.227   6.129 -10.703  1.00  0.00     0.014 A 
ATOM     36  C   UNL     1       6.508   7.155 -12.775  1.00  0.00     0.014 A 
ATOM     37  C   UNL     1       6.925   7.301 -10.021  1.00  0.00     0.010 A 
ATOM     38  C   UNL     1       6.296   8.363 -12.102  1.00  0.00     0.010 A 
ATOM     39  C   UNL     1       6.457   8.433 -10.711  1.00  0.00    -0.014 A 
BRANCH  39  40
ATOM     40  C   UNL     1       6.172   9.671  -9.940  1.00  0.00     0.031 A 
ATOM     41  C   UNL     1       4.776  10.219  -9.825  1.00  0.00     0.074 A 
ATOM     42  C   UNL     1       7.181  10.254  -9.262  1.00  0.00     0.049 A 
ATOM     43  N   UNL     1       4.343  11.209  -9.085  1.00  0.00    -0.248 NA
ATOM     44  C   UNL     1       3.729   9.583 -10.642  1.00  0.00     0.031 C 
ATOM     45  C   UNL     1       8.578   9.815  -9.297  1.00  0.00     0.029 A 
ATOM     46  N   UNL     1       7.183  11.300  -8.374  1.00  0.00    -0.354 N 
ATOM     47  C   UNL     1       2.984  11.322  -9.352  1.00  0.00     0.074 A 
ATOM     48  C   UNL     1       2.667  10.322 -10.348  1.00  0.00     0.031 C 
ATOM     49  C   UNL     1       9.283  10.525  -8.406  1.00  0.00     0.029 A 
ATOM     50  C   UNL     1       8.406  11.513  -7.785  1.00  0.00     0.049 A 
ATOM     51  H   UNL     1       6.386  11.845  -8.178  1.00  0.00     0.167 HD
ATOM     52  C   UNL     1       2.082  12.172  -8.808  1.00  0.00     0.031 A 
ATOM     53  C   UNL     1       8.787  12.397  -6.845  1.00  0.00     0.031 A 
ATOM     54  C   UNL     1       2.398  13.164  -7.812  1.00  0.00     0.049 A 
ATOM     55  C   UNL     1       7.771  13.345  -6.278  1.00  0.00     0.074 A 
ATOM     56  C   UNL     1       1.542  14.052  -7.184  1.00  0.00     0.029 A 
ATOM     57  N   UNL     1       3.665  13.402  -7.303  1.00  0.00    -0.354 N 
ATOM     58  N   UNL     1       6.486  13.417  -6.523  1.00  0.00    -0.248 NA
ATOM     59  C   UNL     1       8.258  14.333  -5.306  1.00  0.00     0.031 C 
ATOM     60  C   UNL     1       2.300  14.867  -6.340  1.00  0.00     0.029 A 
ATOM     61  C   UNL     1       3.618  14.443  -6.391  1.00  0.00     0.049 A 
ATOM     62  H   UNL     1       4.477  12.904  -7.552  1.00  0.00     0.167 HD
ATOM     63  C   UNL     1       6.009  14.458  -5.739  1.00  0.00     0.074 A 
ATOM     64  C   UNL     1       7.137  14.963  -4.983  1.00  0.00     0.031 C 
ATOM     65  C   UNL     1       4.751  14.956  -5.663  1.00  0.00     0.031 A 
BRANCH  52  66
ATOM     66  C   UNL     1       0.654  12.085  -9.276  1.00  0.00    -0.014 A 
ATOM     67  C   UNL     1       0.099  13.138 -10.021  1.00  0.00     0.009 A 
ATOM     68  C   UNL     1      -0.170  11.012  -8.901  1.00  0.00     0.009 A 
ATOM     69  C   UNL     1      -1.254  13.126 -10.369  1.00  0.00     0.001 A 
ATOM     70  C   UNL     1      -1.516  10.990  -9.274  1.00  0.00     0.001 A 
ATOM     71  C   UNL     1      -2.058  12.050  -9.999  1.00  0.00     0.000 A 
ENDBRANCH  52  66
BRANCH  53  72
ATOM     72  C   UNL     1      10.198  12.402  -6.379  1.00  0.00    -0.014 A 
ATOM     73  C   UNL     1      11.234  12.787  -7.247  1.00  0.00     0.009 A 
ATOM     74  C   UNL     1      10.524  11.967  -5.086  1.00  0.00     0.009 A 
ATOM     75  C   UNL     1      12.567  12.704  -6.842  1.00  0.00     0.001 A 
ATOM     76  C   UNL     1      11.857  11.917  -4.672  1.00  0.00     0.001 A 
ATOM     77  C   UNL     1      12.877  12.274  -5.554  1.00  0.00     0.000 A 
ENDBRANCH  53  72
BRANCH  65  78
ATOM     78  C   UNL     1       4.523  16.122  -4.742  1.00  0.00    -0.014 A 
ATOM     79  C   UNL     1       3.747  15.962  -3.583  1.00  0.00     0.009 A 
ATOM     80  C   UNL     1       5.017  17.398  -5.058  1.00  0.00     0.009 A 
ATOM     81  C   UNL     1       3.465  17.055  -2.763  1.00  0.00     0.001 A 
ATOM     82  C   UNL     1       4.760  18.483  -4.219  1.00  0.00     0.001 A 
ATOM     83  C   UNL     1       3.977  18.312  -3.077  1.00  0.00     0.000 A 
ENDBRANCH  65  78
ENDBRANCH  39  40
ENDBRANCH  31  34
ENDBRANCH  29  30
ENDBRANCH  28  29
ENDBRANCH   1  28
TORSDOF 15
