REMARK SMILES C[NH2+][C@]1(C(=O)NCCCCCCNC(=O)c2ccc(-c3c4nc(c(-c5ccccc5)c5ccc([nH]5)c(-c5ccccc5)c5nc(c(-c6ccccc6)c6ccc3[nH]6)C=C5)C=C4)cc2)CCC[C@@H]([N@H+]2CC[C@@H](C)C2)C1
REMARK SMILES IDX 10 1 9 2 8 3 7 4 6 5 4 6 5 7 3 9 64 10 74 11 65 12 67 13
REMARK SMILES IDX 66 14 2 15 1 16 68 19 69 20 73 21 70 23 71 24 72 25 11 26
REMARK SMILES IDX 12 27 13 28 14 29 15 31 16 32 17 33 63 34 18 35 62 36 19 37
REMARK SMILES IDX 20 38 21 39 56 40 22 41 61 42 55 43 57 44 23 45 60 46 54 47
REMARK SMILES IDX 53 48 24 50 46 51 31 52 45 53 32 54 35 55 44 56 58 57 33 58
REMARK SMILES IDX 34 59 43 61 59 62 36 63 25 64 26 65 30 66 27 67 29 68 28 69
REMARK SMILES IDX 47 70 48 71 52 72 49 73 51 74 50 75 37 76 38 77 42 78 39 79
REMARK SMILES IDX 41 80 40 81
REMARK H PARENT 6 8 2 17 2 18 68 22 13 30 57 49 35 60
REMARK Flexibility Score: inf
ROOT
ATOM      1  C   UNL     1       2.987   0.644   5.436  1.00  0.00     0.002 C 
ENDROOT
BRANCH   1   2
ATOM      2  C   UNL     1       2.683  -0.810   5.058  1.00  0.00     0.002 C 
BRANCH   2   3
ATOM      3  C   UNL     1       1.201  -1.142   4.858  1.00  0.00     0.021 C 
BRANCH   3   4
ATOM      4  C   UNL     1       0.501  -0.282   3.814  1.00  0.00     0.116 C 
BRANCH   4   5
ATOM      5  N   UNL     1       1.050  -0.492   2.484  1.00  0.00    -0.351 N 
ATOM      6  C   UNL     1       0.484  -0.641   1.247  1.00  0.00     0.281 C 
ATOM      7  O   UNL     1       1.308  -0.721   0.332  1.00  0.00    -0.268 OA
ATOM      8  H   UNL     1       2.034  -0.537   2.471  1.00  0.00     0.163 HD
BRANCH   6   9
ATOM      9  C   UNL     1      -1.082  -0.652   1.042  1.00  0.00     0.181 C 
ATOM     10  C   UNL     1      -1.720  -1.850   1.776  1.00  0.00     0.079 C 
ATOM     11  C   UNL     1      -1.578   0.712   1.565  1.00  0.00     0.144 C 
ATOM     12  C   UNL     1      -3.226  -1.695   2.000  1.00  0.00     0.013 C 
ATOM     13  C   UNL     1      -3.059   0.845   1.930  1.00  0.00     0.190 C 
ATOM     14  C   UNL     1      -3.567  -0.384   2.707  1.00  0.00     0.065 C 
BRANCH   9  15
ATOM     15  N   UNL     1      -1.571  -0.742  -0.373  1.00  0.00    -0.336 N 
ATOM     16  C   UNL     1      -0.649  -1.216  -1.389  1.00  0.00     0.331 C 
ATOM     17  H   UNL     1      -2.374  -1.372  -0.375  1.00  0.00     0.346 HD
ATOM     18  H   UNL     1      -1.763   0.224  -0.636  1.00  0.00     0.346 HD
ENDBRANCH   9  15
BRANCH  13  19
ATOM     19  N   UNL     1      -3.338   2.114   2.645  1.00  0.00    -0.332 N 
ATOM     20  C   UNL     1      -2.825   2.223   4.016  1.00  0.00     0.262 C 
ATOM     21  C   UNL     1      -2.960   3.335   1.920  1.00  0.00     0.265 C 
ATOM     22  H   UNL     1      -4.355   2.050   2.699  1.00  0.00     0.348 HD
ATOM     23  C   UNL     1      -2.192   3.603   4.158  1.00  0.00     0.070 C 
ATOM     24  C   UNL     1      -1.883   4.051   2.737  1.00  0.00     0.047 C 
ATOM     25  C   UNL     1      -0.442   3.735   2.333  1.00  0.00     0.014 C 
ENDBRANCH  13  19
ENDBRANCH   6   9
ENDBRANCH   4   5
ENDBRANCH   3   4
ENDBRANCH   2   3
ENDBRANCH   1   2
BRANCH   1  26
ATOM     26  C   UNL     1       2.243   1.171   6.663  1.00  0.00     0.021 C 
BRANCH  26  27
ATOM     27  C   UNL     1       2.379   0.314   7.916  1.00  0.00     0.116 C 
BRANCH  27  28
ATOM     28  N   UNL     1       3.758   0.180   8.354  1.00  0.00    -0.352 N 
ATOM     29  C   UNL     1       4.292   0.353   9.607  1.00  0.00     0.251 C 
ATOM     30  H   UNL     1       4.401  -0.071   7.652  1.00  0.00     0.163 HD
ATOM     31  O   UNL     1       5.505   0.349   9.769  1.00  0.00    -0.269 OA
BRANCH  29  32
ATOM     32  C   UNL     1       3.393   0.575  10.760  1.00  0.00     0.039 A 
ATOM     33  C   UNL     1       3.702   1.594  11.665  1.00  0.00     0.014 A 
ATOM     34  C   UNL     1       2.252  -0.210  10.946  1.00  0.00     0.014 A 
ATOM     35  C   UNL     1       2.832   1.865  12.723  1.00  0.00     0.010 A 
ATOM     36  C   UNL     1       1.347   0.113  11.953  1.00  0.00     0.010 A 
ATOM     37  C   UNL     1       1.629   1.150  12.854  1.00  0.00    -0.014 A 
BRANCH  37  38
ATOM     38  C   UNL     1       0.657   1.477  13.928  1.00  0.00     0.031 A 
ATOM     39  C   UNL     1       0.332   0.464  14.991  1.00  0.00     0.074 A 
ATOM     40  C   UNL     1       0.025   2.667  13.914  1.00  0.00     0.049 A 
ATOM     41  N   UNL     1      -0.521   0.551  15.980  1.00  0.00    -0.248 NA
ATOM     42  C   UNL     1       1.041  -0.824  14.921  1.00  0.00     0.031 C 
ATOM     43  C   UNL     1       0.224   3.723  12.918  1.00  0.00     0.029 A 
ATOM     44  N   UNL     1      -0.918   3.188  14.765  1.00  0.00    -0.354 N 
ATOM     45  C   UNL     1      -0.461  -0.670  16.640  1.00  0.00     0.074 A 
ATOM     46  C   UNL     1       0.470  -1.500  15.907  1.00  0.00     0.031 C 
ATOM     47  C   UNL     1      -0.548   4.775  13.233  1.00  0.00     0.029 A 
ATOM     48  C   UNL     1      -1.329   4.453  14.423  1.00  0.00     0.049 A 
ATOM     49  H   UNL     1      -1.267   2.700  15.546  1.00  0.00     0.167 HD
ATOM     50  C   UNL     1      -1.105  -1.060  17.765  1.00  0.00     0.031 A 
ATOM     51  C   UNL     1      -2.239   5.262  14.998  1.00  0.00     0.031 A 
ATOM     52  C   UNL     1      -2.030  -0.234  18.495  1.00  0.00     0.049 A 
ATOM     53  C   UNL     1      -2.965   4.793  16.228  1.00  0.00     0.074 A 
ATOM     54  C   UNL     1      -2.696  -0.520  19.673  1.00  0.00     0.029 A 
ATOM     55  N   UNL     1      -2.423   1.039  18.112  1.00  0.00    -0.354 N 
ATOM     56  N   UNL     1      -2.845   3.661  16.878  1.00  0.00    -0.248 NA
ATOM     57  C   UNL     1      -3.945   5.721  16.811  1.00  0.00     0.031 C 
ATOM     58  C   UNL     1      -3.539   0.555  19.971  1.00  0.00     0.029 A 
ATOM     59  C   UNL     1      -3.346   1.539  19.015  1.00  0.00     0.049 A 
ATOM     60  H   UNL     1      -2.095   1.517  17.316  1.00  0.00     0.167 HD
ATOM     61  C   UNL     1      -3.709   3.753  17.962  1.00  0.00     0.074 A 
ATOM     62  C   UNL     1      -4.333   5.058  17.891  1.00  0.00     0.031 C 
ATOM     63  C   UNL     1      -3.961   2.839  18.931  1.00  0.00     0.031 A 
BRANCH  50  64
ATOM     64  C   UNL     1      -0.838  -2.452  18.270  1.00  0.00    -0.014 A 
ATOM     65  C   UNL     1       0.411  -2.807  18.805  1.00  0.00     0.009 A 
ATOM     66  C   UNL     1      -1.860  -3.413  18.243  1.00  0.00     0.009 A 
ATOM     67  C   UNL     1       0.642  -4.105  19.265  1.00  0.00     0.001 A 
ATOM     68  C   UNL     1      -1.636  -4.701  18.733  1.00  0.00     0.001 A 
ATOM     69  C   UNL     1      -0.383  -5.049  19.234  1.00  0.00     0.000 A 
ENDBRANCH  50  64
BRANCH  51  70
ATOM     70  C   UNL     1      -2.512   6.607  14.423  1.00  0.00    -0.014 A 
ATOM     71  C   UNL     1      -2.136   7.769  15.114  1.00  0.00     0.009 A 
ATOM     72  C   UNL     1      -3.163   6.736  13.185  1.00  0.00     0.009 A 
ATOM     73  C   UNL     1      -2.434   9.030  14.594  1.00  0.00     0.001 A 
ATOM     74  C   UNL     1      -3.429   7.999  12.652  1.00  0.00     0.001 A 
ATOM     75  C   UNL     1      -3.075   9.145  13.362  1.00  0.00     0.000 A 
ENDBRANCH  51  70
BRANCH  63  76
ATOM     76  C   UNL     1      -4.925   3.233  20.016  1.00  0.00    -0.014 A 
ATOM     77  C   UNL     1      -6.300   3.360  19.764  1.00  0.00     0.009 A 
ATOM     78  C   UNL     1      -4.451   3.443  21.321  1.00  0.00     0.009 A 
ATOM     79  C   UNL     1      -7.175   3.724  20.791  1.00  0.00     0.001 A 
ATOM     80  C   UNL     1      -5.332   3.773  22.351  1.00  0.00     0.001 A 
ATOM     81  C   UNL     1      -6.691   3.924  22.083  1.00  0.00     0.000 A 
ENDBRANCH  63  76
ENDBRANCH  37  38
ENDBRANCH  29  32
ENDBRANCH  27  28
ENDBRANCH  26  27
ENDBRANCH   1  26
TORSDOF 15
