REMARK SMILES C[C@@H](C(=O)NCCCCCCNC(=O)c1ccc(-c2c3nc(c(-c4ccccc4)c4ccc([nH]4)c(-c4ccccc4)c4nc(c(-c5ccccc5)c5ccc2[nH]5)C=C4)C=C3)cc1)c1ccc(-c2cccc(OC(=O)NC3CC3)c2)c(F)c1
REMARK SMILES IDX 7 1 6 2 5 3 3 4 4 5 2 7 1 8 63 9 64 10 82 11 65 12 80 13
REMARK SMILES IDX 66 14 81 15 67 16 68 17 79 18 69 19 71 20 70 21 72 22 73 23
REMARK SMILES IDX 74 24 75 25 76 27 77 28 78 29 8 30 9 31 10 32 11 33 12 34
REMARK SMILES IDX 13 35 14 37 15 38 16 39 62 40 17 41 61 42 18 43 19 44 20 45
REMARK SMILES IDX 55 46 21 47 60 48 54 49 56 50 22 51 59 52 53 53 52 54 23 56
REMARK SMILES IDX 45 57 30 58 44 59 31 60 34 61 43 62 57 63 32 64 33 65 42 67
REMARK SMILES IDX 58 68 35 69 24 70 25 71 29 72 26 73 28 74 27 75 46 76 47 77
REMARK SMILES IDX 51 78 48 79 50 80 49 81 36 82 37 83 41 84 38 85 40 86 39 87
REMARK H PARENT 5 6 75 26 12 36 56 55 34 66
REMARK Flexibility Score: inf
ROOT
ATOM      1  C   UNL     1       4.362  -1.417  -0.533  1.00  0.00     0.021 C 
ENDROOT
BRANCH   1   2
ATOM      2  C   UNL     1       3.607  -0.753  -1.685  1.00  0.00     0.116 C 
BRANCH   2   3
ATOM      3  N   UNL     1       2.590  -1.641  -2.195  1.00  0.00    -0.356 N 
ATOM      4  C   UNL     1       1.239  -1.622  -2.041  1.00  0.00     0.227 C 
ATOM      5  O   UNL     1       0.641  -2.576  -2.542  1.00  0.00    -0.274 OA
ATOM      6  H   UNL     1       2.930  -2.383  -2.744  1.00  0.00     0.163 HD
BRANCH   4   7
ATOM      7  C   UNL     1       0.554  -0.429  -1.347  1.00  0.00     0.105 C 
ATOM      8  C   UNL     1       0.884  -0.304   0.145  1.00  0.00     0.023 C 
BRANCH   7   9
ATOM      9  C   UNL     1      -0.965  -0.412  -1.473  1.00  0.00    -0.033 A 
ATOM     10  C   UNL     1      -1.639   0.813  -1.603  1.00  0.00     0.005 A 
ATOM     11  C   UNL     1      -1.728  -1.578  -1.336  1.00  0.00     0.044 A 
ATOM     12  C   UNL     1      -3.038   0.867  -1.582  1.00  0.00     0.012 A 
ATOM     13  C   UNL     1      -3.113  -1.521  -1.349  1.00  0.00     0.131 A 
ATOM     14  C   UNL     1      -3.797  -0.302  -1.438  1.00  0.00     0.018 A 
ATOM     15  F   UNL     1      -3.790  -2.675  -1.227  1.00  0.00    -0.206 F 
BRANCH  14  16
ATOM     16  C   UNL     1      -5.252  -0.255  -1.264  1.00  0.00    -0.012 A 
ATOM     17  C   UNL     1      -6.101   0.372  -2.185  1.00  0.00     0.009 A 
ATOM     18  C   UNL     1      -5.818  -0.854  -0.125  1.00  0.00     0.056 A 
ATOM     19  C   UNL     1      -7.484   0.383  -1.980  1.00  0.00     0.004 A 
ATOM     20  C   UNL     1      -7.191  -0.849   0.075  1.00  0.00     0.133 A 
ATOM     21  C   UNL     1      -8.030  -0.229  -0.850  1.00  0.00     0.047 A 
BRANCH  20  22
ATOM     22  O   UNL     1      -7.828  -1.447   1.189  1.00  0.00    -0.410 OA
BRANCH  22  23
ATOM     23  C   UNL     1      -7.225  -2.275   2.134  1.00  0.00     0.412 C 
ATOM     24  O   UNL     1      -6.029  -2.544   2.214  1.00  0.00    -0.224 OA
ATOM     25  N   UNL     1      -8.100  -2.824   3.033  1.00  0.00    -0.318 N 
ATOM     26  H   UNL     1      -7.699  -3.446   3.682  1.00  0.00     0.167 HD
BRANCH  25  27
ATOM     27  C   UNL     1      -9.503  -2.629   3.169  1.00  0.00     0.085 C 
ATOM     28  C   UNL     1     -10.472  -2.263   2.082  1.00  0.00     0.027 C 
ATOM     29  C   UNL     1     -10.429  -3.670   2.591  1.00  0.00     0.027 C 
ENDBRANCH  25  27
ENDBRANCH  22  23
ENDBRANCH  20  22
ENDBRANCH  14  16
ENDBRANCH   7   9
ENDBRANCH   4   7
ENDBRANCH   2   3
ENDBRANCH   1   2
BRANCH   1  30
ATOM     30  C   UNL     1       5.071  -2.723  -0.922  1.00  0.00     0.002 C 
BRANCH  30  31
ATOM     31  C   UNL     1       6.004  -2.611  -2.131  1.00  0.00     0.002 C 
BRANCH  31  32
ATOM     32  C   UNL     1       7.054  -1.506  -2.020  1.00  0.00     0.021 C 
BRANCH  32  33
ATOM     33  C   UNL     1       7.966  -1.641  -0.809  1.00  0.00     0.116 C 
BRANCH  33  34
ATOM     34  N   UNL     1       8.787  -2.837  -0.882  1.00  0.00    -0.352 N 
ATOM     35  C   UNL     1      10.151  -2.948  -0.786  1.00  0.00     0.251 C 
ATOM     36  H   UNL     1       8.300  -3.681  -1.019  1.00  0.00     0.163 HD
ATOM     37  O   UNL     1      10.713  -3.996  -1.084  1.00  0.00    -0.269 OA
BRANCH  35  38
ATOM     38  C   UNL     1      10.941  -1.785  -0.334  1.00  0.00     0.039 A 
ATOM     39  C   UNL     1      12.117  -1.459  -1.010  1.00  0.00     0.014 A 
ATOM     40  C   UNL     1      10.515  -1.019   0.755  1.00  0.00     0.014 A 
ATOM     41  C   UNL     1      12.849  -0.338  -0.617  1.00  0.00     0.010 A 
ATOM     42  C   UNL     1      11.194   0.147   1.086  1.00  0.00     0.010 A 
ATOM     43  C   UNL     1      12.381   0.486   0.420  1.00  0.00    -0.014 A 
BRANCH  43  44
ATOM     44  C   UNL     1      13.138   1.687   0.850  1.00  0.00     0.031 A 
ATOM     45  C   UNL     1      13.700   1.759   2.244  1.00  0.00     0.074 A 
ATOM     46  C   UNL     1      13.276   2.730   0.011  1.00  0.00     0.049 A 
ATOM     47  N   UNL     1      14.360   2.732   2.820  1.00  0.00    -0.248 NA
ATOM     48  C   UNL     1      13.463   0.596   3.115  1.00  0.00     0.031 C 
ATOM     49  C   UNL     1      12.752   2.797  -1.355  1.00  0.00     0.029 A 
ATOM     50  N   UNL     1      13.904   3.937   0.186  1.00  0.00    -0.354 N 
ATOM     51  C   UNL     1      14.594   2.307   4.122  1.00  0.00     0.074 A 
ATOM     52  C   UNL     1      13.955   1.018   4.269  1.00  0.00     0.031 C 
ATOM     53  C   UNL     1      13.117   3.965  -1.907  1.00  0.00     0.029 A 
ATOM     54  C   UNL     1      13.859   4.746  -0.923  1.00  0.00     0.049 A 
ATOM     55  H   UNL     1      14.345   4.198   1.027  1.00  0.00     0.167 HD
ATOM     56  C   UNL     1      15.297   2.921   5.103  1.00  0.00     0.031 A 
ATOM     57  C   UNL     1      14.360   5.979  -1.123  1.00  0.00     0.031 A 
ATOM     58  C   UNL     1      15.936   4.201   4.954  1.00  0.00     0.049 A 
ATOM     59  C   UNL     1      15.114   6.655  -0.012  1.00  0.00     0.074 A 
ATOM     60  C   UNL     1      16.719   4.886   5.865  1.00  0.00     0.029 A 
ATOM     61  N   UNL     1      15.855   4.994   3.818  1.00  0.00    -0.354 N 
ATOM     62  N   UNL     1      15.389   6.212   1.191  1.00  0.00    -0.248 NA
ATOM     63  C   UNL     1      15.639   7.997  -0.295  1.00  0.00     0.031 C 
ATOM     64  C   UNL     1      17.058   6.123   5.306  1.00  0.00     0.029 A 
ATOM     65  C   UNL     1      16.549   6.176   4.018  1.00  0.00     0.049 A 
ATOM     66  H   UNL     1      15.377   4.752   2.993  1.00  0.00     0.167 HD
ATOM     67  C   UNL     1      16.152   7.203   1.795  1.00  0.00     0.074 A 
ATOM     68  C   UNL     1      16.302   8.265   0.821  1.00  0.00     0.031 C 
ATOM     69  C   UNL     1      16.688   7.227   3.041  1.00  0.00     0.031 A 
BRANCH  56  70
ATOM     70  C   UNL     1      15.381   2.219   6.433  1.00  0.00    -0.014 A 
ATOM     71  C   UNL     1      16.073   1.005   6.581  1.00  0.00     0.009 A 
ATOM     72  C   UNL     1      14.757   2.782   7.557  1.00  0.00     0.009 A 
ATOM     73  C   UNL     1      16.088   0.343   7.811  1.00  0.00     0.001 A 
ATOM     74  C   UNL     1      14.806   2.137   8.794  1.00  0.00     0.001 A 
ATOM     75  C   UNL     1      15.458   0.911   8.917  1.00  0.00     0.000 A 
ENDBRANCH  56  70
BRANCH  57  76
ATOM     76  C   UNL     1      14.199   6.639  -2.446  1.00  0.00    -0.014 A 
ATOM     77  C   UNL     1      15.307   6.819  -3.288  1.00  0.00     0.009 A 
ATOM     78  C   UNL     1      12.940   7.084  -2.878  1.00  0.00     0.009 A 
ATOM     79  C   UNL     1      15.163   7.453  -4.524  1.00  0.00     0.001 A 
ATOM     80  C   UNL     1      12.793   7.690  -4.128  1.00  0.00     0.001 A 
ATOM     81  C   UNL     1      13.905   7.882  -4.945  1.00  0.00     0.000 A 
ENDBRANCH  57  76
BRANCH  69  82
ATOM     82  C   UNL     1      17.532   8.418   3.406  1.00  0.00    -0.014 A 
ATOM     83  C   UNL     1      16.971   9.688   3.604  1.00  0.00     0.009 A 
ATOM     84  C   UNL     1      18.915   8.250   3.591  1.00  0.00     0.009 A 
ATOM     85  C   UNL     1      17.783  10.774   3.941  1.00  0.00     0.001 A 
ATOM     86  C   UNL     1      19.718   9.329   3.963  1.00  0.00     0.001 A 
ATOM     87  C   UNL     1      19.153  10.592   4.126  1.00  0.00     0.000 A 
ENDBRANCH  69  82
ENDBRANCH  43  44
ENDBRANCH  35  38
ENDBRANCH  33  34
ENDBRANCH  32  33
ENDBRANCH  31  32
ENDBRANCH  30  31
ENDBRANCH   1  30
TORSDOF 18
