REMARK SMILES Cn1c(SCC(=O)NCCCCCCNC(=O)c2ccc(-c3c4nc(c(-c5ccccc5)c5ccc([nH]5)c(-c5ccccc5)c5nc(c(-c6ccccc6)c6ccc3[nH]6)C=C5)C=C4)cc2)nnc1-c1ccccc1Br
REMARK SMILES IDX 11 1 10 2 9 3 8 4 6 5 7 6 5 8 4 9 3 10 1 11 2 12 68 13 66 14
REMARK SMILES IDX 67 15 69 16 70 17 74 18 71 19 73 20 75 21 72 22 12 23 13 24
REMARK SMILES IDX 14 25 15 26 16 27 17 29 18 30 19 31 65 32 20 33 64 34 21 35
REMARK SMILES IDX 22 36 23 37 58 38 24 39 63 40 57 41 59 42 25 43 62 44 56 45
REMARK SMILES IDX 55 46 26 48 48 49 33 50 47 51 34 52 37 53 46 54 60 55 35 56
REMARK SMILES IDX 36 57 45 59 61 60 38 61 27 62 28 63 32 64 29 65 31 66 30 67
REMARK SMILES IDX 49 68 50 69 54 70 51 71 53 72 52 73 39 74 40 75 44 76 41 77
REMARK SMILES IDX 43 78 42 79
REMARK H PARENT 8 7 15 28 59 47 37 58
REMARK Flexibility Score: inf
ROOT
ATOM      1  C   UNL     1       0.971   2.897   4.748  1.00  0.00     0.002 C 
ENDROOT
BRANCH   1   2
ATOM      2  C   UNL     1       0.474   3.397   3.383  1.00  0.00     0.021 C 
BRANCH   2   3
ATOM      3  C   UNL     1       1.554   4.041   2.514  1.00  0.00     0.116 C 
BRANCH   3   4
ATOM      4  N   UNL     1       2.593   3.091   2.176  1.00  0.00    -0.355 N 
ATOM      5  C   UNL     1       2.957   2.590   0.969  1.00  0.00     0.230 C 
ATOM      6  O   UNL     1       3.932   1.833   0.939  1.00  0.00    -0.274 OA
ATOM      7  H   UNL     1       3.116   2.757   2.940  1.00  0.00     0.163 HD
BRANCH   5   8
ATOM      8  C   UNL     1       2.284   3.015  -0.315  1.00  0.00     0.178 C 
BRANCH   8   9
ATOM      9  S   UNL     1       0.541   2.669  -0.485  1.00  0.00    -0.076 SA
BRANCH   9  10
ATOM     10  C   UNL     1       0.141   1.023  -0.169  1.00  0.00     0.191 A 
ATOM     11  C   UNL     1       2.308  -0.291  -0.429  1.00  0.00     0.154 C 
ATOM     12  N   UNL     1       0.904  -0.113  -0.177  1.00  0.00    -0.305 N 
ATOM     13  C   UNL     1       0.027  -1.158   0.073  1.00  0.00     0.165 A 
ATOM     14  N   UNL     1      -1.116   0.687   0.033  1.00  0.00    -0.123 NA
ATOM     15  N   UNL     1      -1.192  -0.672   0.168  1.00  0.00    -0.129 NA
BRANCH  13  16
ATOM     16  C   UNL     1       0.386  -2.571   0.135  1.00  0.00     0.034 A 
ATOM     17  C   UNL     1       0.005  -3.397  -0.936  1.00  0.00     0.013 A 
ATOM     18  C   UNL     1       1.112  -3.133   1.197  1.00  0.00     0.029 A 
ATOM     19  C   UNL     1       0.384  -4.740  -0.971  1.00  0.00     0.001 A 
ATOM     20  C   UNL     1       1.497  -4.477   1.155  1.00  0.00     0.016 A 
ATOM     21  Br  UNL     1       1.593  -2.135   2.743  1.00  0.00    -0.050 Br
ATOM     22  C   UNL     1       1.140  -5.276   0.068  1.00  0.00     0.001 A 
ENDBRANCH  13  16
ENDBRANCH   9  10
ENDBRANCH   8   9
ENDBRANCH   5   8
ENDBRANCH   3   4
ENDBRANCH   2   3
ENDBRANCH   1   2
BRANCH   1  23
ATOM     23  C   UNL     1       1.693   3.939   5.608  1.00  0.00     0.002 C 
BRANCH  23  24
ATOM     24  C   UNL     1       0.917   5.234   5.850  1.00  0.00     0.021 C 
BRANCH  24  25
ATOM     25  C   UNL     1      -0.433   5.048   6.532  1.00  0.00     0.116 C 
BRANCH  25  26
ATOM     26  N   UNL     1      -0.299   4.536   7.887  1.00  0.00    -0.352 N 
ATOM     27  C   UNL     1      -0.798   5.042   9.060  1.00  0.00     0.251 C 
ATOM     28  H   UNL     1       0.225   3.707   7.974  1.00  0.00     0.163 HD
ATOM     29  O   UNL     1      -0.428   4.584  10.139  1.00  0.00    -0.269 OA
BRANCH  27  30
ATOM     30  C   UNL     1      -1.766   6.158   9.030  1.00  0.00     0.039 A 
ATOM     31  C   UNL     1      -1.601   7.220   9.923  1.00  0.00     0.014 A 
ATOM     32  C   UNL     1      -2.833   6.161   8.127  1.00  0.00     0.014 A 
ATOM     33  C   UNL     1      -2.468   8.313   9.867  1.00  0.00     0.010 A 
ATOM     34  C   UNL     1      -3.647   7.285   8.019  1.00  0.00     0.010 A 
ATOM     35  C   UNL     1      -3.476   8.371   8.889  1.00  0.00    -0.014 A 
BRANCH  35  36
ATOM     36  C   UNL     1      -4.351   9.564   8.759  1.00  0.00     0.031 A 
ATOM     37  C   UNL     1      -5.834   9.447   8.984  1.00  0.00     0.074 A 
ATOM     38  C   UNL     1      -3.819  10.742   8.379  1.00  0.00     0.049 A 
ATOM     39  N   UNL     1      -6.760  10.366   8.871  1.00  0.00    -0.248 NA
ATOM     40  C   UNL     1      -6.347   8.120   9.361  1.00  0.00     0.031 C 
ATOM     41  C   UNL     1      -2.403  10.979   8.092  1.00  0.00     0.029 A 
ATOM     42  N   UNL     1      -4.410  11.962   8.163  1.00  0.00    -0.354 N 
ATOM     43  C   UNL     1      -7.962   9.726   9.147  1.00  0.00     0.074 A 
ATOM     44  C   UNL     1      -7.655   8.332   9.381  1.00  0.00     0.031 C 
ATOM     45  C   UNL     1      -2.231  12.270   7.766  1.00  0.00     0.029 A 
ATOM     46  C   UNL     1      -3.526  12.941   7.776  1.00  0.00     0.049 A 
ATOM     47  H   UNL     1      -5.375  12.121   8.274  1.00  0.00     0.167 HD
ATOM     48  C   UNL     1      -9.208  10.253   9.217  1.00  0.00     0.031 A 
ATOM     49  C   UNL     1      -3.736  14.232   7.455  1.00  0.00     0.031 A 
ATOM     50  C   UNL     1      -9.514  11.640   8.986  1.00  0.00     0.049 A 
ATOM     51  C   UNL     1      -5.131  14.787   7.516  1.00  0.00     0.074 A 
ATOM     52  C   UNL     1     -10.736  12.281   9.089  1.00  0.00     0.029 A 
ATOM     53  N   UNL     1      -8.591  12.598   8.596  1.00  0.00    -0.354 N 
ATOM     54  N   UNL     1      -6.246  14.186   7.854  1.00  0.00    -0.248 NA
ATOM     55  C   UNL     1      -5.295  16.204   7.163  1.00  0.00     0.031 C 
ATOM     56  C   UNL     1     -10.564  13.613   8.700  1.00  0.00     0.029 A 
ATOM     57  C   UNL     1      -9.222  13.819   8.422  1.00  0.00     0.049 A 
ATOM     58  H   UNL     1      -7.629  12.435   8.461  1.00  0.00     0.167 HD
ATOM     59  C   UNL     1      -7.237  15.157   7.783  1.00  0.00     0.074 A 
ATOM     60  C   UNL     1      -6.588  16.390   7.388  1.00  0.00     0.031 C 
ATOM     61  C   UNL     1      -8.565  15.038   8.026  1.00  0.00     0.031 A 
BRANCH  48  62
ATOM     62  C   UNL     1     -10.341   9.317   9.544  1.00  0.00    -0.014 A 
ATOM     63  C   UNL     1     -10.464   8.735  10.816  1.00  0.00     0.009 A 
ATOM     64  C   UNL     1     -11.320   9.043   8.577  1.00  0.00     0.009 A 
ATOM     65  C   UNL     1     -11.521   7.866  11.098  1.00  0.00     0.001 A 
ATOM     66  C   UNL     1     -12.393   8.200   8.872  1.00  0.00     0.001 A 
ATOM     67  C   UNL     1     -12.487   7.604  10.128  1.00  0.00     0.000 A 
ENDBRANCH  48  62
BRANCH  49  68
ATOM     68  C   UNL     1      -2.592  15.094   7.053  1.00  0.00    -0.014 A 
ATOM     69  C   UNL     1      -2.157  16.138   7.884  1.00  0.00     0.009 A 
ATOM     70  C   UNL     1      -1.934  14.882   5.831  1.00  0.00     0.009 A 
ATOM     71  C   UNL     1      -1.107  16.969   7.487  1.00  0.00     0.001 A 
ATOM     72  C   UNL     1      -0.863  15.694   5.451  1.00  0.00     0.001 A 
ATOM     73  C   UNL     1      -0.458  16.743   6.274  1.00  0.00     0.000 A 
ENDBRANCH  49  68
BRANCH  61  74
ATOM     74  C   UNL     1      -9.402  16.282   7.910  1.00  0.00    -0.014 A 
ATOM     75  C   UNL     1      -9.672  16.872   6.665  1.00  0.00     0.009 A 
ATOM     76  C   UNL     1      -9.963  16.849   9.065  1.00  0.00     0.009 A 
ATOM     77  C   UNL     1     -10.456  18.024   6.585  1.00  0.00     0.001 A 
ATOM     78  C   UNL     1     -10.774  17.981   8.979  1.00  0.00     0.001 A 
ATOM     79  C   UNL     1     -11.011  18.574   7.740  1.00  0.00     0.000 A 
ENDBRANCH  61  74
ENDBRANCH  35  36
ENDBRANCH  27  30
ENDBRANCH  25  26
ENDBRANCH  24  25
ENDBRANCH  23  24
ENDBRANCH   1  23
TORSDOF 16
