REMARK SMILES C/C(C(=O)NCCCCCCNC(=O)c1ccc(-c2c3nc(c(-c4ccccc4)c4ccc([nH]4)c(-c4ccccc4)c4nc(c(-c5ccccc5)c5ccc2[nH]5)C=C4)C=C3)cc1)=C(\C)C(=O)N[C@H]1CCCC1(C)C
REMARK SMILES IDX 8 1 7 2 6 3 5 4 3 5 4 6 2 8 1 9 63 10 64 11 65 12 66 13
REMARK SMILES IDX 67 14 68 16 69 17 72 18 70 19 71 20 73 21 74 22 9 23 10 24
REMARK SMILES IDX 11 25 12 26 13 27 14 29 15 30 16 31 62 32 17 33 61 34 18 35
REMARK SMILES IDX 19 36 20 37 55 38 21 39 60 40 54 41 56 42 22 43 59 44 53 45
REMARK SMILES IDX 52 46 23 48 45 49 30 50 44 51 31 52 34 53 43 54 57 55 32 56
REMARK SMILES IDX 33 57 42 59 58 60 35 61 24 62 25 63 29 64 26 65 28 66 27 67
REMARK SMILES IDX 46 68 47 69 51 70 48 71 50 72 49 73 36 74 37 75 41 76 38 77
REMARK SMILES IDX 40 78 39 79
REMARK H PARENT 5 7 67 15 12 28 56 47 34 58
REMARK Flexibility Score: inf
ROOT
ATOM      1  C   UNL     1      -2.320   3.865   0.177  1.00  0.00     0.002 C 
ENDROOT
BRANCH   1   2
ATOM      2  C   UNL     1      -1.351   2.806  -0.364  1.00  0.00     0.021 C 
BRANCH   2   3
ATOM      3  C   UNL     1      -0.065   2.675   0.454  1.00  0.00     0.116 C 
BRANCH   3   4
ATOM      4  N   UNL     1      -0.256   1.887   1.659  1.00  0.00    -0.352 N 
ATOM      5  C   UNL     1       0.036   0.615   2.053  1.00  0.00     0.247 C 
ATOM      6  O   UNL     1       0.012   0.453   3.274  1.00  0.00    -0.270 OA
ATOM      7  H   UNL     1      -0.710   2.399   2.367  1.00  0.00     0.163 HD
BRANCH   5   8
ATOM      8  C   UNL     1       0.488  -0.485   1.111  1.00  0.00     0.022 C 
ATOM      9  C   UNL     1       0.724  -0.124  -0.330  1.00  0.00     0.051 C 
ATOM     10  C   UNL     1       0.716  -1.768   1.528  1.00  0.00     0.022 C 
ATOM     11  C   UNL     1       1.413  -2.763   0.640  1.00  0.00     0.051 C 
BRANCH  10  12
ATOM     12  C   UNL     1       0.170  -2.321   2.831  1.00  0.00     0.247 C 
ATOM     13  O   UNL     1      -0.936  -1.963   3.244  1.00  0.00    -0.270 OA
ATOM     14  N   UNL     1       0.763  -3.345   3.521  1.00  0.00    -0.349 N 
ATOM     15  H   UNL     1       0.366  -3.496   4.410  1.00  0.00     0.164 HD
BRANCH  14  16
ATOM     16  C   UNL     1       1.861  -4.260   3.216  1.00  0.00     0.088 C 
ATOM     17  C   UNL     1       3.221  -3.626   3.514  1.00  0.00     0.025 C 
ATOM     18  C   UNL     1       1.876  -5.587   4.021  1.00  0.00    -0.015 C 
ATOM     19  C   UNL     1       3.660  -4.159   4.877  1.00  0.00     0.003 C 
ATOM     20  C   UNL     1       2.630  -5.205   5.299  1.00  0.00     0.008 C 
ATOM     21  C   UNL     1       0.489  -6.166   4.325  1.00  0.00     0.013 C 
ATOM     22  C   UNL     1       2.663  -6.657   3.224  1.00  0.00     0.013 C 
ENDBRANCH  14  16
ENDBRANCH  10  12
ENDBRANCH   5   8
ENDBRANCH   3   4
ENDBRANCH   2   3
ENDBRANCH   1   2
BRANCH   1  23
ATOM     23  C   UNL     1      -1.737   5.279   0.294  1.00  0.00     0.002 C 
BRANCH  23  24
ATOM     24  C   UNL     1      -1.066   5.808  -0.977  1.00  0.00     0.021 C 
BRANCH  24  25
ATOM     25  C   UNL     1      -2.006   5.923  -2.170  1.00  0.00     0.116 C 
BRANCH  25  26
ATOM     26  N   UNL     1      -3.046   6.912  -1.932  1.00  0.00    -0.352 N 
ATOM     27  C   UNL     1      -3.339   8.047  -2.646  1.00  0.00     0.251 C 
ATOM     28  H   UNL     1      -3.619   6.744  -1.150  1.00  0.00     0.163 HD
ATOM     29  O   UNL     1      -4.069   8.908  -2.173  1.00  0.00    -0.269 OA
BRANCH  27  30
ATOM     30  C   UNL     1      -2.758   8.225  -3.992  1.00  0.00     0.039 A 
ATOM     31  C   UNL     1      -2.229   9.468  -4.345  1.00  0.00     0.014 A 
ATOM     32  C   UNL     1      -2.748   7.166  -4.904  1.00  0.00     0.014 A 
ATOM     33  C   UNL     1      -1.641   9.634  -5.599  1.00  0.00     0.010 A 
ATOM     34  C   UNL     1      -2.093   7.310  -6.122  1.00  0.00     0.010 A 
ATOM     35  C   UNL     1      -1.543   8.548  -6.486  1.00  0.00    -0.014 A 
BRANCH  35  36
ATOM     36  C   UNL     1      -0.873   8.690  -7.801  1.00  0.00     0.031 A 
ATOM     37  C   UNL     1      -1.658   8.507  -9.071  1.00  0.00     0.074 A 
ATOM     38  C   UNL     1       0.452   8.924  -7.851  1.00  0.00     0.049 A 
ATOM     39  N   UNL     1      -1.240   8.539 -10.311  1.00  0.00    -0.248 NA
ATOM     40  C   UNL     1      -3.096   8.227  -8.929  1.00  0.00     0.031 C 
ATOM     41  C   UNL     1       1.330   9.084  -6.689  1.00  0.00     0.029 A 
ATOM     42  N   UNL     1       1.295   9.063  -8.925  1.00  0.00    -0.354 N 
ATOM     43  C   UNL     1      -2.357   8.270 -11.092  1.00  0.00     0.074 A 
ATOM     44  C   UNL     1      -3.457   8.022 -10.187  1.00  0.00     0.031 C 
ATOM     45  C   UNL     1       2.579   9.330  -7.114  1.00  0.00     0.029 A 
ATOM     46  C   UNL     1       2.601   9.299  -8.572  1.00  0.00     0.049 A 
ATOM     47  H   UNL     1       0.992   9.001  -9.860  1.00  0.00     0.167 HD
ATOM     48  C   UNL     1      -2.462   8.249 -12.442  1.00  0.00     0.031 A 
ATOM     49  C   UNL     1       3.696   9.463  -9.338  1.00  0.00     0.031 A 
ATOM     50  C   UNL     1      -1.366   8.501 -13.339  1.00  0.00     0.049 A 
ATOM     51  C   UNL     1       3.558   9.409 -10.834  1.00  0.00     0.074 A 
ATOM     52  C   UNL     1      -1.381   8.556 -14.722  1.00  0.00     0.029 A 
ATOM     53  N   UNL     1      -0.059   8.733 -12.942  1.00  0.00    -0.354 N 
ATOM     54  N   UNL     1       2.481   9.222 -11.558  1.00  0.00    -0.248 NA
ATOM     55  C   UNL     1       4.786   9.599 -11.618  1.00  0.00     0.031 C 
ATOM     56  C   UNL     1      -0.070   8.761 -15.164  1.00  0.00     0.029 A 
ATOM     57  C   UNL     1       0.749   8.902 -14.055  1.00  0.00     0.049 A 
ATOM     58  H   UNL     1       0.250   8.773 -12.008  1.00  0.00     0.167 HD
ATOM     59  C   UNL     1       2.895   9.304 -12.881  1.00  0.00     0.074 A 
ATOM     60  C   UNL     1       4.318   9.573 -12.858  1.00  0.00     0.031 C 
ATOM     61  C   UNL     1       2.163   9.169 -14.014  1.00  0.00     0.031 A 
BRANCH  48  62
ATOM     62  C   UNL     1      -3.810   7.933 -13.029  1.00  0.00    -0.014 A 
ATOM     63  C   UNL     1      -4.886   8.830 -12.914  1.00  0.00     0.009 A 
ATOM     64  C   UNL     1      -3.999   6.738 -13.740  1.00  0.00     0.009 A 
ATOM     65  C   UNL     1      -6.130   8.518 -13.465  1.00  0.00     0.001 A 
ATOM     66  C   UNL     1      -5.236   6.444 -14.318  1.00  0.00     0.001 A 
ATOM     67  C   UNL     1      -6.303   7.328 -14.171  1.00  0.00     0.000 A 
ENDBRANCH  48  62
BRANCH  49  68
ATOM     68  C   UNL     1       5.021   9.703  -8.706  1.00  0.00    -0.014 A 
ATOM     69  C   UNL     1       5.656  10.948  -8.830  1.00  0.00     0.009 A 
ATOM     70  C   UNL     1       5.662   8.684  -7.983  1.00  0.00     0.009 A 
ATOM     71  C   UNL     1       6.919  11.157  -8.271  1.00  0.00     0.001 A 
ATOM     72  C   UNL     1       6.910   8.907  -7.398  1.00  0.00     0.001 A 
ATOM     73  C   UNL     1       7.543  10.139  -7.552  1.00  0.00     0.000 A 
ENDBRANCH  49  68
BRANCH  61  74
ATOM     74  C   UNL     1       2.881   9.350 -15.323  1.00  0.00    -0.014 A 
ATOM     75  C   UNL     1       3.796   8.397 -15.795  1.00  0.00     0.009 A 
ATOM     76  C   UNL     1       2.601  10.474 -16.116  1.00  0.00     0.009 A 
ATOM     77  C   UNL     1       4.443   8.585 -17.018  1.00  0.00     0.001 A 
ATOM     78  C   UNL     1       3.223  10.643 -17.353  1.00  0.00     0.001 A 
ATOM     79  C   UNL     1       4.151   9.703 -17.799  1.00  0.00     0.000 A 
ENDBRANCH  61  74
ENDBRANCH  35  36
ENDBRANCH  27  30
ENDBRANCH  25  26
ENDBRANCH  24  25
ENDBRANCH  23  24
ENDBRANCH   1  23
TORSDOF 15
