REMARK SMILES Cc1ccc(C(=O)NCCCCCCNC(=O)c2ccc(-c3c4nc(c(-c5ccccc5)c5ccc([nH]5)c(-c5ccccc5)c5nc(c(-c6ccccc6)c6ccc3[nH]6)C=C5)C=C4)cc2)cc1/[NH+]=C1\NCCS1
REMARK SMILES IDX 12 1 11 2 10 3 9 4 8 5 6 6 7 7 5 9 1 10 2 11 3 12 67 13 4 14
REMARK SMILES IDX 66 15 68 16 69 17 70 19 73 20 71 21 72 23 13 24 14 25 15 26
REMARK SMILES IDX 16 27 17 29 18 30 19 31 65 32 20 33 64 34 21 35 22 36 23 37
REMARK SMILES IDX 58 38 24 39 63 40 57 41 59 42 25 43 62 44 56 45 55 46 26 48
REMARK SMILES IDX 48 49 33 50 47 51 34 52 37 53 46 54 60 55 35 56 36 57 45 59
REMARK SMILES IDX 61 60 38 61 27 62 28 63 32 64 29 65 31 66 30 67 49 68 50 69
REMARK SMILES IDX 54 70 51 71 53 72 52 73 39 74 40 75 44 76 41 77 43 78 42 79
REMARK H PARENT 8 8 68 18 70 22 15 28 59 47 37 58
REMARK Flexibility Score: inf
ROOT
ATOM      1  C   UNL     1      -6.219   4.201   0.099  1.00  0.00     0.002 C 
ENDROOT
BRANCH   1   2
ATOM      2  C   UNL     1      -5.488   3.584  -1.108  1.00  0.00     0.002 C 
BRANCH   2   3
ATOM      3  C   UNL     1      -3.991   3.273  -0.925  1.00  0.00     0.021 C 
BRANCH   3   4
ATOM      4  C   UNL     1      -3.665   2.381   0.278  1.00  0.00     0.116 C 
BRANCH   4   5
ATOM      5  N   UNL     1      -3.867   0.982  -0.041  1.00  0.00    -0.352 N 
ATOM      6  C   UNL     1      -3.040  -0.098  -0.196  1.00  0.00     0.251 C 
ATOM      7  O   UNL     1      -3.597  -1.180  -0.404  1.00  0.00    -0.269 OA
ATOM      8  H   UNL     1      -4.815   0.757  -0.177  1.00  0.00     0.163 HD
BRANCH   6   9
ATOM      9  C   UNL     1      -1.549  -0.076  -0.103  1.00  0.00     0.044 A 
ATOM     10  C   UNL     1       2.761  -0.429   0.276  1.00  0.00     0.049 C 
ATOM     11  C   UNL     1       1.271  -0.273   0.146  1.00  0.00    -0.004 A 
ATOM     12  C   UNL     1       0.470  -1.419   0.201  1.00  0.00     0.008 A 
ATOM     13  C   UNL     1       0.658   0.971  -0.087  1.00  0.00     0.129 A 
ATOM     14  C   UNL     1      -0.919  -1.316   0.095  1.00  0.00     0.014 A 
ATOM     15  C   UNL     1      -0.738   1.051  -0.236  1.00  0.00     0.065 A 
BRANCH  13  16
ATOM     16  N   UNL     1       1.383   2.172  -0.096  1.00  0.00    -0.235 N 
ATOM     17  C   UNL     1       2.077   2.480  -1.131  1.00  0.00     0.309 C 
ATOM     18  H   UNL     1       1.359   2.773   0.683  1.00  0.00     0.313 HD
ATOM     19  N   UNL     1       2.260   1.838  -2.317  1.00  0.00    -0.268 N 
ATOM     20  S   UNL     1       3.005   3.978  -1.105  1.00  0.00    -0.035 SA
ATOM     21  C   UNL     1       3.046   2.516  -3.318  1.00  0.00     0.246 C 
ATOM     22  H   UNL     1       1.873   0.948  -2.484  1.00  0.00     0.305 HD
ATOM     23  C   UNL     1       3.966   3.477  -2.568  1.00  0.00     0.128 C 
ENDBRANCH  13  16
ENDBRANCH   6   9
ENDBRANCH   4   5
ENDBRANCH   3   4
ENDBRANCH   2   3
ENDBRANCH   1   2
BRANCH   1  24
ATOM     24  C   UNL     1      -5.487   5.332   0.828  1.00  0.00     0.021 C 
BRANCH  24  25
ATOM     25  C   UNL     1      -5.393   6.627   0.029  1.00  0.00     0.116 C 
BRANCH  25  26
ATOM     26  N   UNL     1      -6.379   7.630   0.414  1.00  0.00    -0.352 N 
ATOM     27  C   UNL     1      -6.689   8.836  -0.198  1.00  0.00     0.251 C 
ATOM     28  H   UNL     1      -6.899   7.422   1.224  1.00  0.00     0.163 HD
ATOM     29  O   UNL     1      -7.541   9.567   0.265  1.00  0.00    -0.269 OA
BRANCH  27  30
ATOM     30  C   UNL     1      -6.054   9.156  -1.501  1.00  0.00     0.039 A 
ATOM     31  C   UNL     1      -6.894   9.524  -2.557  1.00  0.00     0.014 A 
ATOM     32  C   UNL     1      -4.706   8.891  -1.729  1.00  0.00     0.014 A 
ATOM     33  C   UNL     1      -6.441   9.375  -3.865  1.00  0.00     0.010 A 
ATOM     34  C   UNL     1      -4.282   8.661  -3.024  1.00  0.00     0.010 A 
ATOM     35  C   UNL     1      -5.175   8.829  -4.085  1.00  0.00    -0.014 A 
BRANCH  35  36
ATOM     36  C   UNL     1      -4.776   8.275  -5.372  1.00  0.00     0.031 A 
ATOM     37  C   UNL     1      -3.876   9.026  -6.271  1.00  0.00     0.074 A 
ATOM     38  C   UNL     1      -5.254   7.077  -5.779  1.00  0.00     0.049 A 
ATOM     39  N   UNL     1      -3.946   8.971  -7.561  1.00  0.00    -0.248 NA
ATOM     40  C   UNL     1      -2.837   9.927  -5.781  1.00  0.00     0.031 C 
ATOM     41  C   UNL     1      -4.827   6.309  -6.949  1.00  0.00     0.029 A 
ATOM     42  N   UNL     1      -6.333   6.340  -5.320  1.00  0.00    -0.354 N 
ATOM     43  C   UNL     1      -2.804   9.556  -8.048  1.00  0.00     0.074 A 
ATOM     44  C   UNL     1      -2.195  10.221  -6.916  1.00  0.00     0.031 C 
ATOM     45  C   UNL     1      -5.804   5.447  -7.278  1.00  0.00     0.029 A 
ATOM     46  C   UNL     1      -6.939   5.739  -6.422  1.00  0.00     0.049 A 
ATOM     47  H   UNL     1      -6.620   6.255  -4.382  1.00  0.00     0.167 HD
ATOM     48  C   UNL     1      -2.379   9.288  -9.312  1.00  0.00     0.031 A 
ATOM     49  C   UNL     1      -8.201   6.017  -6.866  1.00  0.00     0.031 A 
ATOM     50  C   UNL     1      -3.252   8.359 -10.020  1.00  0.00     0.049 A 
ATOM     51  C   UNL     1      -8.249   6.468  -8.318  1.00  0.00     0.074 A 
ATOM     52  C   UNL     1      -3.165   7.001 -10.283  1.00  0.00     0.029 A 
ATOM     53  N   UNL     1      -4.557   8.732 -10.318  1.00  0.00    -0.354 N 
ATOM     54  N   UNL     1      -7.212   6.892  -8.985  1.00  0.00    -0.248 NA
ATOM     55  C   UNL     1      -9.475   6.537  -9.110  1.00  0.00     0.031 C 
ATOM     56  C   UNL     1      -4.436   6.551 -10.719  1.00  0.00     0.029 A 
ATOM     57  C   UNL     1      -5.290   7.638 -10.736  1.00  0.00     0.049 A 
ATOM     58  H   UNL     1      -4.910   9.648 -10.242  1.00  0.00     0.167 HD
ATOM     59  C   UNL     1      -7.591   7.281 -10.245  1.00  0.00     0.074 A 
ATOM     60  C   UNL     1      -9.019   7.027 -10.277  1.00  0.00     0.031 C 
ATOM     61  C   UNL     1      -6.685   7.790 -11.134  1.00  0.00     0.031 A 
BRANCH  48  62
ATOM     62  C   UNL     1      -0.979   9.630  -9.742  1.00  0.00    -0.014 A 
ATOM     63  C   UNL     1      -0.225   8.708 -10.489  1.00  0.00     0.009 A 
ATOM     64  C   UNL     1      -0.336  10.826  -9.382  1.00  0.00     0.009 A 
ATOM     65  C   UNL     1       1.130   8.917 -10.765  1.00  0.00     0.001 A 
ATOM     66  C   UNL     1       1.030  11.024  -9.620  1.00  0.00     0.001 A 
ATOM     67  C   UNL     1       1.767  10.061 -10.301  1.00  0.00     0.000 A 
ENDBRANCH  48  62
BRANCH  49  68
ATOM     68  C   UNL     1      -9.140   6.500  -5.820  1.00  0.00    -0.014 A 
ATOM     69  C   UNL     1      -9.508   5.617  -4.787  1.00  0.00     0.009 A 
ATOM     70  C   UNL     1      -9.390   7.869  -5.653  1.00  0.00     0.009 A 
ATOM     71  C   UNL     1     -10.000   6.102  -3.573  1.00  0.00     0.001 A 
ATOM     72  C   UNL     1      -9.897   8.350  -4.439  1.00  0.00     0.001 A 
ATOM     73  C   UNL     1     -10.167   7.472  -3.389  1.00  0.00     0.000 A 
ENDBRANCH  49  68
BRANCH  61  74
ATOM     74  C   UNL     1      -6.962   8.418 -12.485  1.00  0.00    -0.014 A 
ATOM     75  C   UNL     1      -8.220   8.810 -12.956  1.00  0.00     0.009 A 
ATOM     76  C   UNL     1      -5.862   8.730 -13.324  1.00  0.00     0.009 A 
ATOM     77  C   UNL     1      -8.374   9.445 -14.199  1.00  0.00     0.001 A 
ATOM     78  C   UNL     1      -6.005   9.399 -14.542  1.00  0.00     0.001 A 
ATOM     79  C   UNL     1      -7.268   9.749 -14.986  1.00  0.00     0.000 A 
ENDBRANCH  61  74
ENDBRANCH  35  36
ENDBRANCH  27  30
ENDBRANCH  25  26
ENDBRANCH  24  25
ENDBRANCH   1  24
TORSDOF 14
