REMARK SMILES CCc1ccc2c(c1)C=C(C(=O)NCCCCCCNC(=O)c1ccc(-c3c4nc(c(-c5ccccc5)c5ccc([nH]5)c(-c5ccccc5)c5nc(c(-c6ccccc6)c6ccc3[nH]6)C=C5)C=C4)cc1)[C@H](C(F)(F)F)O2
REMARK SMILES IDX 17 1 16 2 15 3 14 4 13 5 11 6 12 7 10 9 3 10 4 11 8 12 5 13
REMARK SMILES IDX 7 14 6 15 9 16 76 17 71 18 2 19 1 20 72 21 73 22 74 23 75 24
REMARK SMILES IDX 18 25 19 26 20 27 21 28 22 30 23 31 24 32 70 33 25 34 69 35
REMARK SMILES IDX 26 36 27 37 28 38 63 39 29 40 68 41 62 42 64 43 30 44 67 45
REMARK SMILES IDX 61 46 60 47 31 49 53 50 38 51 52 52 39 53 42 54 51 55 65 56
REMARK SMILES IDX 40 57 41 58 50 60 66 61 43 62 32 63 33 64 37 65 34 66 36 67
REMARK SMILES IDX 35 68 54 69 55 70 59 71 56 72 58 73 57 74 44 75 45 76 49 77
REMARK SMILES IDX 46 78 48 79 47 80
REMARK H PARENT 13 8 20 29 64 48 42 59
REMARK Flexibility Score: inf
ROOT
ATOM      1  C   UNL     1      -1.219  -8.153   2.759  1.00  0.00     0.002 C 
ENDROOT
BRANCH   1   2
ATOM      2  C   UNL     1      -1.908  -7.835   1.427  1.00  0.00     0.002 C 
BRANCH   2   3
ATOM      3  C   UNL     1      -1.337  -6.619   0.684  1.00  0.00     0.021 C 
BRANCH   3   4
ATOM      4  C   UNL     1       0.113  -6.817   0.225  1.00  0.00     0.116 C 
BRANCH   4   5
ATOM      5  N   UNL     1       0.133  -7.641  -0.972  1.00  0.00    -0.352 N 
ATOM      6  C   UNL     1       0.150  -7.341  -2.298  1.00  0.00     0.251 C 
ATOM      7  O   UNL     1      -0.053  -8.251  -3.097  1.00  0.00    -0.270 OA
ATOM      8  H   UNL     1       0.135  -8.608  -0.786  1.00  0.00     0.163 HD
BRANCH   6   9
ATOM      9  C   UNL     1       0.489  -5.988  -2.808  1.00  0.00     0.067 C 
ATOM     10  C   UNL     1       0.794  -1.179  -2.385  1.00  0.00    -0.047 A 
ATOM     11  C   UNL     1       1.698  -1.153  -3.455  1.00  0.00     0.007 A 
ATOM     12  C   UNL     1       0.216  -2.402  -2.017  1.00  0.00     0.015 A 
ATOM     13  C   UNL     1       2.038  -2.333  -4.121  1.00  0.00     0.047 A 
ATOM     14  C   UNL     1       0.561  -3.586  -2.681  1.00  0.00     0.017 A 
ATOM     15  C   UNL     1       1.478  -3.546  -3.726  1.00  0.00     0.128 A 
ATOM     16  C   UNL     1       0.068  -4.868  -2.204  1.00  0.00     0.025 C 
ATOM     17  O   UNL     1       1.939  -4.664  -4.356  1.00  0.00    -0.475 OA
ATOM     18  C   UNL     1       1.219  -5.915  -4.148  1.00  0.00     0.314 C 
BRANCH  10  19
ATOM     19  C   UNL     1       0.469   0.080  -1.619  1.00  0.00     0.032 C 
ATOM     20  C   UNL     1       1.012   0.051  -0.196  1.00  0.00     0.009 C 
ENDBRANCH  10  19
BRANCH  18  21
ATOM     21  C   UNL     1       2.203  -7.060  -4.481  1.00  0.00     0.429 C 
ATOM     22  F   UNL     1       1.587  -8.155  -4.980  1.00  0.00    -0.167 F 
ATOM     23  F   UNL     1       3.082  -6.674  -5.447  1.00  0.00    -0.167 F 
ATOM     24  F   UNL     1       2.941  -7.435  -3.412  1.00  0.00    -0.167 F 
ENDBRANCH  18  21
ENDBRANCH   6   9
ENDBRANCH   4   5
ENDBRANCH   3   4
ENDBRANCH   2   3
ENDBRANCH   1   2
BRANCH   1  25
ATOM     25  C   UNL     1      -1.194  -6.997   3.763  1.00  0.00     0.021 C 
BRANCH  25  26
ATOM     26  C   UNL     1      -2.574  -6.517   4.199  1.00  0.00     0.116 C 
BRANCH  26  27
ATOM     27  N   UNL     1      -3.289  -7.540   4.946  1.00  0.00    -0.352 N 
ATOM     28  C   UNL     1      -3.861  -7.465   6.190  1.00  0.00     0.251 C 
ATOM     29  H   UNL     1      -3.374  -8.410   4.494  1.00  0.00     0.163 HD
ATOM     30  O   UNL     1      -4.224  -8.485   6.766  1.00  0.00    -0.269 OA
BRANCH  28  31
ATOM     31  C   UNL     1      -4.029  -6.151   6.845  1.00  0.00     0.039 A 
ATOM     32  C   UNL     1      -3.723  -6.028   8.202  1.00  0.00     0.014 A 
ATOM     33  C   UNL     1      -4.508  -5.050   6.128  1.00  0.00     0.014 A 
ATOM     34  C   UNL     1      -3.854  -4.788   8.829  1.00  0.00     0.010 A 
ATOM     35  C   UNL     1      -4.568  -3.799   6.737  1.00  0.00     0.010 A 
ATOM     36  C   UNL     1      -4.253  -3.658   8.096  1.00  0.00    -0.014 A 
BRANCH  36  37
ATOM     37  C   UNL     1      -4.348  -2.326   8.743  1.00  0.00     0.031 A 
ATOM     38  C   UNL     1      -5.677  -1.634   8.867  1.00  0.00     0.074 A 
ATOM     39  C   UNL     1      -3.228  -1.720   9.181  1.00  0.00     0.049 A 
ATOM     40  N   UNL     1      -5.954  -0.469   9.398  1.00  0.00    -0.248 NA
ATOM     41  C   UNL     1      -6.846  -2.328   8.302  1.00  0.00     0.031 C 
ATOM     42  C   UNL     1      -1.872  -2.265   9.076  1.00  0.00     0.029 A 
ATOM     43  N   UNL     1      -3.052  -0.512   9.807  1.00  0.00    -0.354 N 
ATOM     44  C   UNL     1      -7.320  -0.287   9.217  1.00  0.00     0.074 A 
ATOM     45  C   UNL     1      -7.806  -1.433   8.481  1.00  0.00     0.031 C 
ATOM     46  C   UNL     1      -1.010  -1.412   9.652  1.00  0.00     0.029 A 
ATOM     47  C   UNL     1      -1.744  -0.247  10.134  1.00  0.00     0.049 A 
ATOM     48  H   UNL     1      -3.793   0.106  10.003  1.00  0.00     0.167 HD
ATOM     49  C   UNL     1      -8.104   0.731   9.645  1.00  0.00     0.031 A 
ATOM     50  C   UNL     1      -1.198   0.813  10.758  1.00  0.00     0.031 A 
ATOM     51  C   UNL     1      -7.622   1.867  10.385  1.00  0.00     0.049 A 
ATOM     52  C   UNL     1      -2.090   1.929  11.226  1.00  0.00     0.074 A 
ATOM     53  C   UNL     1      -8.345   2.925  10.909  1.00  0.00     0.029 A 
ATOM     54  N   UNL     1      -6.293   2.091  10.706  1.00  0.00    -0.354 N 
ATOM     55  N   UNL     1      -3.390   2.051  11.111  1.00  0.00    -0.248 NA
ATOM     56  C   UNL     1      -1.439   3.043  11.929  1.00  0.00     0.031 C 
ATOM     57  C   UNL     1      -7.445   3.815  11.505  1.00  0.00     0.029 A 
ATOM     58  C   UNL     1      -6.171   3.281  11.405  1.00  0.00     0.049 A 
ATOM     59  H   UNL     1      -5.546   1.494  10.472  1.00  0.00     0.167 HD
ATOM     60  C   UNL     1      -3.717   3.236  11.756  1.00  0.00     0.074 A 
ATOM     61  C   UNL     1      -2.481   3.788  12.271  1.00  0.00     0.031 C 
ATOM     62  C   UNL     1      -4.933   3.815  11.912  1.00  0.00     0.031 A 
BRANCH  49  63
ATOM     63  C   UNL     1      -9.570   0.660   9.316  1.00  0.00    -0.014 A 
ATOM     64  C   UNL     1     -10.408  -0.291   9.921  1.00  0.00     0.009 A 
ATOM     65  C   UNL     1     -10.130   1.577   8.413  1.00  0.00     0.009 A 
ATOM     66  C   UNL     1     -11.765  -0.348   9.599  1.00  0.00     0.001 A 
ATOM     67  C   UNL     1     -11.494   1.538   8.116  1.00  0.00     0.001 A 
ATOM     68  C   UNL     1     -12.308   0.570   8.700  1.00  0.00     0.000 A 
ENDBRANCH  49  63
BRANCH  50  69
ATOM     69  C   UNL     1       0.266   0.856  11.008  1.00  0.00    -0.014 A 
ATOM     70  C   UNL     1       0.770   0.721  12.311  1.00  0.00     0.009 A 
ATOM     71  C   UNL     1       1.168   1.036   9.947  1.00  0.00     0.009 A 
ATOM     72  C   UNL     1       2.144   0.795  12.550  1.00  0.00     0.001 A 
ATOM     73  C   UNL     1       2.543   1.079  10.186  1.00  0.00     0.001 A 
ATOM     74  C   UNL     1       3.029   0.970  11.488  1.00  0.00     0.000 A 
ENDBRANCH  50  69
BRANCH  62  75
ATOM     75  C   UNL     1      -4.990   5.087  12.710  1.00  0.00    -0.014 A 
ATOM     76  C   UNL     1      -4.479   6.293  12.207  1.00  0.00     0.009 A 
ATOM     77  C   UNL     1      -5.593   5.080  13.978  1.00  0.00     0.009 A 
ATOM     78  C   UNL     1      -4.536   7.458  12.975  1.00  0.00     0.001 A 
ATOM     79  C   UNL     1      -5.677   6.252  14.730  1.00  0.00     0.001 A 
ATOM     80  C   UNL     1      -5.138   7.438  14.233  1.00  0.00     0.000 A 
ENDBRANCH  62  75
ENDBRANCH  36  37
ENDBRANCH  28  31
ENDBRANCH  26  27
ENDBRANCH  25  26
ENDBRANCH   1  25
TORSDOF 15
