REMARK SMILES CN1C(=O)C[C@@H](C(=O)NCCCCCCNC(=O)c2ccc(-c3c4nc(c(-c5ccccc5)c5ccc([nH]5)c(-c5ccccc5)c5nc(c(-c6ccccc6)c6ccc3[nH]6)C=C5)C=C4)cc2)C12CCN(C(=O)c1ccccc1-n1cccn1)CC2
REMARK SMILES IDX 12 1 11 2 10 3 9 4 7 5 8 6 6 8 1 9 2 10 3 11 67 12 4 13 5 14
REMARK SMILES IDX 68 15 85 16 69 17 84 18 70 19 71 20 72 21 73 22 74 23 78 24
REMARK SMILES IDX 75 25 77 26 76 27 79 28 80 29 83 30 81 31 82 32 13 33 14 34
REMARK SMILES IDX 15 35 16 36 17 37 18 39 19 40 20 41 66 42 21 43 65 44 22 45
REMARK SMILES IDX 23 46 24 47 59 48 25 49 64 50 58 51 60 52 26 53 63 54 57 55
REMARK SMILES IDX 56 56 27 58 49 59 34 60 48 61 35 62 38 63 47 64 61 65 36 66
REMARK SMILES IDX 37 67 46 69 62 70 39 71 28 72 29 73 33 74 30 75 32 76 31 77
REMARK SMILES IDX 50 78 51 79 55 80 52 81 54 82 53 83 40 84 41 85 45 86 42 87
REMARK SMILES IDX 44 88 43 89
REMARK H PARENT 9 7 16 38 60 57 38 68
REMARK Flexibility Score: inf
ROOT
ATOM      1  C   UNL     1       4.569  -1.203  -4.095  1.00  0.00     0.002 C 
ENDROOT
BRANCH   1   2
ATOM      2  C   UNL     1       3.500  -0.837  -3.069  1.00  0.00     0.021 C 
BRANCH   2   3
ATOM      3  C   UNL     1       2.505   0.236  -3.530  1.00  0.00     0.116 C 
BRANCH   3   4
ATOM      4  N   UNL     1       1.579  -0.230  -4.548  1.00  0.00    -0.356 N 
ATOM      5  C   UNL     1       0.227  -0.339  -4.602  1.00  0.00     0.226 C 
ATOM      6  O   UNL     1      -0.239  -0.787  -5.657  1.00  0.00    -0.275 OA
ATOM      7  H   UNL     1       2.027  -0.530  -5.373  1.00  0.00     0.163 HD
BRANCH   5   8
ATOM      8  C   UNL     1      -0.745   0.025  -3.471  1.00  0.00     0.113 C 
ATOM      9  C   UNL     1       0.696   0.028  -0.018  1.00  0.00     0.147 C 
ATOM     10  N   UNL     1       0.036   0.303  -1.280  1.00  0.00    -0.339 N 
ATOM     11  C   UNL     1      -0.044   1.585  -1.802  1.00  0.00     0.223 C 
ATOM     12  C   UNL     1      -0.618  -0.718  -2.119  1.00  0.00     0.058 C 
ATOM     13  O   UNL     1       0.389   2.608  -1.288  1.00  0.00    -0.275 OA
ATOM     14  C   UNL     1      -0.710   1.518  -3.143  1.00  0.00     0.116 C 
ATOM     15  C   UNL     1       0.166  -2.036  -2.233  1.00  0.00     0.051 C 
ATOM     16  C   UNL     1      -2.006  -1.033  -1.478  1.00  0.00     0.051 C 
ATOM     17  C   UNL     1      -0.615  -3.141  -2.932  1.00  0.00     0.122 C 
ATOM     18  C   UNL     1      -2.716  -2.260  -2.062  1.00  0.00     0.122 C 
ATOM     19  N   UNL     1      -1.813  -3.405  -2.157  1.00  0.00    -0.338 N 
ATOM     20  C   UNL     1      -2.137  -4.612  -1.537  1.00  0.00     0.256 C 
ATOM     21  O   UNL     1      -3.158  -4.778  -0.874  1.00  0.00    -0.269 OA
BRANCH  20  22
ATOM     22  C   UNL     1      -1.256  -5.796  -1.715  1.00  0.00     0.065 A 
ATOM     23  C   UNL     1      -1.796  -6.836  -2.492  1.00  0.00     0.016 A 
ATOM     24  C   UNL     1       0.059  -5.910  -1.235  1.00  0.00     0.077 A 
ATOM     25  C   UNL     1      -1.027  -7.955  -2.818  1.00  0.00     0.001 A 
ATOM     26  C   UNL     1       0.845  -7.012  -1.623  1.00  0.00     0.029 A 
ATOM     27  C   UNL     1       0.298  -8.035  -2.398  1.00  0.00     0.002 A 
BRANCH  24  28
ATOM     28  N   UNL     1       0.642  -4.977  -0.345  1.00  0.00    -0.240 N 
ATOM     29  C   UNL     1       0.034  -4.232   0.640  1.00  0.00     0.115 A 
ATOM     30  N   UNL     1       1.983  -4.742  -0.382  1.00  0.00    -0.177 NA
ATOM     31  C   UNL     1       1.015  -3.477   1.240  1.00  0.00     0.042 A 
ATOM     32  C   UNL     1       2.189  -3.813   0.552  1.00  0.00     0.135 A 
ENDBRANCH  24  28
ENDBRANCH  20  22
ENDBRANCH   5   8
ENDBRANCH   3   4
ENDBRANCH   2   3
ENDBRANCH   1   2
BRANCH   1  33
ATOM     33  C   UNL     1       5.454  -0.035  -4.527  1.00  0.00     0.002 C 
BRANCH  33  34
ATOM     34  C   UNL     1       6.071   0.763  -3.375  1.00  0.00     0.021 C 
BRANCH  34  35
ATOM     35  C   UNL     1       6.865  -0.072  -2.376  1.00  0.00     0.116 C 
BRANCH  35  36
ATOM     36  N   UNL     1       7.973  -0.762  -3.011  1.00  0.00    -0.352 N 
ATOM     37  C   UNL     1       9.308  -0.715  -2.714  1.00  0.00     0.251 C 
ATOM     38  H   UNL     1       7.729  -1.347  -3.764  1.00  0.00     0.163 HD
ATOM     39  O   UNL     1      10.130  -1.177  -3.500  1.00  0.00    -0.269 OA
BRANCH  37  40
ATOM     40  C   UNL     1       9.763  -0.108  -1.446  1.00  0.00     0.039 A 
ATOM     41  C   UNL     1      10.911   0.687  -1.457  1.00  0.00     0.014 A 
ATOM     42  C   UNL     1       9.092  -0.357  -0.244  1.00  0.00     0.014 A 
ATOM     43  C   UNL     1      11.375   1.245  -0.267  1.00  0.00     0.010 A 
ATOM     44  C   UNL     1       9.507   0.269   0.927  1.00  0.00     0.010 A 
ATOM     45  C   UNL     1      10.671   1.050   0.933  1.00  0.00    -0.014 A 
BRANCH  45  46
ATOM     46  C   UNL     1      11.173   1.624   2.206  1.00  0.00     0.031 A 
ATOM     47  C   UNL     1      11.626   0.717   3.318  1.00  0.00     0.074 A 
ATOM     48  C   UNL     1      11.208   2.960   2.367  1.00  0.00     0.049 A 
ATOM     49  N   UNL     1      12.129   1.029   4.486  1.00  0.00    -0.248 NA
ATOM     50  C   UNL     1      11.471  -0.731   3.101  1.00  0.00     0.031 C 
ATOM     51  C   UNL     1      10.765   3.945   1.378  1.00  0.00     0.029 A 
ATOM     52  N   UNL     1      11.650   3.720   3.420  1.00  0.00    -0.354 N 
ATOM     53  C   UNL     1      12.334  -0.178   5.144  1.00  0.00     0.074 A 
ATOM     54  C   UNL     1      11.845  -1.222   4.272  1.00  0.00     0.031 C 
ATOM     55  C   UNL     1      11.007   5.179   1.850  1.00  0.00     0.029 A 
ATOM     56  C   UNL     1      11.584   5.072   3.186  1.00  0.00     0.049 A 
ATOM     57  H   UNL     1      11.983   3.334   4.262  1.00  0.00     0.167 HD
ATOM     58  C   UNL     1      12.899  -0.401   6.355  1.00  0.00     0.031 A 
ATOM     59  C   UNL     1      11.959   6.109   3.958  1.00  0.00     0.031 A 
ATOM     60  C   UNL     1      13.390   0.639   7.218  1.00  0.00     0.049 A 
ATOM     61  C   UNL     1      12.568   5.836   5.305  1.00  0.00     0.074 A 
ATOM     62  C   UNL     1      14.032   0.518   8.438  1.00  0.00     0.029 A 
ATOM     63  N   UNL     1      13.286   1.997   6.954  1.00  0.00    -0.354 N 
ATOM     64  N   UNL     1      12.828   4.687   5.880  1.00  0.00    -0.248 NA
ATOM     65  C   UNL     1      12.950   7.010   6.102  1.00  0.00     0.031 C 
ATOM     66  C   UNL     1      14.261   1.804   8.940  1.00  0.00     0.029 A 
ATOM     67  C   UNL     1      13.825   2.725   8.001  1.00  0.00     0.049 A 
ATOM     68  H   UNL     1      12.888   2.385   6.141  1.00  0.00     0.167 HD
ATOM     69  C   UNL     1      13.439   4.998   7.088  1.00  0.00     0.074 A 
ATOM     70  C   UNL     1      13.522   6.443   7.154  1.00  0.00     0.031 C 
ATOM     71  C   UNL     1      13.896   4.163   8.054  1.00  0.00     0.031 A 
BRANCH  58  72
ATOM     72  C   UNL     1      12.992  -1.831   6.820  1.00  0.00    -0.014 A 
ATOM     73  C   UNL     1      13.832  -2.758   6.180  1.00  0.00     0.009 A 
ATOM     74  C   UNL     1      12.233  -2.255   7.922  1.00  0.00     0.009 A 
ATOM     75  C   UNL     1      13.870  -4.089   6.602  1.00  0.00     0.001 A 
ATOM     76  C   UNL     1      12.301  -3.578   8.364  1.00  0.00     0.001 A 
ATOM     77  C   UNL     1      13.108  -4.497   7.695  1.00  0.00     0.000 A 
ENDBRANCH  58  72
BRANCH  59  78
ATOM     78  C   UNL     1      11.813   7.502   3.459  1.00  0.00    -0.014 A 
ATOM     79  C   UNL     1      12.949   8.262   3.138  1.00  0.00     0.009 A 
ATOM     80  C   UNL     1      10.545   8.081   3.307  1.00  0.00     0.009 A 
ATOM     81  C   UNL     1      12.818   9.583   2.705  1.00  0.00     0.001 A 
ATOM     82  C   UNL     1      10.415   9.392   2.844  1.00  0.00     0.001 A 
ATOM     83  C   UNL     1      11.552  10.146   2.553  1.00  0.00     0.000 A 
ENDBRANCH  59  78
BRANCH  71  84
ATOM     84  C   UNL     1      14.569   4.794   9.242  1.00  0.00    -0.014 A 
ATOM     85  C   UNL     1      13.848   5.542  10.187  1.00  0.00     0.009 A 
ATOM     86  C   UNL     1      15.950   4.619   9.426  1.00  0.00     0.009 A 
ATOM     87  C   UNL     1      14.506   6.141  11.264  1.00  0.00     0.001 A 
ATOM     88  C   UNL     1      16.598   5.189  10.523  1.00  0.00     0.001 A 
ATOM     89  C   UNL     1      15.878   5.960  11.433  1.00  0.00     0.000 A 
ENDBRANCH  71  84
ENDBRANCH  45  46
ENDBRANCH  37  40
ENDBRANCH  35  36
ENDBRANCH  34  35
ENDBRANCH  33  34
ENDBRANCH   1  33
TORSDOF 15
