REMARK SMILES [NH3+][C@H]1C=C[C@@H](C(=O)NC2(CC(=O)NCCCCCCNC(=O)c3ccc(-c4c5nc(c(-c6ccccc6)c6ccc([nH]6)c(-c6ccccc6)c6nc(c(-c7ccccc7)c7ccc4[nH]7)C=C6)C=C5)cc3)CCC2)C1
REMARK SMILES IDX 15 1 14 2 13 3 11 4 12 5 10 7 9 8 71 9 73 10 72 11 8 12 6 13
REMARK SMILES IDX 7 14 5 16 2 17 3 18 74 19 4 20 1 21 16 25 17 26 18 27 19 28
REMARK SMILES IDX 20 29 21 30 22 32 23 33 24 34 70 35 25 36 69 37 26 38 27 39
REMARK SMILES IDX 28 40 63 41 29 42 68 43 62 44 64 45 30 46 67 47 61 48 60 49
REMARK SMILES IDX 31 51 53 52 38 53 52 54 39 55 42 56 51 57 65 58 40 59 41 60
REMARK SMILES IDX 50 62 66 63 43 64 32 65 33 66 37 67 34 68 36 69 35 70 54 71
REMARK SMILES IDX 55 72 59 73 56 74 58 75 57 76 44 77 45 78 49 79 46 80 48 81
REMARK SMILES IDX 47 82
REMARK H PARENT 13 6 8 15 1 22 1 23 1 24 20 31 64 50 42 61
REMARK Flexibility Score: inf
ROOT
ATOM      1  C   UNL     1       0.403  -3.353  -0.949  1.00  0.00     0.021 C 
ENDROOT
BRANCH   1   2
ATOM      2  C   UNL     1      -0.575  -3.440  -2.122  1.00  0.00     0.116 C 
BRANCH   2   3
ATOM      3  N   UNL     1      -1.795  -4.099  -1.701  1.00  0.00    -0.356 N 
ATOM      4  C   UNL     1      -2.939  -3.551  -1.213  1.00  0.00     0.222 C 
ATOM      5  O   UNL     1      -3.761  -4.290  -0.667  1.00  0.00    -0.275 OA
ATOM      6  H   UNL     1      -1.795  -5.081  -1.780  1.00  0.00     0.163 HD
BRANCH   4   7
ATOM      7  C   UNL     1      -3.223  -2.071  -1.356  1.00  0.00     0.128 C 
BRANCH   7   8
ATOM      8  C   UNL     1      -2.780  -1.149  -0.191  1.00  0.00     0.049 C 
ATOM      9  C   UNL     1      -3.580   0.200  -0.188  1.00  0.00     0.029 C 
ATOM     10  C   UNL     1      -1.542  -0.294  -0.537  1.00  0.00     0.029 C 
ATOM     11  C   UNL     1      -2.482   0.796  -1.081  1.00  0.00     0.005 C 
BRANCH   8  12
ATOM     12  N   UNL     1      -2.918  -1.854   1.103  1.00  0.00    -0.350 N 
ATOM     13  C   UNL     1      -2.421  -1.797   2.365  1.00  0.00     0.227 C 
ATOM     14  O   UNL     1      -2.967  -2.573   3.167  1.00  0.00    -0.274 OA
ATOM     15  H   UNL     1      -3.568  -2.588   1.025  1.00  0.00     0.164 HD
BRANCH  13  16
ATOM     16  C   UNL     1      -1.271  -0.936   2.893  1.00  0.00     0.107 C 
ATOM     17  C   UNL     1       0.903   0.035   2.338  1.00  0.00     0.205 C 
ATOM     18  C   UNL     1      -0.160   1.082   2.481  1.00  0.00     0.033 C 
ATOM     19  C   UNL     1       0.103  -1.276   2.318  1.00  0.00     0.087 C 
ATOM     20  C   UNL     1      -1.358   0.551   2.763  1.00  0.00    -0.012 C 
BRANCH  17  21
ATOM     21  N   UNL     1       1.689   0.178   1.120  1.00  0.00    -0.352 N 
ATOM     22  H   UNL     1       2.211   1.054   1.153  1.00  0.00     0.345 HD
ATOM     23  H   UNL     1       1.066   0.184   0.312  1.00  0.00     0.345 HD
ATOM     24  H   UNL     1       2.340  -0.603   1.042  1.00  0.00     0.345 HD
ENDBRANCH  17  21
ENDBRANCH  13  16
ENDBRANCH   8  12
ENDBRANCH   7   8
ENDBRANCH   4   7
ENDBRANCH   2   3
ENDBRANCH   1   2
BRANCH   1  25
ATOM     25  C   UNL     1       1.369  -4.537  -0.852  1.00  0.00     0.002 C 
BRANCH  25  26
ATOM     26  C   UNL     1       2.438  -4.586  -1.950  1.00  0.00     0.002 C 
BRANCH  26  27
ATOM     27  C   UNL     1       3.339  -3.351  -2.050  1.00  0.00     0.021 C 
BRANCH  27  28
ATOM     28  C   UNL     1       4.108  -3.007  -0.775  1.00  0.00     0.116 C 
BRANCH  28  29
ATOM     29  N   UNL     1       5.038  -4.062  -0.400  1.00  0.00    -0.352 N 
ATOM     30  C   UNL     1       6.410  -4.070  -0.384  1.00  0.00     0.251 C 
ATOM     31  H   UNL     1       4.615  -4.904  -0.113  1.00  0.00     0.163 HD
ATOM     32  O   UNL     1       7.016  -5.129  -0.259  1.00  0.00    -0.269 OA
BRANCH  30  33
ATOM     33  C   UNL     1       7.171  -2.809  -0.524  1.00  0.00     0.039 A 
ATOM     34  C   UNL     1       8.304  -2.791  -1.343  1.00  0.00     0.014 A 
ATOM     35  C   UNL     1       6.805  -1.663   0.187  1.00  0.00     0.014 A 
ATOM     36  C   UNL     1       9.036  -1.610  -1.494  1.00  0.00     0.010 A 
ATOM     37  C   UNL     1       7.498  -0.470  -0.012  1.00  0.00     0.010 A 
ATOM     38  C   UNL     1       8.622  -0.432  -0.852  1.00  0.00    -0.014 A 
BRANCH  38  39
ATOM     39  C   UNL     1       9.351   0.848  -1.043  1.00  0.00     0.031 A 
ATOM     40  C   UNL     1      10.062   1.497   0.112  1.00  0.00     0.074 A 
ATOM     41  C   UNL     1       9.318   1.461  -2.242  1.00  0.00     0.049 A 
ATOM     42  N   UNL     1      10.686   2.647   0.157  1.00  0.00    -0.248 NA
ATOM     43  C   UNL     1      10.050   0.768   1.391  1.00  0.00     0.031 C 
ATOM     44  C   UNL     1       8.638   0.956  -3.436  1.00  0.00     0.029 A 
ATOM     45  N   UNL     1       9.865   2.653  -2.650  1.00  0.00    -0.354 N 
ATOM     46  C   UNL     1      11.122   2.789   1.468  1.00  0.00     0.074 A 
ATOM     47  C   UNL     1      10.656   1.629   2.197  1.00  0.00     0.031 C 
ATOM     48  C   UNL     1       8.826   1.820  -4.447  1.00  0.00     0.029 A 
ATOM     49  C   UNL     1       9.604   2.956  -3.964  1.00  0.00     0.049 A 
ATOM     50  H   UNL     1      10.393   3.235  -2.057  1.00  0.00     0.167 HD
ATOM     51  C   UNL     1      11.857   3.787   2.015  1.00  0.00     0.031 A 
ATOM     52  C   UNL     1       9.946   4.032  -4.697  1.00  0.00     0.031 A 
ATOM     53  C   UNL     1      12.335   4.934   1.291  1.00  0.00     0.049 A 
ATOM     54  C   UNL     1      10.754   5.130  -4.065  1.00  0.00     0.074 A 
ATOM     55  C   UNL     1      13.135   5.970   1.745  1.00  0.00     0.029 A 
ATOM     56  N   UNL     1      12.058   5.198  -0.041  1.00  0.00    -0.354 N 
ATOM     57  N   UNL     1      11.207   5.221  -2.838  1.00  0.00    -0.248 NA
ATOM     58  C   UNL     1      11.107   6.269  -4.925  1.00  0.00     0.031 C 
ATOM     59  C   UNL     1      13.304   6.883   0.699  1.00  0.00     0.029 A 
ATOM     60  C   UNL     1      12.652   6.391  -0.419  1.00  0.00     0.049 A 
ATOM     61  H   UNL     1      11.518   4.623  -0.630  1.00  0.00     0.167 HD
ATOM     62  C   UNL     1      11.918   6.412  -2.786  1.00  0.00     0.074 A 
ATOM     63  C   UNL     1      11.849   7.002  -4.106  1.00  0.00     0.031 C 
ATOM     64  C   UNL     1      12.572   6.966  -1.736  1.00  0.00     0.031 A 
BRANCH  51  65
ATOM     65  C   UNL     1      12.184   3.682   3.479  1.00  0.00    -0.014 A 
ATOM     66  C   UNL     1      13.103   2.732   3.953  1.00  0.00     0.009 A 
ATOM     67  C   UNL     1      11.590   4.567   4.393  1.00  0.00     0.009 A 
ATOM     68  C   UNL     1      13.392   2.646   5.316  1.00  0.00     0.001 A 
ATOM     69  C   UNL     1      11.901   4.497   5.752  1.00  0.00     0.001 A 
ATOM     70  C   UNL     1      12.794   3.530   6.214  1.00  0.00     0.000 A 
ENDBRANCH  51  65
BRANCH  52  71
ATOM     71  C   UNL     1       9.538   4.119  -6.123  1.00  0.00    -0.014 A 
ATOM     72  C   UNL     1      10.490   3.972  -7.144  1.00  0.00     0.009 A 
ATOM     73  C   UNL     1       8.199   4.352  -6.471  1.00  0.00     0.009 A 
ATOM     74  C   UNL     1      10.112   4.082  -8.484  1.00  0.00     0.001 A 
ATOM     75  C   UNL     1       7.820   4.435  -7.812  1.00  0.00     0.001 A 
ATOM     76  C   UNL     1       8.778   4.309  -8.817  1.00  0.00     0.000 A 
ENDBRANCH  52  71
BRANCH  64  77
ATOM     77  C   UNL     1      13.292   8.261  -1.983  1.00  0.00    -0.014 A 
ATOM     78  C   UNL     1      12.590   9.466  -2.138  1.00  0.00     0.009 A 
ATOM     79  C   UNL     1      14.695   8.280  -2.024  1.00  0.00     0.009 A 
ATOM     80  C   UNL     1      13.279  10.660  -2.360  1.00  0.00     0.001 A 
ATOM     81  C   UNL     1      15.382   9.479  -2.219  1.00  0.00     0.001 A 
ATOM     82  C   UNL     1      14.673  10.666  -2.395  1.00  0.00     0.000 A 
ENDBRANCH  64  77
ENDBRANCH  38  39
ENDBRANCH  30  33
ENDBRANCH  28  29
ENDBRANCH  27  28
ENDBRANCH  26  27
ENDBRANCH  25  26
ENDBRANCH   1  25
TORSDOF 17
