REMARK SMILES COc1ccc(S(=O)(=O)N[C@@H](CO)C(=O)NCCCCCCNC(=O)c2ccc(-c3c4nc(c(-c5ccccc5)c5ccc([nH]5)c(-c5ccccc5)c5nc(c(-c6ccccc6)c6ccc3[nH]6)C=C5)C=C4)cc2)cc1C
REMARK SMILES IDX 18 1 17 2 16 3 14 4 15 5 11 7 10 8 7 10 8 11 9 12 6 13 3 14
REMARK SMILES IDX 4 15 75 16 5 17 74 18 76 19 2 20 1 21 12 22 13 23 19 25
REMARK SMILES IDX 20 26 21 27 22 28 23 29 24 30 25 32 26 33 27 34 73 35 28 36
REMARK SMILES IDX 72 37 29 38 30 39 31 40 66 41 32 42 71 43 65 44 67 45 33 46
REMARK SMILES IDX 70 47 64 48 63 49 34 51 56 52 41 53 55 54 42 55 45 56 54 57
REMARK SMILES IDX 68 58 43 59 44 60 53 62 69 63 46 64 35 65 36 66 40 67 37 68
REMARK SMILES IDX 39 69 38 70 57 71 58 72 62 73 59 74 61 75 60 76 47 77 48 78
REMARK SMILES IDX 52 79 49 80 51 81 50 82
REMARK H PARENT 16 6 10 9 13 24 23 31 67 50 45 61
REMARK Flexibility Score: inf
ROOT
ATOM      1  C   UNL     1       6.178  -4.079   8.770  1.00  0.00     0.021 C 
ENDROOT
BRANCH   1   2
ATOM      2  C   UNL     1       5.775  -2.632   8.501  1.00  0.00     0.116 C 
BRANCH   2   3
ATOM      3  N   UNL     1       6.386  -2.101   7.298  1.00  0.00    -0.355 N 
ATOM      4  C   UNL     1       5.877  -1.207   6.401  1.00  0.00     0.240 C 
ATOM      5  O   UNL     1       6.629  -0.786   5.518  1.00  0.00    -0.273 OA
ATOM      6  H   UNL     1       7.293  -2.430   7.102  1.00  0.00     0.163 HD
BRANCH   4   7
ATOM      7  C   UNL     1       4.403  -0.783   6.438  1.00  0.00     0.184 C 
BRANCH   7   8
ATOM      8  N   UNL     1       3.565  -2.001   6.412  1.00  0.00    -0.196 NA
ATOM      9  H   UNL     1       3.891  -2.540   5.610  1.00  0.00     0.142 HD
BRANCH   8  10
ATOM     10  S   UNL     1       1.912  -1.999   6.306  1.00  0.00     0.241 S 
ATOM     11  O   UNL     1       1.436  -1.105   7.338  1.00  0.00    -0.207 OA
ATOM     12  O   UNL     1       1.517  -3.388   6.255  1.00  0.00    -0.207 OA
BRANCH  10  13
ATOM     13  C   UNL     1       1.542  -1.285   4.729  1.00  0.00     0.083 A 
ATOM     14  C   UNL     1       0.997   0.055   2.350  1.00  0.00     0.121 A 
ATOM     15  C   UNL     1      -0.000  -0.090   3.322  1.00  0.00     0.048 A 
ATOM     16  C   UNL     1       2.289  -0.441   2.576  1.00  0.00    -0.008 A 
ATOM     17  C   UNL     1       0.274  -0.744   4.523  1.00  0.00     0.025 A 
ATOM     18  C   UNL     1       2.526  -1.183   3.740  1.00  0.00     0.029 A 
ATOM     19  C   UNL     1       3.440  -0.178   1.649  1.00  0.00     0.048 C 
BRANCH  14  20
ATOM     20  O   UNL     1       0.655   0.784   1.244  1.00  0.00    -0.496 OA
ATOM     21  C   UNL     1       0.752   0.028   0.037  1.00  0.00     0.278 C 
ENDBRANCH  14  20
ENDBRANCH  10  13
ENDBRANCH   8  10
ENDBRANCH   7   8
BRANCH   7  22
ATOM     22  C   UNL     1       4.117   0.212   7.568  1.00  0.00     0.186 C 
BRANCH  22  23
ATOM     23  O   UNL     1       3.763  -0.399   8.805  1.00  0.00    -0.394 OA
ATOM     24  H   UNL     1       2.941  -0.903   8.693  1.00  0.00     0.210 HD
ENDBRANCH  22  23
ENDBRANCH   7  22
ENDBRANCH   4   7
ENDBRANCH   2   3
ENDBRANCH   1   2
BRANCH   1  25
ATOM     25  C   UNL     1       7.658  -4.303   9.096  1.00  0.00     0.002 C 
BRANCH  25  26
ATOM     26  C   UNL     1       8.261  -3.415  10.194  1.00  0.00     0.002 C 
BRANCH  26  27
ATOM     27  C   UNL     1       7.447  -3.268  11.479  1.00  0.00     0.021 C 
BRANCH  27  28
ATOM     28  C   UNL     1       7.223  -4.564  12.234  1.00  0.00     0.116 C 
BRANCH  28  29
ATOM     29  N   UNL     1       8.279  -4.903  13.172  1.00  0.00    -0.352 N 
ATOM     30  C   UNL     1       8.368  -5.952  14.066  1.00  0.00     0.251 C 
ATOM     31  H   UNL     1       9.050  -4.291  13.170  1.00  0.00     0.163 HD
ATOM     32  O   UNL     1       9.291  -5.969  14.877  1.00  0.00    -0.269 OA
BRANCH  30  33
ATOM     33  C   UNL     1       7.489  -7.146  13.930  1.00  0.00     0.039 A 
ATOM     34  C   UNL     1       8.086  -8.391  14.176  1.00  0.00     0.014 A 
ATOM     35  C   UNL     1       6.278  -7.086  13.255  1.00  0.00     0.014 A 
ATOM     36  C   UNL     1       7.662  -9.501  13.460  1.00  0.00     0.010 A 
ATOM     37  C   UNL     1       5.940  -8.131  12.437  1.00  0.00     0.010 A 
ATOM     38  C   UNL     1       6.683  -9.307  12.494  1.00  0.00    -0.014 A 
BRANCH  38  39
ATOM     39  C   UNL     1       6.336 -10.272  11.478  1.00  0.00     0.031 A 
ATOM     40  C   UNL     1       5.199 -11.157  11.740  1.00  0.00     0.074 A 
ATOM     41  C   UNL     1       6.973 -10.218  10.290  1.00  0.00     0.049 A 
ATOM     42  N   UNL     1       5.049 -12.311  11.200  1.00  0.00    -0.248 NA
ATOM     43  C   UNL     1       4.144 -10.818  12.693  1.00  0.00     0.031 C 
ATOM     44  C   UNL     1       6.624 -10.875   9.037  1.00  0.00     0.029 A 
ATOM     45  N   UNL     1       8.229  -9.674  10.048  1.00  0.00    -0.354 N 
ATOM     46  C   UNL     1       3.757 -12.703  11.460  1.00  0.00     0.074 A 
ATOM     47  C   UNL     1       3.274 -11.808  12.482  1.00  0.00     0.031 C 
ATOM     48  C   UNL     1       7.718 -10.928   8.255  1.00  0.00     0.029 A 
ATOM     49  C   UNL     1       8.840 -10.437   9.043  1.00  0.00     0.049 A 
ATOM     50  H   UNL     1       8.620  -8.893  10.502  1.00  0.00     0.167 HD
ATOM     51  C   UNL     1       3.180 -13.624  10.646  1.00  0.00     0.031 A 
ATOM     52  C   UNL     1       9.956 -11.169   9.345  1.00  0.00     0.031 A 
ATOM     53  C   UNL     1       4.122 -14.077   9.627  1.00  0.00     0.049 A 
ATOM     54  C   UNL     1       9.697 -12.662   9.289  1.00  0.00     0.074 A 
ATOM     55  C   UNL     1       4.325 -13.695   8.310  1.00  0.00     0.029 A 
ATOM     56  N   UNL     1       5.274 -14.745  10.026  1.00  0.00    -0.354 N 
ATOM     57  N   UNL     1       8.512 -13.205   9.381  1.00  0.00    -0.248 NA
ATOM     58  C   UNL     1      10.747 -13.657   9.091  1.00  0.00     0.031 C 
ATOM     59  C   UNL     1       5.644 -14.077   7.944  1.00  0.00     0.029 A 
ATOM     60  C   UNL     1       6.225 -14.717   9.025  1.00  0.00     0.049 A 
ATOM     61  H   UNL     1       5.394 -15.178  10.902  1.00  0.00     0.167 HD
ATOM     62  C   UNL     1       8.609 -14.563   9.217  1.00  0.00     0.074 A 
ATOM     63  C   UNL     1      10.032 -14.797   9.049  1.00  0.00     0.031 C 
ATOM     64  C   UNL     1       7.510 -15.378   9.217  1.00  0.00     0.031 A 
BRANCH  51  65
ATOM     65  C   UNL     1       1.695 -13.848  10.586  1.00  0.00    -0.014 A 
ATOM     66  C   UNL     1       1.105 -14.210   9.361  1.00  0.00     0.009 A 
ATOM     67  C   UNL     1       0.822 -13.689  11.676  1.00  0.00     0.009 A 
ATOM     68  C   UNL     1      -0.281 -14.338   9.214  1.00  0.00     0.001 A 
ATOM     69  C   UNL     1      -0.569 -13.783  11.528  1.00  0.00     0.001 A 
ATOM     70  C   UNL     1      -1.121 -14.104  10.295  1.00  0.00     0.000 A 
ENDBRANCH  51  65
BRANCH  52  71
ATOM     71  C   UNL     1      10.845 -10.462  10.320  1.00  0.00    -0.014 A 
ATOM     72  C   UNL     1      11.443  -9.256   9.889  1.00  0.00     0.009 A 
ATOM     73  C   UNL     1      10.722 -10.684  11.699  1.00  0.00     0.009 A 
ATOM     74  C   UNL     1      11.736  -8.233  10.797  1.00  0.00     0.001 A 
ATOM     75  C   UNL     1      11.045  -9.663  12.606  1.00  0.00     0.001 A 
ATOM     76  C   UNL     1      11.497  -8.423  12.153  1.00  0.00     0.000 A 
ENDBRANCH  52  71
BRANCH  64  77
ATOM     77  C   UNL     1       7.503 -16.889   9.326  1.00  0.00    -0.014 A 
ATOM     78  C   UNL     1       8.600 -17.667   9.708  1.00  0.00     0.009 A 
ATOM     79  C   UNL     1       6.275 -17.579   9.163  1.00  0.00     0.009 A 
ATOM     80  C   UNL     1       8.487 -19.055   9.880  1.00  0.00     0.001 A 
ATOM     81  C   UNL     1       6.143 -18.948   9.395  1.00  0.00     0.001 A 
ATOM     82  C   UNL     1       7.258 -19.692   9.740  1.00  0.00     0.000 A 
ENDBRANCH  64  77
ENDBRANCH  38  39
ENDBRANCH  30  33
ENDBRANCH  28  29
ENDBRANCH  27  28
ENDBRANCH  26  27
ENDBRANCH  25  26
ENDBRANCH   1  25
TORSDOF 19
