REMARK SMILES C[C@H]1C[N@H+]2CCC[C@@H]2CN1c1cc(Cl)ccc1C(=O)NCCCCCCNC(=O)c1ccc(-c2c3nc(c(-c4ccccc4)c4ccc([nH]4)c(-c4ccccc4)c4nc(c(-c5ccccc5)c5ccc2[nH]5)C=C4)C=C3)cc1
REMARK SMILES IDX 24 1 23 2 22 3 21 4 20 5 18 6 19 7 17 9 11 10 12 11 13 12
REMARK SMILES IDX 16 13 14 14 15 15 10 16 1 17 2 18 3 19 4 20 9 21 5 22 8 23
REMARK SMILES IDX 6 25 7 26 25 27 26 28 27 29 28 30 29 32 30 33 31 34 77 35
REMARK SMILES IDX 32 36 76 37 33 38 34 39 35 40 70 41 36 42 75 43 69 44 71 45
REMARK SMILES IDX 37 46 74 47 68 48 67 49 38 51 60 52 45 53 59 54 46 55 49 56
REMARK SMILES IDX 58 57 72 58 47 59 48 60 57 62 73 63 50 64 39 65 40 66 44 67
REMARK SMILES IDX 41 68 43 69 42 70 61 71 62 72 66 73 63 74 65 75 64 76 51 77
REMARK SMILES IDX 52 78 56 79 53 80 55 81 54 82
REMARK H PARENT 20 8 4 24 27 31 71 50 49 61
REMARK Flexibility Score: inf
ROOT
ATOM      1  C   UNL     1      -3.904  -1.570   0.798  1.00  0.00     0.002 C 
ENDROOT
BRANCH   1   2
ATOM      2  C   UNL     1      -3.700  -1.362  -0.709  1.00  0.00     0.002 C 
BRANCH   2   3
ATOM      3  C   UNL     1      -2.318  -0.841  -1.138  1.00  0.00     0.021 C 
BRANCH   3   4
ATOM      4  C   UNL     1      -1.079  -1.591  -0.636  1.00  0.00     0.116 C 
BRANCH   4   5
ATOM      5  N   UNL     1      -1.097  -3.021  -0.812  1.00  0.00    -0.352 N 
ATOM      6  C   UNL     1      -0.074  -3.927  -0.657  1.00  0.00     0.253 C 
ATOM      7  O   UNL     1      -0.346  -5.123  -0.785  1.00  0.00    -0.269 OA
ATOM      8  H   UNL     1      -1.964  -3.403  -1.080  1.00  0.00     0.163 HD
BRANCH   6   9
ATOM      9  C   UNL     1       1.357  -3.554  -0.436  1.00  0.00     0.063 A 
ATOM     10  C   UNL     1       1.866  -2.752   0.617  1.00  0.00     0.052 A 
ATOM     11  C   UNL     1       3.268  -2.639   0.734  1.00  0.00     0.047 A 
ATOM     12  C   UNL     1       4.135  -3.277  -0.153  1.00  0.00     0.043 A 
ATOM     13  C   UNL     1       2.252  -4.200  -1.318  1.00  0.00     0.017 A 
ATOM     14  Cl  UNL     1       5.837  -3.120   0.052  1.00  0.00    -0.084 Cl
ATOM     15  C   UNL     1       3.633  -4.059  -1.183  1.00  0.00     0.021 A 
BRANCH  10  16
ATOM     16  N   UNL     1       1.057  -2.156   1.580  1.00  0.00    -0.357 N 
ATOM     17  C   UNL     1       1.719   0.224   1.029  1.00  0.00     0.037 C 
ATOM     18  C   UNL     1       1.289  -0.775   2.111  1.00  0.00     0.134 C 
ATOM     19  C   UNL     1      -0.027  -0.237   2.785  1.00  0.00     0.287 C 
ATOM     20  N   UNL     1      -0.593  -1.185   3.749  1.00  0.00    -0.329 N 
ATOM     21  C   UNL     1       0.541  -3.101   2.607  1.00  0.00     0.182 C 
ATOM     22  C   UNL     1      -1.909  -0.843   4.278  1.00  0.00     0.262 C 
ATOM     23  C   UNL     1      -0.765  -2.523   3.151  1.00  0.00     0.203 C 
ATOM     24  H   UNL     1       0.090  -1.158   4.506  1.00  0.00     0.348 HD
ATOM     25  C   UNL     1      -2.455  -2.191   4.767  1.00  0.00     0.068 C 
ATOM     26  C   UNL     1      -1.433  -3.236   4.306  1.00  0.00     0.073 C 
ENDBRANCH  10  16
ENDBRANCH   6   9
ENDBRANCH   4   5
ENDBRANCH   3   4
ENDBRANCH   2   3
ENDBRANCH   1   2
BRANCH   1  27
ATOM     27  C   UNL     1      -5.002  -0.709   1.431  1.00  0.00     0.021 C 
BRANCH  27  28
ATOM     28  C   UNL     1      -4.690   0.792   1.513  1.00  0.00     0.116 C 
BRANCH  28  29
ATOM     29  N   UNL     1      -5.942   1.519   1.638  1.00  0.00    -0.352 N 
ATOM     30  C   UNL     1      -6.508   2.234   2.656  1.00  0.00     0.251 C 
ATOM     31  H   UNL     1      -6.495   1.491   0.824  1.00  0.00     0.163 HD
ATOM     32  O   UNL     1      -7.732   2.357   2.644  1.00  0.00    -0.269 OA
BRANCH  30  33
ATOM     33  C   UNL     1      -5.736   2.938   3.716  1.00  0.00     0.039 A 
ATOM     34  C   UNL     1      -6.430   3.263   4.894  1.00  0.00     0.014 A 
ATOM     35  C   UNL     1      -4.472   3.494   3.504  1.00  0.00     0.014 A 
ATOM     36  C   UNL     1      -5.908   4.186   5.806  1.00  0.00     0.010 A 
ATOM     37  C   UNL     1      -3.931   4.396   4.441  1.00  0.00     0.010 A 
ATOM     38  C   UNL     1      -4.668   4.793   5.570  1.00  0.00    -0.014 A 
BRANCH  38  39
ATOM     39  C   UNL     1      -4.228   5.931   6.429  1.00  0.00     0.031 A 
ATOM     40  C   UNL     1      -4.260   7.342   5.888  1.00  0.00     0.074 A 
ATOM     41  C   UNL     1      -3.853   5.731   7.707  1.00  0.00     0.049 A 
ATOM     42  N   UNL     1      -3.944   8.467   6.484  1.00  0.00    -0.248 NA
ATOM     43  C   UNL     1      -4.700   7.507   4.494  1.00  0.00     0.031 C 
ATOM     44  C   UNL     1      -3.782   4.434   8.378  1.00  0.00     0.029 A 
ATOM     45  N   UNL     1      -3.468   6.630   8.674  1.00  0.00    -0.354 N 
ATOM     46  C   UNL     1      -4.134   9.467   5.536  1.00  0.00     0.074 A 
ATOM     47  C   UNL     1      -4.559   8.813   4.317  1.00  0.00     0.031 C 
ATOM     48  C   UNL     1      -3.391   4.621   9.650  1.00  0.00     0.029 A 
ATOM     49  C   UNL     1      -3.169   6.047   9.882  1.00  0.00     0.049 A 
ATOM     50  H   UNL     1      -3.413   7.600   8.517  1.00  0.00     0.167 HD
ATOM     51  C   UNL     1      -3.986  10.809   5.663  1.00  0.00     0.031 A 
ATOM     52  C   UNL     1      -2.768   6.594  11.045  1.00  0.00     0.031 A 
ATOM     53  C   UNL     1      -3.582  11.482   6.868  1.00  0.00     0.049 A 
ATOM     54  C   UNL     1      -2.620   8.086  11.165  1.00  0.00     0.074 A 
ATOM     55  C   UNL     1      -3.407  12.840   7.083  1.00  0.00     0.029 A 
ATOM     56  N   UNL     1      -3.305  10.850   8.068  1.00  0.00    -0.354 N 
ATOM     57  N   UNL     1      -2.816   9.012  10.260  1.00  0.00    -0.248 NA
ATOM     58  C   UNL     1      -2.214   8.608  12.480  1.00  0.00     0.031 C 
ATOM     59  C   UNL     1      -3.003  13.027   8.410  1.00  0.00     0.029 A 
ATOM     60  C   UNL     1      -2.963  11.789   9.028  1.00  0.00     0.049 A 
ATOM     61  H   UNL     1      -3.345   9.878   8.218  1.00  0.00     0.167 HD
ATOM     62  C   UNL     1      -2.583  10.223  10.901  1.00  0.00     0.074 A 
ATOM     63  C   UNL     1      -2.248   9.917  12.275  1.00  0.00     0.031 C 
ATOM     64  C   UNL     1      -2.642  11.478  10.394  1.00  0.00     0.031 A 
BRANCH  51  65
ATOM     65  C   UNL     1      -4.264  11.648   4.448  1.00  0.00    -0.014 A 
ATOM     66  C   UNL     1      -5.580  11.884   4.020  1.00  0.00     0.009 A 
ATOM     67  C   UNL     1      -3.202  12.240   3.747  1.00  0.00     0.009 A 
ATOM     68  C   UNL     1      -5.824  12.671   2.893  1.00  0.00     0.001 A 
ATOM     69  C   UNL     1      -3.452  13.045   2.634  1.00  0.00     0.001 A 
ATOM     70  C   UNL     1      -4.761  13.253   2.203  1.00  0.00     0.000 A 
ENDBRANCH  51  65
BRANCH  52  71
ATOM     71  C   UNL     1      -2.485   5.726  12.217  1.00  0.00    -0.014 A 
ATOM     72  C   UNL     1      -3.365   5.692  13.310  1.00  0.00     0.009 A 
ATOM     73  C   UNL     1      -1.315   4.953  12.260  1.00  0.00     0.009 A 
ATOM     74  C   UNL     1      -3.062   4.924  14.436  1.00  0.00     0.001 A 
ATOM     75  C   UNL     1      -1.028   4.167  13.378  1.00  0.00     0.001 A 
ATOM     76  C   UNL     1      -1.896   4.161  14.468  1.00  0.00     0.000 A 
ENDBRANCH  52  71
BRANCH  64  77
ATOM     77  C   UNL     1      -2.377  12.615  11.339  1.00  0.00    -0.014 A 
ATOM     78  C   UNL     1      -1.076  12.912  11.773  1.00  0.00     0.009 A 
ATOM     79  C   UNL     1      -3.442  13.413  11.783  1.00  0.00     0.009 A 
ATOM     80  C   UNL     1      -0.852  13.966  12.661  1.00  0.00     0.001 A 
ATOM     81  C   UNL     1      -3.213  14.479  12.654  1.00  0.00     0.001 A 
ATOM     82  C   UNL     1      -1.920  14.749  13.100  1.00  0.00     0.000 A 
ENDBRANCH  64  77
ENDBRANCH  38  39
ENDBRANCH  30  33
ENDBRANCH  28  29
ENDBRANCH  27  28
ENDBRANCH   1  27
TORSDOF 14
