REMARK SMILES [NH3+][C@]1(C(=O)NCCCCCCNC(=O)c2ccc(-c3c4nc(c(-c5ccccc5)c5ccc([nH]5)c(-c5ccccc5)c5nc(c(-c6ccccc6)c6ccc3[nH]6)C=C5)C=C4)cc2)CC[C@@H]([N@@H+](CC2CC2)C2CC2)C1
REMARK SMILES IDX 8 1 7 2 6 3 5 4 3 5 4 6 2 8 63 9 74 10 64 11 65 12 1 13
REMARK SMILES IDX 66 17 67 19 68 20 69 21 70 22 71 23 72 24 73 25 9 26 10 27
REMARK SMILES IDX 11 28 12 29 13 30 14 32 15 33 16 34 62 35 17 36 61 37 18 38
REMARK SMILES IDX 19 39 20 40 55 41 21 42 60 43 54 44 56 45 22 46 59 47 53 48
REMARK SMILES IDX 52 49 23 51 45 52 30 53 44 54 31 55 34 56 43 57 57 58 32 59
REMARK SMILES IDX 33 60 42 62 58 63 35 64 24 65 25 66 29 67 26 68 28 69 27 70
REMARK SMILES IDX 46 71 47 72 51 73 48 74 50 75 49 76 36 77 37 78 41 79 38 80
REMARK SMILES IDX 40 81 39 82
REMARK H PARENT 5 7 1 14 1 15 1 16 66 18 12 31 56 50 34 61
REMARK Flexibility Score: inf
ROOT
ATOM      1  C   UNL     1       5.307   0.533  -1.243  1.00  0.00     0.002 C 
ENDROOT
BRANCH   1   2
ATOM      2  C   UNL     1       4.011   1.342  -1.332  1.00  0.00     0.021 C 
BRANCH   2   3
ATOM      3  C   UNL     1       2.869   0.629  -2.055  1.00  0.00     0.116 C 
BRANCH   3   4
ATOM      4  N   UNL     1       2.186  -0.310  -1.196  1.00  0.00    -0.351 N 
ATOM      5  C   UNL     1       0.946  -0.205  -0.632  1.00  0.00     0.281 C 
ATOM      6  O   UNL     1       0.523  -1.192  -0.024  1.00  0.00    -0.268 OA
ATOM      7  H   UNL     1       2.680  -1.136  -0.988  1.00  0.00     0.163 HD
BRANCH   5   8
ATOM      8  C   UNL     1       0.118   1.110  -0.761  1.00  0.00     0.179 C 
ATOM      9  C   UNL     1      -1.131   1.031   0.133  1.00  0.00     0.085 C 
ATOM     10  C   UNL     1       0.891   2.313  -0.206  1.00  0.00     0.144 C 
ATOM     11  C   UNL     1      -1.427   2.447   0.595  1.00  0.00     0.072 C 
ATOM     12  C   UNL     1      -0.129   3.243   0.460  1.00  0.00     0.191 C 
BRANCH   8  13
ATOM     13  N   UNL     1      -0.281   1.334  -2.169  1.00  0.00    -0.345 N 
ATOM     14  H   UNL     1      -0.821   2.197  -2.236  1.00  0.00     0.345 HD
ATOM     15  H   UNL     1      -0.850   0.551  -2.491  1.00  0.00     0.345 HD
ATOM     16  H   UNL     1       0.554   1.409  -2.751  1.00  0.00     0.345 HD
ENDBRANCH   8  13
BRANCH  12  17
ATOM     17  N   UNL     1       0.404   3.926   1.643  1.00  0.00    -0.330 N 
ATOM     18  H   UNL     1       1.374   3.967   1.331  1.00  0.00     0.348 HD
BRANCH  17  19
ATOM     19  C   UNL     1      -0.102   5.295   1.821  1.00  0.00     0.266 C 
BRANCH  19  20
ATOM     20  C   UNL     1      -1.431   5.411   2.514  1.00  0.00     0.044 C 
ATOM     21  C   UNL     1      -2.377   6.522   2.115  1.00  0.00     0.010 C 
ATOM     22  C   UNL     1      -2.760   5.095   1.870  1.00  0.00     0.010 C 
ENDBRANCH  19  20
ENDBRANCH  17  19
BRANCH  17  23
ATOM     23  C   UNL     1       0.670   3.206   2.906  1.00  0.00     0.184 C 
ATOM     24  C   UNL     1       0.818   1.721   3.076  1.00  0.00     0.071 C 
ATOM     25  C   UNL     1       2.037   2.589   3.106  1.00  0.00     0.071 C 
ENDBRANCH  17  23
ENDBRANCH  12  17
ENDBRANCH   5   8
ENDBRANCH   3   4
ENDBRANCH   2   3
ENDBRANCH   1   2
BRANCH   1  26
ATOM     26  C   UNL     1       5.848   0.020  -2.582  1.00  0.00     0.002 C 
BRANCH  26  27
ATOM     27  C   UNL     1       5.913   1.063  -3.701  1.00  0.00     0.021 C 
BRANCH  27  28
ATOM     28  C   UNL     1       6.724   2.307  -3.360  1.00  0.00     0.116 C 
BRANCH  28  29
ATOM     29  N   UNL     1       8.111   1.978  -3.075  1.00  0.00    -0.352 N 
ATOM     30  C   UNL     1       9.242   2.425  -3.701  1.00  0.00     0.251 C 
ATOM     31  H   UNL     1       8.255   1.349  -2.332  1.00  0.00     0.163 HD
ATOM     32  O   UNL     1      10.322   1.867  -3.510  1.00  0.00    -0.269 OA
BRANCH  30  33
ATOM     33  C   UNL     1       9.162   3.583  -4.610  1.00  0.00     0.039 A 
ATOM     34  C   UNL     1       9.819   3.527  -5.840  1.00  0.00     0.014 A 
ATOM     35  C   UNL     1       8.459   4.732  -4.232  1.00  0.00     0.014 A 
ATOM     36  C   UNL     1       9.749   4.616  -6.708  1.00  0.00     0.010 A 
ATOM     37  C   UNL     1       8.332   5.789  -5.126  1.00  0.00     0.010 A 
ATOM     38  C   UNL     1       8.993   5.749  -6.363  1.00  0.00    -0.014 A 
BRANCH  38  39
ATOM     39  C   UNL     1       8.913   6.919  -7.269  1.00  0.00     0.031 A 
ATOM     40  C   UNL     1       9.515   8.232  -6.852  1.00  0.00     0.074 A 
ATOM     41  C   UNL     1       8.257   6.812  -8.440  1.00  0.00     0.049 A 
ATOM     42  N   UNL     1       9.511   9.379  -7.482  1.00  0.00    -0.248 NA
ATOM     43  C   UNL     1      10.187   8.268  -5.542  1.00  0.00     0.031 C 
ATOM     44  C   UNL     1       7.598   5.602  -8.936  1.00  0.00     0.029 A 
ATOM     45  N   UNL     1       8.033   7.741  -9.424  1.00  0.00    -0.354 N 
ATOM     46  C   UNL     1      10.159  10.273  -6.639  1.00  0.00     0.074 A 
ATOM     47  C   UNL     1      10.500   9.551  -5.434  1.00  0.00     0.031 C 
ATOM     48  C   UNL     1       7.067   5.856 -10.143  1.00  0.00     0.029 A 
ATOM     49  C   UNL     1       7.316   7.252 -10.488  1.00  0.00     0.049 A 
ATOM     50  H   UNL     1       8.356   8.669  -9.372  1.00  0.00     0.167 HD
ATOM     51  C   UNL     1      10.461  11.575  -6.856  1.00  0.00     0.031 A 
ATOM     52  C   UNL     1       6.904   7.862 -11.614  1.00  0.00     0.031 A 
ATOM     53  C   UNL     1      10.137  12.286  -8.063  1.00  0.00     0.049 A 
ATOM     54  C   UNL     1       7.256   9.307 -11.835  1.00  0.00     0.074 A 
ATOM     55  C   UNL     1      10.450  13.589  -8.407  1.00  0.00     0.029 A 
ATOM     56  N   UNL     1       9.426  11.749  -9.125  1.00  0.00    -0.354 N 
ATOM     57  N   UNL     1       7.929  10.121 -11.057  1.00  0.00    -0.248 NA
ATOM     58  C   UNL     1       6.806   9.912 -13.095  1.00  0.00     0.031 C 
ATOM     59  C   UNL     1       9.887  13.856  -9.659  1.00  0.00     0.029 A 
ATOM     60  C   UNL     1       9.272  12.702 -10.118  1.00  0.00     0.049 A 
ATOM     61  H   UNL     1       9.081  10.828  -9.167  1.00  0.00     0.167 HD
ATOM     62  C   UNL     1       8.008  11.324 -11.747  1.00  0.00     0.074 A 
ATOM     63  C   UNL     1       7.327  11.128 -13.010  1.00  0.00     0.031 C 
ATOM     64  C   UNL     1       8.595  12.486 -11.369  1.00  0.00     0.031 A 
BRANCH  51  65
ATOM     65  C   UNL     1      11.175  12.314  -5.759  1.00  0.00    -0.014 A 
ATOM     66  C   UNL     1      12.514  12.032  -5.442  1.00  0.00     0.009 A 
ATOM     67  C   UNL     1      10.511  13.329  -5.053  1.00  0.00     0.009 A 
ATOM     68  C   UNL     1      13.161  12.726  -4.417  1.00  0.00     0.001 A 
ATOM     69  C   UNL     1      11.169  14.042  -4.049  1.00  0.00     0.001 A 
ATOM     70  C   UNL     1      12.489  13.733  -3.725  1.00  0.00     0.000 A 
ENDBRANCH  51  65
BRANCH  52  71
ATOM     71  C   UNL     1       6.132   7.104 -12.632  1.00  0.00    -0.014 A 
ATOM     72  C   UNL     1       6.716   6.765 -13.862  1.00  0.00     0.009 A 
ATOM     73  C   UNL     1       4.806   6.717 -12.381  1.00  0.00     0.009 A 
ATOM     74  C   UNL     1       5.979   6.079 -14.830  1.00  0.00     0.001 A 
ATOM     75  C   UNL     1       4.082   6.006 -13.340  1.00  0.00     0.001 A 
ATOM     76  C   UNL     1       4.665   5.697 -14.567  1.00  0.00     0.000 A 
ENDBRANCH  52  71
BRANCH  64  77
ATOM     77  C   UNL     1       8.560  13.622 -12.351  1.00  0.00    -0.014 A 
ATOM     78  C   UNL     1       7.377  14.330 -12.607  1.00  0.00     0.009 A 
ATOM     79  C   UNL     1       9.744  14.014 -12.996  1.00  0.00     0.009 A 
ATOM     80  C   UNL     1       7.373  15.390 -13.516  1.00  0.00     0.001 A 
ATOM     81  C   UNL     1       9.743  15.092 -13.882  1.00  0.00     0.001 A 
ATOM     82  C   UNL     1       8.556  15.772 -14.149  1.00  0.00     0.000 A 
ENDBRANCH  64  77
ENDBRANCH  38  39
ENDBRANCH  30  33
ENDBRANCH  28  29
ENDBRANCH  27  28
ENDBRANCH  26  27
ENDBRANCH   1  26
TORSDOF 18
