REMARK SMILES Cc1c(NC(=O)c2ccc(Br)cc2N)cccc1C(=O)NCCCCCCNC(=O)c1ccc(-c2c3nc(c(-c4ccccc4)c4ccc([nH]4)c(-c4ccccc4)c4nc(c(-c5ccccc5)c5ccc2[nH]5)C=C4)C=C3)cc1
REMARK SMILES IDX 24 1 23 2 22 3 21 4 19 5 20 6 18 8 1 9 2 10 3 11 15 12 17 13
REMARK SMILES IDX 16 14 4 15 5 16 6 18 7 19 8 20 13 21 9 22 12 23 10 24 11 25
REMARK SMILES IDX 14 26 25 29 26 30 27 31 28 32 29 33 30 35 31 36 32 37 78 38
REMARK SMILES IDX 33 39 77 40 34 41 35 42 36 43 71 44 37 45 76 46 70 47 72 48
REMARK SMILES IDX 38 49 75 50 69 51 68 52 39 54 61 55 46 56 60 57 47 58 50 59
REMARK SMILES IDX 59 60 73 61 48 62 49 63 58 65 74 66 51 67 40 68 41 69 45 70
REMARK SMILES IDX 42 71 44 72 43 73 62 74 63 75 67 76 64 77 66 78 65 79 52 80
REMARK SMILES IDX 53 81 57 82 54 83 56 84 55 85
REMARK H PARENT 21 7 4 17 14 27 14 28 28 34 72 53 50 64
REMARK Flexibility Score: inf
ROOT
ATOM      1  C   UNL     1       5.405   2.897  -0.719  1.00  0.00     0.002 C 
ENDROOT
BRANCH   1   2
ATOM      2  C   UNL     1       4.300   1.843  -0.590  1.00  0.00     0.021 C 
BRANCH   2   3
ATOM      3  C   UNL     1       3.262   2.101   0.516  1.00  0.00     0.116 C 
BRANCH   3   4
ATOM      4  N   UNL     1       2.091   2.743  -0.047  1.00  0.00    -0.352 N 
ATOM      5  C   UNL     1       0.812   2.339  -0.321  1.00  0.00     0.251 C 
ATOM      6  O   UNL     1       0.084   3.177  -0.860  1.00  0.00    -0.269 OA
ATOM      7  H   UNL     1       2.252   3.684  -0.287  1.00  0.00     0.163 HD
BRANCH   5   8
ATOM      8  C   UNL     1       0.206   1.016   0.037  1.00  0.00     0.044 A 
ATOM      9  C   UNL     1       2.090  -0.499  -0.803  1.00  0.00     0.047 C 
ATOM     10  C   UNL     1       0.755  -0.271  -0.150  1.00  0.00    -0.015 A 
ATOM     11  C   UNL     1      -0.040  -1.413   0.153  1.00  0.00     0.045 A 
ATOM     12  C   UNL     1      -1.371  -1.278   0.551  1.00  0.00     0.026 A 
ATOM     13  C   UNL     1      -1.142   1.115   0.448  1.00  0.00     0.014 A 
ATOM     14  C   UNL     1      -1.926  -0.012   0.689  1.00  0.00     0.003 A 
BRANCH  11  15
ATOM     15  N   UNL     1       0.551  -2.686   0.048  1.00  0.00    -0.322 N 
ATOM     16  C   UNL     1       0.031  -3.899  -0.341  1.00  0.00     0.257 C 
ATOM     17  H   UNL     1       1.504  -2.713   0.295  1.00  0.00     0.170 HD
ATOM     18  O   UNL     1       0.641  -4.926  -0.038  1.00  0.00    -0.269 OA
BRANCH  16  19
ATOM     19  C   UNL     1      -1.183  -4.009  -1.197  1.00  0.00     0.063 A 
ATOM     20  C   UNL     1      -2.033  -5.093  -0.911  1.00  0.00     0.017 A 
ATOM     21  C   UNL     1      -1.458  -3.171  -2.300  1.00  0.00     0.045 A 
ATOM     22  C   UNL     1      -3.166  -5.334  -1.688  1.00  0.00     0.016 A 
ATOM     23  C   UNL     1      -2.608  -3.426  -3.063  1.00  0.00     0.042 A 
ATOM     24  C   UNL     1      -3.453  -4.491  -2.755  1.00  0.00     0.020 A 
ATOM     25  Br  UNL     1      -4.973  -4.818  -3.830  1.00  0.00    -0.051 Br
BRANCH  21  26
ATOM     26  N   UNL     1      -0.566  -2.223  -2.799  1.00  0.00    -0.398 N 
ATOM     27  H   UNL     1       0.255  -2.010  -2.300  1.00  0.00     0.156 HD
ATOM     28  H   UNL     1      -0.758  -1.768  -3.651  1.00  0.00     0.156 HD
ENDBRANCH  21  26
ENDBRANCH  16  19
ENDBRANCH  11  15
ENDBRANCH   5   8
ENDBRANCH   3   4
ENDBRANCH   2   3
ENDBRANCH   1   2
BRANCH   1  29
ATOM     29  C   UNL     1       6.329   3.063   0.495  1.00  0.00     0.002 C 
BRANCH  29  30
ATOM     30  C   UNL     1       6.870   1.768   1.107  1.00  0.00     0.021 C 
BRANCH  30  31
ATOM     31  C   UNL     1       7.874   1.035   0.224  1.00  0.00     0.116 C 
BRANCH  31  32
ATOM     32  N   UNL     1       9.263   1.370   0.516  1.00  0.00    -0.352 N 
ATOM     33  C   UNL     1      10.412   1.049  -0.176  1.00  0.00     0.251 C 
ATOM     34  H   UNL     1       9.401   1.906   1.330  1.00  0.00     0.163 HD
ATOM     35  O   UNL     1      11.507   1.402   0.258  1.00  0.00    -0.269 OA
BRANCH  33  36
ATOM     36  C   UNL     1      10.321   0.391  -1.500  1.00  0.00     0.039 A 
ATOM     37  C   UNL     1      11.110   0.899  -2.539  1.00  0.00     0.014 A 
ATOM     38  C   UNL     1       9.365  -0.588  -1.764  1.00  0.00     0.014 A 
ATOM     39  C   UNL     1      10.780   0.602  -3.859  1.00  0.00     0.010 A 
ATOM     40  C   UNL     1       8.984  -0.821  -3.072  1.00  0.00     0.010 A 
ATOM     41  C   UNL     1       9.649  -0.171  -4.115  1.00  0.00    -0.014 A 
BRANCH  41  42
ATOM     42  C   UNL     1       9.022  -0.246  -5.429  1.00  0.00     0.031 A 
ATOM     43  C   UNL     1       9.210  -1.424  -6.293  1.00  0.00     0.074 A 
ATOM     44  C   UNL     1       8.245   0.773  -5.854  1.00  0.00     0.049 A 
ATOM     45  N   UNL     1       9.096  -1.398  -7.578  1.00  0.00    -0.248 NA
ATOM     46  C   UNL     1       9.597  -2.728  -5.769  1.00  0.00     0.031 C 
ATOM     47  C   UNL     1       7.357   0.803  -7.011  1.00  0.00     0.029 A 
ATOM     48  N   UNL     1       8.309   2.099  -5.430  1.00  0.00    -0.354 N 
ATOM     49  C   UNL     1       9.123  -2.697  -8.021  1.00  0.00     0.074 A 
ATOM     50  C   UNL     1       9.509  -3.482  -6.869  1.00  0.00     0.031 C 
ATOM     51  C   UNL     1       7.161   2.082  -7.370  1.00  0.00     0.029 A 
ATOM     52  C   UNL     1       8.036   2.904  -6.550  1.00  0.00     0.049 A 
ATOM     53  H   UNL     1       8.507   2.413  -4.518  1.00  0.00     0.167 HD
ATOM     54  C   UNL     1       8.701  -2.989  -9.282  1.00  0.00     0.031 A 
ATOM     55  C   UNL     1       8.983   3.764  -7.029  1.00  0.00     0.031 A 
ATOM     56  C   UNL     1       8.344  -1.795 -10.046  1.00  0.00     0.049 A 
ATOM     57  C   UNL     1       9.448   3.470  -8.442  1.00  0.00     0.074 A 
ATOM     58  C   UNL     1       7.148  -1.199 -10.412  1.00  0.00     0.029 A 
ATOM     59  N   UNL     1       9.334  -0.866 -10.323  1.00  0.00    -0.354 N 
ATOM     60  N   UNL     1       9.076   2.437  -9.147  1.00  0.00    -0.248 NA
ATOM     61  C   UNL     1      10.466   4.271  -9.127  1.00  0.00     0.031 C 
ATOM     62  C   UNL     1       7.436   0.102 -10.918  1.00  0.00     0.029 A 
ATOM     63  C   UNL     1       8.805   0.286 -10.867  1.00  0.00     0.049 A 
ATOM     64  H   UNL     1      10.293  -1.010 -10.153  1.00  0.00     0.167 HD
ATOM     65  C   UNL     1       9.806   2.393 -10.304  1.00  0.00     0.074 A 
ATOM     66  C   UNL     1      10.660   3.564 -10.253  1.00  0.00     0.031 C 
ATOM     67  C   UNL     1       9.702   1.375 -11.204  1.00  0.00     0.031 A 
BRANCH  54  68
ATOM     68  C   UNL     1       8.396  -4.391  -9.742  1.00  0.00    -0.014 A 
ATOM     69  C   UNL     1       7.398  -4.604 -10.710  1.00  0.00     0.009 A 
ATOM     70  C   UNL     1       9.025  -5.542  -9.238  1.00  0.00     0.009 A 
ATOM     71  C   UNL     1       6.980  -5.891 -11.074  1.00  0.00     0.001 A 
ATOM     72  C   UNL     1       8.583  -6.831  -9.563  1.00  0.00     0.001 A 
ATOM     73  C   UNL     1       7.551  -7.005 -10.474  1.00  0.00     0.000 A 
ENDBRANCH  54  68
BRANCH  55  74
ATOM     74  C   UNL     1       9.860   4.329  -5.962  1.00  0.00    -0.014 A 
ATOM     75  C   UNL     1       9.271   5.127  -4.960  1.00  0.00     0.009 A 
ATOM     76  C   UNL     1      11.146   3.819  -5.742  1.00  0.00     0.009 A 
ATOM     77  C   UNL     1       9.903   5.309  -3.727  1.00  0.00     0.001 A 
ATOM     78  C   UNL     1      11.785   4.021  -4.513  1.00  0.00     0.001 A 
ATOM     79  C   UNL     1      11.149   4.733  -3.496  1.00  0.00     0.000 A 
ENDBRANCH  55  74
BRANCH  67  80
ATOM     80  C   UNL     1      10.483   1.317 -12.483  1.00  0.00    -0.014 A 
ATOM     81  C   UNL     1      10.635   2.432 -13.319  1.00  0.00     0.009 A 
ATOM     82  C   UNL     1      10.988   0.086 -12.947  1.00  0.00     0.009 A 
ATOM     83  C   UNL     1      11.311   2.330 -14.541  1.00  0.00     0.001 A 
ATOM     84  C   UNL     1      11.642  -0.023 -14.176  1.00  0.00     0.001 A 
ATOM     85  C   UNL     1      11.812   1.103 -14.969  1.00  0.00     0.000 A 
ENDBRANCH  67  80
ENDBRANCH  41  42
ENDBRANCH  33  36
ENDBRANCH  31  32
ENDBRANCH  30  31
ENDBRANCH  29  30
ENDBRANCH   1  29
TORSDOF 16
