REMARK SMILES O=C(NCCCCCCNC(=O)[C@H]1CC2(CCN(C(=O)C3CC3)CC2)CN1C(=O)CCn1cccn1)c1ccc(-c2c3nc(c(-c4ccccc4)c4ccc([nH]4)c(-c4ccccc4)c4nc(c(-c5ccccc5)c5ccc2[nH]5)C=C4)C=C3)cc1
REMARK SMILES IDX 7 1 6 2 5 3 4 4 3 5 1 6 2 7 37 9 38 10 84 11 39 12 83 13
REMARK SMILES IDX 40 14 41 15 42 16 77 17 43 18 82 19 76 20 78 21 44 22 81 23
REMARK SMILES IDX 75 24 74 25 45 27 67 28 52 29 66 30 53 31 56 32 65 33 79 34
REMARK SMILES IDX 54 35 55 36 64 38 80 39 57 40 46 41 47 42 51 43 48 44 50 45
REMARK SMILES IDX 49 46 68 47 69 48 73 49 70 50 72 51 71 52 58 53 59 54 63 55
REMARK SMILES IDX 60 56 62 57 61 58 8 59 9 60 10 61 11 62 12 64 13 65 14 66
REMARK SMILES IDX 27 67 15 68 26 69 16 70 25 71 17 72 24 73 18 74 19 75 20 76
REMARK SMILES IDX 28 77 29 78 30 79 31 80 32 81 33 82 36 83 34 84 35 85 21 86
REMARK SMILES IDX 22 87 23 88
REMARK H PARENT 3 8 78 26 56 37 10 63
REMARK Flexibility Score: inf
ROOT
ATOM      1  C   UNL     1      10.121  11.383  -4.384  1.00  0.00     0.002 C 
ENDROOT
BRANCH   1   2
ATOM      2  C   UNL     1       9.152  12.548  -4.265  1.00  0.00     0.002 C 
BRANCH   2   3
ATOM      3  C   UNL     1       8.934  13.060  -2.840  1.00  0.00     0.021 C 
BRANCH   3   4
ATOM      4  C   UNL     1      10.208  13.335  -2.031  1.00  0.00     0.116 C 
BRANCH   4   5
ATOM      5  N   UNL     1      11.048  14.391  -2.542  1.00  0.00    -0.352 N 
ATOM      6  O   UNL     1      11.912  16.394  -2.948  1.00  0.00    -0.269 OA
ATOM      7  C   UNL     1      10.946  15.752  -2.534  1.00  0.00     0.251 C 
ATOM      8  H   UNL     1      11.862  14.063  -2.988  1.00  0.00     0.163 HD
BRANCH   7   9
ATOM      9  C   UNL     1       9.713  16.477  -2.140  1.00  0.00     0.039 A 
ATOM     10  C   UNL     1       8.699  15.967  -1.327  1.00  0.00     0.014 A 
ATOM     11  C   UNL     1       9.575  17.771  -2.667  1.00  0.00     0.014 A 
ATOM     12  C   UNL     1       7.516  16.669  -1.157  1.00  0.00     0.010 A 
ATOM     13  C   UNL     1       8.418  18.504  -2.452  1.00  0.00     0.010 A 
ATOM     14  C   UNL     1       7.372  17.930  -1.734  1.00  0.00    -0.014 A 
BRANCH  14  15
ATOM     15  C   UNL     1       6.168  18.685  -1.410  1.00  0.00     0.031 A 
ATOM     16  C   UNL     1       5.991  18.981   0.043  1.00  0.00     0.074 A 
ATOM     17  C   UNL     1       5.355  19.216  -2.341  1.00  0.00     0.049 A 
ATOM     18  N   UNL     1       4.990  18.687   0.808  1.00  0.00    -0.248 NA
ATOM     19  C   UNL     1       7.121  19.608   0.750  1.00  0.00     0.031 C 
ATOM     20  C   UNL     1       5.555  19.269  -3.792  1.00  0.00     0.029 A 
ATOM     21  N   UNL     1       4.221  19.947  -2.159  1.00  0.00    -0.354 N 
ATOM     22  C   UNL     1       5.289  19.225   2.060  1.00  0.00     0.074 A 
ATOM     23  C   UNL     1       6.655  19.678   1.996  1.00  0.00     0.031 C 
ATOM     24  C   UNL     1       4.722  20.195  -4.319  1.00  0.00     0.029 A 
ATOM     25  C   UNL     1       3.843  20.685  -3.271  1.00  0.00     0.049 A 
ATOM     26  H   UNL     1       3.715  19.951  -1.314  1.00  0.00     0.167 HD
ATOM     27  C   UNL     1       4.335  19.438   3.007  1.00  0.00     0.031 A 
ATOM     28  C   UNL     1       2.925  21.681  -3.305  1.00  0.00     0.031 A 
ATOM     29  C   UNL     1       3.140  18.682   2.754  1.00  0.00     0.049 A 
ATOM     30  C   UNL     1       2.071  21.553  -2.104  1.00  0.00     0.074 A 
ATOM     31  C   UNL     1       2.832  17.339   2.677  1.00  0.00     0.029 A 
ATOM     32  N   UNL     1       2.080  19.344   2.187  1.00  0.00    -0.354 N 
ATOM     33  N   UNL     1       1.241  20.570  -1.911  1.00  0.00    -0.248 NA
ATOM     34  C   UNL     1       2.444  22.299  -0.912  1.00  0.00     0.031 C 
ATOM     35  C   UNL     1       1.859  17.248   1.640  1.00  0.00     0.029 A 
ATOM     36  C   UNL     1       1.599  18.543   1.187  1.00  0.00     0.049 A 
ATOM     37  H   UNL     1       1.731  20.226   2.450  1.00  0.00     0.167 HD
ATOM     38  C   UNL     1       1.325  20.298  -0.554  1.00  0.00     0.074 A 
ATOM     39  C   UNL     1       1.998  21.459   0.025  1.00  0.00     0.031 C 
ATOM     40  C   UNL     1       1.094  19.042  -0.071  1.00  0.00     0.031 A 
BRANCH  27  41
ATOM     41  C   UNL     1       4.337  20.628   3.937  1.00  0.00    -0.014 A 
ATOM     42  C   UNL     1       3.300  20.752   4.880  1.00  0.00     0.009 A 
ATOM     43  C   UNL     1       5.133  21.768   3.720  1.00  0.00     0.009 A 
ATOM     44  C   UNL     1       3.020  21.976   5.500  1.00  0.00     0.001 A 
ATOM     45  C   UNL     1       4.883  22.980   4.369  1.00  0.00     0.001 A 
ATOM     46  C   UNL     1       3.805  23.092   5.235  1.00  0.00     0.000 A 
ENDBRANCH  27  41
BRANCH  28  47
ATOM     47  C   UNL     1       2.930  22.900  -4.141  1.00  0.00    -0.014 A 
ATOM     48  C   UNL     1       1.760  23.651  -4.328  1.00  0.00     0.009 A 
ATOM     49  C   UNL     1       4.151  23.478  -4.537  1.00  0.00     0.009 A 
ATOM     50  C   UNL     1       1.815  24.946  -4.864  1.00  0.00     0.001 A 
ATOM     51  C   UNL     1       4.206  24.767  -5.073  1.00  0.00     0.001 A 
ATOM     52  C   UNL     1       3.038  25.507  -5.224  1.00  0.00     0.000 A 
ENDBRANCH  28  47
BRANCH  40  53
ATOM     53  C   UNL     1       0.530  18.010  -1.015  1.00  0.00    -0.014 A 
ATOM     54  C   UNL     1       1.214  17.574  -2.164  1.00  0.00     0.009 A 
ATOM     55  C   UNL     1      -0.638  17.333  -0.637  1.00  0.00     0.009 A 
ATOM     56  C   UNL     1       0.728  16.504  -2.922  1.00  0.00     0.001 A 
ATOM     57  C   UNL     1      -1.112  16.252  -1.382  1.00  0.00     0.001 A 
ATOM     58  C   UNL     1      -0.431  15.840  -2.526  1.00  0.00     0.000 A 
ENDBRANCH  40  53
ENDBRANCH  14  15
ENDBRANCH   7   9
ENDBRANCH   4   5
ENDBRANCH   3   4
ENDBRANCH   2   3
ENDBRANCH   1   2
BRANCH   1  59
ATOM     59  C   UNL     1       9.951  10.286  -3.336  1.00  0.00     0.021 C 
BRANCH  59  60
ATOM     60  C   UNL     1       8.713   9.386  -3.445  1.00  0.00     0.116 C 
BRANCH  60  61
ATOM     61  N   UNL     1       8.767   8.456  -4.550  1.00  0.00    -0.354 N 
ATOM     62  C   UNL     1       8.623   7.103  -4.594  1.00  0.00     0.242 C 
ATOM     63  H   UNL     1       8.936   8.875  -5.425  1.00  0.00     0.163 HD
ATOM     64  O   UNL     1       8.209   6.651  -5.672  1.00  0.00    -0.273 OA
BRANCH  62  65
ATOM     65  C   UNL     1       8.701   6.158  -3.355  1.00  0.00     0.175 C 
ATOM     66  C   UNL     1       8.770   4.677  -3.783  1.00  0.00     0.044 C 
ATOM     67  N   UNL     1       9.530   6.098  -2.136  1.00  0.00    -0.330 N 
ATOM     68  C   UNL     1       8.843   3.863  -2.452  1.00  0.00    -0.006 C 
ATOM     69  C   UNL     1       8.989   4.970  -1.374  1.00  0.00     0.127 C 
ATOM     70  C   UNL     1      10.079   2.934  -2.378  1.00  0.00     0.030 C 
ATOM     71  C   UNL     1       7.574   3.003  -2.298  1.00  0.00     0.030 C 
ATOM     72  C   UNL     1      10.007   1.751  -3.329  1.00  0.00     0.120 C 
ATOM     73  C   UNL     1       7.569   1.829  -3.294  1.00  0.00     0.120 C 
ATOM     74  N   UNL     1       8.774   1.011  -3.135  1.00  0.00    -0.342 N 
ATOM     75  C   UNL     1       8.604  -0.350  -2.859  1.00  0.00     0.225 C 
ATOM     76  O   UNL     1       7.488  -0.848  -2.866  1.00  0.00    -0.275 OA
BRANCH  67  77
ATOM     77  C   UNL     1      10.931   6.216  -2.125  1.00  0.00     0.225 C 
ATOM     78  O   UNL     1      11.679   5.492  -1.468  1.00  0.00    -0.275 OA
BRANCH  77  79
ATOM     79  C   UNL     1      11.500   7.406  -2.824  1.00  0.00     0.124 C 
BRANCH  79  80
ATOM     80  C   UNL     1      12.475   7.200  -3.963  1.00  0.00     0.154 C 
BRANCH  80  81
ATOM     81  N   UNL     1      11.938   6.484  -5.100  1.00  0.00    -0.272 N 
ATOM     82  C   UNL     1      12.047   5.147  -5.343  1.00  0.00     0.108 A 
ATOM     83  N   UNL     1      11.309   7.153  -6.084  1.00  0.00    -0.182 NA
ATOM     84  C   UNL     1      11.379   4.919  -6.524  1.00  0.00     0.042 A 
ATOM     85  C   UNL     1      10.935   6.190  -6.933  1.00  0.00     0.135 A 
ENDBRANCH  80  81
ENDBRANCH  79  80
ENDBRANCH  77  79
ENDBRANCH  67  77
BRANCH  75  86
ATOM     86  C   UNL     1       9.709  -1.285  -2.471  1.00  0.00     0.079 C 
ATOM     87  C   UNL     1      11.174  -1.298  -2.788  1.00  0.00     0.014 C 
ATOM     88  C   UNL     1      10.714  -0.911  -1.409  1.00  0.00     0.014 C 
ENDBRANCH  75  86
ENDBRANCH  62  65
ENDBRANCH  60  61
ENDBRANCH  59  60
ENDBRANCH   1  59
TORSDOF 18
