REMARK SMILES O=C(NCCCCCCNC(=O)c1ccccc1NC(=O)c1ccc(C[NH+]2CCOCC2)cc1)c1ccc(-c2c3nc(c(-c4ccccc4)c4ccc([nH]4)c(-c4ccccc4)c4nc(c(-c5ccccc5)c5ccc2[nH]5)C=C4)C=C3)cc1
REMARK SMILES IDX 7 1 6 2 5 3 4 4 3 5 1 6 2 7 35 9 36 10 82 11 37 12 81 13
REMARK SMILES IDX 38 14 39 15 40 16 75 17 41 18 80 19 74 20 76 21 42 22 79 23
REMARK SMILES IDX 73 24 72 25 43 27 65 28 50 29 64 30 51 31 54 32 63 33 77 34
REMARK SMILES IDX 52 35 53 36 62 38 78 39 55 40 44 41 45 42 49 43 46 44 48 45
REMARK SMILES IDX 47 46 66 47 67 48 71 49 68 50 70 51 69 52 56 53 57 54 61 55
REMARK SMILES IDX 58 56 60 57 59 58 8 59 9 60 10 61 11 62 12 64 13 65 14 66
REMARK SMILES IDX 18 67 15 68 17 69 16 70 19 71 20 72 21 74 22 75 23 76 34 77
REMARK SMILES IDX 24 78 33 79 25 80 26 81 27 82 28 83 32 84 29 86 31 87 30 88
REMARK H PARENT 3 8 76 26 54 37 10 63 19 73 27 85
REMARK Flexibility Score: inf
ROOT
ATOM      1  C   UNL     1       4.734   1.922   3.793  1.00  0.00     0.002 C 
ENDROOT
BRANCH   1   2
ATOM      2  C   UNL     1       4.245   2.772   2.615  1.00  0.00     0.002 C 
BRANCH   2   3
ATOM      3  C   UNL     1       4.721   2.311   1.239  1.00  0.00     0.021 C 
BRANCH   3   4
ATOM      4  C   UNL     1       4.422   0.854   0.919  1.00  0.00     0.116 C 
BRANCH   4   5
ATOM      5  N   UNL     1       2.997   0.577   0.865  1.00  0.00    -0.352 N 
ATOM      6  O   UNL     1       1.056  -0.049  -0.105  1.00  0.00    -0.269 OA
ATOM      7  C   UNL     1       2.278  -0.031  -0.135  1.00  0.00     0.251 C 
ATOM      8  H   UNL     1       2.477   0.863   1.650  1.00  0.00     0.163 HD
BRANCH   7   9
ATOM      9  C   UNL     1       3.002  -0.657  -1.262  1.00  0.00     0.039 A 
ATOM     10  C   UNL     1       4.099  -1.491  -1.023  1.00  0.00     0.014 A 
ATOM     11  C   UNL     1       2.566  -0.419  -2.567  1.00  0.00     0.014 A 
ATOM     12  C   UNL     1       4.824  -2.002  -2.092  1.00  0.00     0.010 A 
ATOM     13  C   UNL     1       3.246  -1.001  -3.639  1.00  0.00     0.010 A 
ATOM     14  C   UNL     1       4.383  -1.792  -3.408  1.00  0.00    -0.014 A 
BRANCH  14  15
ATOM     15  C   UNL     1       5.043  -2.517  -4.520  1.00  0.00     0.031 A 
ATOM     16  C   UNL     1       5.782  -1.787  -5.603  1.00  0.00     0.074 A 
ATOM     17  C   UNL     1       4.942  -3.860  -4.547  1.00  0.00     0.049 A 
ATOM     18  N   UNL     1       6.375  -2.278  -6.662  1.00  0.00    -0.248 NA
ATOM     19  C   UNL     1       5.865  -0.322  -5.492  1.00  0.00     0.031 C 
ATOM     20  C   UNL     1       4.236  -4.673  -3.550  1.00  0.00     0.029 A 
ATOM     21  N   UNL     1       5.426  -4.781  -5.439  1.00  0.00    -0.354 N 
ATOM     22  C   UNL     1       6.878  -1.185  -7.357  1.00  0.00     0.074 A 
ATOM     23  C   UNL     1       6.514  -0.003  -6.605  1.00  0.00     0.031 C 
ATOM     24  C   UNL     1       4.354  -5.968  -3.873  1.00  0.00     0.029 A 
ATOM     25  C   UNL     1       5.077  -6.074  -5.133  1.00  0.00     0.049 A 
ATOM     26  H   UNL     1       5.971  -4.539  -6.223  1.00  0.00     0.167 HD
ATOM     27  C   UNL     1       7.576  -1.177  -8.518  1.00  0.00     0.031 A 
ATOM     28  C   UNL     1       5.276  -7.218  -5.811  1.00  0.00     0.031 A 
ATOM     29  C   UNL     1       7.934  -2.362  -9.255  1.00  0.00     0.049 A 
ATOM     30  C   UNL     1       6.007  -7.166  -7.120  1.00  0.00     0.074 A 
ATOM     31  C   UNL     1       8.698  -2.460 -10.406  1.00  0.00     0.029 A 
ATOM     32  N   UNL     1       7.538  -3.649  -8.927  1.00  0.00    -0.354 N 
ATOM     33  N   UNL     1       6.544  -6.134  -7.723  1.00  0.00    -0.248 NA
ATOM     34  C   UNL     1       6.155  -8.435  -7.845  1.00  0.00     0.031 C 
ATOM     35  C   UNL     1       8.704  -3.797 -10.814  1.00  0.00     0.029 A 
ATOM     36  C   UNL     1       7.999  -4.541  -9.882  1.00  0.00     0.049 A 
ATOM     37  H   UNL     1       7.009  -3.894  -8.134  1.00  0.00     0.167 HD
ATOM     38  C   UNL     1       7.104  -6.629  -8.891  1.00  0.00     0.074 A 
ATOM     39  C   UNL     1       6.867  -8.058  -8.898  1.00  0.00     0.031 C 
ATOM     40  C   UNL     1       7.749  -5.959  -9.875  1.00  0.00     0.031 A 
BRANCH  27  41
ATOM     41  C   UNL     1       7.974   0.151  -9.098  1.00  0.00    -0.014 A 
ATOM     42  C   UNL     1       8.999   0.924  -8.530  1.00  0.00     0.009 A 
ATOM     43  C   UNL     1       7.372   0.592 -10.288  1.00  0.00     0.009 A 
ATOM     44  C   UNL     1       9.399   2.119  -9.134  1.00  0.00     0.001 A 
ATOM     45  C   UNL     1       7.791   1.774 -10.902  1.00  0.00     0.001 A 
ATOM     46  C   UNL     1       8.801   2.539 -10.322  1.00  0.00     0.000 A 
ENDBRANCH  27  41
BRANCH  28  47
ATOM     47  C   UNL     1       4.724  -8.497  -5.292  1.00  0.00    -0.014 A 
ATOM     48  C   UNL     1       5.574  -9.526  -4.863  1.00  0.00     0.009 A 
ATOM     49  C   UNL     1       3.334  -8.695  -5.233  1.00  0.00     0.009 A 
ATOM     50  C   UNL     1       5.044 -10.739  -4.416  1.00  0.00     0.001 A 
ATOM     51  C   UNL     1       2.807  -9.894  -4.752  1.00  0.00     0.001 A 
ATOM     52  C   UNL     1       3.662 -10.920  -4.357  1.00  0.00     0.000 A 
ENDBRANCH  28  47
BRANCH  40  53
ATOM     53  C   UNL     1       8.259  -6.768 -11.033  1.00  0.00    -0.014 A 
ATOM     54  C   UNL     1       7.379  -7.299 -11.989  1.00  0.00     0.009 A 
ATOM     55  C   UNL     1       9.639  -6.964 -11.193  1.00  0.00     0.009 A 
ATOM     56  C   UNL     1       7.871  -8.032 -13.069  1.00  0.00     0.001 A 
ATOM     57  C   UNL     1      10.130  -7.670 -12.291  1.00  0.00     0.001 A 
ATOM     58  C   UNL     1       9.246  -8.210 -13.223  1.00  0.00     0.000 A 
ENDBRANCH  40  53
ENDBRANCH  14  15
ENDBRANCH   7   9
ENDBRANCH   4   5
ENDBRANCH   3   4
ENDBRANCH   2   3
ENDBRANCH   1   2
BRANCH   1  59
ATOM     59  C   UNL     1       6.254   1.739   3.895  1.00  0.00     0.021 C 
BRANCH  59  60
ATOM     60  C   UNL     1       7.057   3.037   3.910  1.00  0.00     0.116 C 
BRANCH  60  61
ATOM     61  N   UNL     1       6.658   3.899   5.009  1.00  0.00    -0.352 N 
ATOM     62  C   UNL     1       7.417   4.474   5.992  1.00  0.00     0.253 C 
ATOM     63  H   UNL     1       5.695   4.101   5.053  1.00  0.00     0.163 HD
ATOM     64  O   UNL     1       6.870   4.990   6.963  1.00  0.00    -0.269 OA
BRANCH  62  65
ATOM     65  C   UNL     1       8.890   4.514   5.891  1.00  0.00     0.063 A 
ATOM     66  C   UNL     1       9.603   3.997   6.984  1.00  0.00     0.016 A 
ATOM     67  C   UNL     1       9.560   5.113   4.807  1.00  0.00     0.054 A 
ATOM     68  C   UNL     1      10.993   4.074   7.013  1.00  0.00     0.001 A 
ATOM     69  C   UNL     1      10.947   5.264   4.913  1.00  0.00     0.027 A 
ATOM     70  C   UNL     1      11.662   4.728   5.988  1.00  0.00     0.002 A 
BRANCH  67  71
ATOM     71  N   UNL     1       8.814   5.521   3.675  1.00  0.00    -0.321 N 
ATOM     72  C   UNL     1       9.159   5.720   2.360  1.00  0.00     0.255 C 
ATOM     73  H   UNL     1       7.865   5.697   3.868  1.00  0.00     0.170 HD
ATOM     74  O   UNL     1       8.302   5.994   1.523  1.00  0.00    -0.269 OA
BRANCH  72  75
ATOM     75  C   UNL     1      10.549   5.580   1.917  1.00  0.00     0.040 A 
ATOM     76  C   UNL     1      11.227   6.748   1.571  1.00  0.00     0.014 A 
ATOM     77  C   UNL     1      11.196   4.340   1.938  1.00  0.00     0.014 A 
ATOM     78  C   UNL     1      12.585   6.684   1.287  1.00  0.00     0.010 A 
ATOM     79  C   UNL     1      12.559   4.284   1.655  1.00  0.00     0.010 A 
ATOM     80  C   UNL     1      13.259   5.451   1.304  1.00  0.00     0.006 A 
BRANCH  80  81
ATOM     81  C   UNL     1      14.708   5.384   0.888  1.00  0.00     0.299 C 
BRANCH  81  82
ATOM     82  N   UNL     1      14.962   5.181  -0.538  1.00  0.00    -0.327 N 
ATOM     83  C   UNL     1      14.492   6.248  -1.436  1.00  0.00     0.291 C 
ATOM     84  C   UNL     1      14.617   3.852  -1.066  1.00  0.00     0.291 C 
ATOM     85  H   UNL     1      15.981   5.235  -0.548  1.00  0.00     0.348 HD
ATOM     86  C   UNL     1      13.092   6.038  -2.044  1.00  0.00     0.221 C 
ATOM     87  C   UNL     1      13.213   3.727  -1.683  1.00  0.00     0.221 C 
ATOM     88  O   UNL     1      12.980   4.749  -2.657  1.00  0.00    -0.370 OA
ENDBRANCH  81  82
ENDBRANCH  80  81
ENDBRANCH  72  75
ENDBRANCH  67  71
ENDBRANCH  62  65
ENDBRANCH  60  61
ENDBRANCH  59  60
ENDBRANCH   1  59
TORSDOF 17
