REMARK SMILES Cc1cc(Cl)c2c(c1)C=C(C(=O)NCCCCCCNC(=O)c1ccc(-c3c4nc(c(-c5ccccc5)c5ccc([nH]5)c(-c5ccccc5)c5nc(c(-c6ccccc6)c6ccc3[nH]6)C=C5)C=C4)cc1)[C@@H](C(F)(F)F)O2
REMARK SMILES IDX 17 1 16 2 15 3 14 4 13 5 11 6 12 7 10 9 1 10 2 11 3 12 8 13
REMARK SMILES IDX 4 14 7 15 5 16 6 17 9 18 76 19 71 20 72 21 73 22 74 23 75 24
REMARK SMILES IDX 18 25 19 26 20 27 21 28 22 30 23 31 24 32 70 33 25 34 69 35
REMARK SMILES IDX 26 36 27 37 28 38 63 39 29 40 68 41 62 42 64 43 30 44 67 45
REMARK SMILES IDX 61 46 60 47 31 49 53 50 38 51 52 52 39 53 42 54 51 55 65 56
REMARK SMILES IDX 40 57 41 58 50 60 66 61 43 62 32 63 33 64 37 65 34 66 36 67
REMARK SMILES IDX 35 68 54 69 55 70 59 71 56 72 58 73 57 74 44 75 45 76 49 77
REMARK SMILES IDX 46 78 48 79 47 80
REMARK H PARENT 13 8 20 29 64 48 42 59
REMARK Flexibility Score: inf
ROOT
ATOM      1  C   UNL     1       0.441  12.178  -1.709  1.00  0.00     0.002 C 
ENDROOT
BRANCH   1   2
ATOM      2  C   UNL     1      -0.126  11.447  -0.484  1.00  0.00     0.002 C 
BRANCH   2   3
ATOM      3  C   UNL     1      -0.664  10.042  -0.766  1.00  0.00     0.021 C 
BRANCH   3   4
ATOM      4  C   UNL     1       0.358   9.122  -1.422  1.00  0.00     0.116 C 
BRANCH   4   5
ATOM      5  N   UNL     1       1.221   8.491  -0.440  1.00  0.00    -0.352 N 
ATOM      6  C   UNL     1       1.528   7.230  -0.057  1.00  0.00     0.251 C 
ATOM      7  O   UNL     1       2.368   7.143   0.844  1.00  0.00    -0.270 OA
ATOM      8  H   UNL     1       1.714   9.159   0.089  1.00  0.00     0.163 HD
BRANCH   6   9
ATOM      9  C   UNL     1       0.934   5.987  -0.636  1.00  0.00     0.067 C 
ATOM     10  C   UNL     1       1.057  -0.154   0.107  1.00  0.00     0.044 C 
ATOM     11  C   UNL     1       0.606   1.153  -0.475  1.00  0.00    -0.049 A 
ATOM     12  C   UNL     1      -0.383   1.186  -1.464  1.00  0.00     0.028 A 
ATOM     13  C   UNL     1       1.144   2.358   0.000  1.00  0.00     0.015 A 
ATOM     14  C   UNL     1      -0.812   2.406  -1.985  1.00  0.00     0.084 A 
ATOM     15  C   UNL     1       0.716   3.584  -0.522  1.00  0.00     0.019 A 
ATOM     16  Cl  UNL     1      -2.036   2.399  -3.204  1.00  0.00    -0.080 Cl
ATOM     17  C   UNL     1      -0.256   3.602  -1.524  1.00  0.00     0.146 A 
ATOM     18  C   UNL     1       1.243   4.841  -0.003  1.00  0.00     0.025 C 
ATOM     19  O   UNL     1      -0.732   4.770  -2.046  1.00  0.00    -0.474 OA
ATOM     20  C   UNL     1       0.075   5.959  -1.866  1.00  0.00     0.314 C 
BRANCH  20  21
ATOM     21  C   UNL     1       0.872   6.230  -3.155  1.00  0.00     0.429 C 
ATOM     22  F   UNL     1       0.037   6.586  -4.164  1.00  0.00    -0.167 F 
ATOM     23  F   UNL     1       1.756   7.246  -3.020  1.00  0.00    -0.167 F 
ATOM     24  F   UNL     1       1.573   5.151  -3.567  1.00  0.00    -0.167 F 
ENDBRANCH  20  21
ENDBRANCH   6   9
ENDBRANCH   4   5
ENDBRANCH   3   4
ENDBRANCH   2   3
ENDBRANCH   1   2
BRANCH   1  25
ATOM     25  C   UNL     1      -0.475  12.197  -2.936  1.00  0.00     0.021 C 
BRANCH  25  26
ATOM     26  C   UNL     1      -1.843  12.818  -2.683  1.00  0.00     0.116 C 
BRANCH  26  27
ATOM     27  N   UNL     1      -1.733  14.200  -2.248  1.00  0.00    -0.352 N 
ATOM     28  C   UNL     1      -2.237  15.332  -2.830  1.00  0.00     0.251 C 
ATOM     29  H   UNL     1      -1.224  14.342  -1.418  1.00  0.00     0.163 HD
ATOM     30  O   UNL     1      -1.857  16.442  -2.466  1.00  0.00    -0.269 OA
BRANCH  28  31
ATOM     31  C   UNL     1      -3.236  15.210  -3.908  1.00  0.00     0.039 A 
ATOM     32  C   UNL     1      -3.093  15.991  -5.056  1.00  0.00     0.014 A 
ATOM     33  C   UNL     1      -4.316  14.330  -3.777  1.00  0.00     0.014 A 
ATOM     34  C   UNL     1      -4.012  15.857  -6.096  1.00  0.00     0.010 A 
ATOM     35  C   UNL     1      -5.186  14.143  -4.844  1.00  0.00     0.010 A 
ATOM     36  C   UNL     1      -5.051  14.914  -6.007  1.00  0.00    -0.014 A 
BRANCH  36  37
ATOM     37  C   UNL     1      -6.021  14.744  -7.114  1.00  0.00     0.031 A 
ATOM     38  C   UNL     1      -7.466  15.099  -6.904  1.00  0.00     0.074 A 
ATOM     39  C   UNL     1      -5.606  14.243  -8.294  1.00  0.00     0.049 A 
ATOM     40  N   UNL     1      -8.468  14.998  -7.740  1.00  0.00    -0.248 NA
ATOM     41  C   UNL     1      -7.842  15.620  -5.579  1.00  0.00     0.031 C 
ATOM     42  C   UNL     1      -4.234  13.842  -8.608  1.00  0.00     0.029 A 
ATOM     43  N   UNL     1      -6.300  13.991  -9.450  1.00  0.00    -0.354 N 
ATOM     44  C   UNL     1      -9.586  15.436  -7.042  1.00  0.00     0.074 A 
ATOM     45  C   UNL     1      -9.155  15.749  -5.699  1.00  0.00     0.031 C 
ATOM     46  C   UNL     1      -4.179  13.431  -9.885  1.00  0.00     0.029 A 
ATOM     47  C   UNL     1      -5.516  13.497 -10.465  1.00  0.00     0.049 A 
ATOM     48  H   UNL     1      -7.267  14.149  -9.544  1.00  0.00     0.167 HD
ATOM     49  C   UNL     1     -10.854  15.589  -7.489  1.00  0.00     0.031 A 
ATOM     50  C   UNL     1      -5.840  13.136 -11.721  1.00  0.00     0.031 A 
ATOM     51  C   UNL     1     -11.278  15.287  -8.829  1.00  0.00     0.049 A 
ATOM     52  C   UNL     1      -7.266  13.276 -12.178  1.00  0.00     0.074 A 
ATOM     53  C   UNL     1     -12.533  15.447  -9.388  1.00  0.00     0.029 A 
ATOM     54  N   UNL     1     -10.459  14.764  -9.817  1.00  0.00    -0.354 N 
ATOM     55  N   UNL     1      -8.300  13.745 -11.523  1.00  0.00    -0.248 NA
ATOM     56  C   UNL     1      -7.569  12.844 -13.550  1.00  0.00     0.031 C 
ATOM     57  C   UNL     1     -12.489  14.966 -10.699  1.00  0.00     0.029 A 
ATOM     58  C   UNL     1     -11.190  14.568 -10.976  1.00  0.00     0.049 A 
ATOM     59  H   UNL     1      -9.501  14.563  -9.711  1.00  0.00     0.167 HD
ATOM     60  C   UNL     1      -9.369  13.687 -12.408  1.00  0.00     0.074 A 
ATOM     61  C   UNL     1      -8.853  13.156 -13.653  1.00  0.00     0.031 C 
ATOM     62  C   UNL     1     -10.662  14.039 -12.206  1.00  0.00     0.031 A 
BRANCH  49  63
ATOM     63  C   UNL     1     -11.878  16.117  -6.524  1.00  0.00    -0.014 A 
ATOM     64  C   UNL     1     -11.855  17.457  -6.106  1.00  0.00     0.009 A 
ATOM     65  C   UNL     1     -12.924  15.288  -6.090  1.00  0.00     0.009 A 
ATOM     66  C   UNL     1     -12.847  17.950  -5.256  1.00  0.00     0.001 A 
ATOM     67  C   UNL     1     -13.930  15.791  -5.264  1.00  0.00     0.001 A 
ATOM     68  C   UNL     1     -13.888  17.119  -4.844  1.00  0.00     0.000 A 
ENDBRANCH  49  63
BRANCH  50  69
ATOM     69  C   UNL     1      -4.790  12.625 -12.642  1.00  0.00    -0.014 A 
ATOM     70  C   UNL     1      -4.383  13.386 -13.749  1.00  0.00     0.009 A 
ATOM     71  C   UNL     1      -4.184  11.379 -12.418  1.00  0.00     0.009 A 
ATOM     72  C   UNL     1      -3.407  12.900 -14.623  1.00  0.00     0.001 A 
ATOM     73  C   UNL     1      -3.186  10.909 -13.275  1.00  0.00     0.001 A 
ATOM     74  C   UNL     1      -2.805  11.666 -14.381  1.00  0.00     0.000 A 
ENDBRANCH  50  69
BRANCH  62  75
ATOM     75  C   UNL     1     -11.614  13.883 -13.358  1.00  0.00    -0.014 A 
ATOM     76  C   UNL     1     -12.042  12.615 -13.779  1.00  0.00     0.009 A 
ATOM     77  C   UNL     1     -12.155  15.024 -13.973  1.00  0.00     0.009 A 
ATOM     78  C   UNL     1     -12.977  12.492 -14.808  1.00  0.00     0.001 A 
ATOM     79  C   UNL     1     -13.113  14.898 -14.980  1.00  0.00     0.001 A 
ATOM     80  C   UNL     1     -13.518  13.633 -15.401  1.00  0.00     0.000 A 
ENDBRANCH  62  75
ENDBRANCH  36  37
ENDBRANCH  28  31
ENDBRANCH  26  27
ENDBRANCH  25  26
ENDBRANCH   1  25
TORSDOF 14
