REMARK SMILES COCc1cccc(C(=O)N2C[C@@H](O)C[C@@H]2C(=O)NCCCCCCNC(=O)c2ccc(-c3c4nc(c(-c5ccccc5)c5ccc([nH]5)c(-c5ccccc5)c5nc(c(-c6ccccc6)c6ccc3[nH]6)C=C5)C=C4)cc2)c1
REMARK SMILES IDX 21 1 20 2 19 3 17 4 18 5 16 7 11 8 12 9 13 10 15 11 9 12
REMARK SMILES IDX 10 13 8 14 4 15 5 16 77 17 6 18 7 19 3 20 2 21 1 22 14 23
REMARK SMILES IDX 22 25 23 26 24 27 25 28 26 29 27 30 28 32 29 33 30 34 76 35
REMARK SMILES IDX 31 36 75 37 32 38 33 39 34 40 69 41 35 42 74 43 68 44 70 45
REMARK SMILES IDX 36 46 73 47 67 48 66 49 37 51 59 52 44 53 58 54 45 55 48 56
REMARK SMILES IDX 57 57 71 58 46 59 47 60 56 62 72 63 49 64 38 65 39 66 43 67
REMARK SMILES IDX 40 68 42 69 41 70 60 71 61 72 65 73 62 74 64 75 63 76 50 77
REMARK SMILES IDX 51 78 55 79 52 80 54 81 53 82
REMARK H PARENT 19 6 14 24 26 31 70 50 48 61
REMARK Flexibility Score: inf
ROOT
ATOM      1  C   UNL     1      -4.612   2.450   5.602  1.00  0.00     0.021 C 
ENDROOT
BRANCH   1   2
ATOM      2  C   UNL     1      -4.228   1.005   5.292  1.00  0.00     0.116 C 
BRANCH   2   3
ATOM      3  N   UNL     1      -4.021   0.808   3.874  1.00  0.00    -0.354 N 
ATOM      4  C   UNL     1      -2.843   0.703   3.193  1.00  0.00     0.242 C 
ATOM      5  O   UNL     1      -2.882   0.612   1.964  1.00  0.00    -0.273 OA
ATOM      6  H   UNL     1      -4.837   0.740   3.328  1.00  0.00     0.163 HD
BRANCH   4   7
ATOM      7  C   UNL     1      -1.528   0.598   3.987  1.00  0.00     0.177 C 
ATOM      8  N   UNL     1      -0.451   1.278   3.285  1.00  0.00    -0.324 N 
ATOM      9  C   UNL     1       0.646   0.367   3.012  1.00  0.00     0.152 C 
ATOM     10  C   UNL     1      -0.048  -0.986   2.917  1.00  0.00     0.136 C 
ATOM     11  C   UNL     1      -1.109  -0.881   4.019  1.00  0.00     0.069 C 
BRANCH   8  12
ATOM     12  C   UNL     1      -0.564   2.626   3.010  1.00  0.00     0.254 C 
ATOM     13  O   UNL     1      -1.192   3.388   3.740  1.00  0.00    -0.269 OA
BRANCH  12  14
ATOM     14  C   UNL     1      -0.036   3.120   1.709  1.00  0.00     0.040 A 
ATOM     15  C   UNL     1       0.535   2.694  -0.628  1.00  0.00    -0.022 A 
ATOM     16  C   UNL     1       0.867   4.048  -0.767  1.00  0.00     0.006 A 
ATOM     17  C   UNL     1       0.016   2.268   0.598  1.00  0.00     0.020 A 
ATOM     18  C   UNL     1       0.720   4.934   0.307  1.00  0.00     0.001 A 
ATOM     19  C   UNL     1       0.286   4.468   1.550  1.00  0.00     0.014 A 
BRANCH  15  20
ATOM     20  C   UNL     1       0.740   1.735  -1.782  1.00  0.00     0.195 C 
BRANCH  20  21
ATOM     21  O   UNL     1       0.329   0.394  -1.500  1.00  0.00    -0.380 OA
ATOM     22  C   UNL     1       1.355  -0.406  -0.925  1.00  0.00     0.195 C 
ENDBRANCH  20  21
ENDBRANCH  15  20
ENDBRANCH  12  14
ENDBRANCH   8  12
BRANCH  10  23
ATOM     23  O   UNL     1       0.829  -2.081   3.119  1.00  0.00    -0.391 OA
ATOM     24  H   UNL     1       1.252  -2.000   3.988  1.00  0.00     0.211 HD
ENDBRANCH  10  23
ENDBRANCH   4   7
ENDBRANCH   2   3
ENDBRANCH   1   2
BRANCH   1  25
ATOM     25  C   UNL     1      -5.986   2.857   5.054  1.00  0.00     0.002 C 
BRANCH  25  26
ATOM     26  C   UNL     1      -7.145   1.938   5.460  1.00  0.00     0.002 C 
BRANCH  26  27
ATOM     27  C   UNL     1      -7.287   1.704   6.966  1.00  0.00     0.021 C 
BRANCH  27  28
ATOM     28  C   UNL     1      -7.513   2.970   7.783  1.00  0.00     0.116 C 
BRANCH  28  29
ATOM     29  N   UNL     1      -8.771   3.617   7.448  1.00  0.00    -0.352 N 
ATOM     30  C   UNL     1      -9.812   3.976   8.268  1.00  0.00     0.251 C 
ATOM     31  H   UNL     1      -8.894   3.828   6.494  1.00  0.00     0.163 HD
ATOM     32  O   UNL     1     -10.883   4.332   7.790  1.00  0.00    -0.269 OA
BRANCH  30  33
ATOM     33  C   UNL     1      -9.646   3.908   9.735  1.00  0.00     0.039 A 
ATOM     34  C   UNL     1     -10.665   3.340  10.503  1.00  0.00     0.014 A 
ATOM     35  C   UNL     1      -8.493   4.403  10.351  1.00  0.00     0.014 A 
ATOM     36  C   UNL     1     -10.499   3.208  11.883  1.00  0.00     0.010 A 
ATOM     37  C   UNL     1      -8.298   4.206  11.715  1.00  0.00     0.010 A 
ATOM     38  C   UNL     1      -9.298   3.604  12.494  1.00  0.00    -0.014 A 
BRANCH  38  39
ATOM     39  C   UNL     1      -9.063   3.378  13.942  1.00  0.00     0.031 A 
ATOM     40  C   UNL     1      -8.883   4.543  14.875  1.00  0.00     0.074 A 
ATOM     41  C   UNL     1      -8.947   2.119  14.406  1.00  0.00     0.049 A 
ATOM     42  N   UNL     1      -8.617   4.539  16.157  1.00  0.00    -0.248 NA
ATOM     43  C   UNL     1      -8.998   5.888  14.288  1.00  0.00     0.031 C 
ATOM     44  C   UNL     1      -9.065   0.903  13.597  1.00  0.00     0.029 A 
ATOM     45  N   UNL     1      -8.699   1.652  15.672  1.00  0.00    -0.354 N 
ATOM     46  C   UNL     1      -8.519   5.875  16.526  1.00  0.00     0.074 A 
ATOM     47  C   UNL     1      -8.705   6.660  15.325  1.00  0.00     0.031 C 
ATOM     48  C   UNL     1      -8.918  -0.169  14.392  1.00  0.00     0.029 A 
ATOM     49  C   UNL     1      -8.652   0.281  15.754  1.00  0.00     0.049 A 
ATOM     50  H   UNL     1      -8.568   2.243  16.448  1.00  0.00     0.167 HD
ATOM     51  C   UNL     1      -8.311   6.401  17.756  1.00  0.00     0.031 A 
ATOM     52  C   UNL     1      -8.411  -0.524  16.806  1.00  0.00     0.031 A 
ATOM     53  C   UNL     1      -8.127   5.621  18.951  1.00  0.00     0.049 A 
ATOM     54  C   UNL     1      -8.150   0.086  18.154  1.00  0.00     0.074 A 
ATOM     55  C   UNL     1      -7.963   6.063  20.252  1.00  0.00     0.029 A 
ATOM     56  N   UNL     1      -8.077   4.236  18.990  1.00  0.00    -0.354 N 
ATOM     57  N   UNL     1      -8.129   1.351  18.498  1.00  0.00    -0.248 NA
ATOM     58  C   UNL     1      -7.886  -0.845  19.260  1.00  0.00     0.031 C 
ATOM     59  C   UNL     1      -7.756   4.947  21.070  1.00  0.00     0.029 A 
ATOM     60  C   UNL     1      -7.853   3.808  20.288  1.00  0.00     0.049 A 
ATOM     61  H   UNL     1      -8.185   3.645  18.210  1.00  0.00     0.167 HD
ATOM     62  C   UNL     1      -7.875   1.367  19.864  1.00  0.00     0.074 A 
ATOM     63  C   UNL     1      -7.769  -0.014  20.287  1.00  0.00     0.031 C 
ATOM     64  C   UNL     1      -7.742   2.431  20.693  1.00  0.00     0.031 A 
BRANCH  51  65
ATOM     65  C   UNL     1      -8.261   7.900  17.869  1.00  0.00    -0.014 A 
ATOM     66  C   UNL     1      -9.415   8.682  17.695  1.00  0.00     0.009 A 
ATOM     67  C   UNL     1      -7.053   8.538  18.191  1.00  0.00     0.009 A 
ATOM     68  C   UNL     1      -9.351  10.073  17.804  1.00  0.00     0.001 A 
ATOM     69  C   UNL     1      -6.998   9.926  18.329  1.00  0.00     0.001 A 
ATOM     70  C   UNL     1      -8.145  10.693  18.126  1.00  0.00     0.000 A 
ENDBRANCH  51  65
BRANCH  52  71
ATOM     71  C   UNL     1      -8.413  -2.000  16.630  1.00  0.00    -0.014 A 
ATOM     72  C   UNL     1      -9.436  -2.782  17.187  1.00  0.00     0.009 A 
ATOM     73  C   UNL     1      -7.388  -2.636  15.910  1.00  0.00     0.009 A 
ATOM     74  C   UNL     1      -9.418  -4.172  17.051  1.00  0.00     0.001 A 
ATOM     75  C   UNL     1      -7.390  -4.023  15.750  1.00  0.00     0.001 A 
ATOM     76  C   UNL     1      -8.399  -4.791  16.329  1.00  0.00     0.000 A 
ENDBRANCH  52  71
BRANCH  64  77
ATOM     77  C   UNL     1      -7.494   2.142  22.147  1.00  0.00    -0.014 A 
ATOM     78  C   UNL     1      -6.258   1.649  22.592  1.00  0.00     0.009 A 
ATOM     79  C   UNL     1      -8.501   2.405  23.090  1.00  0.00     0.009 A 
ATOM     80  C   UNL     1      -6.046   1.394  23.948  1.00  0.00     0.001 A 
ATOM     81  C   UNL     1      -8.276   2.178  24.448  1.00  0.00     0.001 A 
ATOM     82  C   UNL     1      -7.053   1.664  24.875  1.00  0.00     0.000 A 
ENDBRANCH  64  77
ENDBRANCH  38  39
ENDBRANCH  30  33
ENDBRANCH  28  29
ENDBRANCH  27  28
ENDBRANCH  26  27
ENDBRANCH  25  26
ENDBRANCH   1  25
TORSDOF 18
