REMARK SMILES O=C(NCCCCCCNC(=O)c1cccc(-c2c(F)cc(F)cc2F)c1)c1ccc(-c2c3nc(c(-c4ccccc4)c4ccc([nH]4)c(-c4ccccc4)c4nc(c(-c5ccccc5)c5ccc2[nH]5)C=C4)C=C3)cc1
REMARK SMILES IDX 6 1 5 2 4 3 3 4 1 5 2 6 28 8 29 9 75 10 30 11 74 12 31 13
REMARK SMILES IDX 32 14 33 15 68 16 34 17 73 18 67 19 69 20 35 21 72 22 66 23
REMARK SMILES IDX 65 24 36 26 58 27 43 28 57 29 44 30 47 31 56 32 70 33 45 34
REMARK SMILES IDX 46 35 55 37 71 38 48 39 37 40 38 41 42 42 39 43 41 44 40 45
REMARK SMILES IDX 59 46 60 47 64 48 61 49 63 50 62 51 49 52 50 53 54 54 51 55
REMARK SMILES IDX 53 56 52 57 7 58 8 59 9 60 10 61 11 62 12 64 13 65 14 66
REMARK SMILES IDX 27 67 15 68 17 69 16 70 18 71 19 72 25 73 20 74 21 75 24 76
REMARK SMILES IDX 26 77 22 78 23 79
REMARK H PARENT 3 7 69 25 47 36 10 63
REMARK Flexibility Score: inf
ROOT
ATOM      1  C   UNL     1       4.248   1.631  -3.690  1.00  0.00     0.002 C 
ENDROOT
BRANCH   1   2
ATOM      2  C   UNL     1       4.698   0.456  -2.825  1.00  0.00     0.021 C 
BRANCH   2   3
ATOM      3  C   UNL     1       4.473   0.627  -1.329  1.00  0.00     0.116 C 
BRANCH   3   4
ATOM      4  N   UNL     1       3.067   0.668  -0.960  1.00  0.00    -0.352 N 
ATOM      5  O   UNL     1       1.197   0.038   0.143  1.00  0.00    -0.269 OA
ATOM      6  C   UNL     1       2.418  -0.022   0.037  1.00  0.00     0.251 C 
ATOM      7  H   UNL     1       2.504   1.272  -1.496  1.00  0.00     0.163 HD
BRANCH   6   8
ATOM      8  C   UNL     1       3.199  -0.867   0.968  1.00  0.00     0.039 A 
ATOM      9  C   UNL     1       4.386  -0.393   1.528  1.00  0.00     0.014 A 
ATOM     10  C   UNL     1       2.745  -2.154   1.274  1.00  0.00     0.014 A 
ATOM     11  C   UNL     1       5.194  -1.254   2.260  1.00  0.00     0.010 A 
ATOM     12  C   UNL     1       3.515  -2.988   2.093  1.00  0.00     0.010 A 
ATOM     13  C   UNL     1       4.761  -2.556   2.567  1.00  0.00    -0.014 A 
BRANCH  13  14
ATOM     14  C   UNL     1       5.612  -3.395   3.450  1.00  0.00     0.031 A 
ATOM     15  C   UNL     1       6.260  -4.658   2.957  1.00  0.00     0.074 A 
ATOM     16  C   UNL     1       5.854  -2.955   4.701  1.00  0.00     0.049 A 
ATOM     17  N   UNL     1       7.111  -5.438   3.578  1.00  0.00    -0.248 NA
ATOM     18  C   UNL     1       5.911  -5.112   1.602  1.00  0.00     0.031 C 
ATOM     19  C   UNL     1       5.265  -1.753   5.299  1.00  0.00     0.029 A 
ATOM     20  N   UNL     1       6.686  -3.438   5.677  1.00  0.00    -0.354 N 
ATOM     21  C   UNL     1       7.390  -6.477   2.699  1.00  0.00     0.074 A 
ATOM     22  C   UNL     1       6.599  -6.244   1.510  1.00  0.00     0.031 C 
ATOM     23  C   UNL     1       5.808  -1.552   6.507  1.00  0.00     0.029 A 
ATOM     24  C   UNL     1       6.732  -2.642   6.796  1.00  0.00     0.049 A 
ATOM     25  H   UNL     1       7.199  -4.273   5.586  1.00  0.00     0.167 HD
ATOM     26  C   UNL     1       8.234  -7.524   2.866  1.00  0.00     0.031 A 
ATOM     27  C   UNL     1       7.436  -2.770   7.934  1.00  0.00     0.031 A 
ATOM     28  C   UNL     1       9.016  -7.759   4.054  1.00  0.00     0.049 A 
ATOM     29  C   UNL     1       8.359  -3.941   8.090  1.00  0.00     0.074 A 
ATOM     30  C   UNL     1       9.902  -8.791   4.313  1.00  0.00     0.029 A 
ATOM     31  N   UNL     1       9.006  -6.951   5.180  1.00  0.00    -0.354 N 
ATOM     32  N   UNL     1       8.627  -4.899   7.237  1.00  0.00    -0.248 NA
ATOM     33  C   UNL     1       9.078  -4.046   9.367  1.00  0.00     0.031 C 
ATOM     34  C   UNL     1      10.398  -8.629   5.612  1.00  0.00     0.029 A 
ATOM     35  C   UNL     1       9.859  -7.469   6.142  1.00  0.00     0.049 A 
ATOM     36  H   UNL     1       8.471  -6.131   5.281  1.00  0.00     0.167 HD
ATOM     37  C   UNL     1       9.544  -5.722   7.872  1.00  0.00     0.074 A 
ATOM     38  C   UNL     1       9.817  -5.128   9.165  1.00  0.00     0.031 C 
ATOM     39  C   UNL     1      10.103  -6.874   7.429  1.00  0.00     0.031 A 
BRANCH  26  40
ATOM     40  C   UNL     1       8.349  -8.514   1.739  1.00  0.00    -0.014 A 
ATOM     41  C   UNL     1       9.043  -8.194   0.562  1.00  0.00     0.009 A 
ATOM     42  C   UNL     1       7.811  -9.803   1.881  1.00  0.00     0.009 A 
ATOM     43  C   UNL     1       9.177  -9.139  -0.459  1.00  0.00     0.001 A 
ATOM     44  C   UNL     1       7.965 -10.752   0.869  1.00  0.00     0.001 A 
ATOM     45  C   UNL     1       8.643 -10.418  -0.303  1.00  0.00     0.000 A 
ENDBRANCH  26  40
BRANCH  27  46
ATOM     46  C   UNL     1       7.277  -1.768   9.019  1.00  0.00    -0.014 A 
ATOM     47  C   UNL     1       8.318  -0.887   9.344  1.00  0.00     0.009 A 
ATOM     48  C   UNL     1       6.068  -1.684   9.728  1.00  0.00     0.009 A 
ATOM     49  C   UNL     1       8.159   0.044  10.373  1.00  0.00     0.001 A 
ATOM     50  C   UNL     1       5.901  -0.732  10.734  1.00  0.00     0.001 A 
ATOM     51  C   UNL     1       6.950   0.124  11.062  1.00  0.00     0.000 A 
ENDBRANCH  27  46
BRANCH  39  52
ATOM     52  C   UNL     1      11.067  -7.553   8.359  1.00  0.00    -0.014 A 
ATOM     53  C   UNL     1      10.616  -8.213   9.513  1.00  0.00     0.009 A 
ATOM     54  C   UNL     1      12.442  -7.531   8.079  1.00  0.00     0.009 A 
ATOM     55  C   UNL     1      11.528  -8.800  10.392  1.00  0.00     0.001 A 
ATOM     56  C   UNL     1      13.348  -8.142   8.945  1.00  0.00     0.001 A 
ATOM     57  C   UNL     1      12.892  -8.765  10.107  1.00  0.00     0.000 A 
ENDBRANCH  39  52
ENDBRANCH  13  14
ENDBRANCH   6   8
ENDBRANCH   3   4
ENDBRANCH   2   3
ENDBRANCH   1   2
BRANCH   1  58
ATOM     58  C   UNL     1       4.828   2.997  -3.309  1.00  0.00     0.002 C 
BRANCH  58  59
ATOM     59  C   UNL     1       6.354   3.069  -3.186  1.00  0.00     0.021 C 
BRANCH  59  60
ATOM     60  C   UNL     1       7.136   2.597  -4.409  1.00  0.00     0.116 C 
BRANCH  60  61
ATOM     61  N   UNL     1       6.842   3.392  -5.588  1.00  0.00    -0.352 N 
ATOM     62  C   UNL     1       7.705   4.050  -6.427  1.00  0.00     0.251 C 
ATOM     63  H   UNL     1       5.888   3.470  -5.817  1.00  0.00     0.163 HD
ATOM     64  O   UNL     1       7.273   4.824  -7.276  1.00  0.00    -0.269 OA
BRANCH  62  65
ATOM     65  C   UNL     1       9.161   3.838  -6.299  1.00  0.00     0.040 A 
ATOM     66  C   UNL     1       9.996   4.951  -6.206  1.00  0.00     0.014 A 
ATOM     67  C   UNL     1       9.698   2.545  -6.301  1.00  0.00     0.022 A 
ATOM     68  C   UNL     1      11.369   4.765  -6.062  1.00  0.00     0.001 A 
ATOM     69  C   UNL     1      11.077   2.337  -6.137  1.00  0.00    -0.012 A 
ATOM     70  C   UNL     1      11.900   3.471  -6.017  1.00  0.00     0.009 A 
BRANCH  69  71
ATOM     71  C   UNL     1      11.631   0.974  -6.072  1.00  0.00     0.053 A 
ATOM     72  C   UNL     1      12.464   0.568  -5.017  1.00  0.00     0.136 A 
ATOM     73  C   UNL     1      11.330   0.006  -7.045  1.00  0.00     0.136 A 
ATOM     74  F   UNL     1      12.778   1.429  -4.037  1.00  0.00    -0.206 F 
ATOM     75  C   UNL     1      12.970  -0.727  -4.929  1.00  0.00     0.079 A 
ATOM     76  C   UNL     1      11.828  -1.293  -6.976  1.00  0.00     0.079 A 
ATOM     77  F   UNL     1      10.538   0.318  -8.083  1.00  0.00    -0.206 F 
ATOM     78  C   UNL     1      12.645  -1.647  -5.913  1.00  0.00     0.129 A 
ATOM     79  F   UNL     1      13.121  -2.895  -5.834  1.00  0.00    -0.207 F 
ENDBRANCH  69  71
ENDBRANCH  62  65
ENDBRANCH  60  61
ENDBRANCH  59  60
ENDBRANCH  58  59
ENDBRANCH   1  58
TORSDOF 14
