REMARK SMILES CN(C)C(=O)c1cccc(N2CCC3(CC2)[C@H](C(=O)NCCCCCCNC(=O)c2ccc(-c4c5nc(c(-c6ccccc6)c6ccc([nH]6)c(-c6ccccc6)c6nc(c(-c7ccccc7)c7ccc4[nH]7)C=C6)C=C5)cc2)CC(=O)N3C)n1
REMARK SMILES IDX 23 1 22 2 21 3 20 4 18 5 19 6 17 8 11 9 12 10 16 11 13 12
REMARK SMILES IDX 15 13 14 14 81 15 78 16 79 17 82 18 80 19 10 20 6 21 7 22
REMARK SMILES IDX 83 23 8 24 9 25 4 26 1 27 2 28 3 29 5 30 24 31 25 32 26 33
REMARK SMILES IDX 27 34 28 35 29 37 30 38 31 39 77 40 32 41 76 42 33 43 34 44
REMARK SMILES IDX 35 45 70 46 36 47 75 48 69 49 71 50 37 51 74 52 68 53 67 54
REMARK SMILES IDX 38 56 60 57 45 58 59 59 46 60 49 61 58 62 72 63 47 64 48 65
REMARK SMILES IDX 57 67 73 68 50 69 39 70 40 71 44 72 41 73 43 74 42 75 61 76
REMARK SMILES IDX 62 77 66 78 63 79 65 80 64 81 51 82 52 83 56 84 53 85 55 86
REMARK SMILES IDX 54 87
REMARK H PARENT 20 7 27 36 71 55 49 66
REMARK Flexibility Score: inf
ROOT
ATOM      1  C   UNL     1       5.501  -1.438   9.569  1.00  0.00     0.002 C 
ENDROOT
BRANCH   1   2
ATOM      2  C   UNL     1       5.108  -2.761   8.921  1.00  0.00     0.021 C 
BRANCH   2   3
ATOM      3  C   UNL     1       4.668  -3.858   9.903  1.00  0.00     0.116 C 
BRANCH   3   4
ATOM      4  N   UNL     1       3.399  -3.573  10.556  1.00  0.00    -0.356 N 
ATOM      5  C   UNL     1       2.187  -4.188  10.544  1.00  0.00     0.226 C 
ATOM      6  O   UNL     1       1.294  -3.645  11.208  1.00  0.00    -0.275 OA
ATOM      7  H   UNL     1       3.423  -2.768  11.122  1.00  0.00     0.163 HD
BRANCH   5   8
ATOM      8  C   UNL     1       1.861  -5.492   9.798  1.00  0.00     0.113 C 
ATOM      9  N   UNL     1       0.987  -4.622   5.675  1.00  0.00    -0.356 N 
ATOM     10  C   UNL     1       2.168  -3.985   6.195  1.00  0.00     0.120 C 
ATOM     11  C   UNL     1       0.667  -5.990   6.055  1.00  0.00     0.120 C 
ATOM     12  C   UNL     1       2.074  -4.106   7.697  1.00  0.00     0.051 C 
ATOM     13  C   UNL     1       0.767  -6.200   7.580  1.00  0.00     0.051 C 
ATOM     14  C   UNL     1       2.010  -5.538   8.241  1.00  0.00     0.058 C 
ATOM     15  N   UNL     1       3.204  -6.397   8.091  1.00  0.00    -0.339 N 
ATOM     16  C   UNL     1       2.663  -6.657  10.367  1.00  0.00     0.116 C 
ATOM     17  C   UNL     1       3.586  -7.043   9.260  1.00  0.00     0.223 C 
ATOM     18  C   UNL     1       3.933  -6.684   6.871  1.00  0.00     0.147 C 
ATOM     19  O   UNL     1       4.533  -7.809   9.386  1.00  0.00    -0.275 OA
BRANCH   9  20
ATOM     20  C   UNL     1       0.199  -3.846   4.858  1.00  0.00     0.129 A 
ATOM     21  C   UNL     1       0.004  -2.395   3.047  1.00  0.00     0.130 A 
ATOM     22  C   UNL     1      -1.350  -2.199   3.282  1.00  0.00     0.034 A 
ATOM     23  N   UNL     1       0.780  -3.191   3.830  1.00  0.00    -0.226 NA
ATOM     24  C   UNL     1      -1.923  -2.816   4.385  1.00  0.00     0.006 A 
ATOM     25  C   UNL     1      -1.143  -3.658   5.168  1.00  0.00     0.047 A 
BRANCH  21  26
ATOM     26  C   UNL     1       0.662  -1.829   1.820  1.00  0.00     0.272 C 
ATOM     27  C   UNL     1       0.875  -0.115   0.098  1.00  0.00     0.146 C 
ATOM     28  N   UNL     1       0.383  -0.516   1.406  1.00  0.00    -0.343 N 
ATOM     29  C   UNL     1      -0.227   0.515   2.230  1.00  0.00     0.146 C 
ATOM     30  O   UNL     1       1.413  -2.556   1.166  1.00  0.00    -0.267 OA
ENDBRANCH  21  26
ENDBRANCH   9  20
ENDBRANCH   5   8
ENDBRANCH   3   4
ENDBRANCH   2   3
ENDBRANCH   1   2
BRANCH   1  31
ATOM     31  C   UNL     1       6.768  -1.518  10.413  1.00  0.00     0.002 C 
BRANCH  31  32
ATOM     32  C   UNL     1       7.961  -2.160   9.700  1.00  0.00     0.021 C 
BRANCH  32  33
ATOM     33  C   UNL     1       8.283  -1.562   8.332  1.00  0.00     0.116 C 
BRANCH  33  34
ATOM     34  N   UNL     1       8.625  -0.154   8.427  1.00  0.00    -0.352 N 
ATOM     35  C   UNL     1       9.803   0.467   8.101  1.00  0.00     0.251 C 
ATOM     36  H   UNL     1       7.915   0.434   8.773  1.00  0.00     0.163 HD
ATOM     37  O   UNL     1      10.022   1.620   8.457  1.00  0.00    -0.269 OA
BRANCH  35  38
ATOM     38  C   UNL     1      10.817  -0.279   7.332  1.00  0.00     0.039 A 
ATOM     39  C   UNL     1      12.136  -0.290   7.788  1.00  0.00     0.014 A 
ATOM     40  C   UNL     1      10.456  -0.985   6.180  1.00  0.00     0.014 A 
ATOM     41  C   UNL     1      13.084  -1.068   7.122  1.00  0.00     0.010 A 
ATOM     42  C   UNL     1      11.385  -1.815   5.561  1.00  0.00     0.010 A 
ATOM     43  C   UNL     1      12.707  -1.867   6.030  1.00  0.00    -0.014 A 
BRANCH  43  44
ATOM     44  C   UNL     1      13.677  -2.790   5.390  1.00  0.00     0.031 A 
ATOM     45  C   UNL     1      14.086  -2.592   3.958  1.00  0.00     0.074 A 
ATOM     46  C   UNL     1      14.144  -3.843   6.088  1.00  0.00     0.049 A 
ATOM     47  N   UNL     1      14.884  -3.324   3.221  1.00  0.00    -0.248 NA
ATOM     48  C   UNL     1      13.510  -1.435   3.255  1.00  0.00     0.031 C 
ATOM     49  C   UNL     1      13.791  -4.166   7.473  1.00  0.00     0.029 A 
ATOM     50  N   UNL     1      15.012  -4.842   5.726  1.00  0.00    -0.354 N 
ATOM     51  C   UNL     1      14.902  -2.719   1.971  1.00  0.00     0.074 A 
ATOM     52  C   UNL     1      13.995  -1.594   2.032  1.00  0.00     0.031 C 
ATOM     53  C   UNL     1      14.453  -5.271   7.849  1.00  0.00     0.029 A 
ATOM     54  C   UNL     1      15.239  -5.761   6.722  1.00  0.00     0.049 A 
ATOM     55  H   UNL     1      15.433  -4.896   4.838  1.00  0.00     0.167 HD
ATOM     56  C   UNL     1      15.625  -3.058   0.877  1.00  0.00     0.031 A 
ATOM     57  C   UNL     1      15.982  -6.884   6.724  1.00  0.00     0.031 A 
ATOM     58  C   UNL     1      16.519  -4.184   0.815  1.00  0.00     0.049 A 
ATOM     59  C   UNL     1      16.738  -7.263   5.482  1.00  0.00     0.074 A 
ATOM     60  C   UNL     1      17.327  -4.585  -0.234  1.00  0.00     0.029 A 
ATOM     61  N   UNL     1      16.713  -5.096   1.841  1.00  0.00    -0.354 N 
ATOM     62  N   UNL     1      16.804  -6.637   4.332  1.00  0.00    -0.248 NA
ATOM     63  C   UNL     1      17.529  -8.501   5.540  1.00  0.00     0.031 C 
ATOM     64  C   UNL     1      17.963  -5.775   0.135  1.00  0.00     0.029 A 
ATOM     65  C   UNL     1      17.603  -6.077   1.438  1.00  0.00     0.049 A 
ATOM     66  H   UNL     1      16.283  -5.051   2.726  1.00  0.00     0.167 HD
ATOM     67  C   UNL     1      17.657  -7.393   3.538  1.00  0.00     0.074 A 
ATOM     68  C   UNL     1      18.105  -8.508   4.347  1.00  0.00     0.031 C 
ATOM     69  C   UNL     1      18.032  -7.186   2.252  1.00  0.00     0.031 A 
BRANCH  56  70
ATOM     70  C   UNL     1      15.472  -2.200  -0.349  1.00  0.00    -0.014 A 
ATOM     71  C   UNL     1      15.963  -0.884  -0.381  1.00  0.00     0.009 A 
ATOM     72  C   UNL     1      14.869  -2.726  -1.502  1.00  0.00     0.009 A 
ATOM     73  C   UNL     1      15.822  -0.103  -1.530  1.00  0.00     0.001 A 
ATOM     74  C   UNL     1      14.758  -1.954  -2.660  1.00  0.00     0.001 A 
ATOM     75  C   UNL     1      15.226  -0.640  -2.670  1.00  0.00     0.000 A 
ENDBRANCH  56  70
BRANCH  57  76
ATOM     76  C   UNL     1      16.037  -7.740   7.939  1.00  0.00    -0.014 A 
ATOM     77  C   UNL     1      17.223  -7.863   8.678  1.00  0.00     0.009 A 
ATOM     78  C   UNL     1      14.902  -8.453   8.358  1.00  0.00     0.009 A 
ATOM     79  C   UNL     1      17.280  -8.704   9.792  1.00  0.00     0.001 A 
ATOM     80  C   UNL     1      14.952  -9.266   9.492  1.00  0.00     0.001 A 
ATOM     81  C   UNL     1      16.144  -9.401  10.201  1.00  0.00     0.000 A 
ENDBRANCH  57  76
BRANCH  69  82
ATOM     82  C   UNL     1      18.990  -8.175   1.647  1.00  0.00    -0.014 A 
ATOM     83  C   UNL     1      18.584  -9.480   1.330  1.00  0.00     0.009 A 
ATOM     84  C   UNL     1      20.305  -7.782   1.354  1.00  0.00     0.009 A 
ATOM     85  C   UNL     1      19.486 -10.382   0.762  1.00  0.00     0.001 A 
ATOM     86  C   UNL     1      21.195  -8.674   0.756  1.00  0.00     0.001 A 
ATOM     87  C   UNL     1      20.788  -9.976   0.470  1.00  0.00     0.000 A 
ENDBRANCH  69  82
ENDBRANCH  43  44
ENDBRANCH  35  38
ENDBRANCH  33  34
ENDBRANCH  32  33
ENDBRANCH  31  32
ENDBRANCH   1  31
TORSDOF 15
