REMARK SMILES Cc1ccc(-c2cc(Cl)cc3c2O[C@@H](C(F)(F)F)C(C(=O)NCCCCCCNC(=O)c2ccc(-c4c5nc(c(-c6ccccc6)c6ccc([nH]6)c(-c6ccccc6)c6nc(c(-c7ccccc7)c7ccc4[nH]7)C=C6)C=C5)cc2)=C3)cc1
REMARK SMILES IDX 26 1 25 2 24 3 23 4 22 5 20 6 21 7 19 9 6 10 7 11 12 12 8 13
REMARK SMILES IDX 11 14 13 15 9 16 10 17 80 18 14 19 5 20 1 21 2 22 3 23 82 24
REMARK SMILES IDX 4 25 81 26 15 27 16 28 17 29 18 30 27 31 28 32 29 33 30 34
REMARK SMILES IDX 31 36 32 37 33 38 79 39 34 40 78 41 35 42 36 43 37 44 72 45
REMARK SMILES IDX 38 46 77 47 71 48 73 49 39 50 76 51 70 52 69 53 40 55 62 56
REMARK SMILES IDX 47 57 61 58 48 59 51 60 60 61 74 62 49 63 50 64 59 66 75 67
REMARK SMILES IDX 52 68 41 69 42 70 46 71 43 72 45 73 44 74 63 75 64 76 68 77
REMARK SMILES IDX 65 78 67 79 66 80 53 81 54 82 58 83 55 84 57 85 56 86
REMARK H PARENT 22 8 29 35 73 54 51 65
REMARK Flexibility Score: inf
ROOT
ATOM      1  C   UNL     1      -1.316  -3.081   7.176  1.00  0.00     0.002 C 
ENDROOT
BRANCH   1   2
ATOM      2  C   UNL     1      -1.430  -3.869   5.870  1.00  0.00     0.002 C 
BRANCH   2   3
ATOM      3  C   UNL     1      -2.775  -3.931   5.153  1.00  0.00     0.021 C 
BRANCH   3   4
ATOM      4  C   UNL     1      -3.721  -2.732   5.131  1.00  0.00     0.116 C 
BRANCH   4   5
ATOM      5  N   UNL     1      -3.277  -1.470   4.584  1.00  0.00    -0.352 N 
ATOM      6  C   UNL     1      -3.977  -0.361   4.173  1.00  0.00     0.251 C 
ATOM      7  O   UNL     1      -3.338   0.696   4.127  1.00  0.00    -0.270 OA
ATOM      8  H   UNL     1      -2.300  -1.391   4.489  1.00  0.00     0.163 HD
BRANCH   6   9
ATOM      9  C   UNL     1      -5.449  -0.360   3.717  1.00  0.00     0.067 C 
ATOM     10  C   UNL     1      -3.888  -1.172   0.147  1.00  0.00     0.026 A 
ATOM     11  C   UNL     1      -4.356  -0.543  -1.024  1.00  0.00     0.033 A 
ATOM     12  C   UNL     1      -4.697  -1.005   1.270  1.00  0.00     0.135 A 
ATOM     13  C   UNL     1      -5.314   0.475  -0.945  1.00  0.00     0.042 A 
ATOM     14  C   UNL     1      -5.389   0.221   1.437  1.00  0.00     0.019 A 
ATOM     15  O   UNL     1      -4.923  -2.067   2.175  1.00  0.00    -0.475 OA
ATOM     16  Cl  UNL     1      -5.814   1.282  -2.379  1.00  0.00    -0.084 Cl
ATOM     17  C   UNL     1      -5.755   0.931   0.299  1.00  0.00     0.032 A 
ATOM     18  C   UNL     1      -5.720   0.649   2.845  1.00  0.00     0.025 C 
ATOM     19  C   UNL     1      -5.976  -1.641   3.102  1.00  0.00     0.314 C 
BRANCH  10  20
ATOM     20  C   UNL     1      -2.406  -1.085   0.315  1.00  0.00    -0.015 A 
ATOM     21  C   UNL     1       1.879  -0.394   0.173  1.00  0.00     0.044 C 
ATOM     22  C   UNL     1       0.402  -0.641   0.280  1.00  0.00    -0.051 A 
ATOM     23  C   UNL     1      -0.134  -1.934   0.165  1.00  0.00     0.004 A 
ATOM     24  C   UNL     1      -0.468   0.426   0.483  1.00  0.00     0.004 A 
ATOM     25  C   UNL     1      -1.526  -2.157   0.177  1.00  0.00     0.009 A 
ATOM     26  C   UNL     1      -1.843   0.202   0.508  1.00  0.00     0.009 A 
ENDBRANCH  10  20
BRANCH  19  27
ATOM     27  C   UNL     1      -6.709  -2.585   4.074  1.00  0.00     0.429 C 
ATOM     28  F   UNL     1      -8.051  -2.361   4.013  1.00  0.00    -0.167 F 
ATOM     29  F   UNL     1      -6.520  -3.889   3.783  1.00  0.00    -0.167 F 
ATOM     30  F   UNL     1      -6.375  -2.391   5.372  1.00  0.00    -0.167 F 
ENDBRANCH  19  27
ENDBRANCH   6   9
ENDBRANCH   4   5
ENDBRANCH   3   4
ENDBRANCH   2   3
ENDBRANCH   1   2
BRANCH   1  31
ATOM     31  C   UNL     1      -2.337  -3.374   8.272  1.00  0.00     0.021 C 
BRANCH  31  32
ATOM     32  C   UNL     1      -2.265  -4.756   8.905  1.00  0.00     0.116 C 
BRANCH  32  33
ATOM     33  N   UNL     1      -1.376  -4.850  10.056  1.00  0.00    -0.352 N 
ATOM     34  C   UNL     1      -1.073  -5.950  10.846  1.00  0.00     0.251 C 
ATOM     35  H   UNL     1      -0.925  -4.013  10.310  1.00  0.00     0.163 HD
ATOM     36  O   UNL     1      -0.298  -5.843  11.779  1.00  0.00    -0.269 OA
BRANCH  34  37
ATOM     37  C   UNL     1      -1.595  -7.290  10.465  1.00  0.00     0.039 A 
ATOM     38  C   UNL     1      -0.699  -8.365  10.470  1.00  0.00     0.014 A 
ATOM     39  C   UNL     1      -2.873  -7.454   9.938  1.00  0.00     0.014 A 
ATOM     40  C   UNL     1      -0.990  -9.501   9.717  1.00  0.00     0.010 A 
ATOM     41  C   UNL     1      -3.124  -8.530   9.112  1.00  0.00     0.010 A 
ATOM     42  C   UNL     1      -2.151  -9.516   8.945  1.00  0.00    -0.014 A 
BRANCH  42  43
ATOM     43  C   UNL     1      -2.356 -10.447   7.844  1.00  0.00     0.031 A 
ATOM     44  C   UNL     1      -3.213 -11.634   8.010  1.00  0.00     0.074 A 
ATOM     45  C   UNL     1      -1.768 -10.212   6.649  1.00  0.00     0.049 A 
ATOM     46  N   UNL     1      -3.005 -12.763   7.417  1.00  0.00    -0.248 NA
ATOM     47  C   UNL     1      -4.373 -11.643   8.894  1.00  0.00     0.031 C 
ATOM     48  C   UNL     1      -1.997 -10.931   5.398  1.00  0.00     0.029 A 
ATOM     49  N   UNL     1      -0.659  -9.409   6.376  1.00  0.00    -0.354 N 
ATOM     50  C   UNL     1      -4.142 -13.518   7.585  1.00  0.00     0.074 A 
ATOM     51  C   UNL     1      -4.920 -12.824   8.587  1.00  0.00     0.031 C 
ATOM     52  C   UNL     1      -0.907 -10.796   4.625  1.00  0.00     0.029 A 
ATOM     53  C   UNL     1       0.095 -10.095   5.413  1.00  0.00     0.049 A 
ATOM     54  H   UNL     1      -0.448  -8.536   6.779  1.00  0.00     0.167 HD
ATOM     55  C   UNL     1      -4.403 -14.560   6.748  1.00  0.00     0.031 A 
ATOM     56  C   UNL     1       1.378 -10.510   5.614  1.00  0.00     0.031 A 
ATOM     57  C   UNL     1      -3.364 -14.736   5.740  1.00  0.00     0.049 A 
ATOM     58  C   UNL     1       1.554 -12.003   5.433  1.00  0.00     0.074 A 
ATOM     59  C   UNL     1      -3.280 -14.369   4.407  1.00  0.00     0.029 A 
ATOM     60  N   UNL     1      -2.081 -15.097   6.131  1.00  0.00    -0.354 N 
ATOM     61  N   UNL     1       0.566 -12.854   5.421  1.00  0.00    -0.248 NA
ATOM     62  C   UNL     1       2.853 -12.661   5.316  1.00  0.00     0.031 C 
ATOM     63  C   UNL     1      -1.923 -14.460   4.009  1.00  0.00     0.029 A 
ATOM     64  C   UNL     1      -1.189 -14.904   5.094  1.00  0.00     0.049 A 
ATOM     65  H   UNL     1      -1.841 -15.443   7.021  1.00  0.00     0.167 HD
ATOM     66  C   UNL     1       1.055 -14.129   5.294  1.00  0.00     0.074 A 
ATOM     67  C   UNL     1       2.494 -13.955   5.226  1.00  0.00     0.031 C 
ATOM     68  C   UNL     1       0.224 -15.213   5.267  1.00  0.00     0.031 A 
BRANCH  55  69
ATOM     69  C   UNL     1      -5.769 -15.193   6.663  1.00  0.00    -0.014 A 
ATOM     70  C   UNL     1      -6.272 -15.614   5.418  1.00  0.00     0.009 A 
ATOM     71  C   UNL     1      -6.621 -15.359   7.767  1.00  0.00     0.009 A 
ATOM     72  C   UNL     1      -7.588 -16.067   5.265  1.00  0.00     0.001 A 
ATOM     73  C   UNL     1      -7.952 -15.773   7.616  1.00  0.00     0.001 A 
ATOM     74  C   UNL     1      -8.440 -16.114   6.360  1.00  0.00     0.000 A 
ENDBRANCH  55  69
BRANCH  56  75
ATOM     75  C   UNL     1       2.150  -9.687   6.582  1.00  0.00    -0.014 A 
ATOM     76  C   UNL     1       2.487  -8.368   6.218  1.00  0.00     0.009 A 
ATOM     77  C   UNL     1       2.221 -10.047   7.935  1.00  0.00     0.009 A 
ATOM     78  C   UNL     1       2.783  -7.410   7.192  1.00  0.00     0.001 A 
ATOM     79  C   UNL     1       2.526  -9.085   8.906  1.00  0.00     0.001 A 
ATOM     80  C   UNL     1       2.772  -7.762   8.538  1.00  0.00     0.000 A 
ENDBRANCH  56  75
BRANCH  68  81
ATOM     81  C   UNL     1       0.624 -16.669   5.325  1.00  0.00    -0.014 A 
ATOM     82  C   UNL     1       1.855 -17.141   5.794  1.00  0.00     0.009 A 
ATOM     83  C   UNL     1      -0.344 -17.651   5.003  1.00  0.00     0.009 A 
ATOM     84  C   UNL     1       2.118 -18.516   5.898  1.00  0.00     0.001 A 
ATOM     85  C   UNL     1      -0.103 -19.019   5.148  1.00  0.00     0.001 A 
ATOM     86  C   UNL     1       1.137 -19.453   5.587  1.00  0.00     0.000 A 
ENDBRANCH  68  81
ENDBRANCH  42  43
ENDBRANCH  34  37
ENDBRANCH  32  33
ENDBRANCH  31  32
ENDBRANCH   1  31
TORSDOF 15
