REMARK SMILES [NH3+][C@H]1C=C[C@H](C(=O)N2CCCc3c(C(=O)NCCCCCCNC(=O)c4ccc(-c5c6nc(c(-c7ccccc7)c7ccc([nH]7)c(-c7ccccc7)c7nc(c(-c8ccccc8)c8ccc5[nH]8)C=C7)C=C6)cc4)cccc32)C1
REMARK SMILES IDX 19 1 18 2 17 3 16 4 14 5 15 6 13 8 8 9 9 10 77 11 10 12
REMARK SMILES IDX 12 13 76 14 11 15 75 16 74 17 6 18 7 19 5 20 2 21 3 22 78 23
REMARK SMILES IDX 4 24 1 25 20 29 21 30 22 31 23 32 24 33 25 35 26 36 27 37
REMARK SMILES IDX 73 38 28 39 72 40 29 41 30 42 31 43 66 44 32 45 71 46 65 47
REMARK SMILES IDX 67 48 33 49 70 50 64 51 63 52 34 54 56 55 41 56 55 57 42 58
REMARK SMILES IDX 45 59 54 60 68 61 43 62 44 63 53 65 69 66 46 67 35 68 36 69
REMARK SMILES IDX 40 70 37 71 39 72 38 73 57 74 58 75 62 76 59 77 61 78 60 79
REMARK SMILES IDX 47 80 48 81 52 82 49 83 51 84 50 85
REMARK H PARENT 16 7 1 26 1 27 1 28 23 34 67 53 45 64
REMARK Flexibility Score: inf
ROOT
ATOM      1  C   UNL     1       4.829  -0.082   9.791  1.00  0.00     0.002 C 
ENDROOT
BRANCH   1   2
ATOM      2  C   UNL     1       3.696  -0.490   8.849  1.00  0.00     0.021 C 
BRANCH   2   3
ATOM      3  C   UNL     1       4.001  -1.730   7.995  1.00  0.00     0.116 C 
BRANCH   3   4
ATOM      4  N   UNL     1       3.093  -2.808   8.331  1.00  0.00    -0.352 N 
ATOM      5  C   UNL     1       1.940  -3.372   7.870  1.00  0.00     0.251 C 
ATOM      6  O   UNL     1       1.568  -4.328   8.567  1.00  0.00    -0.269 OA
ATOM      7  H   UNL     1       3.403  -3.277   9.139  1.00  0.00     0.163 HD
BRANCH   5   8
ATOM      8  C   UNL     1       1.102  -3.038   6.661  1.00  0.00     0.045 A 
ATOM      9  N   UNL     1      -0.335  -0.493   4.244  1.00  0.00    -0.312 N 
ATOM     10  C   UNL     1       0.645   0.566   4.417  1.00  0.00     0.126 C 
ATOM     11  C   UNL     1      -0.117  -1.716   4.973  1.00  0.00     0.048 A 
ATOM     12  C   UNL     1       0.952   0.751   5.886  1.00  0.00     0.027 C 
ATOM     13  C   UNL     1       0.859  -1.797   6.015  1.00  0.00    -0.011 A 
ATOM     14  C   UNL     1      -0.856  -2.853   4.620  1.00  0.00     0.027 A 
ATOM     15  C   UNL     1       1.554  -0.534   6.425  1.00  0.00     0.040 C 
ATOM     16  C   UNL     1      -0.623  -4.069   5.238  1.00  0.00     0.003 A 
ATOM     17  C   UNL     1       0.347  -4.156   6.229  1.00  0.00     0.014 A 
BRANCH   9  18
ATOM     18  C   UNL     1      -1.548  -0.249   3.599  1.00  0.00     0.234 C 
ATOM     19  O   UNL     1      -2.634  -0.533   4.117  1.00  0.00    -0.274 OA
BRANCH  18  20
ATOM     20  C   UNL     1      -1.530   0.279   2.151  1.00  0.00     0.108 C 
ATOM     21  C   UNL     1       0.568   0.227   0.893  1.00  0.00     0.205 C 
ATOM     22  C   UNL     1       0.137   1.626   1.190  1.00  0.00     0.033 C 
ATOM     23  C   UNL     1      -0.692  -0.592   1.204  1.00  0.00     0.087 C 
ATOM     24  C   UNL     1      -0.999   1.655   1.899  1.00  0.00    -0.012 C 
BRANCH  21  25
ATOM     25  N   UNL     1       0.999   0.053  -0.478  1.00  0.00    -0.352 N 
ATOM     26  H   UNL     1       1.836   0.611  -0.644  1.00  0.00     0.345 HD
ATOM     27  H   UNL     1       0.257   0.356  -1.108  1.00  0.00     0.345 HD
ATOM     28  H   UNL     1       1.208  -0.931  -0.646  1.00  0.00     0.345 HD
ENDBRANCH  21  25
ENDBRANCH  18  20
ENDBRANCH   9  18
ENDBRANCH   5   8
ENDBRANCH   3   4
ENDBRANCH   2   3
ENDBRANCH   1   2
BRANCH   1  29
ATOM     29  C   UNL     1       6.063   0.474   9.077  1.00  0.00     0.002 C 
BRANCH  29  30
ATOM     30  C   UNL     1       5.825   1.745   8.252  1.00  0.00     0.021 C 
BRANCH  30  31
ATOM     31  C   UNL     1       5.213   2.914   9.023  1.00  0.00     0.116 C 
BRANCH  31  32
ATOM     32  N   UNL     1       6.026   3.296  10.166  1.00  0.00    -0.352 N 
ATOM     33  C   UNL     1       6.702   4.463  10.417  1.00  0.00     0.251 C 
ATOM     34  H   UNL     1       6.104   2.611  10.869  1.00  0.00     0.163 HD
ATOM     35  O   UNL     1       7.534   4.510  11.317  1.00  0.00    -0.269 OA
BRANCH  33  36
ATOM     36  C   UNL     1       6.433   5.668   9.605  1.00  0.00     0.039 A 
ATOM     37  C   UNL     1       7.510   6.454   9.185  1.00  0.00     0.014 A 
ATOM     38  C   UNL     1       5.123   6.049   9.300  1.00  0.00     0.014 A 
ATOM     39  C   UNL     1       7.276   7.595   8.416  1.00  0.00     0.010 A 
ATOM     40  C   UNL     1       4.895   7.149   8.478  1.00  0.00     0.010 A 
ATOM     41  C   UNL     1       5.968   7.937   8.035  1.00  0.00    -0.014 A 
BRANCH  41  42
ATOM     42  C   UNL     1       5.705   9.115   7.172  1.00  0.00     0.031 A 
ATOM     43  C   UNL     1       4.927  10.286   7.702  1.00  0.00     0.074 A 
ATOM     44  C   UNL     1       6.104   9.096   5.886  1.00  0.00     0.049 A 
ATOM     45  N   UNL     1       4.553  11.377   7.082  1.00  0.00    -0.248 NA
ATOM     46  C   UNL     1       4.487  10.210   9.104  1.00  0.00     0.031 C 
ATOM     47  C   UNL     1       6.820   7.996   5.237  1.00  0.00     0.029 A 
ATOM     48  N   UNL     1       5.951  10.027   4.890  1.00  0.00    -0.354 N 
ATOM     49  C   UNL     1       3.815  12.103   8.009  1.00  0.00     0.074 A 
ATOM     50  C   UNL     1       3.758  11.311   9.218  1.00  0.00     0.031 C 
ATOM     51  C   UNL     1       7.061   8.323   3.958  1.00  0.00     0.029 A 
ATOM     52  C   UNL     1       6.488   9.638   3.688  1.00  0.00     0.049 A 
ATOM     53  H   UNL     1       5.500  10.892   5.025  1.00  0.00     0.167 HD
ATOM     54  C   UNL     1       3.248  13.326   7.871  1.00  0.00     0.031 A 
ATOM     55  C   UNL     1       6.512  10.266   2.498  1.00  0.00     0.031 A 
ATOM     56  C   UNL     1       3.320  14.120   6.673  1.00  0.00     0.049 A 
ATOM     57  C   UNL     1       5.893  11.629   2.373  1.00  0.00     0.074 A 
ATOM     58  C   UNL     1       2.849  15.403   6.459  1.00  0.00     0.029 A 
ATOM     59  N   UNL     1       3.897  13.701   5.484  1.00  0.00    -0.354 N 
ATOM     60  N   UNL     1       5.272  12.339   3.283  1.00  0.00    -0.248 NA
ATOM     61  C   UNL     1       5.991  12.282   1.060  1.00  0.00     0.031 C 
ATOM     62  C   UNL     1       3.095  15.742   5.124  1.00  0.00     0.029 A 
ATOM     63  C   UNL     1       3.768  14.690   4.523  1.00  0.00     0.049 A 
ATOM     64  H   UNL     1       4.335  12.831   5.343  1.00  0.00     0.167 HD
ATOM     65  C   UNL     1       4.923  13.530   2.661  1.00  0.00     0.074 A 
ATOM     66  C   UNL     1       5.417  13.453   1.301  1.00  0.00     0.031 C 
ATOM     67  C   UNL     1       4.255  14.593   3.171  1.00  0.00     0.031 A 
BRANCH  54  68
ATOM     68  C   UNL     1       2.486  13.872   9.047  1.00  0.00    -0.014 A 
ATOM     69  C   UNL     1       3.144  14.280  10.218  1.00  0.00     0.009 A 
ATOM     70  C   UNL     1       1.091  14.002   8.972  1.00  0.00     0.009 A 
ATOM     71  C   UNL     1       2.416  14.767  11.306  1.00  0.00     0.001 A 
ATOM     72  C   UNL     1       0.368  14.516  10.050  1.00  0.00     0.001 A 
ATOM     73  C   UNL     1       1.030  14.888  11.220  1.00  0.00     0.000 A 
ENDBRANCH  54  68
BRANCH  55  74
ATOM     74  C   UNL     1       7.163   9.612   1.333  1.00  0.00    -0.014 A 
ATOM     75  C   UNL     1       8.398  10.074   0.855  1.00  0.00     0.009 A 
ATOM     76  C   UNL     1       6.560   8.509   0.708  1.00  0.00     0.009 A 
ATOM     77  C   UNL     1       9.008   9.457  -0.239  1.00  0.00     0.001 A 
ATOM     78  C   UNL     1       7.185   7.878  -0.370  1.00  0.00     0.001 A 
ATOM     79  C   UNL     1       8.405   8.356  -0.846  1.00  0.00     0.000 A 
ENDBRANCH  55  74
BRANCH  67  80
ATOM     80  C   UNL     1       4.035  15.765   2.258  1.00  0.00    -0.014 A 
ATOM     81  C   UNL     1       3.100  15.708   1.213  1.00  0.00     0.009 A 
ATOM     82  C   UNL     1       4.745  16.956   2.473  1.00  0.00     0.009 A 
ATOM     83  C   UNL     1       2.904  16.811   0.381  1.00  0.00     0.001 A 
ATOM     84  C   UNL     1       4.528  18.067   1.656  1.00  0.00     0.001 A 
ATOM     85  C   UNL     1       3.614  17.991   0.606  1.00  0.00     0.000 A 
ENDBRANCH  67  80
ENDBRANCH  41  42
ENDBRANCH  33  36
ENDBRANCH  31  32
ENDBRANCH  30  31
ENDBRANCH  29  30
ENDBRANCH   1  29
TORSDOF 16
