REMARK SMILES C[C@@H](C(=O)NCCCCCCNC(=O)c1ccc(-c2c3nc(c(-c4ccccc4)c4ccc([nH]4)c(-c4ccccc4)c4nc(c(-c5ccccc5)c5ccc2[nH]5)C=C4)C=C3)cc1)c1ccc(-c2cccc(OC(=O)NCCCc3ccccc3)c2)c(F)c1
REMARK SMILES IDX 3 1 4 2 5 3 2 5 1 6 63 7 64 8 88 9 65 10 86 11 66 12 87 13
REMARK SMILES IDX 67 14 68 15 85 16 69 17 71 18 70 19 72 20 73 21 74 22 75 23
REMARK SMILES IDX 76 25 77 26 78 27 79 28 80 29 84 30 81 31 83 32 82 33 6 34
REMARK SMILES IDX 7 35 8 36 9 37 10 38 11 39 12 40 13 41 14 43 15 44 16 45
REMARK SMILES IDX 62 46 17 47 61 48 18 49 19 50 20 51 55 52 21 53 60 54 54 55
REMARK SMILES IDX 56 56 22 57 59 58 53 59 52 60 23 62 45 63 30 64 44 65 31 66
REMARK SMILES IDX 34 67 43 68 57 69 32 70 33 71 42 73 58 74 35 75 24 76 25 77
REMARK SMILES IDX 29 78 26 79 28 80 27 81 46 82 47 83 51 84 48 85 50 86 49 87
REMARK SMILES IDX 36 88 37 89 41 90 38 91 40 92 39 93
REMARK H PARENT 5 4 75 24 12 42 56 61 34 72
REMARK Flexibility Score: inf
ROOT
ATOM      1  C   UNL     1       1.181  -1.493  -2.139  1.00  0.00     0.227 C 
ATOM      2  O   UNL     1       0.585  -2.437  -2.662  1.00  0.00    -0.274 OA
ATOM      3  N   UNL     1       2.533  -1.512  -2.282  1.00  0.00    -0.356 N 
ATOM      4  H   UNL     1       2.876  -2.250  -2.836  1.00  0.00     0.163 HD
ENDROOT
BRANCH   1   5
ATOM      5  C   UNL     1       0.492  -0.316  -1.422  1.00  0.00     0.105 C 
ATOM      6  C   UNL     1       0.800  -0.248   0.078  1.00  0.00     0.023 C 
BRANCH   5   7
ATOM      7  C   UNL     1      -1.026  -0.292  -1.573  1.00  0.00    -0.033 A 
ATOM      8  C   UNL     1      -1.698   0.932  -1.719  1.00  0.00     0.005 A 
ATOM      9  C   UNL     1      -1.790  -1.457  -1.448  1.00  0.00     0.044 A 
ATOM     10  C   UNL     1      -3.098   0.986  -1.720  1.00  0.00     0.012 A 
ATOM     11  C   UNL     1      -3.175  -1.401  -1.486  1.00  0.00     0.131 A 
ATOM     12  C   UNL     1      -3.861  -0.183  -1.583  1.00  0.00     0.018 A 
ATOM     13  F   UNL     1      -3.850  -2.557  -1.375  1.00  0.00    -0.206 F 
BRANCH  12  14
ATOM     14  C   UNL     1      -5.320  -0.139  -1.421  1.00  0.00    -0.012 A 
ATOM     15  C   UNL     1      -6.165   0.542  -2.308  1.00  0.00     0.009 A 
ATOM     16  C   UNL     1      -5.898  -0.807  -0.328  1.00  0.00     0.056 A 
ATOM     17  C   UNL     1      -7.550   0.541  -2.112  1.00  0.00     0.004 A 
ATOM     18  C   UNL     1      -7.271  -0.807  -0.131  1.00  0.00     0.133 A 
ATOM     19  C   UNL     1      -8.104  -0.137  -1.024  1.00  0.00     0.047 A 
BRANCH  18  20
ATOM     20  O   UNL     1      -7.912  -1.501   0.921  1.00  0.00    -0.410 OA
BRANCH  20  21
ATOM     21  C   UNL     1      -7.273  -2.117   1.997  1.00  0.00     0.412 C 
ATOM     22  O   UNL     1      -6.077  -2.092   2.256  1.00  0.00    -0.224 OA
ATOM     23  N   UNL     1      -8.135  -2.784   2.819  1.00  0.00    -0.321 N 
ATOM     24  H   UNL     1      -7.742  -3.335   3.534  1.00  0.00     0.167 HD
BRANCH  23  25
ATOM     25  C   UNL     1      -9.573  -2.751   2.728  1.00  0.00     0.120 C 
BRANCH  25  26
ATOM     26  C   UNL     1     -10.270  -3.999   3.267  1.00  0.00     0.026 C 
BRANCH  26  27
ATOM     27  C   UNL     1      -9.708  -4.662   4.531  1.00  0.00     0.037 C 
BRANCH  27  28
ATOM     28  C   UNL     1      -9.843  -3.993   5.880  1.00  0.00    -0.048 A 
ATOM     29  C   UNL     1     -10.055  -2.625   6.074  1.00  0.00     0.004 A 
ATOM     30  C   UNL     1      -9.682  -4.800   7.022  1.00  0.00     0.004 A 
ATOM     31  C   UNL     1     -10.101  -2.079   7.362  1.00  0.00     0.000 A 
ATOM     32  C   UNL     1      -9.739  -4.259   8.308  1.00  0.00     0.000 A 
ATOM     33  C   UNL     1      -9.944  -2.895   8.477  1.00  0.00     0.000 A 
ENDBRANCH  27  28
ENDBRANCH  26  27
ENDBRANCH  25  26
ENDBRANCH  23  25
ENDBRANCH  20  21
ENDBRANCH  18  20
ENDBRANCH  12  14
ENDBRANCH   5   7
ENDBRANCH   1   5
BRANCH   3  34
ATOM     34  C   UNL     1       3.549  -0.633  -1.757  1.00  0.00     0.116 C 
BRANCH  34  35
ATOM     35  C   UNL     1       4.308  -1.309  -0.614  1.00  0.00     0.021 C 
BRANCH  35  36
ATOM     36  C   UNL     1       5.001  -2.622  -1.006  1.00  0.00     0.002 C 
BRANCH  36  37
ATOM     37  C   UNL     1       5.928  -2.530  -2.221  1.00  0.00     0.002 C 
BRANCH  37  38
ATOM     38  C   UNL     1       6.990  -1.433  -2.135  1.00  0.00     0.021 C 
BRANCH  38  39
ATOM     39  C   UNL     1       7.908  -1.546  -0.927  1.00  0.00     0.116 C 
BRANCH  39  40
ATOM     40  N   UNL     1       8.730  -2.743  -0.977  1.00  0.00    -0.352 N 
ATOM     41  C   UNL     1      10.091  -2.856  -0.842  1.00  0.00     0.251 C 
ATOM     42  H   UNL     1       8.246  -3.586  -1.128  1.00  0.00     0.163 HD
ATOM     43  O   UNL     1      10.658  -3.911  -1.104  1.00  0.00    -0.269 OA
BRANCH  41  44
ATOM     44  C   UNL     1      10.875  -1.687  -0.392  1.00  0.00     0.039 A 
ATOM     45  C   UNL     1      12.065  -1.374  -1.054  1.00  0.00     0.014 A 
ATOM     46  C   UNL     1      10.438  -0.905   0.681  1.00  0.00     0.014 A 
ATOM     47  C   UNL     1      12.797  -0.252  -0.663  1.00  0.00     0.010 A 
ATOM     48  C   UNL     1      11.124   0.257   1.015  1.00  0.00     0.010 A 
ATOM     49  C   UNL     1      12.321   0.583   0.361  1.00  0.00    -0.014 A 
BRANCH  49  50
ATOM     50  C   UNL     1      13.081   1.782   0.792  1.00  0.00     0.031 A 
ATOM     51  C   UNL     1      13.644   1.851   2.185  1.00  0.00     0.074 A 
ATOM     52  C   UNL     1      13.219   2.827  -0.045  1.00  0.00     0.049 A 
ATOM     53  N   UNL     1      14.299   2.824   2.765  1.00  0.00    -0.248 NA
ATOM     54  C   UNL     1      13.413   0.683   3.051  1.00  0.00     0.031 C 
ATOM     55  C   UNL     1      12.693   2.898  -1.409  1.00  0.00     0.029 A 
ATOM     56  N   UNL     1      13.846   4.034   0.134  1.00  0.00    -0.354 N 
ATOM     57  C   UNL     1      14.535   2.396   4.066  1.00  0.00     0.074 A 
ATOM     58  C   UNL     1      13.905   1.102   4.206  1.00  0.00     0.031 C 
ATOM     59  C   UNL     1      13.053   4.070  -1.957  1.00  0.00     0.029 A 
ATOM     60  C   UNL     1      13.797   4.848  -0.971  1.00  0.00     0.049 A 
ATOM     61  H   UNL     1      14.289   4.292   0.974  1.00  0.00     0.167 HD
ATOM     62  C   UNL     1      15.230   3.013   5.051  1.00  0.00     0.031 A 
ATOM     63  C   UNL     1      14.299   6.081  -1.168  1.00  0.00     0.031 A 
ATOM     64  C   UNL     1      15.866   4.295   4.907  1.00  0.00     0.049 A 
ATOM     65  C   UNL     1      15.057   6.753  -0.058  1.00  0.00     0.074 A 
ATOM     66  C   UNL     1      16.646   4.979   5.822  1.00  0.00     0.029 A 
ATOM     67  N   UNL     1      15.792   5.087   3.771  1.00  0.00    -0.354 N 
ATOM     68  N   UNL     1      15.331   6.307   1.145  1.00  0.00    -0.248 NA
ATOM     69  C   UNL     1      15.588   8.094  -0.340  1.00  0.00     0.031 C 
ATOM     70  C   UNL     1      16.998   6.211   5.260  1.00  0.00     0.029 A 
ATOM     71  C   UNL     1      16.490   6.266   3.971  1.00  0.00     0.049 A 
ATOM     72  H   UNL     1      15.313   4.847   2.945  1.00  0.00     0.167 HD
ATOM     73  C   UNL     1      16.097   7.295   1.750  1.00  0.00     0.074 A 
ATOM     74  C   UNL     1      16.249   8.360   0.778  1.00  0.00     0.031 C 
ATOM     75  C   UNL     1      16.632   7.316   2.995  1.00  0.00     0.031 A 
BRANCH  62  76
ATOM     76  C   UNL     1      15.313   2.308   6.378  1.00  0.00    -0.014 A 
ATOM     77  C   UNL     1      16.035   1.113   6.529  1.00  0.00     0.009 A 
ATOM     78  C   UNL     1      14.659   2.850   7.496  1.00  0.00     0.009 A 
ATOM     79  C   UNL     1      16.055   0.448   7.757  1.00  0.00     0.001 A 
ATOM     80  C   UNL     1      14.710   2.201   8.731  1.00  0.00     0.001 A 
ATOM     81  C   UNL     1      15.396   0.994   8.857  1.00  0.00     0.000 A 
ENDBRANCH  62  76
BRANCH  63  82
ATOM     82  C   UNL     1      14.137   6.745  -2.488  1.00  0.00    -0.014 A 
ATOM     83  C   UNL     1      15.240   6.899  -3.341  1.00  0.00     0.009 A 
ATOM     84  C   UNL     1      12.883   7.217  -2.906  1.00  0.00     0.009 A 
ATOM     85  C   UNL     1      15.096   7.533  -4.577  1.00  0.00     0.001 A 
ATOM     86  C   UNL     1      12.737   7.826  -4.155  1.00  0.00     0.001 A 
ATOM     87  C   UNL     1      13.844   7.991  -4.985  1.00  0.00     0.000 A 
ENDBRANCH  63  82
BRANCH  75  88
ATOM     88  C   UNL     1      17.474   8.506   3.362  1.00  0.00    -0.014 A 
ATOM     89  C   UNL     1      16.903   9.767   3.593  1.00  0.00     0.009 A 
ATOM     90  C   UNL     1      18.861   8.349   3.517  1.00  0.00     0.009 A 
ATOM     91  C   UNL     1      17.710  10.854   3.935  1.00  0.00     0.001 A 
ATOM     92  C   UNL     1      19.660   9.429   3.890  1.00  0.00     0.001 A 
ATOM     93  C   UNL     1      19.086  10.683   4.089  1.00  0.00     0.000 A 
ENDBRANCH  75  88
ENDBRANCH  49  50
ENDBRANCH  41  44
ENDBRANCH  39  40
ENDBRANCH  38  39
ENDBRANCH  37  38
ENDBRANCH  36  37
ENDBRANCH  35  36
ENDBRANCH  34  35
ENDBRANCH   3  34
TORSDOF 21
