REMARK SMILES CC[NH+]1CCC2(CC1)OC[C@@H](C(=O)NCCCCCCNC(=O)c1ccc(-c3c4nc(c(-c5ccccc5)c5ccc([nH]5)c(-c5ccccc5)c5nc(c(-c6ccccc6)c6ccc3[nH]6)C=C5)C=C4)cc1)N2C(=O)c1ccc(Cl)c([N+](=O)[O-])c1
REMARK SMILES IDX 17 1 16 2 15 3 14 4 12 5 13 6 11 8 3 9 4 10 8 11 5 13 7 14
REMARK SMILES IDX 6 15 9 16 72 17 10 18 2 19 1 20 73 21 74 22 75 23 76 24
REMARK SMILES IDX 84 25 77 26 80 27 78 28 79 29 81 30 82 31 83 32 18 33 19 34
REMARK SMILES IDX 20 35 21 36 22 37 23 39 24 40 25 41 71 42 26 43 70 44 27 45
REMARK SMILES IDX 28 46 29 47 64 48 30 49 69 50 63 51 65 52 31 53 68 54 62 55
REMARK SMILES IDX 61 56 32 58 54 59 39 60 53 61 40 62 43 63 52 64 66 65 41 66
REMARK SMILES IDX 42 67 51 69 67 70 44 71 33 72 34 73 38 74 35 75 37 76 36 77
REMARK SMILES IDX 55 78 56 79 60 80 57 81 59 82 58 83 45 84 46 85 50 86 47 87
REMARK SMILES IDX 49 88 48 89
REMARK H PARENT 14 7 3 12 21 38 65 57 43 68
REMARK Flexibility Score: inf
ROOT
ATOM      1  C   UNL     1       7.699  -6.263   0.836  1.00  0.00     0.002 C 
ENDROOT
BRANCH   1   2
ATOM      2  C   UNL     1       6.445  -5.449   0.509  1.00  0.00     0.021 C 
BRANCH   2   3
ATOM      3  C   UNL     1       5.713  -5.900  -0.747  1.00  0.00     0.116 C 
BRANCH   3   4
ATOM      4  N   UNL     1       5.156  -7.218  -0.566  1.00  0.00    -0.354 N 
ATOM      5  C   UNL     1       3.858  -7.615  -0.465  1.00  0.00     0.245 C 
ATOM      6  O   UNL     1       3.654  -8.834  -0.425  1.00  0.00    -0.273 OA
ATOM      7  H   UNL     1       5.818  -7.944  -0.505  1.00  0.00     0.163 HD
BRANCH   5   8
ATOM      8  C   UNL     1       2.683  -6.642  -0.672  1.00  0.00     0.203 C 
ATOM      9  N   UNL     1       0.869  -1.865  -0.069  1.00  0.00    -0.335 N 
ATOM     10  C   UNL     1       0.136  -3.125  -0.189  1.00  0.00     0.267 C 
ATOM     11  C   UNL     1       2.312  -1.896  -0.288  1.00  0.00     0.267 C 
ATOM     12  H   UNL     1       0.825  -1.691   0.935  1.00  0.00     0.348 HD
ATOM     13  C   UNL     1       0.679  -4.146  -1.164  1.00  0.00     0.120 C 
ATOM     14  C   UNL     1       2.878  -2.979  -1.183  1.00  0.00     0.120 C 
ATOM     15  C   UNL     1       2.198  -4.335  -1.077  1.00  0.00     0.155 C 
ATOM     16  O   UNL     1       2.553  -4.970  -2.340  1.00  0.00    -0.352 OA
ATOM     17  N   UNL     1       2.666  -5.308  -0.067  1.00  0.00    -0.295 N 
ATOM     18  C   UNL     1       2.600  -6.386  -2.166  1.00  0.00     0.198 C 
BRANCH   9  19
ATOM     19  C   UNL     1       0.198  -0.746  -0.736  1.00  0.00     0.258 C 
ATOM     20  C   UNL     1       0.594   0.602  -0.136  1.00  0.00     0.071 C 
ENDBRANCH   9  19
BRANCH  17  21
ATOM     21  C   UNL     1       2.790  -5.291   1.323  1.00  0.00     0.257 C 
ATOM     22  O   UNL     1       2.988  -6.314   1.978  1.00  0.00    -0.269 OA
BRANCH  21  23
ATOM     23  C   UNL     1       2.758  -4.060   2.129  1.00  0.00     0.047 A 
ATOM     24  C   UNL     1       3.933  -3.373   2.435  1.00  0.00     0.016 A 
ATOM     25  C   UNL     1       1.562  -3.651   2.717  1.00  0.00     0.101 A 
ATOM     26  C   UNL     1       3.879  -2.196   3.193  1.00  0.00     0.028 A 
ATOM     27  C   UNL     1       1.481  -2.405   3.374  1.00  0.00     0.288 A 
ATOM     28  C   UNL     1       2.649  -1.674   3.626  1.00  0.00     0.118 A 
ATOM     29  Cl  UNL     1       2.740  -0.164   4.459  1.00  0.00    -0.077 Cl
BRANCH  27  30
ATOM     30  N   UNL     1       0.133  -1.897   3.669  1.00  0.00     0.064 N 
ATOM     31  O   UNL     1      -0.016  -0.704   3.953  1.00  0.00    -0.258 OA
ATOM     32  O   UNL     1      -0.807  -2.701   3.571  1.00  0.00    -0.258 OA
ENDBRANCH  27  30
ENDBRANCH  21  23
ENDBRANCH  17  21
ENDBRANCH   5   8
ENDBRANCH   3   4
ENDBRANCH   2   3
ENDBRANCH   1   2
BRANCH   1  33
ATOM     33  C   UNL     1       8.730  -6.341  -0.291  1.00  0.00     0.002 C 
BRANCH  33  34
ATOM     34  C   UNL     1       9.182  -4.989  -0.842  1.00  0.00     0.021 C 
BRANCH  34  35
ATOM     35  C   UNL     1       9.750  -4.040   0.206  1.00  0.00     0.116 C 
BRANCH  35  36
ATOM     36  N   UNL     1      10.935  -4.581   0.850  1.00  0.00    -0.352 N 
ATOM     37  C   UNL     1      12.174  -4.007   1.000  1.00  0.00     0.251 C 
ATOM     38  H   UNL     1      10.836  -5.483   1.232  1.00  0.00     0.163 HD
ATOM     39  O   UNL     1      13.125  -4.665   1.394  1.00  0.00    -0.269 OA
BRANCH  37  40
ATOM     40  C   UNL     1      12.348  -2.580   0.656  1.00  0.00     0.039 A 
ATOM     41  C   UNL     1      13.432  -2.202  -0.138  1.00  0.00     0.014 A 
ATOM     42  C   UNL     1      11.428  -1.628   1.102  1.00  0.00     0.014 A 
ATOM     43  C   UNL     1      13.559  -0.871  -0.537  1.00  0.00     0.010 A 
ATOM     44  C   UNL     1      11.511  -0.322   0.638  1.00  0.00     0.010 A 
ATOM     45  C   UNL     1      12.581   0.072  -0.181  1.00  0.00    -0.014 A 
BRANCH  45  46
ATOM     46  C   UNL     1      12.653   1.477  -0.650  1.00  0.00     0.031 A 
ATOM     47  C   UNL     1      12.791   2.596   0.344  1.00  0.00     0.074 A 
ATOM     48  C   UNL     1      12.514   1.752  -1.962  1.00  0.00     0.049 A 
ATOM     49  N   UNL     1      12.783   3.889   0.139  1.00  0.00    -0.248 NA
ATOM     50  C   UNL     1      12.926   2.210   1.757  1.00  0.00     0.031 C 
ATOM     51  C   UNL     1      12.336   0.759  -3.023  1.00  0.00     0.029 A 
ATOM     52  N   UNL     1      12.488   2.954  -2.623  1.00  0.00    -0.354 N 
ATOM     53  C   UNL     1      12.892   4.468   1.397  1.00  0.00     0.074 A 
ATOM     54  C   UNL     1      12.905   3.389   2.360  1.00  0.00     0.031 C 
ATOM     55  C   UNL     1      12.243   1.391  -4.203  1.00  0.00     0.029 A 
ATOM     56  C   UNL     1      12.306   2.832  -3.978  1.00  0.00     0.049 A 
ATOM     57  H   UNL     1      12.590   3.822  -2.168  1.00  0.00     0.167 HD
ATOM     58  C   UNL     1      12.992   5.779   1.722  1.00  0.00     0.031 A 
ATOM     59  C   UNL     1      12.191   3.774  -4.933  1.00  0.00     0.031 A 
ATOM     60  C   UNL     1      12.977   6.851   0.762  1.00  0.00     0.049 A 
ATOM     61  C   UNL     1      12.277   5.224  -4.549  1.00  0.00     0.074 A 
ATOM     62  C   UNL     1      13.122   8.209   0.984  1.00  0.00     0.029 A 
ATOM     63  N   UNL     1      12.797   6.684  -0.603  1.00  0.00    -0.354 N 
ATOM     64  N   UNL     1      12.445   5.755  -3.362  1.00  0.00    -0.248 NA
ATOM     65  C   UNL     1      12.170   6.204  -5.639  1.00  0.00     0.031 C 
ATOM     66  C   UNL     1      12.968   8.869  -0.240  1.00  0.00     0.029 A 
ATOM     67  C   UNL     1      12.798   7.918  -1.233  1.00  0.00     0.049 A 
ATOM     68  H   UNL     1      12.686   5.818  -1.057  1.00  0.00     0.167 HD
ATOM     69  C   UNL     1      12.493   7.129  -3.565  1.00  0.00     0.074 A 
ATOM     70  C   UNL     1      12.350   7.346  -4.990  1.00  0.00     0.031 C 
ATOM     71  C   UNL     1      12.646   8.120  -2.652  1.00  0.00     0.031 A 
BRANCH  58  72
ATOM     72  C   UNL     1      13.106   6.118   3.184  1.00  0.00    -0.014 A 
ATOM     73  C   UNL     1      14.244   5.767   3.931  1.00  0.00     0.009 A 
ATOM     74  C   UNL     1      12.064   6.805   3.825  1.00  0.00     0.009 A 
ATOM     75  C   UNL     1      14.310   6.049   5.297  1.00  0.00     0.001 A 
ATOM     76  C   UNL     1      12.148   7.118   5.183  1.00  0.00     0.001 A 
ATOM     77  C   UNL     1      13.264   6.727   5.921  1.00  0.00     0.000 A 
ENDBRANCH  58  72
BRANCH  59  78
ATOM     78  C   UNL     1      11.991   3.368  -6.349  1.00  0.00    -0.014 A 
ATOM     79  C   UNL     1      13.016   3.539  -7.292  1.00  0.00     0.009 A 
ATOM     80  C   UNL     1      10.780   2.791  -6.763  1.00  0.00     0.009 A 
ATOM     81  C   UNL     1      12.825   3.160  -8.623  1.00  0.00     0.001 A 
ATOM     82  C   UNL     1      10.602   2.385  -8.087  1.00  0.00     0.001 A 
ATOM     83  C   UNL     1      11.622   2.578  -9.018  1.00  0.00     0.000 A 
ENDBRANCH  59  78
BRANCH  71  84
ATOM     84  C   UNL     1      12.705   9.531  -3.170  1.00  0.00    -0.014 A 
ATOM     85  C   UNL     1      11.566  10.172  -3.683  1.00  0.00     0.009 A 
ATOM     86  C   UNL     1      13.913  10.243  -3.102  1.00  0.00     0.009 A 
ATOM     87  C   UNL     1      11.646  11.487  -4.147  1.00  0.00     0.001 A 
ATOM     88  C   UNL     1      13.982  11.567  -3.536  1.00  0.00     0.001 A 
ATOM     89  C   UNL     1      12.852  12.185  -4.068  1.00  0.00     0.000 A 
ENDBRANCH  71  84
ENDBRANCH  45  46
ENDBRANCH  37  40
ENDBRANCH  35  36
ENDBRANCH  34  35
ENDBRANCH  33  34
ENDBRANCH   1  33
TORSDOF 17
