REMARK SMILES O=C(NCCCCCCNC(=O)[C@H]1C[C@](O)(c2ccccc2Cl)[C@@H](c2ccccc2Cl)O1)c1ccc(-c2c3nc(c(-c4ccccc4)c4ccc([nH]4)c(-c4ccccc4)c4nc(c(-c5ccccc5)c5ccc2[nH]5)C=C4)C=C3)cc1
REMARK SMILES IDX 6 1 5 2 4 3 3 4 1 5 2 6 33 8 34 9 80 10 35 11 79 12 36 13
REMARK SMILES IDX 37 14 38 15 73 16 39 17 78 18 72 19 74 20 40 21 77 22 71 23
REMARK SMILES IDX 70 24 41 26 63 27 48 28 62 29 49 30 52 31 61 32 75 33 50 34
REMARK SMILES IDX 51 35 60 37 76 38 53 39 42 40 43 41 47 42 44 43 46 44 45 45
REMARK SMILES IDX 64 46 65 47 69 48 66 49 68 50 67 51 54 52 55 53 59 54 56 55
REMARK SMILES IDX 58 56 57 57 7 58 8 59 9 60 10 61 11 62 12 64 13 65 14 66
REMARK SMILES IDX 32 67 15 68 24 69 17 70 18 71 22 72 19 73 21 74 23 75 20 76
REMARK SMILES IDX 16 77 25 79 26 80 30 81 27 82 29 83 31 84 28 85
REMARK H PARENT 3 7 74 25 52 36 10 63 16 78
REMARK Flexibility Score: inf
ROOT
ATOM      1  C   UNL     1       5.088  -0.137   2.940  1.00  0.00     0.002 C 
ENDROOT
BRANCH   1   2
ATOM      2  C   UNL     1       3.682  -0.514   3.396  1.00  0.00     0.021 C 
BRANCH   2   3
ATOM      3  C   UNL     1       2.674   0.625   3.333  1.00  0.00     0.116 C 
BRANCH   3   4
ATOM      4  N   UNL     1       2.335   0.990   1.967  1.00  0.00    -0.352 N 
ATOM      5  O   UNL     1       0.995   1.184   0.156  1.00  0.00    -0.269 OA
ATOM      6  C   UNL     1       1.099   1.024   1.368  1.00  0.00     0.251 C 
ATOM      7  H   UNL     1       3.093   1.249   1.394  1.00  0.00     0.163 HD
BRANCH   6   8
ATOM      8  C   UNL     1      -0.113   0.840   2.195  1.00  0.00     0.039 A 
ATOM      9  C   UNL     1      -0.251   1.519   3.409  1.00  0.00     0.014 A 
ATOM     10  C   UNL     1      -1.119  -0.022   1.753  1.00  0.00     0.014 A 
ATOM     11  C   UNL     1      -1.324   1.231   4.242  1.00  0.00     0.010 A 
ATOM     12  C   UNL     1      -2.244  -0.240   2.552  1.00  0.00     0.010 A 
ATOM     13  C   UNL     1      -2.344   0.366   3.814  1.00  0.00    -0.014 A 
BRANCH  13  14
ATOM     14  C   UNL     1      -3.544   0.182   4.665  1.00  0.00     0.031 A 
ATOM     15  C   UNL     1      -3.890  -1.155   5.255  1.00  0.00     0.074 A 
ATOM     16  C   UNL     1      -4.328   1.251   4.906  1.00  0.00     0.049 A 
ATOM     17  N   UNL     1      -4.904  -1.479   6.018  1.00  0.00    -0.248 NA
ATOM     18  C   UNL     1      -2.991  -2.277   4.943  1.00  0.00     0.031 C 
ATOM     19  C   UNL     1      -4.100   2.599   4.377  1.00  0.00     0.029 A 
ATOM     20  N   UNL     1      -5.466   1.378   5.660  1.00  0.00    -0.354 N 
ATOM     21  C   UNL     1      -4.780  -2.841   6.260  1.00  0.00     0.074 A 
ATOM     22  C   UNL     1      -3.604  -3.288   5.544  1.00  0.00     0.031 C 
ATOM     23  C   UNL     1      -5.045   3.422   4.850  1.00  0.00     0.029 A 
ATOM     24  C   UNL     1      -5.982   2.650   5.657  1.00  0.00     0.049 A 
ATOM     25  H   UNL     1      -5.873   0.630   6.154  1.00  0.00     0.167 HD
ATOM     26  C   UNL     1      -5.574  -3.642   7.012  1.00  0.00     0.031 A 
ATOM     27  C   UNL     1      -7.101   3.143   6.216  1.00  0.00     0.031 A 
ATOM     28  C   UNL     1      -6.749  -3.191   7.713  1.00  0.00     0.049 A 
ATOM     29  C   UNL     1      -7.981   2.227   7.012  1.00  0.00     0.074 A 
ATOM     30  C   UNL     1      -7.594  -3.917   8.535  1.00  0.00     0.029 A 
ATOM     31  N   UNL     1      -7.253  -1.900   7.664  1.00  0.00    -0.354 N 
ATOM     32  N   UNL     1      -7.820   0.953   7.275  1.00  0.00    -0.248 NA
ATOM     33  C   UNL     1      -9.195   2.816   7.590  1.00  0.00     0.031 C 
ATOM     34  C   UNL     1      -8.644  -3.081   8.931  1.00  0.00     0.029 A 
ATOM     35  C   UNL     1      -8.417  -1.817   8.412  1.00  0.00     0.049 A 
ATOM     36  H   UNL     1      -6.845  -1.152   7.171  1.00  0.00     0.167 HD
ATOM     37  C   UNL     1      -8.903   0.590   8.062  1.00  0.00     0.074 A 
ATOM     38  C   UNL     1      -9.701   1.785   8.252  1.00  0.00     0.031 C 
ATOM     39  C   UNL     1      -9.208  -0.624   8.581  1.00  0.00     0.031 A 
BRANCH  26  40
ATOM     40  C   UNL     1      -5.218  -5.103   7.083  1.00  0.00    -0.014 A 
ATOM     41  C   UNL     1      -4.082  -5.551   7.775  1.00  0.00     0.009 A 
ATOM     42  C   UNL     1      -6.057  -6.051   6.474  1.00  0.00     0.009 A 
ATOM     43  C   UNL     1      -3.773  -6.913   7.823  1.00  0.00     0.001 A 
ATOM     44  C   UNL     1      -5.762  -7.414   6.548  1.00  0.00     0.001 A 
ATOM     45  C   UNL     1      -4.614  -7.843   7.213  1.00  0.00     0.000 A 
ENDBRANCH  26  40
BRANCH  27  46
ATOM     46  C   UNL     1      -7.454   4.571   6.010  1.00  0.00    -0.014 A 
ATOM     47  C   UNL     1      -7.386   5.488   7.068  1.00  0.00     0.009 A 
ATOM     48  C   UNL     1      -7.831   5.028   4.736  1.00  0.00     0.009 A 
ATOM     49  C   UNL     1      -7.705   6.832   6.858  1.00  0.00     0.001 A 
ATOM     50  C   UNL     1      -8.117   6.377   4.522  1.00  0.00     0.001 A 
ATOM     51  C   UNL     1      -8.062   7.276   5.585  1.00  0.00     0.000 A 
ENDBRANCH  27  46
BRANCH  39  52
ATOM     52  C   UNL     1     -10.449  -0.713   9.425  1.00  0.00    -0.014 A 
ATOM     53  C   UNL     1     -11.728  -0.637   8.852  1.00  0.00     0.009 A 
ATOM     54  C   UNL     1     -10.334  -0.905  10.810  1.00  0.00     0.009 A 
ATOM     55  C   UNL     1     -12.867  -0.719   9.656  1.00  0.00     0.001 A 
ATOM     56  C   UNL     1     -11.473  -1.017  11.607  1.00  0.00     0.001 A 
ATOM     57  C   UNL     1     -12.739  -0.914  11.031  1.00  0.00     0.000 A 
ENDBRANCH  39  52
ENDBRANCH  13  14
ENDBRANCH   6   8
ENDBRANCH   3   4
ENDBRANCH   2   3
ENDBRANCH   1   2
BRANCH   1  58
ATOM     58  C   UNL     1       5.724   1.028   3.706  1.00  0.00     0.002 C 
BRANCH  58  59
ATOM     59  C   UNL     1       5.751   0.885   5.239  1.00  0.00     0.021 C 
BRANCH  59  60
ATOM     60  C   UNL     1       6.448  -0.380   5.758  1.00  0.00     0.116 C 
BRANCH  60  61
ATOM     61  N   UNL     1       7.795  -0.456   5.237  1.00  0.00    -0.354 N 
ATOM     62  C   UNL     1       8.840   0.295   5.704  1.00  0.00     0.249 C 
ATOM     63  H   UNL     1       7.971  -1.086   4.502  1.00  0.00     0.163 HD
ATOM     64  O   UNL     1       9.492   0.912   4.864  1.00  0.00    -0.272 OA
BRANCH  62  65
ATOM     65  C   UNL     1       9.159   0.277   7.219  1.00  0.00     0.211 C 
ATOM     66  C   UNL     1       9.630  -1.113   7.645  1.00  0.00     0.085 C 
ATOM     67  O   UNL     1      10.181   1.214   7.572  1.00  0.00    -0.357 OA
ATOM     68  C   UNL     1      11.022  -0.922   8.250  1.00  0.00     0.124 C 
ATOM     69  C   UNL     1      11.420   0.514   7.806  1.00  0.00     0.187 C 
BRANCH  68  70
ATOM     70  C   UNL     1      11.008  -1.263   9.759  1.00  0.00     0.005 A 
ATOM     71  C   UNL     1      11.097  -2.642  10.095  1.00  0.00     0.008 A 
ATOM     72  C   UNL     1      10.925  -0.370  10.846  1.00  0.00     0.047 A 
ATOM     73  C   UNL     1      11.211  -3.094  11.412  1.00  0.00     0.001 A 
ATOM     74  C   UNL     1      11.082  -0.826  12.169  1.00  0.00     0.021 A 
ATOM     75  Cl  UNL     1      10.538   1.308  10.722  1.00  0.00    -0.084 Cl
ATOM     76  C   UNL     1      11.239  -2.179  12.451  1.00  0.00     0.002 A 
ENDBRANCH  68  70
BRANCH  68  77
ATOM     77  O   UNL     1      11.913  -1.885   7.649  1.00  0.00    -0.382 OA
ATOM     78  H   UNL     1      11.966  -1.724   6.694  1.00  0.00     0.212 HD
ENDBRANCH  68  77
BRANCH  69  79
ATOM     79  C   UNL     1      12.322   0.756   6.598  1.00  0.00     0.003 A 
ATOM     80  C   UNL     1      12.167   0.021   5.408  1.00  0.00     0.008 A 
ATOM     81  C   UNL     1      13.263   1.807   6.582  1.00  0.00     0.046 A 
ATOM     82  C   UNL     1      12.854   0.361   4.239  1.00  0.00     0.000 A 
ATOM     83  C   UNL     1      13.971   2.129   5.417  1.00  0.00     0.021 A 
ATOM     84  Cl  UNL     1      13.621   2.769   7.979  1.00  0.00    -0.084 Cl
ATOM     85  C   UNL     1      13.750   1.421   4.240  1.00  0.00     0.002 A 
ENDBRANCH  69  79
ENDBRANCH  62  65
ENDBRANCH  60  61
ENDBRANCH  59  60
ENDBRANCH  58  59
ENDBRANCH   1  58
TORSDOF 16
