REMARK SMILES O=C(NCCCCCCNC(=O)[C@H]1C[C@](O)(c2ccc(Cl)cc2)[C@@H](c2ccc(Cl)cc2)O1)c1ccc(-c2c3nc(c(-c4ccccc4)c4ccc([nH]4)c(-c4ccccc4)c4nc(c(-c5ccccc5)c5ccc2[nH]5)C=C4)C=C3)cc1
REMARK SMILES IDX 6 1 5 2 4 3 3 4 1 5 2 6 33 8 34 9 80 10 35 11 79 12 36 13
REMARK SMILES IDX 37 14 38 15 73 16 39 17 78 18 72 19 74 20 40 21 77 22 71 23
REMARK SMILES IDX 70 24 41 26 63 27 48 28 62 29 49 30 52 31 61 32 75 33 50 34
REMARK SMILES IDX 51 35 60 37 76 38 53 39 42 40 43 41 47 42 44 43 46 44 45 45
REMARK SMILES IDX 64 46 65 47 69 48 66 49 68 50 67 51 54 52 55 53 59 54 56 55
REMARK SMILES IDX 58 56 57 57 7 58 8 59 9 60 10 61 11 62 12 64 13 65 14 66
REMARK SMILES IDX 32 67 15 68 24 69 17 70 18 71 23 72 19 73 22 74 20 75 21 76
REMARK SMILES IDX 16 77 25 79 26 80 31 81 27 82 30 83 28 84 29 85
REMARK H PARENT 3 7 74 25 52 36 10 63 16 78
REMARK Flexibility Score: inf
ROOT
ATOM      1  C   UNL     1       7.409  10.040  -1.177  1.00  0.00     0.002 C 
ENDROOT
BRANCH   1   2
ATOM      2  C   UNL     1       6.385  11.043  -0.652  1.00  0.00     0.021 C 
BRANCH   2   3
ATOM      3  C   UNL     1       6.853  12.489  -0.653  1.00  0.00     0.116 C 
BRANCH   3   4
ATOM      4  N   UNL     1       7.004  13.022  -1.996  1.00  0.00    -0.352 N 
ATOM      5  O   UNL     1       6.512  14.357  -3.751  1.00  0.00    -0.269 OA
ATOM      6  C   UNL     1       6.420  14.136  -2.551  1.00  0.00     0.251 C 
ATOM      7  H   UNL     1       7.606  12.517  -2.589  1.00  0.00     0.163 HD
BRANCH   6   8
ATOM      8  C   UNL     1       5.664  15.066  -1.682  1.00  0.00     0.039 A 
ATOM      9  C   UNL     1       6.188  15.465  -0.450  1.00  0.00     0.014 A 
ATOM     10  C   UNL     1       4.429  15.557  -2.114  1.00  0.00     0.014 A 
ATOM     11  C   UNL     1       5.430  16.260   0.399  1.00  0.00     0.010 A 
ATOM     12  C   UNL     1       3.707  16.431  -1.297  1.00  0.00     0.010 A 
ATOM     13  C   UNL     1       4.200  16.784  -0.032  1.00  0.00    -0.014 A 
BRANCH  13  14
ATOM     14  C   UNL     1       3.526  17.810   0.801  1.00  0.00     0.031 A 
ATOM     15  C   UNL     1       2.185  17.564   1.429  1.00  0.00     0.074 A 
ATOM     16  C   UNL     1       4.160  18.986   0.983  1.00  0.00     0.049 A 
ATOM     17  N   UNL     1       1.476  18.368   2.182  1.00  0.00    -0.248 NA
ATOM     18  C   UNL     1       1.553  16.258   1.184  1.00  0.00     0.031 C 
ATOM     19  C   UNL     1       5.463  19.339   0.407  1.00  0.00     0.029 A 
ATOM     20  N   UNL     1       3.810  20.095   1.707  1.00  0.00    -0.354 N 
ATOM     21  C   UNL     1       0.309  17.678   2.484  1.00  0.00     0.074 A 
ATOM     22  C   UNL     1       0.397  16.393   1.823  1.00  0.00     0.031 C 
ATOM     23  C   UNL     1       5.816  20.560   0.830  1.00  0.00     0.029 A 
ATOM     24  C   UNL     1       4.738  21.106   1.641  1.00  0.00     0.049 A 
ATOM     25  H   UNL     1       2.974  20.161   2.224  1.00  0.00     0.167 HD
ATOM     26  C   UNL     1      -0.737  18.088   3.241  1.00  0.00     0.031 A 
ATOM     27  C   UNL     1       4.712  22.352   2.147  1.00  0.00     0.031 A 
ATOM     28  C   UNL     1      -0.814  19.370   3.894  1.00  0.00     0.049 A 
ATOM     29  C   UNL     1       3.515  22.785   2.940  1.00  0.00     0.074 A 
ATOM     30  C   UNL     1      -1.808  19.850   4.729  1.00  0.00     0.029 A 
ATOM     31  N   UNL     1       0.129  20.379   3.774  1.00  0.00    -0.354 N 
ATOM     32  N   UNL     1       2.454  22.093   3.275  1.00  0.00    -0.248 NA
ATOM     33  C   UNL     1       3.511  24.173   3.421  1.00  0.00     0.031 C 
ATOM     34  C   UNL     1      -1.502  21.174   5.058  1.00  0.00     0.029 A 
ATOM     35  C   UNL     1      -0.284  21.496   4.482  1.00  0.00     0.049 A 
ATOM     36  H   UNL     1       0.967  20.312   3.263  1.00  0.00     0.167 HD
ATOM     37  C   UNL     1       1.661  22.957   4.015  1.00  0.00     0.074 A 
ATOM     38  C   UNL     1       2.380  24.211   4.111  1.00  0.00     0.031 C 
ATOM     39  C   UNL     1       0.440  22.737   4.559  1.00  0.00     0.031 A 
BRANCH  26  40
ATOM     40  C   UNL     1      -1.912  17.161   3.393  1.00  0.00    -0.014 A 
ATOM     41  C   UNL     1      -1.846  16.024   4.211  1.00  0.00     0.009 A 
ATOM     42  C   UNL     1      -3.137  17.496   2.792  1.00  0.00     0.009 A 
ATOM     43  C   UNL     1      -2.981  15.234   4.414  1.00  0.00     0.001 A 
ATOM     44  C   UNL     1      -4.275  16.718   3.016  1.00  0.00     0.001 A 
ATOM     45  C   UNL     1      -4.195  15.586   3.824  1.00  0.00     0.000 A 
ENDBRANCH  26  40
BRANCH  27  46
ATOM     46  C   UNL     1       5.827  23.296   1.869  1.00  0.00    -0.014 A 
ATOM     47  C   UNL     1       6.649  23.765   2.903  1.00  0.00     0.009 A 
ATOM     48  C   UNL     1       6.056  23.752   0.560  1.00  0.00     0.009 A 
ATOM     49  C   UNL     1       7.652  24.701   2.638  1.00  0.00     0.001 A 
ATOM     50  C   UNL     1       7.084  24.657   0.292  1.00  0.00     0.001 A 
ATOM     51  C   UNL     1       7.871  25.142   1.334  1.00  0.00     0.000 A 
ENDBRANCH  27  46
BRANCH  39  52
ATOM     52  C   UNL     1      -0.180  23.875   5.319  1.00  0.00    -0.014 A 
ATOM     53  C   UNL     1      -0.666  25.011   4.653  1.00  0.00     0.009 A 
ATOM     54  C   UNL     1      -0.300  23.799   6.715  1.00  0.00     0.009 A 
ATOM     55  C   UNL     1      -1.228  26.065   5.376  1.00  0.00     0.001 A 
ATOM     56  C   UNL     1      -0.891  24.840   7.431  1.00  0.00     0.001 A 
ATOM     57  C   UNL     1      -1.344  25.976   6.762  1.00  0.00     0.000 A 
ENDBRANCH  39  52
ENDBRANCH  13  14
ENDBRANCH   6   8
ENDBRANCH   3   4
ENDBRANCH   2   3
ENDBRANCH   1   2
BRANCH   1  58
ATOM     58  C   UNL     1       8.752  10.014  -0.439  1.00  0.00     0.002 C 
BRANCH  58  59
ATOM     59  C   UNL     1       8.688   9.845   1.086  1.00  0.00     0.021 C 
BRANCH  59  60
ATOM     60  C   UNL     1       7.813   8.700   1.591  1.00  0.00     0.116 C 
BRANCH  60  61
ATOM     61  N   UNL     1       8.169   7.421   1.019  1.00  0.00    -0.354 N 
ATOM     62  C   UNL     1       8.633   6.305   1.648  1.00  0.00     0.249 C 
ATOM     63  H   UNL     1       8.063   7.346   0.043  1.00  0.00     0.163 HD
ATOM     64  O   UNL     1       8.745   5.277   0.977  1.00  0.00    -0.272 OA
BRANCH  62  65
ATOM     65  C   UNL     1       8.994   6.369   3.148  1.00  0.00     0.211 C 
ATOM     66  C   UNL     1       9.526   5.038   3.668  1.00  0.00     0.085 C 
ATOM     67  O   UNL     1       9.972   7.381   3.398  1.00  0.00    -0.357 OA
ATOM     68  C   UNL     1      10.877   5.338   4.320  1.00  0.00     0.123 C 
ATOM     69  C   UNL     1      11.210   6.770   3.807  1.00  0.00     0.186 C 
BRANCH  68  70
ATOM     70  C   UNL     1      10.770   5.119   5.840  1.00  0.00    -0.013 A 
ATOM     71  C   UNL     1      10.497   3.811   6.307  1.00  0.00     0.008 A 
ATOM     72  C   UNL     1      10.947   6.119   6.809  1.00  0.00     0.008 A 
ATOM     73  C   UNL     1      10.400   3.516   7.669  1.00  0.00     0.021 A 
ATOM     74  C   UNL     1      10.865   5.822   8.178  1.00  0.00     0.021 A 
ATOM     75  C   UNL     1      10.591   4.526   8.601  1.00  0.00     0.041 A 
ATOM     76  Cl  UNL     1      10.491   4.173  10.281  1.00  0.00    -0.084 Cl
ENDBRANCH  68  70
BRANCH  68  77
ATOM     77  O   UNL     1      11.853   4.372   3.902  1.00  0.00    -0.382 OA
ATOM     78  H   UNL     1      11.985   4.441   2.944  1.00  0.00     0.212 HD
ENDBRANCH  68  77
BRANCH  69  79
ATOM     79  C   UNL     1      12.223   6.933   2.677  1.00  0.00    -0.016 A 
ATOM     80  C   UNL     1      12.015   6.431   1.383  1.00  0.00     0.008 A 
ATOM     81  C   UNL     1      13.411   7.647   2.920  1.00  0.00     0.008 A 
ATOM     82  C   UNL     1      12.944   6.654   0.361  1.00  0.00     0.021 A 
ATOM     83  C   UNL     1      14.345   7.866   1.903  1.00  0.00     0.021 A 
ATOM     84  C   UNL     1      14.103   7.374   0.625  1.00  0.00     0.041 A 
ATOM     85  Cl  UNL     1      15.239   7.658  -0.635  1.00  0.00    -0.084 Cl
ENDBRANCH  69  79
ENDBRANCH  62  65
ENDBRANCH  60  61
ENDBRANCH  59  60
ENDBRANCH  58  59
ENDBRANCH   1  58
TORSDOF 16
