REMARK SMILES C[N@@H+]1CC2(CCN(C(=O)c3cc(-c4ccncc4)n[nH]3)CC2)C[C@H]1C(=O)NCCCCCCNC(=O)c1ccc(-c2c3nc(c(-c4ccccc4)c4ccc([nH]4)c(-c4ccccc4)c4nc(c(-c5ccccc5)c5ccc2[nH]5)C=C4)C=C3)cc1
REMARK SMILES IDX 30 1 29 2 28 3 27 4 25 5 26 6 24 8 1 9 2 10 3 11 4 13 23 14
REMARK SMILES IDX 5 15 22 16 6 17 21 18 7 19 8 20 9 21 10 22 11 23 20 24 12 25
REMARK SMILES IDX 19 26 13 28 14 29 18 30 15 31 17 32 16 33 31 34 32 35 33 36
REMARK SMILES IDX 34 37 35 38 36 40 37 41 38 42 84 43 39 44 83 45 40 46 41 47
REMARK SMILES IDX 42 48 77 49 43 50 82 51 76 52 78 53 44 54 81 55 75 56 74 57
REMARK SMILES IDX 45 59 67 60 52 61 66 62 53 63 56 64 65 65 79 66 54 67 55 68
REMARK SMILES IDX 64 70 80 71 57 72 46 73 47 74 51 75 48 76 50 77 49 78 68 79
REMARK SMILES IDX 69 80 73 81 70 82 72 83 71 84 58 85 59 86 63 87 60 88 62 89
REMARK SMILES IDX 61 90
REMARK H PARENT 27 7 2 12 20 27 34 39 78 58 56 69
REMARK Flexibility Score: inf
ROOT
ATOM      1  C   UNL     1       0.464   2.952  -6.258  1.00  0.00     0.002 C 
ENDROOT
BRANCH   1   2
ATOM      2  C   UNL     1       0.744   2.267  -4.916  1.00  0.00     0.021 C 
BRANCH   2   3
ATOM      3  C   UNL     1      -0.129   2.737  -3.757  1.00  0.00     0.116 C 
BRANCH   3   4
ATOM      4  N   UNL     1      -1.199   1.844  -3.391  1.00  0.00    -0.351 N 
ATOM      5  C   UNL     1      -1.498   1.275  -2.186  1.00  0.00     0.278 C 
ATOM      6  O   UNL     1      -2.581   0.677  -2.124  1.00  0.00    -0.268 OA
ATOM      7  H   UNL     1      -1.810   1.607  -4.125  1.00  0.00     0.163 HD
BRANCH   5   8
ATOM      8  C   UNL     1      -0.596   1.351  -0.918  1.00  0.00     0.274 C 
ATOM      9  C   UNL     1       1.081  -0.309  -0.407  1.00  0.00     0.333 C 
ATOM     10  N   UNL     1       0.780   0.892  -1.192  1.00  0.00    -0.327 N 
ATOM     11  C   UNL     1       1.718   1.980  -0.892  1.00  0.00     0.269 C 
ATOM     12  H   UNL     1       0.874   0.643  -2.177  1.00  0.00     0.348 HD
ATOM     13  C   UNL     1       0.959   3.142  -0.212  1.00  0.00     0.029 C 
ATOM     14  C   UNL     1      -0.515   2.694  -0.199  1.00  0.00     0.088 C 
ATOM     15  C   UNL     1       1.051   4.508  -0.932  1.00  0.00     0.034 C 
ATOM     16  C   UNL     1       1.549   3.379   1.206  1.00  0.00     0.034 C 
ATOM     17  C   UNL     1       2.483   4.984  -1.046  1.00  0.00     0.120 C 
ATOM     18  C   UNL     1       2.973   3.979   1.162  1.00  0.00     0.120 C 
ATOM     19  N   UNL     1       3.061   5.145   0.281  1.00  0.00    -0.337 N 
ATOM     20  C   UNL     1       3.956   6.173   0.582  1.00  0.00     0.271 C 
ATOM     21  O   UNL     1       4.840   6.042   1.426  1.00  0.00    -0.267 OA
BRANCH  20  22
ATOM     22  C   UNL     1       3.804   7.400  -0.156  1.00  0.00     0.123 A 
ATOM     23  C   UNL     1       2.682   8.144  -0.468  1.00  0.00     0.064 A 
ATOM     24  N   UNL     1       4.848   8.111  -0.675  1.00  0.00    -0.272 N 
ATOM     25  C   UNL     1       3.136   9.210  -1.284  1.00  0.00     0.093 A 
ATOM     26  N   UNL     1       4.467   9.150  -1.443  1.00  0.00    -0.175 NA
ATOM     27  H   UNL     1       5.790   7.884  -0.505  1.00  0.00     0.190 HD
BRANCH  25  28
ATOM     28  C   UNL     1       2.321  10.238  -1.921  1.00  0.00     0.005 A 
ATOM     29  C   UNL     1       1.288  10.860  -1.217  1.00  0.00     0.030 A 
ATOM     30  C   UNL     1       2.546  10.597  -3.251  1.00  0.00     0.030 A 
ATOM     31  C   UNL     1       0.524  11.809  -1.874  1.00  0.00     0.111 A 
ATOM     32  C   UNL     1       1.720  11.550  -3.821  1.00  0.00     0.111 A 
ATOM     33  N   UNL     1       0.711  12.161  -3.163  1.00  0.00    -0.265 NA
ENDBRANCH  25  28
ENDBRANCH  20  22
ENDBRANCH   5   8
ENDBRANCH   3   4
ENDBRANCH   2   3
ENDBRANCH   1   2
BRANCH   1  34
ATOM     34  C   UNL     1       0.549   4.485  -6.282  1.00  0.00     0.002 C 
BRANCH  34  35
ATOM     35  C   UNL     1       1.830   5.119  -5.726  1.00  0.00     0.021 C 
BRANCH  35  36
ATOM     36  C   UNL     1       3.136   4.707  -6.406  1.00  0.00     0.116 C 
BRANCH  36  37
ATOM     37  N   UNL     1       3.149   5.003  -7.828  1.00  0.00    -0.352 N 
ATOM     38  C   UNL     1       4.058   5.685  -8.596  1.00  0.00     0.251 C 
ATOM     39  H   UNL     1       2.373   4.657  -8.324  1.00  0.00     0.163 HD
ATOM     40  O   UNL     1       3.788   5.929  -9.770  1.00  0.00    -0.269 OA
BRANCH  38  41
ATOM     41  C   UNL     1       5.353   6.147  -8.044  1.00  0.00     0.039 A 
ATOM     42  C   UNL     1       5.825   7.408  -8.430  1.00  0.00     0.014 A 
ATOM     43  C   UNL     1       6.143   5.336  -7.225  1.00  0.00     0.014 A 
ATOM     44  C   UNL     1       7.057   7.874  -7.961  1.00  0.00     0.010 A 
ATOM     45  C   UNL     1       7.354   5.818  -6.721  1.00  0.00     0.010 A 
ATOM     46  C   UNL     1       7.823   7.090  -7.086  1.00  0.00    -0.014 A 
BRANCH  46  47
ATOM     47  C   UNL     1       9.121   7.580  -6.559  1.00  0.00     0.031 A 
ATOM     48  C   UNL     1      10.411   6.948  -7.007  1.00  0.00     0.074 A 
ATOM     49  C   UNL     1       9.143   8.570  -5.648  1.00  0.00     0.049 A 
ATOM     50  N   UNL     1      11.632   7.187  -6.601  1.00  0.00    -0.248 NA
ATOM     51  C   UNL     1      10.312   5.901  -8.036  1.00  0.00     0.031 C 
ATOM     52  C   UNL     1       7.967   9.265  -5.121  1.00  0.00     0.029 A 
ATOM     53  N   UNL     1      10.198   9.163  -5.000  1.00  0.00    -0.354 N 
ATOM     54  C   UNL     1      12.444   6.310  -7.308  1.00  0.00     0.074 A 
ATOM     55  C   UNL     1      11.575   5.516  -8.151  1.00  0.00     0.031 C 
ATOM     56  C   UNL     1       8.367  10.204  -4.247  1.00  0.00     0.029 A 
ATOM     57  C   UNL     1       9.822  10.155  -4.129  1.00  0.00     0.049 A 
ATOM     58  H   UNL     1      11.136   8.901  -5.146  1.00  0.00     0.167 HD
ATOM     59  C   UNL     1      13.792   6.181  -7.268  1.00  0.00     0.031 A 
ATOM     60  C   UNL     1      10.564  10.937  -3.322  1.00  0.00     0.031 A 
ATOM     61  C   UNL     1      14.666   6.973  -6.446  1.00  0.00     0.049 A 
ATOM     62  C   UNL     1      12.057  10.771  -3.296  1.00  0.00     0.074 A 
ATOM     63  C   UNL     1      16.046   6.918  -6.348  1.00  0.00     0.029 A 
ATOM     64  N   UNL     1      14.244   7.976  -5.589  1.00  0.00    -0.354 N 
ATOM     65  N   UNL     1      12.808   9.940  -3.976  1.00  0.00    -0.248 NA
ATOM     66  C   UNL     1      12.805  11.658  -2.392  1.00  0.00     0.031 C 
ATOM     67  C   UNL     1      16.458   7.877  -5.415  1.00  0.00     0.029 A 
ATOM     68  C   UNL     1      15.336   8.546  -4.957  1.00  0.00     0.049 A 
ATOM     69  H   UNL     1      13.306   8.243  -5.449  1.00  0.00     0.167 HD
ATOM     70  C   UNL     1      14.115  10.218  -3.600  1.00  0.00     0.074 A 
ATOM     71  C   UNL     1      14.057  11.301  -2.640  1.00  0.00     0.031 C 
ATOM     72  C   UNL     1      15.261   9.629  -4.014  1.00  0.00     0.031 A 
BRANCH  59  73
ATOM     73  C   UNL     1      14.406   5.129  -8.145  1.00  0.00    -0.014 A 
ATOM     74  C   UNL     1      14.538   5.330  -9.527  1.00  0.00     0.009 A 
ATOM     75  C   UNL     1      14.889   3.939  -7.579  1.00  0.00     0.009 A 
ATOM     76  C   UNL     1      15.117   4.347 -10.331  1.00  0.00     0.001 A 
ATOM     77  C   UNL     1      15.485   2.965  -8.383  1.00  0.00     0.001 A 
ATOM     78  C   UNL     1      15.592   3.167  -9.759  1.00  0.00     0.000 A 
ENDBRANCH  59  73
BRANCH  60  79
ATOM     79  C   UNL     1       9.910  11.966  -2.477  1.00  0.00    -0.014 A 
ATOM     80  C   UNL     1      10.011  13.324  -2.814  1.00  0.00     0.009 A 
ATOM     81  C   UNL     1       9.197  11.599  -1.327  1.00  0.00     0.009 A 
ATOM     82  C   UNL     1       9.428  14.298  -2.001  1.00  0.00     0.001 A 
ATOM     83  C   UNL     1       8.597  12.574  -0.528  1.00  0.00     0.001 A 
ATOM     84  C   UNL     1       8.720  13.922  -0.861  1.00  0.00     0.000 A 
ENDBRANCH  60  79
BRANCH  72  85
ATOM     85  C   UNL     1      16.545  10.170  -3.459  1.00  0.00    -0.014 A 
ATOM     86  C   UNL     1      16.970   9.840  -2.163  1.00  0.00     0.009 A 
ATOM     87  C   UNL     1      17.353  10.995  -4.255  1.00  0.00     0.009 A 
ATOM     88  C   UNL     1      18.170  10.351  -1.665  1.00  0.00     0.001 A 
ATOM     89  C   UNL     1      18.560  11.490  -3.761  1.00  0.00     0.001 A 
ATOM     90  C   UNL     1      18.965  11.173  -2.465  1.00  0.00     0.000 A 
ENDBRANCH  72  85
ENDBRANCH  46  47
ENDBRANCH  38  41
ENDBRANCH  36  37
ENDBRANCH  35  36
ENDBRANCH  34  35
ENDBRANCH   1  34
TORSDOF 15
