REMARK SMILES CC[C@@H](C)[C@H](NC(=O)[C@H](C)N1C(=O)N2CCC3=c4cc(OC)ccc4=N[C@@H]3[C@@]2(C)C1=O)C(=O)NCCCCCCNC(=O)c1ccc(-c2c3nc(c(-c4ccccc4)c4ccc([nH]4)c(-c4ccccc4)c4nc(c(-c5ccccc5)c5ccc2[nH]5)C=C4)C=C3)cc1
REMARK SMILES IDX 36 1 35 2 34 3 32 4 33 5 5 7 3 8 4 9 2 10 1 11 6 12 7 13
REMARK SMILES IDX 8 15 9 16 10 17 11 18 12 19 30 20 14 21 13 22 28 23 31 24
REMARK SMILES IDX 15 25 27 26 29 27 16 28 17 29 26 30 18 31 25 32 19 33 24 34
REMARK SMILES IDX 20 35 23 36 21 37 22 38 37 39 38 40 39 41 40 42 41 43 42 44
REMARK SMILES IDX 43 46 44 47 45 48 91 49 46 50 90 51 47 52 48 53 49 54 84 55
REMARK SMILES IDX 50 56 89 57 83 58 85 59 51 60 88 61 82 62 81 63 52 65 74 66
REMARK SMILES IDX 59 67 73 68 60 69 63 70 72 71 86 72 61 73 62 74 71 76 87 77
REMARK SMILES IDX 64 78 53 79 54 80 58 81 55 82 57 83 56 84 75 85 76 86 80 87
REMARK SMILES IDX 77 88 79 89 78 90 65 91 66 92 70 93 67 94 69 95 68 96
REMARK H PARENT 34 6 6 14 41 45 85 64 63 75
REMARK Flexibility Score: inf
ROOT
ATOM      1  C   UNL     1      -1.385   6.176  -3.311  1.00  0.00     0.021 C 
ENDROOT
BRANCH   1   2
ATOM      2  C   UNL     1       0.035   5.612  -3.281  1.00  0.00     0.116 C 
BRANCH   2   3
ATOM      3  N   UNL     1       0.539   5.304  -1.960  1.00  0.00    -0.354 N 
ATOM      4  C   UNL     1       1.625   4.583  -1.548  1.00  0.00     0.242 C 
ATOM      5  O   UNL     1       1.993   4.815  -0.387  1.00  0.00    -0.273 OA
ATOM      6  H   UNL     1       0.004   5.682  -1.226  1.00  0.00     0.163 HD
BRANCH   4   7
ATOM      7  C   UNL     1       2.499   3.656  -2.456  1.00  0.00     0.174 C 
BRANCH   7   8
ATOM      8  C   UNL     1       3.805   4.368  -2.910  1.00  0.00     0.018 C 
ATOM      9  C   UNL     1       4.761   4.584  -1.731  1.00  0.00     0.010 C 
BRANCH   8  10
ATOM     10  C   UNL     1       3.537   5.684  -3.668  1.00  0.00     0.002 C 
ATOM     11  C   UNL     1       4.790   6.312  -4.259  1.00  0.00     0.004 C 
ENDBRANCH   8  10
ENDBRANCH   7   8
BRANCH   7  12
ATOM     12  N   UNL     1       1.853   3.053  -3.612  1.00  0.00    -0.342 N 
ATOM     13  C   UNL     1       1.629   1.813  -4.075  1.00  0.00     0.243 C 
ATOM     14  H   UNL     1       1.480   3.737  -4.215  1.00  0.00     0.164 HD
ATOM     15  O   UNL     1       0.966   1.837  -5.131  1.00  0.00    -0.273 OA
BRANCH  13  16
ATOM     16  C   UNL     1       2.042   0.421  -3.507  1.00  0.00     0.181 C 
ATOM     17  C   UNL     1       0.650  -0.299  -3.377  1.00  0.00     0.042 C 
BRANCH  16  18
ATOM     18  N   UNL     1       2.864   0.184  -2.304  1.00  0.00    -0.250 N 
ATOM     19  C   UNL     1       4.136   0.631  -1.932  1.00  0.00     0.328 C 
ATOM     20  C   UNL     1       2.535  -0.804  -1.426  1.00  0.00     0.259 C 
ATOM     21  N   UNL     1       4.373   0.167  -0.571  1.00  0.00    -0.307 N 
ATOM     22  O   UNL     1       4.870   1.353  -2.565  1.00  0.00    -0.248 OA
ATOM     23  C   UNL     1       3.123  -0.399  -0.135  1.00  0.00     0.147 C 
ATOM     24  O   UNL     1       1.873  -1.819  -1.589  1.00  0.00    -0.271 OA
ATOM     25  C   UNL     1       5.107   0.904   0.538  1.00  0.00     0.127 C 
ATOM     26  C   UNL     1       2.463   0.899   0.344  1.00  0.00     0.168 C 
ATOM     27  C   UNL     1       3.340  -1.611   0.777  1.00  0.00     0.048 C 
ATOM     28  C   UNL     1       4.171   1.238   1.925  1.00  0.00     0.055 C 
ATOM     29  C   UNL     1       2.631   1.008   1.791  1.00  0.00    -0.032 C 
ATOM     30  N   UNL     1       1.229   1.533  -0.120  1.00  0.00    -0.274 NA
ATOM     31  C   UNL     1       1.464   1.509   2.271  1.00  0.00     0.005 A 
ATOM     32  C   UNL     1       1.003   2.205   0.986  1.00  0.00     0.066 A 
ATOM     33  C   UNL     1       0.229   0.618   2.469  1.00  0.00     0.056 A 
ATOM     34  C   UNL     1      -0.081   3.168   1.211  1.00  0.00     0.032 A 
ATOM     35  C   UNL     1      -0.977   1.109   2.049  1.00  0.00     0.119 A 
ATOM     36  C   UNL     1      -1.112   2.542   1.789  1.00  0.00     0.048 A 
BRANCH  35  37
ATOM     37  O   UNL     1      -1.945   0.296   1.476  1.00  0.00    -0.497 OA
ATOM     38  C   UNL     1      -2.272   0.685   0.118  1.00  0.00     0.278 C 
ENDBRANCH  35  37
ENDBRANCH  16  18
ENDBRANCH  13  16
ENDBRANCH   7  12
ENDBRANCH   4   7
ENDBRANCH   2   3
ENDBRANCH   1   2
BRANCH   1  39
ATOM     39  C   UNL     1      -1.689   7.460  -2.533  1.00  0.00     0.002 C 
BRANCH  39  40
ATOM     40  C   UNL     1      -0.735   8.649  -2.665  1.00  0.00     0.002 C 
BRANCH  40  41
ATOM     41  C   UNL     1      -0.312   9.077  -4.068  1.00  0.00     0.021 C 
BRANCH  41  42
ATOM     42  C   UNL     1      -1.416   9.268  -5.099  1.00  0.00     0.116 C 
BRANCH  42  43
ATOM     43  N   UNL     1      -2.300  10.387  -4.829  1.00  0.00    -0.352 N 
ATOM     44  C   UNL     1      -2.757  11.362  -5.689  1.00  0.00     0.251 C 
ATOM     45  H   UNL     1      -2.619  10.460  -3.900  1.00  0.00     0.163 HD
ATOM     46  O   UNL     1      -3.457  12.276  -5.264  1.00  0.00    -0.269 OA
BRANCH  44  47
ATOM     47  C   UNL     1      -2.369  11.342  -7.122  1.00  0.00     0.039 A 
ATOM     48  C   UNL     1      -2.377  10.158  -7.862  1.00  0.00     0.014 A 
ATOM     49  C   UNL     1      -1.978  12.538  -7.735  1.00  0.00     0.014 A 
ATOM     50  C   UNL     1      -1.836  10.139  -9.145  1.00  0.00     0.010 A 
ATOM     51  C   UNL     1      -1.518  12.533  -9.057  1.00  0.00     0.010 A 
ATOM     52  C   UNL     1      -1.398  11.325  -9.759  1.00  0.00    -0.014 A 
BRANCH  52  53
ATOM     53  C   UNL     1      -0.851  11.265 -11.141  1.00  0.00     0.031 A 
ATOM     54  C   UNL     1       0.591  11.588 -11.427  1.00  0.00     0.074 A 
ATOM     55  C   UNL     1      -1.650  10.842 -12.140  1.00  0.00     0.049 A 
ATOM     56  N   UNL     1       1.246  11.488 -12.558  1.00  0.00    -0.248 NA
ATOM     57  C   UNL     1       1.405  12.087 -10.308  1.00  0.00     0.031 C 
ATOM     58  C   UNL     1      -3.067  10.503 -11.994  1.00  0.00     0.029 A 
ATOM     59  N   UNL     1      -1.378  10.585 -13.460  1.00  0.00    -0.354 N 
ATOM     60  C   UNL     1       2.540  11.915 -12.290  1.00  0.00     0.074 A 
ATOM     61  C   UNL     1       2.572  12.310 -10.898  1.00  0.00     0.031 C 
ATOM     62  C   UNL     1      -3.520  10.012 -13.156  1.00  0.00     0.029 A 
ATOM     63  C   UNL     1      -2.445  10.054 -14.142  1.00  0.00     0.049 A 
ATOM     64  H   UNL     1      -0.504  10.763 -13.877  1.00  0.00     0.167 HD
ATOM     65  C   UNL     1       3.608  11.965 -13.123  1.00  0.00     0.031 A 
ATOM     66  C   UNL     1      -2.555   9.638 -15.418  1.00  0.00     0.031 A 
ATOM     67  C   UNL     1       3.579  11.581 -14.510  1.00  0.00     0.049 A 
ATOM     68  C   UNL     1      -1.365   9.721 -16.326  1.00  0.00     0.074 A 
ATOM     69  C   UNL     1       4.615  11.599 -15.430  1.00  0.00     0.029 A 
ATOM     70  N   UNL     1       2.461  11.108 -15.178  1.00  0.00    -0.354 N 
ATOM     71  N   UNL     1      -0.149  10.127 -16.052  1.00  0.00    -0.248 NA
ATOM     72  C   UNL     1      -1.561   9.291 -17.717  1.00  0.00     0.031 C 
ATOM     73  C   UNL     1       4.111  11.182 -16.666  1.00  0.00     0.029 A 
ATOM     74  C   UNL     1       2.776  10.849 -16.503  1.00  0.00     0.049 A 
ATOM     75  H   UNL     1       1.574  10.976 -14.772  1.00  0.00     0.167 HD
ATOM     76  C   UNL     1       0.565  10.007 -17.236  1.00  0.00     0.074 A 
ATOM     77  C   UNL     1      -0.345   9.459 -18.222  1.00  0.00     0.031 C 
ATOM     78  C   UNL     1       1.857  10.332 -17.483  1.00  0.00     0.031 A 
BRANCH  65  79
ATOM     79  C   UNL     1       4.910  12.464 -12.558  1.00  0.00    -0.014 A 
ATOM     80  C   UNL     1       5.420  13.707 -12.964  1.00  0.00     0.009 A 
ATOM     81  C   UNL     1       5.665  11.676 -11.675  1.00  0.00     0.009 A 
ATOM     82  C   UNL     1       6.660  14.151 -12.500  1.00  0.00     0.001 A 
ATOM     83  C   UNL     1       6.894  12.133 -11.193  1.00  0.00     0.001 A 
ATOM     84  C   UNL     1       7.393  13.367 -11.611  1.00  0.00     0.000 A 
ENDBRANCH  65  79
BRANCH  66  85
ATOM     85  C   UNL     1      -3.852   9.089 -15.889  1.00  0.00    -0.014 A 
ATOM     86  C   UNL     1      -4.964   9.932 -16.048  1.00  0.00     0.009 A 
ATOM     87  C   UNL     1      -4.004   7.713 -16.108  1.00  0.00     0.009 A 
ATOM     88  C   UNL     1      -6.210   9.403 -16.389  1.00  0.00     0.001 A 
ATOM     89  C   UNL     1      -5.246   7.190 -16.475  1.00  0.00     0.001 A 
ATOM     90  C   UNL     1      -6.350   8.033 -16.604  1.00  0.00     0.000 A 
ENDBRANCH  66  85
BRANCH  78  91
ATOM     91  C   UNL     1       2.366  10.122 -18.881  1.00  0.00    -0.014 A 
ATOM     92  C   UNL     1       3.292   9.101 -19.145  1.00  0.00     0.009 A 
ATOM     93  C   UNL     1       1.978  10.977 -19.924  1.00  0.00     0.009 A 
ATOM     94  C   UNL     1       3.822   8.941 -20.427  1.00  0.00     0.001 A 
ATOM     95  C   UNL     1       2.491  10.798 -21.211  1.00  0.00     0.001 A 
ATOM     96  C   UNL     1       3.416   9.785 -21.459  1.00  0.00     0.000 A 
ENDBRANCH  78  91
ENDBRANCH  52  53
ENDBRANCH  44  47
ENDBRANCH  42  43
ENDBRANCH  41  42
ENDBRANCH  40  41
ENDBRANCH  39  40
ENDBRANCH   1  39
TORSDOF 19
