REMARK SMILES NNS(=O)(=O)c1ccc(O)c(C(=O)NCCCCCCNC(=O)c2ccc(-c3c4nc(c(-c5ccccc5)c5ccc([nH]5)c(-c5ccccc5)c5nc(c(-c6ccccc6)c6ccc3[nH]6)C=C5)C=C4)cc2)c1
REMARK SMILES IDX 17 1 16 2 15 3 14 4 12 5 13 6 11 8 6 9 7 10 72 11 8 12 9 13
REMARK SMILES IDX 3 14 4 15 5 16 2 17 1 19 10 22 18 24 19 25 20 26 21 27 22 28
REMARK SMILES IDX 23 30 24 31 25 32 71 33 26 34 70 35 27 36 28 37 29 38 64 39
REMARK SMILES IDX 30 40 69 41 63 42 65 43 31 44 68 45 62 46 61 47 32 49 54 50
REMARK SMILES IDX 39 51 53 52 40 53 43 54 52 55 66 56 41 57 42 58 51 60 67 61
REMARK SMILES IDX 44 62 33 63 34 64 38 65 35 66 37 67 36 68 55 69 56 70 60 71
REMARK SMILES IDX 57 72 59 73 58 74 45 75 46 76 50 77 47 78 49 79 48 80
REMARK H PARENT 14 7 2 18 1 20 1 21 10 23 21 29 65 48 43 59
REMARK Flexibility Score: inf
ROOT
ATOM      1  C   UNL     1      -5.415  -2.220   7.628  1.00  0.00     0.002 C 
ENDROOT
BRANCH   1   2
ATOM      2  C   UNL     1      -4.748  -1.310   6.590  1.00  0.00     0.021 C 
BRANCH   2   3
ATOM      3  C   UNL     1      -3.317  -1.739   6.245  1.00  0.00     0.116 C 
BRANCH   3   4
ATOM      4  N   UNL     1      -3.351  -2.736   5.201  1.00  0.00    -0.352 N 
ATOM      5  C   UNL     1      -3.243  -2.664   3.841  1.00  0.00     0.255 C 
ATOM      6  O   UNL     1      -3.441  -3.722   3.234  1.00  0.00    -0.269 OA
ATOM      7  H   UNL     1      -3.478  -3.653   5.537  1.00  0.00     0.163 HD
BRANCH   5   8
ATOM      8  C   UNL     1      -2.825  -1.462   3.050  1.00  0.00     0.082 A 
ATOM      9  C   UNL     1      -1.785  -0.772   0.945  1.00  0.00     0.084 A 
ATOM     10  C   UNL     1      -1.931   0.570   1.286  1.00  0.00     0.025 A 
ATOM     11  C   UNL     1      -2.213  -1.777   1.816  1.00  0.00     0.039 A 
ATOM     12  C   UNL     1      -2.538   0.903   2.491  1.00  0.00     0.048 A 
ATOM     13  C   UNL     1      -3.018  -0.102   3.347  1.00  0.00     0.128 A 
BRANCH   9  14
ATOM     14  S   UNL     1      -1.178  -1.187  -0.673  1.00  0.00     0.253 S 
ATOM     15  O   UNL     1      -1.472  -0.079  -1.562  1.00  0.00    -0.206 OA
ATOM     16  O   UNL     1      -1.608  -2.529  -0.989  1.00  0.00    -0.206 OA
BRANCH  14  17
ATOM     17  N   UNL     1       0.536  -1.272  -0.417  1.00  0.00    -0.150 NA
ATOM     18  H   UNL     1       0.719  -1.865   0.393  1.00  0.00     0.160 HD
BRANCH  17  19
ATOM     19  N   UNL     1       1.101   0.004  -0.186  1.00  0.00    -0.257 NA
ATOM     20  H   UNL     1       2.106  -0.091  -0.042  1.00  0.00     0.138 HD
ATOM     21  H   UNL     1       0.675   0.419   0.642  1.00  0.00     0.138 HD
ENDBRANCH  17  19
ENDBRANCH  14  17
ENDBRANCH   9  14
BRANCH  13  22
ATOM     22  O   UNL     1      -3.744   0.322   4.421  1.00  0.00    -0.507 OA
ATOM     23  H   UNL     1      -3.849   1.239   4.583  1.00  0.00     0.293 HD
ENDBRANCH  13  22
ENDBRANCH   5   8
ENDBRANCH   3   4
ENDBRANCH   2   3
ENDBRANCH   1   2
BRANCH   1  24
ATOM     24  C   UNL     1      -4.753  -2.190   9.010  1.00  0.00     0.002 C 
BRANCH  24  25
ATOM     25  C   UNL     1      -4.643  -0.797   9.634  1.00  0.00     0.021 C 
BRANCH  25  26
ATOM     26  C   UNL     1      -5.989  -0.124   9.879  1.00  0.00     0.116 C 
BRANCH  26  27
ATOM     27  N   UNL     1      -6.781  -0.864  10.850  1.00  0.00    -0.352 N 
ATOM     28  C   UNL     1      -7.242  -0.466  12.078  1.00  0.00     0.251 C 
ATOM     29  H   UNL     1      -7.021  -1.782  10.586  1.00  0.00     0.163 HD
ATOM     30  O   UNL     1      -7.651  -1.293  12.886  1.00  0.00    -0.269 OA
BRANCH  28  31
ATOM     31  C   UNL     1      -7.241   0.969  12.427  1.00  0.00     0.039 A 
ATOM     32  C   UNL     1      -6.836   1.356  13.706  1.00  0.00     0.014 A 
ATOM     33  C   UNL     1      -7.659   1.926  11.498  1.00  0.00     0.014 A 
ATOM     34  C   UNL     1      -6.804   2.712  14.036  1.00  0.00     0.010 A 
ATOM     35  C   UNL     1      -7.549   3.279  11.801  1.00  0.00     0.010 A 
ATOM     36  C   UNL     1      -7.132   3.685  13.077  1.00  0.00    -0.014 A 
BRANCH  36  37
ATOM     37  C   UNL     1      -7.048   5.131  13.396  1.00  0.00     0.031 A 
ATOM     38  C   UNL     1      -8.286   5.984  13.382  1.00  0.00     0.074 A 
ATOM     39  C   UNL     1      -5.846   5.685  13.649  1.00  0.00     0.049 A 
ATOM     40  N   UNL     1      -8.406   7.268  13.607  1.00  0.00    -0.248 NA
ATOM     41  C   UNL     1      -9.554   5.313  13.048  1.00  0.00     0.031 C 
ATOM     42  C   UNL     1      -4.567   4.972  13.653  1.00  0.00     0.029 A 
ATOM     43  N   UNL     1      -5.506   6.979  13.954  1.00  0.00    -0.354 N 
ATOM     44  C   UNL     1      -9.753   7.558  13.431  1.00  0.00     0.074 A 
ATOM     45  C   UNL     1     -10.401   6.331  13.023  1.00  0.00     0.031 C 
ATOM     46  C   UNL     1      -3.588   5.829  13.981  1.00  0.00     0.029 A 
ATOM     47  C   UNL     1      -4.161   7.158  14.166  1.00  0.00     0.049 A 
ATOM     48  H   UNL     1      -6.163   7.709  14.015  1.00  0.00     0.167 HD
ATOM     49  C   UNL     1     -10.398   8.734  13.613  1.00  0.00     0.031 A 
ATOM     50  C   UNL     1      -3.466   8.269  14.472  1.00  0.00     0.031 A 
ATOM     51  C   UNL     1      -9.752   9.954  14.020  1.00  0.00     0.049 A 
ATOM     52  C   UNL     1      -4.202   9.569  14.642  1.00  0.00     0.074 A 
ATOM     53  C   UNL     1     -10.324  11.186  14.284  1.00  0.00     0.029 A 
ATOM     54  N   UNL     1      -8.387  10.095  14.218  1.00  0.00    -0.354 N 
ATOM     55  N   UNL     1      -5.487   9.810  14.544  1.00  0.00    -0.248 NA
ATOM     56  C   UNL     1      -3.390  10.747  14.977  1.00  0.00     0.031 C 
ATOM     57  C   UNL     1      -9.298  12.089  14.579  1.00  0.00     0.029 A 
ATOM     58  C   UNL     1      -8.094  11.402  14.568  1.00  0.00     0.049 A 
ATOM     59  H   UNL     1      -7.724   9.373  14.123  1.00  0.00     0.167 HD
ATOM     60  C   UNL     1      -5.641  11.160  14.834  1.00  0.00     0.074 A 
ATOM     61  C   UNL     1      -4.322  11.678  15.130  1.00  0.00     0.031 C 
ATOM     62  C   UNL     1      -6.774  11.904  14.854  1.00  0.00     0.031 A 
BRANCH  49  63
ATOM     63  C   UNL     1     -11.881   8.759  13.359  1.00  0.00    -0.014 A 
ATOM     64  C   UNL     1     -12.777   8.080  14.201  1.00  0.00     0.009 A 
ATOM     65  C   UNL     1     -12.394   9.501  12.284  1.00  0.00     0.009 A 
ATOM     66  C   UNL     1     -14.150   8.110  13.947  1.00  0.00     0.001 A 
ATOM     67  C   UNL     1     -13.769   9.557  12.051  1.00  0.00     0.001 A 
ATOM     68  C   UNL     1     -14.645   8.853  12.876  1.00  0.00     0.000 A 
ENDBRANCH  49  63
BRANCH  50  69
ATOM     69  C   UNL     1      -1.990   8.202  14.648  1.00  0.00    -0.014 A 
ATOM     70  C   UNL     1      -1.413   8.390  15.914  1.00  0.00     0.009 A 
ATOM     71  C   UNL     1      -1.150   7.959  13.550  1.00  0.00     0.009 A 
ATOM     72  C   UNL     1      -0.025   8.368  16.070  1.00  0.00     0.001 A 
ATOM     73  C   UNL     1       0.235   7.904  13.715  1.00  0.00     0.001 A 
ATOM     74  C   UNL     1       0.797   8.121  14.972  1.00  0.00     0.000 A 
ENDBRANCH  50  69
BRANCH  62  75
ATOM     75  C   UNL     1      -6.640  13.351  15.241  1.00  0.00    -0.014 A 
ATOM     76  C   UNL     1      -6.024  14.282  14.390  1.00  0.00     0.009 A 
ATOM     77  C   UNL     1      -7.173  13.794  16.461  1.00  0.00     0.009 A 
ATOM     78  C   UNL     1      -5.910  15.620  14.772  1.00  0.00     0.001 A 
ATOM     79  C   UNL     1      -7.088  15.139  16.825  1.00  0.00     0.001 A 
ATOM     80  C   UNL     1      -6.448  16.048  15.986  1.00  0.00     0.000 A 
ENDBRANCH  62  75
ENDBRANCH  36  37
ENDBRANCH  28  31
ENDBRANCH  26  27
ENDBRANCH  25  26
ENDBRANCH  24  25
ENDBRANCH   1  24
TORSDOF 17
