REMARK SMILES Cc1cc(OC(F)(F)F)cc2c1O[C@H](C(F)(F)F)C(C(=O)NCCCCCCNC(=O)c1ccc(-c3c4nc(c(-c5ccccc5)c5ccc([nH]5)c(-c5ccccc5)c5nc(c(-c6ccccc6)c6ccc3[nH]6)C=C5)C=C4)cc1)=C2
REMARK SMILES IDX 25 1 24 2 23 3 22 4 20 5 21 6 19 8 1 9 2 10 3 11 12 12 4 13
REMARK SMILES IDX 11 14 13 15 10 16 80 17 14 18 5 19 6 20 7 21 8 22 9 23 15 24
REMARK SMILES IDX 16 25 17 26 18 27 26 28 27 29 28 30 29 31 30 32 31 34 32 35
REMARK SMILES IDX 33 36 79 37 34 38 78 39 35 40 36 41 37 42 72 43 38 44 77 45
REMARK SMILES IDX 71 46 73 47 39 48 76 49 70 50 69 51 40 53 62 54 47 55 61 56
REMARK SMILES IDX 48 57 51 58 60 59 74 60 49 61 50 62 59 64 75 65 52 66 41 67
REMARK SMILES IDX 42 68 46 69 43 70 45 71 44 72 63 73 64 74 68 75 65 76 67 77
REMARK SMILES IDX 66 78 53 79 54 80 58 81 55 82 57 83 56 84
REMARK H PARENT 22 7 29 33 73 52 51 63
REMARK Flexibility Score: inf
ROOT
ATOM      1  C   UNL     1       4.304  -8.474  -1.352  1.00  0.00     0.002 C 
ENDROOT
BRANCH   1   2
ATOM      2  C   UNL     1       3.973  -7.011  -1.050  1.00  0.00     0.021 C 
BRANCH   2   3
ATOM      3  C   UNL     1       2.479  -6.756  -0.877  1.00  0.00     0.116 C 
BRANCH   3   4
ATOM      4  N   UNL     1       2.050  -6.975   0.493  1.00  0.00    -0.352 N 
ATOM      5  C   UNL     1       1.493  -6.245   1.489  1.00  0.00     0.251 C 
ATOM      6  O   UNL     1       1.251  -6.867   2.528  1.00  0.00    -0.270 OA
ATOM      7  H   UNL     1       2.206  -7.905   0.774  1.00  0.00     0.163 HD
BRANCH   5   8
ATOM      8  C   UNL     1       1.173  -4.789   1.409  1.00  0.00     0.067 C 
ATOM      9  C   UNL     1       0.900   0.168   0.168  1.00  0.00     0.048 C 
ATOM     10  C   UNL     1       0.519  -0.640   1.377  1.00  0.00    -0.005 A 
ATOM     11  C   UNL     1      -0.059  -0.025   2.494  1.00  0.00     0.054 A 
ATOM     12  C   UNL     1       0.761  -2.017   1.412  1.00  0.00     0.131 A 
ATOM     13  C   UNL     1      -0.390  -0.774   3.627  1.00  0.00     0.130 A 
ATOM     14  C   UNL     1       0.442  -2.781   2.536  1.00  0.00     0.021 A 
ATOM     15  O   UNL     1       1.370  -2.554   0.317  1.00  0.00    -0.475 OA
ATOM     16  C   UNL     1      -0.137  -2.152   3.641  1.00  0.00     0.058 A 
ATOM     17  C   UNL     1       0.767  -4.204   2.551  1.00  0.00     0.025 C 
ATOM     18  C   UNL     1       1.259  -3.986   0.145  1.00  0.00     0.314 C 
BRANCH  13  19
ATOM     19  O   UNL     1      -0.949  -0.288   4.776  1.00  0.00    -0.406 OA
BRANCH  19  20
ATOM     20  C   UNL     1      -1.197   1.106   4.846  1.00  0.00     0.573 C 
ATOM     21  F   UNL     1      -0.054   1.813   4.712  1.00  0.00    -0.132 F 
ATOM     22  F   UNL     1      -2.079   1.492   3.900  1.00  0.00    -0.132 F 
ATOM     23  F   UNL     1      -1.726   1.393   6.056  1.00  0.00    -0.132 F 
ENDBRANCH  19  20
ENDBRANCH  13  19
BRANCH  18  24
ATOM     24  C   UNL     1       0.110  -4.293  -0.833  1.00  0.00     0.429 C 
ATOM     25  F   UNL     1       0.408  -3.828  -2.073  1.00  0.00    -0.167 F 
ATOM     26  F   UNL     1      -0.118  -5.620  -0.972  1.00  0.00    -0.167 F 
ATOM     27  F   UNL     1      -1.059  -3.729  -0.459  1.00  0.00    -0.167 F 
ENDBRANCH  18  24
ENDBRANCH   5   8
ENDBRANCH   3   4
ENDBRANCH   2   3
ENDBRANCH   1   2
BRANCH   1  28
ATOM     28  C   UNL     1       3.600  -9.053  -2.587  1.00  0.00     0.002 C 
BRANCH  28  29
ATOM     29  C   UNL     1       3.728  -8.212  -3.862  1.00  0.00     0.021 C 
BRANCH  29  30
ATOM     30  C   UNL     1       5.168  -7.966  -4.300  1.00  0.00     0.116 C 
BRANCH  30  31
ATOM     31  N   UNL     1       5.850  -9.217  -4.587  1.00  0.00    -0.352 N 
ATOM     32  C   UNL     1       6.335  -9.671  -5.781  1.00  0.00     0.251 C 
ATOM     33  H   UNL     1       5.981  -9.818  -3.818  1.00  0.00     0.163 HD
ATOM     34  O   UNL     1       6.648 -10.853  -5.925  1.00  0.00    -0.269 OA
BRANCH  32  35
ATOM     35  C   UNL     1       6.493  -8.728  -6.901  1.00  0.00     0.039 A 
ATOM     36  C   UNL     1       6.017  -9.080  -8.166  1.00  0.00     0.014 A 
ATOM     37  C   UNL     1       7.146  -7.507  -6.696  1.00  0.00     0.014 A 
ATOM     38  C   UNL     1       6.173  -8.191  -9.229  1.00  0.00     0.010 A 
ATOM     39  C   UNL     1       7.257  -6.603  -7.744  1.00  0.00     0.010 A 
ATOM     40  C   UNL     1       6.790  -6.948  -9.021  1.00  0.00    -0.014 A 
BRANCH  40  41
ATOM     41  C   UNL     1       7.036  -6.015 -10.140  1.00  0.00     0.031 A 
ATOM     42  C   UNL     1       8.442  -5.812 -10.627  1.00  0.00     0.074 A 
ATOM     43  C   UNL     1       6.019  -5.321 -10.680  1.00  0.00     0.049 A 
ATOM     44  N   UNL     1       8.890  -4.966 -11.518  1.00  0.00    -0.248 NA
ATOM     45  C   UNL     1       9.482  -6.661 -10.021  1.00  0.00     0.031 C 
ATOM     46  C   UNL     1       4.612  -5.441 -10.296  1.00  0.00     0.029 A 
ATOM     47  N   UNL     1       6.019  -4.367 -11.665  1.00  0.00    -0.354 N 
ATOM     48  C   UNL     1      10.261  -5.178 -11.575  1.00  0.00     0.074 A 
ATOM     49  C   UNL     1      10.579  -6.199 -10.603  1.00  0.00     0.031 C 
ATOM     50  C   UNL     1       3.882  -4.602 -11.049  1.00  0.00     0.029 A 
ATOM     51  C   UNL     1       4.773  -3.860 -11.937  1.00  0.00     0.049 A 
ATOM     52  H   UNL     1       6.835  -4.075 -12.132  1.00  0.00     0.167 HD
ATOM     53  C   UNL     1      11.170  -4.583 -12.380  1.00  0.00     0.031 A 
ATOM     54  C   UNL     1       4.395  -2.897 -12.798  1.00  0.00     0.031 A 
ATOM     55  C   UNL     1      10.851  -3.575 -13.352  1.00  0.00     0.049 A 
ATOM     56  C   UNL     1       5.432  -2.210 -13.640  1.00  0.00     0.074 A 
ATOM     57  C   UNL     1      11.704  -2.934 -14.233  1.00  0.00     0.029 A 
ATOM     58  N   UNL     1       9.583  -3.064 -13.572  1.00  0.00    -0.354 N 
ATOM     59  N   UNL     1       6.724  -2.425 -13.692  1.00  0.00    -0.248 NA
ATOM     60  C   UNL     1       4.960  -1.148 -14.540  1.00  0.00     0.031 C 
ATOM     61  C   UNL     1      10.957  -2.000 -14.956  1.00  0.00     0.029 A 
ATOM     62  C   UNL     1       9.633  -2.096 -14.560  1.00  0.00     0.049 A 
ATOM     63  H   UNL     1       8.768  -3.347 -13.098  1.00  0.00     0.167 HD
ATOM     64  C   UNL     1       7.219  -1.535 -14.636  1.00  0.00     0.074 A 
ATOM     65  C   UNL     1       6.086  -0.789 -15.144  1.00  0.00     0.031 C 
ATOM     66  C   UNL     1       8.499  -1.352 -15.042  1.00  0.00     0.031 A 
BRANCH  53  67
ATOM     67  C   UNL     1      12.601  -5.011 -12.253  1.00  0.00    -0.014 A 
ATOM     68  C   UNL     1      13.032  -6.242 -12.771  1.00  0.00     0.009 A 
ATOM     69  C   UNL     1      13.544  -4.141 -11.685  1.00  0.00     0.009 A 
ATOM     70  C   UNL     1      14.381  -6.596 -12.717  1.00  0.00     0.001 A 
ATOM     71  C   UNL     1      14.895  -4.488 -11.651  1.00  0.00     0.001 A 
ATOM     72  C   UNL     1      15.312  -5.715 -12.166  1.00  0.00     0.000 A 
ENDBRANCH  53  67
BRANCH  54  73
ATOM     73  C   UNL     1       2.959  -2.539 -12.908  1.00  0.00    -0.014 A 
ATOM     74  C   UNL     1       2.212  -2.955 -14.020  1.00  0.00     0.009 A 
ATOM     75  C   UNL     1       2.318  -1.823 -11.885  1.00  0.00     0.009 A 
ATOM     76  C   UNL     1       0.850  -2.658 -14.106  1.00  0.00     0.001 A 
ATOM     77  C   UNL     1       0.951  -1.546 -11.964  1.00  0.00     0.001 A 
ATOM     78  C   UNL     1       0.219  -1.962 -13.075  1.00  0.00     0.000 A 
ENDBRANCH  54  73
BRANCH  66  79
ATOM     79  C   UNL     1       8.755  -0.303 -16.084  1.00  0.00    -0.014 A 
ATOM     80  C   UNL     1       8.729   1.060 -15.752  1.00  0.00     0.009 A 
ATOM     81  C   UNL     1       9.115  -0.683 -17.386  1.00  0.00     0.009 A 
ATOM     82  C   UNL     1       9.043   2.024 -16.712  1.00  0.00     0.001 A 
ATOM     83  C   UNL     1       9.454   0.282 -18.336  1.00  0.00     0.001 A 
ATOM     84  C   UNL     1       9.413   1.634 -17.999  1.00  0.00     0.000 A 
ENDBRANCH  66  79
ENDBRANCH  40  41
ENDBRANCH  32  35
ENDBRANCH  30  31
ENDBRANCH  29  30
ENDBRANCH  28  29
ENDBRANCH   1  28
TORSDOF 16
