REMARK SMILES CCCCCCNC(=O)Oc1cccc(-c2ccc([C@H](C)C(=O)NCCCCCCNC(=O)c3ccc(-c4c5nc(c(-c6ccccc6)c6ccc([nH]6)c(-c6ccccc6)c6nc(c(-c7ccccc7)c7ccc4[nH]7)C=C6)C=C5)cc3)cc2F)c1
REMARK SMILES IDX 22 1 23 2 24 3 20 5 21 6 19 7 16 8 17 9 83 10 18 11 82 12
REMARK SMILES IDX 84 13 15 14 11 15 12 16 85 17 13 18 14 19 10 20 8 21 7 22
REMARK SMILES IDX 9 24 6 25 5 26 4 27 3 28 2 29 1 30 25 31 26 32 27 33 28 34
REMARK SMILES IDX 29 35 30 36 31 37 32 38 33 40 34 41 35 42 81 43 36 44 80 45
REMARK SMILES IDX 37 46 38 47 39 48 74 49 40 50 79 51 73 52 75 53 41 54 78 55
REMARK SMILES IDX 72 56 71 57 42 59 64 60 49 61 63 62 50 63 53 64 62 65 76 66
REMARK SMILES IDX 51 67 52 68 61 70 77 71 54 72 43 73 44 74 48 75 45 76 47 77
REMARK SMILES IDX 46 78 65 79 66 80 70 81 67 82 69 83 68 84 55 85 56 86 60 87
REMARK SMILES IDX 57 88 59 89 58 90
REMARK H PARENT 24 4 7 23 31 39 75 58 53 69
REMARK Flexibility Score: inf
ROOT
ATOM      1  C   UNL     1      -3.711 -12.363   7.268  1.00  0.00     0.227 C 
ATOM      2  O   UNL     1      -2.819 -12.403   8.120  1.00  0.00    -0.274 OA
ATOM      3  N   UNL     1      -3.719 -13.339   6.318  1.00  0.00    -0.356 N 
ATOM      4  H   UNL     1      -2.978 -13.984   6.382  1.00  0.00     0.163 HD
ENDROOT
BRANCH   1   5
ATOM      5  C   UNL     1      -4.757 -11.242   7.285  1.00  0.00     0.105 C 
ATOM      6  C   UNL     1      -4.507 -10.284   6.116  1.00  0.00     0.023 C 
BRANCH   5   7
ATOM      7  C   UNL     1      -6.179 -11.761   7.468  1.00  0.00    -0.033 A 
ATOM      8  C   UNL     1      -8.781 -12.859   7.839  1.00  0.00     0.018 A 
ATOM      9  C   UNL     1      -8.519 -11.944   6.809  1.00  0.00     0.012 A 
ATOM     10  C   UNL     1      -7.723 -13.188   8.695  1.00  0.00     0.131 A 
ATOM     11  C   UNL     1      -7.243 -11.394   6.632  1.00  0.00     0.005 A 
ATOM     12  C   UNL     1      -6.448 -12.650   8.521  1.00  0.00     0.044 A 
ATOM     13  F   UNL     1      -7.910 -14.053   9.704  1.00  0.00    -0.206 F 
BRANCH   8  14
ATOM     14  C   UNL     1     -10.124 -13.427   8.017  1.00  0.00    -0.012 A 
ATOM     15  C   UNL     1     -12.090 -13.803   9.387  1.00  0.00     0.133 A 
ATOM     16  C   UNL     1     -12.717 -14.490   8.352  1.00  0.00     0.047 A 
ATOM     17  C   UNL     1     -10.800 -13.294   9.238  1.00  0.00     0.056 A 
ATOM     18  C   UNL     1     -12.055 -14.640   7.136  1.00  0.00     0.004 A 
ATOM     19  C   UNL     1     -10.771 -14.109   6.969  1.00  0.00     0.009 A 
BRANCH  15  20
ATOM     20  O   UNL     1     -12.762 -13.738  10.617  1.00  0.00    -0.410 OA
BRANCH  20  21
ATOM     21  C   UNL     1     -12.905 -12.490  11.203  1.00  0.00     0.412 C 
ATOM     22  N   UNL     1     -13.493 -12.538  12.435  1.00  0.00    -0.321 N 
ATOM     23  H   UNL     1     -13.621 -11.678  12.896  1.00  0.00     0.167 HD
ATOM     24  O   UNL     1     -12.568 -11.416  10.712  1.00  0.00    -0.224 OA
BRANCH  22  25
ATOM     25  C   UNL     1     -13.947 -13.723  13.135  1.00  0.00     0.119 C 
BRANCH  25  26
ATOM     26  C   UNL     1     -13.201 -13.932  14.452  1.00  0.00     0.021 C 
BRANCH  26  27
ATOM     27  C   UNL     1     -13.413 -12.829  15.497  1.00  0.00     0.002 C 
BRANCH  27  28
ATOM     28  C   UNL     1     -14.869 -12.573  15.902  1.00  0.00    -0.000 C 
BRANCH  28  29
ATOM     29  C   UNL     1     -15.619 -13.784  16.463  1.00  0.00    -0.003 C 
ATOM     30  C   UNL     1     -15.018 -14.319  17.754  1.00  0.00     0.004 C 
ENDBRANCH  28  29
ENDBRANCH  27  28
ENDBRANCH  26  27
ENDBRANCH  25  26
ENDBRANCH  22  25
ENDBRANCH  20  21
ENDBRANCH  15  20
ENDBRANCH   8  14
ENDBRANCH   5   7
ENDBRANCH   1   5
BRANCH   3  31
ATOM     31  C   UNL     1      -4.643 -13.581   5.227  1.00  0.00     0.116 C 
BRANCH  31  32
ATOM     32  C   UNL     1      -3.937 -13.557   3.874  1.00  0.00     0.021 C 
BRANCH  32  33
ATOM     33  C   UNL     1      -2.946 -14.704   3.651  1.00  0.00     0.002 C 
BRANCH  33  34
ATOM     34  C   UNL     1      -3.532 -16.114   3.776  1.00  0.00     0.002 C 
BRANCH  34  35
ATOM     35  C   UNL     1      -4.762 -16.397   2.909  1.00  0.00     0.021 C 
BRANCH  35  36
ATOM     36  C   UNL     1      -4.567 -16.171   1.413  1.00  0.00     0.116 C 
BRANCH  36  37
ATOM     37  N   UNL     1      -3.568 -17.058   0.842  1.00  0.00    -0.352 N 
ATOM     38  C   UNL     1      -3.649 -17.867  -0.264  1.00  0.00     0.251 C 
ATOM     39  H   UNL     1      -2.706 -17.081   1.317  1.00  0.00     0.163 HD
ATOM     40  O   UNL     1      -2.755 -18.672  -0.506  1.00  0.00    -0.269 OA
BRANCH  38  41
ATOM     41  C   UNL     1      -4.827 -17.790  -1.155  1.00  0.00     0.039 A 
ATOM     42  C   UNL     1      -5.422 -18.979  -1.587  1.00  0.00     0.014 A 
ATOM     43  C   UNL     1      -5.332 -16.558  -1.581  1.00  0.00     0.014 A 
ATOM     44  C   UNL     1      -6.559 -18.932  -2.397  1.00  0.00     0.010 A 
ATOM     45  C   UNL     1      -6.502 -16.512  -2.338  1.00  0.00     0.010 A 
ATOM     46  C   UNL     1      -7.126 -17.698  -2.754  1.00  0.00    -0.014 A 
BRANCH  46  47
ATOM     47  C   UNL     1      -8.374 -17.629  -3.557  1.00  0.00     0.031 A 
ATOM     48  C   UNL     1      -8.355 -17.036  -4.939  1.00  0.00     0.074 A 
ATOM     49  C   UNL     1      -9.538 -18.040  -3.016  1.00  0.00     0.049 A 
ATOM     50  N   UNL     1      -9.354 -16.827  -5.760  1.00  0.00    -0.248 NA
ATOM     51  C   UNL     1      -7.049 -16.599  -5.457  1.00  0.00     0.031 C 
ATOM     52  C   UNL     1      -9.700 -18.596  -1.671  1.00  0.00     0.029 A 
ATOM     53  N   UNL     1     -10.811 -18.039  -3.530  1.00  0.00    -0.354 N 
ATOM     54  C   UNL     1      -8.801 -16.216  -6.878  1.00  0.00     0.074 A 
ATOM     55  C   UNL     1      -7.387 -16.054  -6.617  1.00  0.00     0.031 C 
ATOM     56  C   UNL     1     -10.994 -18.898  -1.473  1.00  0.00     0.029 A 
ATOM     57  C   UNL     1     -11.757 -18.523  -2.659  1.00  0.00     0.049 A 
ATOM     58  H   UNL     1     -11.025 -17.722  -4.437  1.00  0.00     0.167 HD
ATOM     59  C   UNL     1      -9.412 -15.837  -8.025  1.00  0.00     0.031 A 
ATOM     60  C   UNL     1     -13.091 -18.644  -2.795  1.00  0.00     0.031 A 
ATOM     61  C   UNL     1     -10.813 -16.018  -8.298  1.00  0.00     0.049 A 
ATOM     62  C   UNL     1     -13.742 -18.221  -4.082  1.00  0.00     0.074 A 
ATOM     63  C   UNL     1     -11.509 -15.728  -9.459  1.00  0.00     0.029 A 
ATOM     64  N   UNL     1     -11.731 -16.537  -7.399  1.00  0.00    -0.354 N 
ATOM     65  N   UNL     1     -13.192 -17.712  -5.158  1.00  0.00    -0.248 NA
ATOM     66  C   UNL     1     -15.198 -18.400  -4.178  1.00  0.00     0.031 C 
ATOM     67  C   UNL     1     -12.858 -16.030  -9.248  1.00  0.00     0.029 A 
ATOM     68  C   UNL     1     -12.991 -16.554  -7.972  1.00  0.00     0.049 A 
ATOM     69  H   UNL     1     -11.519 -16.846  -6.489  1.00  0.00     0.167 HD
ATOM     70  C   UNL     1     -14.228 -17.537  -6.065  1.00  0.00     0.074 A 
ATOM     71  C   UNL     1     -15.436 -18.008  -5.421  1.00  0.00     0.031 C 
ATOM     72  C   UNL     1     -14.183 -17.030  -7.321  1.00  0.00     0.031 A 
BRANCH  59  73
ATOM     73  C   UNL     1      -8.568 -15.181  -9.081  1.00  0.00    -0.014 A 
ATOM     74  C   UNL     1      -7.646 -15.920  -9.838  1.00  0.00     0.009 A 
ATOM     75  C   UNL     1      -8.740 -13.816  -9.363  1.00  0.00     0.009 A 
ATOM     76  C   UNL     1      -6.893 -15.300 -10.837  1.00  0.00     0.001 A 
ATOM     77  C   UNL     1      -8.005 -13.205 -10.379  1.00  0.00     0.001 A 
ATOM     78  C   UNL     1      -7.077 -13.945 -11.111  1.00  0.00     0.000 A 
ENDBRANCH  59  73
BRANCH  60  79
ATOM     79  C   UNL     1     -13.909 -19.194  -1.683  1.00  0.00    -0.014 A 
ATOM     80  C   UNL     1     -14.499 -20.463  -1.792  1.00  0.00     0.009 A 
ATOM     81  C   UNL     1     -14.124 -18.443  -0.518  1.00  0.00     0.009 A 
ATOM     82  C   UNL     1     -15.313 -20.955  -0.770  1.00  0.00     0.001 A 
ATOM     83  C   UNL     1     -14.916 -18.949   0.515  1.00  0.00     0.001 A 
ATOM     84  C   UNL     1     -15.519 -20.199   0.384  1.00  0.00     0.000 A 
ENDBRANCH  60  79
BRANCH  72  85
ATOM     85  C   UNL     1     -15.470 -16.993  -8.094  1.00  0.00    -0.014 A 
ATOM     86  C   UNL     1     -16.474 -16.061  -7.790  1.00  0.00     0.009 A 
ATOM     87  C   UNL     1     -15.660 -17.877  -9.167  1.00  0.00     0.009 A 
ATOM     88  C   UNL     1     -17.659 -16.037  -8.528  1.00  0.00     0.001 A 
ATOM     89  C   UNL     1     -16.834 -17.832  -9.920  1.00  0.00     0.001 A 
ATOM     90  C   UNL     1     -17.836 -16.919  -9.595  1.00  0.00     0.000 A 
ENDBRANCH  72  85
ENDBRANCH  46  47
ENDBRANCH  38  41
ENDBRANCH  36  37
ENDBRANCH  35  36
ENDBRANCH  34  35
ENDBRANCH  33  34
ENDBRANCH  32  33
ENDBRANCH  31  32
ENDBRANCH   3  31
TORSDOF 22
