REMARK SMILES CCCN(CC)S(=O)(=O)c1ccc(C(=O)NCCCCCCNC(=O)c2ccc(-c3c4nc(c(-c5ccccc5)c5ccc([nH]5)c(-c5ccccc5)c5nc(c(-c6ccccc6)c6ccc3[nH]6)C=C5)C=C4)cc2)o1
REMARK SMILES IDX 18 1 17 2 16 3 14 4 15 5 13 7 10 8 11 9 74 10 12 11 7 12
REMARK SMILES IDX 8 13 9 14 4 15 3 16 2 17 1 18 5 19 6 20 19 21 20 22 21 23
REMARK SMILES IDX 22 24 23 25 24 26 25 28 26 29 27 30 73 31 28 32 72 33 29 34
REMARK SMILES IDX 30 35 31 36 66 37 32 38 71 39 65 40 67 41 33 42 70 43 64 44
REMARK SMILES IDX 63 45 34 47 56 48 41 49 55 50 42 51 45 52 54 53 68 54 43 55
REMARK SMILES IDX 44 56 53 58 69 59 46 60 35 61 36 62 40 63 37 64 39 65 38 66
REMARK SMILES IDX 57 67 58 68 62 69 59 70 61 71 60 72 47 73 48 74 52 75 49 76
REMARK SMILES IDX 51 77 50 78
REMARK H PARENT 16 6 23 27 67 46 45 57
REMARK Flexibility Score: inf
ROOT
ATOM      1  C   UNL     1      -1.876   3.956  -8.386  1.00  0.00     0.021 C 
ENDROOT
BRANCH   1   2
ATOM      2  C   UNL     1      -0.400   3.896  -7.996  1.00  0.00     0.116 C 
BRANCH   2   3
ATOM      3  N   UNL     1      -0.079   4.920  -7.023  1.00  0.00    -0.349 N 
ATOM      4  C   UNL     1       0.187   4.819  -5.678  1.00  0.00     0.287 C 
ATOM      5  O   UNL     1       0.540   5.854  -5.110  1.00  0.00    -0.266 OA
ATOM      6  H   UNL     1      -0.045   5.835  -7.384  1.00  0.00     0.163 HD
BRANCH   4   7
ATOM      7  C   UNL     1       0.067   3.548  -4.991  1.00  0.00     0.193 A 
ATOM      8  C   UNL     1       0.618   2.119  -3.361  1.00  0.00     0.234 A 
ATOM      9  C   UNL     1      -0.338   1.503  -4.156  1.00  0.00     0.065 A 
ATOM     10  O   UNL     1       0.852   3.371  -3.883  1.00  0.00    -0.438 OA
ATOM     11  C   UNL     1      -0.708   2.418  -5.167  1.00  0.00     0.058 A 
BRANCH   8  12
ATOM     12  S   UNL     1       1.464   1.534  -1.891  1.00  0.00     0.276 S 
ATOM     13  O   UNL     1       2.865   1.807  -2.107  1.00  0.00    -0.204 OA
ATOM     14  O   UNL     1       0.988   0.171  -1.756  1.00  0.00    -0.204 OA
BRANCH  12  15
ATOM     15  N   UNL     1       0.909   2.442  -0.551  1.00  0.00    -0.195 NA
BRANCH  15  16
ATOM     16  C   UNL     1       1.357   1.952   0.785  1.00  0.00     0.102 C 
BRANCH  16  17
ATOM     17  C   UNL     1       0.442   0.864   1.352  1.00  0.00     0.013 C 
ATOM     18  C   UNL     1       0.914  -0.559   1.076  1.00  0.00     0.005 C 
ENDBRANCH  16  17
ENDBRANCH  15  16
BRANCH  15  19
ATOM     19  C   UNL     1       0.993   3.931  -0.673  1.00  0.00     0.099 C 
ATOM     20  C   UNL     1       2.412   4.478  -0.655  1.00  0.00     0.022 C 
ENDBRANCH  15  19
ENDBRANCH  12  15
ENDBRANCH   8  12
ENDBRANCH   4   7
ENDBRANCH   2   3
ENDBRANCH   1   2
BRANCH   1  21
ATOM     21  C   UNL     1      -2.199   5.072  -9.389  1.00  0.00     0.002 C 
BRANCH  21  22
ATOM     22  C   UNL     1      -1.477   4.962 -10.739  1.00  0.00     0.002 C 
BRANCH  22  23
ATOM     23  C   UNL     1      -1.638   3.619 -11.457  1.00  0.00     0.021 C 
BRANCH  23  24
ATOM     24  C   UNL     1      -3.077   3.264 -11.815  1.00  0.00     0.116 C 
BRANCH  24  25
ATOM     25  N   UNL     1      -3.629   4.177 -12.803  1.00  0.00    -0.352 N 
ATOM     26  C   UNL     1      -4.228   3.891 -14.004  1.00  0.00     0.251 C 
ATOM     27  H   UNL     1      -3.564   5.133 -12.579  1.00  0.00     0.163 HD
ATOM     28  O   UNL     1      -4.451   4.784 -14.815  1.00  0.00    -0.269 OA
BRANCH  26  29
ATOM     29  C   UNL     1      -4.598   2.497 -14.324  1.00  0.00     0.039 A 
ATOM     30  C   UNL     1      -4.294   1.986 -15.588  1.00  0.00     0.014 A 
ATOM     31  C   UNL     1      -5.263   1.705 -13.383  1.00  0.00     0.014 A 
ATOM     32  C   UNL     1      -4.615   0.662 -15.895  1.00  0.00     0.010 A 
ATOM     33  C   UNL     1      -5.527   0.369 -13.668  1.00  0.00     0.010 A 
ATOM     34  C   UNL     1      -5.215  -0.162 -14.929  1.00  0.00    -0.014 A 
BRANCH  34  35
ATOM     35  C   UNL     1      -5.551  -1.577 -15.219  1.00  0.00     0.031 A 
ATOM     36  C   UNL     1      -6.990  -2.012 -15.246  1.00  0.00     0.074 A 
ATOM     37  C   UNL     1      -4.567  -2.482 -15.381  1.00  0.00     0.049 A 
ATOM     38  N   UNL     1      -7.488  -3.216 -15.373  1.00  0.00    -0.248 NA
ATOM     39  C   UNL     1      -8.003  -0.956 -15.081  1.00  0.00     0.031 C 
ATOM     40  C   UNL     1      -3.133  -2.192 -15.348  1.00  0.00     0.029 A 
ATOM     41  N   UNL     1      -4.629  -3.836 -15.591  1.00  0.00    -0.354 N 
ATOM     42  C   UNL     1      -8.865  -3.065 -15.276  1.00  0.00     0.074 A 
ATOM     43  C   UNL     1      -9.123  -1.661 -15.040  1.00  0.00     0.031 C 
ATOM     44  C   UNL     1      -2.451  -3.332 -15.549  1.00  0.00     0.029 A 
ATOM     45  C   UNL     1      -3.397  -4.435 -15.684  1.00  0.00     0.049 A 
ATOM     46  H   UNL     1      -5.477  -4.331 -15.668  1.00  0.00     0.167 HD
ATOM     47  C   UNL     1      -9.831  -4.008 -15.388  1.00  0.00     0.031 A 
ATOM     48  C   UNL     1      -3.067  -5.729 -15.850  1.00  0.00     0.031 A 
ATOM     49  C   UNL     1      -9.576  -5.400 -15.643  1.00  0.00     0.049 A 
ATOM     50  C   UNL     1      -4.156  -6.757 -15.970  1.00  0.00     0.074 A 
ATOM     51  C   UNL     1     -10.488  -6.425 -15.827  1.00  0.00     0.029 A 
ATOM     52  N   UNL     1      -8.313  -5.962 -15.752  1.00  0.00    -0.354 N 
ATOM     53  N   UNL     1      -5.456  -6.592 -15.927  1.00  0.00    -0.248 NA
ATOM     54  C   UNL     1      -3.731  -8.150 -16.172  1.00  0.00     0.031 C 
ATOM     55  C   UNL     1      -9.776  -7.615 -16.010  1.00  0.00     0.029 A 
ATOM     56  C   UNL     1      -8.422  -7.322 -15.986  1.00  0.00     0.049 A 
ATOM     57  H   UNL     1      -7.466  -5.467 -15.676  1.00  0.00     0.167 HD
ATOM     58  C   UNL     1      -6.004  -7.852 -16.125  1.00  0.00     0.074 A 
ATOM     59  C   UNL     1      -4.897  -8.770 -16.299  1.00  0.00     0.031 C 
ATOM     60  C   UNL     1      -7.309  -8.217 -16.162  1.00  0.00     0.031 A 
BRANCH  47  61
ATOM     61  C   UNL     1     -11.255  -3.559 -15.226  1.00  0.00    -0.014 A 
ATOM     62  C   UNL     1     -11.888  -2.777 -16.206  1.00  0.00     0.009 A 
ATOM     63  C   UNL     1     -11.984  -3.943 -14.089  1.00  0.00     0.009 A 
ATOM     64  C   UNL     1     -13.208  -2.357 -16.032  1.00  0.00     0.001 A 
ATOM     65  C   UNL     1     -13.313  -3.546 -13.931  1.00  0.00     0.001 A 
ATOM     66  C   UNL     1     -13.920  -2.745 -14.897  1.00  0.00     0.000 A 
ENDBRANCH  47  61
BRANCH  48  67
ATOM     67  C   UNL     1      -1.638  -6.127 -15.929  1.00  0.00    -0.014 A 
ATOM     68  C   UNL     1      -1.081  -6.532 -17.151  1.00  0.00     0.009 A 
ATOM     69  C   UNL     1      -0.826  -6.110 -14.784  1.00  0.00     0.009 A 
ATOM     70  C   UNL     1       0.254  -6.935 -17.222  1.00  0.00     0.001 A 
ATOM     71  C   UNL     1       0.516  -6.489 -14.863  1.00  0.00     0.001 A 
ATOM     72  C   UNL     1       1.052  -6.909 -16.079  1.00  0.00     0.000 A 
ENDBRANCH  48  67
BRANCH  60  73
ATOM     73  C   UNL     1      -7.609  -9.662 -16.440  1.00  0.00    -0.014 A 
ATOM     74  C   UNL     1      -7.409 -10.649 -15.464  1.00  0.00     0.009 A 
ATOM     75  C   UNL     1      -8.144 -10.030 -17.685  1.00  0.00     0.009 A 
ATOM     76  C   UNL     1      -7.711 -11.984 -15.741  1.00  0.00     0.001 A 
ATOM     77  C   UNL     1      -8.469 -11.361 -17.949  1.00  0.00     0.001 A 
ATOM     78  C   UNL     1      -8.245 -12.338 -16.980  1.00  0.00     0.000 A 
ENDBRANCH  60  73
ENDBRANCH  34  35
ENDBRANCH  26  29
ENDBRANCH  24  25
ENDBRANCH  23  24
ENDBRANCH  22  23
ENDBRANCH  21  22
ENDBRANCH   1  21
TORSDOF 18
