REMARK SMILES O=C(NCCCCCCNC(=O)[C@@H]1CCC[N@@H+](Cc2nccn2C(F)F)C1)c1ccc(-c2c3nc(c(-c4ccccc4)c4ccc([nH]4)c(-c4ccccc4)c4nc(c(-c5ccccc5)c5ccc2[nH]5)C=C4)C=C3)cc1
REMARK SMILES IDX 7 1 6 2 5 3 4 4 3 5 1 6 2 7 28 9 29 10 75 11 30 12 74 13
REMARK SMILES IDX 31 14 32 15 33 16 68 17 34 18 73 19 67 20 69 21 35 22 72 23
REMARK SMILES IDX 66 24 65 25 36 27 58 28 43 29 57 30 44 31 47 32 56 33 70 34
REMARK SMILES IDX 45 35 46 36 55 38 71 39 48 40 37 41 38 42 42 43 39 44 41 45
REMARK SMILES IDX 40 46 59 47 60 48 64 49 61 50 63 51 62 52 49 53 50 54 54 55
REMARK SMILES IDX 51 56 53 57 52 58 8 59 9 60 10 61 11 62 12 64 13 65 14 66
REMARK SMILES IDX 27 67 15 68 17 69 16 70 18 72 19 73 20 74 23 75 21 76 22 77
REMARK SMILES IDX 24 78 25 79 26 80
REMARK H PARENT 3 8 69 26 47 37 10 63 17 71
REMARK Flexibility Score: inf
ROOT
ATOM      1  C   UNL     1       5.005  -1.496   3.760  1.00  0.00     0.002 C 
ENDROOT
BRANCH   1   2
ATOM      2  C   UNL     1       4.381  -0.126   3.468  1.00  0.00     0.002 C 
BRANCH   2   3
ATOM      3  C   UNL     1       4.877   0.572   2.196  1.00  0.00     0.021 C 
BRANCH   3   4
ATOM      4  C   UNL     1       4.689  -0.236   0.913  1.00  0.00     0.116 C 
BRANCH   4   5
ATOM      5  N   UNL     1       3.306  -0.538   0.604  1.00  0.00    -0.352 N 
ATOM      6  O   UNL     1       1.247  -0.510  -0.190  1.00  0.00    -0.269 OA
ATOM      7  C   UNL     1       2.278   0.135   0.003  1.00  0.00     0.251 C 
ATOM      8  H   UNL     1       3.045  -1.441   0.895  1.00  0.00     0.163 HD
BRANCH   7   9
ATOM      9  C   UNL     1       2.292   1.578  -0.375  1.00  0.00     0.039 A 
ATOM     10  C   UNL     1       3.419   2.392  -0.477  1.00  0.00     0.014 A 
ATOM     11  C   UNL     1       1.031   2.146  -0.654  1.00  0.00     0.014 A 
ATOM     12  C   UNL     1       3.284   3.747  -0.790  1.00  0.00     0.010 A 
ATOM     13  C   UNL     1       0.890   3.494  -0.972  1.00  0.00     0.010 A 
ATOM     14  C   UNL     1       2.019   4.302  -1.021  1.00  0.00    -0.014 A 
BRANCH  14  15
ATOM     15  C   UNL     1       1.945   5.679  -1.509  1.00  0.00     0.031 A 
ATOM     16  C   UNL     1       2.529   5.876  -2.865  1.00  0.00     0.074 A 
ATOM     17  C   UNL     1       1.304   6.700  -0.905  1.00  0.00     0.049 A 
ATOM     18  N   UNL     1       3.588   6.549  -3.176  1.00  0.00    -0.248 NA
ATOM     19  C   UNL     1       1.920   5.159  -3.995  1.00  0.00     0.031 C 
ATOM     20  C   UNL     1       0.421   6.655   0.260  1.00  0.00     0.029 A 
ATOM     21  N   UNL     1       1.246   8.012  -1.284  1.00  0.00    -0.354 N 
ATOM     22  C   UNL     1       3.694   6.485  -4.562  1.00  0.00     0.074 A 
ATOM     23  C   UNL     1       2.722   5.515  -5.000  1.00  0.00     0.031 C 
ATOM     24  C   UNL     1      -0.246   7.830   0.362  1.00  0.00     0.029 A 
ATOM     25  C   UNL     1       0.262   8.754  -0.641  1.00  0.00     0.049 A 
ATOM     26  H   UNL     1       1.851   8.400  -1.957  1.00  0.00     0.167 HD
ATOM     27  C   UNL     1       4.431   7.389  -5.266  1.00  0.00     0.031 A 
ATOM     28  C   UNL     1      -0.130  10.019  -0.937  1.00  0.00     0.031 A 
ATOM     29  C   UNL     1       5.316   8.140  -4.416  1.00  0.00     0.049 A 
ATOM     30  C   UNL     1       0.952  10.662  -1.713  1.00  0.00     0.074 A 
ATOM     31  C   UNL     1       6.361   7.832  -3.569  1.00  0.00     0.029 A 
ATOM     32  N   UNL     1       4.931   9.418  -4.091  1.00  0.00    -0.354 N 
ATOM     33  N   UNL     1       2.097  11.006  -1.202  1.00  0.00    -0.248 NA
ATOM     34  C   UNL     1       0.913  10.577  -3.163  1.00  0.00     0.031 C 
ATOM     35  C   UNL     1       6.226   8.738  -2.476  1.00  0.00     0.029 A 
ATOM     36  C   UNL     1       5.149   9.582  -2.750  1.00  0.00     0.049 A 
ATOM     37  H   UNL     1       4.566  10.092  -4.709  1.00  0.00     0.167 HD
ATOM     38  C   UNL     1       3.018  10.731  -2.200  1.00  0.00     0.074 A 
ATOM     39  C   UNL     1       2.224  10.586  -3.418  1.00  0.00     0.031 C 
ATOM     40  C   UNL     1       4.297  10.371  -1.890  1.00  0.00     0.031 A 
BRANCH  27  41
ATOM     41  C   UNL     1       4.062   7.886  -6.643  1.00  0.00    -0.014 A 
ATOM     42  C   UNL     1       4.920   8.804  -7.279  1.00  0.00     0.009 A 
ATOM     43  C   UNL     1       2.779   7.730  -7.197  1.00  0.00     0.009 A 
ATOM     44  C   UNL     1       4.482   9.588  -8.353  1.00  0.00     0.001 A 
ATOM     45  C   UNL     1       2.353   8.480  -8.297  1.00  0.00     0.001 A 
ATOM     46  C   UNL     1       3.194   9.433  -8.855  1.00  0.00     0.000 A 
ENDBRANCH  27  41
BRANCH  28  47
ATOM     47  C   UNL     1      -1.452  10.669  -0.795  1.00  0.00    -0.014 A 
ATOM     48  C   UNL     1      -1.575  12.069  -0.854  1.00  0.00     0.009 A 
ATOM     49  C   UNL     1      -2.626   9.905  -0.903  1.00  0.00     0.009 A 
ATOM     50  C   UNL     1      -2.820  12.677  -1.064  1.00  0.00     0.001 A 
ATOM     51  C   UNL     1      -3.870  10.512  -1.110  1.00  0.00     0.001 A 
ATOM     52  C   UNL     1      -3.965  11.897  -1.208  1.00  0.00     0.000 A 
ENDBRANCH  28  47
BRANCH  40  53
ATOM     53  C   UNL     1       4.768  10.568  -0.471  1.00  0.00    -0.014 A 
ATOM     54  C   UNL     1       4.145   9.976   0.642  1.00  0.00     0.009 A 
ATOM     55  C   UNL     1       5.965  11.270  -0.268  1.00  0.00     0.009 A 
ATOM     56  C   UNL     1       4.687  10.117   1.923  1.00  0.00     0.001 A 
ATOM     57  C   UNL     1       6.520  11.390   1.007  1.00  0.00     0.001 A 
ATOM     58  C   UNL     1       5.877  10.820   2.104  1.00  0.00     0.000 A 
ENDBRANCH  40  53
ENDBRANCH  14  15
ENDBRANCH   7   9
ENDBRANCH   4   5
ENDBRANCH   3   4
ENDBRANCH   2   3
ENDBRANCH   1   2
BRANCH   1  59
ATOM     59  C   UNL     1       6.537  -1.517   3.855  1.00  0.00     0.021 C 
BRANCH  59  60
ATOM     60  C   UNL     1       7.112  -0.629   4.960  1.00  0.00     0.116 C 
BRANCH  60  61
ATOM     61  N   UNL     1       6.719  -1.117   6.268  1.00  0.00    -0.356 N 
ATOM     62  C   UNL     1       7.467  -1.732   7.232  1.00  0.00     0.228 C 
ATOM     63  H   UNL     1       5.771  -0.984   6.496  1.00  0.00     0.163 HD
ATOM     64  O   UNL     1       6.867  -2.284   8.150  1.00  0.00    -0.275 OA
BRANCH  62  65
ATOM     65  C   UNL     1       8.990  -1.704   7.123  1.00  0.00     0.133 C 
ATOM     66  C   UNL     1       9.672  -2.743   8.020  1.00  0.00     0.025 C 
ATOM     67  C   UNL     1       9.528  -0.296   7.425  1.00  0.00     0.276 C 
ATOM     68  C   UNL     1       9.684  -2.332   9.490  1.00  0.00     0.062 C 
ATOM     69  N   UNL     1       9.453   0.049   8.856  1.00  0.00    -0.328 N 
ATOM     70  C   UNL     1      10.197  -0.905   9.682  1.00  0.00     0.262 C 
ATOM     71  H   UNL     1       8.478  -0.032   9.144  1.00  0.00     0.348 HD
BRANCH  69  72
ATOM     72  C   UNL     1       9.823   1.454   9.103  1.00  0.00     0.339 C 
BRANCH  72  73
ATOM     73  C   UNL     1      11.276   1.774   8.873  1.00  0.00     0.168 A 
ATOM     74  N   UNL     1      11.859   1.817   7.686  1.00  0.00    -0.236 NA
ATOM     75  N   UNL     1      12.203   2.017   9.863  1.00  0.00    -0.273 N 
ATOM     76  C   UNL     1      13.191   2.017   7.916  1.00  0.00     0.131 A 
ATOM     77  C   UNL     1      13.432   2.140   9.259  1.00  0.00     0.113 A 
BRANCH  75  78
ATOM     78  C   UNL     1      11.987   2.120  11.291  1.00  0.00     0.450 C 
ATOM     79  F   UNL     1      12.726   1.195  11.959  1.00  0.00    -0.185 F 
ATOM     80  F   UNL     1      12.384   3.338  11.748  1.00  0.00    -0.185 F 
ENDBRANCH  75  78
ENDBRANCH  72  73
ENDBRANCH  69  72
ENDBRANCH  62  65
ENDBRANCH  60  61
ENDBRANCH  59  60
ENDBRANCH   1  59
TORSDOF 16
