REMARK SMILES O=C(NCCCCCCNC(=O)c1cccnc1C[N@@H+]1CCC[C@H]1c1ccccn1)c1ccc(-c2c3nc(c(-c4ccccc4)c4ccc([nH]4)c(-c4ccccc4)c4nc(c(-c5ccccc5)c5ccc2[nH]5)C=C4)C=C3)cc1
REMARK SMILES IDX 7 1 6 2 5 3 4 4 3 5 1 6 2 7 31 9 32 10 78 11 33 12 77 13
REMARK SMILES IDX 34 14 35 15 36 16 71 17 37 18 76 19 70 20 72 21 38 22 75 23
REMARK SMILES IDX 69 24 68 25 39 27 61 28 46 29 60 30 47 31 50 32 59 33 73 34
REMARK SMILES IDX 48 35 49 36 58 38 74 39 51 40 40 41 41 42 45 43 42 44 44 45
REMARK SMILES IDX 43 46 62 47 63 48 67 49 64 50 66 51 65 52 52 53 53 54 57 55
REMARK SMILES IDX 54 56 56 57 55 58 8 59 9 60 10 61 11 62 12 64 13 65 14 66
REMARK SMILES IDX 18 67 15 68 17 69 16 70 19 71 20 72 21 73 24 74 22 76 23 77
REMARK SMILES IDX 25 78 26 79 30 80 27 81 29 82 28 83
REMARK H PARENT 3 8 72 26 50 37 10 63 20 75
REMARK Flexibility Score: inf
ROOT
ATOM      1  C   UNL     1       4.739  -2.761   3.267  1.00  0.00     0.002 C 
ENDROOT
BRANCH   1   2
ATOM      2  C   UNL     1       4.218  -1.347   3.533  1.00  0.00     0.002 C 
BRANCH   2   3
ATOM      3  C   UNL     1       4.682  -0.273   2.547  1.00  0.00     0.021 C 
BRANCH   3   4
ATOM      4  C   UNL     1       4.414  -0.579   1.077  1.00  0.00     0.116 C 
BRANCH   4   5
ATOM      5  N   UNL     1       2.998  -0.705   0.784  1.00  0.00    -0.352 N 
ATOM      6  O   UNL     1       1.015  -0.165  -0.141  1.00  0.00    -0.269 OA
ATOM      7  C   UNL     1       2.235  -0.040  -0.143  1.00  0.00     0.251 C 
ATOM      8  H   UNL     1       2.513  -1.364   1.331  1.00  0.00     0.163 HD
BRANCH   7   9
ATOM      9  C   UNL     1       2.878   0.848  -1.135  1.00  0.00     0.039 A 
ATOM     10  C   UNL     1       4.005   0.438  -1.854  1.00  0.00     0.014 A 
ATOM     11  C   UNL     1       2.309   2.102  -1.375  1.00  0.00     0.014 A 
ATOM     12  C   UNL     1       4.623   1.319  -2.739  1.00  0.00     0.010 A 
ATOM     13  C   UNL     1       2.895   2.962  -2.305  1.00  0.00     0.010 A 
ATOM     14  C   UNL     1       4.068   2.585  -2.979  1.00  0.00    -0.014 A 
BRANCH  14  15
ATOM     15  C   UNL     1       4.677   3.498  -3.975  1.00  0.00     0.031 A 
ATOM     16  C   UNL     1       5.305   4.792  -3.547  1.00  0.00     0.074 A 
ATOM     17  C   UNL     1       4.618   3.175  -5.280  1.00  0.00     0.049 A 
ATOM     18  N   UNL     1       5.803   5.750  -4.287  1.00  0.00    -0.248 NA
ATOM     19  C   UNL     1       5.374   5.048  -2.101  1.00  0.00     0.031 C 
ATOM     20  C   UNL     1       4.029   1.948  -5.820  1.00  0.00     0.029 A 
ATOM     21  N   UNL     1       5.043   3.860  -6.390  1.00  0.00    -0.354 N 
ATOM     22  C   UNL     1       6.220   6.734  -3.401  1.00  0.00     0.074 A 
ATOM     23  C   UNL     1       5.903   6.263  -2.068  1.00  0.00     0.031 C 
ATOM     24  C   UNL     1       4.131   1.966  -7.157  1.00  0.00     0.029 A 
ATOM     25  C   UNL     1       4.742   3.226  -7.569  1.00  0.00     0.049 A 
ATOM     26  H   UNL     1       5.517   4.722  -6.345  1.00  0.00     0.167 HD
ATOM     27  C   UNL     1       6.810   7.923  -3.673  1.00  0.00     0.031 A 
ATOM     28  C   UNL     1       4.906   3.624  -8.844  1.00  0.00     0.031 A 
ATOM     29  C   UNL     1       7.119   8.390  -4.999  1.00  0.00     0.049 A 
ATOM     30  C   UNL     1       5.529   4.959  -9.124  1.00  0.00     0.074 A 
ATOM     31  C   UNL     1       7.759   9.559  -5.374  1.00  0.00     0.029 A 
ATOM     32  N   UNL     1       6.798   7.717  -6.168  1.00  0.00    -0.354 N 
ATOM     33  N   UNL     1       5.960   5.859  -8.275  1.00  0.00    -0.248 NA
ATOM     34  C   UNL     1       5.691   5.332 -10.536  1.00  0.00     0.031 C 
ATOM     35  C   UNL     1       7.782   9.615  -6.772  1.00  0.00     0.029 A 
ATOM     36  C   UNL     1       7.200   8.458  -7.266  1.00  0.00     0.049 A 
ATOM     37  H   UNL     1       6.349   6.841  -6.210  1.00  0.00     0.167 HD
ATOM     38  C   UNL     1       6.461   6.898  -9.046  1.00  0.00     0.074 A 
ATOM     39  C   UNL     1       6.288   6.512 -10.433  1.00  0.00     0.031 C 
ATOM     40  C   UNL     1       7.019   8.063  -8.639  1.00  0.00     0.031 A 
BRANCH  27  41
ATOM     41  C   UNL     1       7.125   8.819  -2.509  1.00  0.00    -0.014 A 
ATOM     42  C   UNL     1       8.168   8.521  -1.617  1.00  0.00     0.009 A 
ATOM     43  C   UNL     1       6.378   9.991  -2.313  1.00  0.00     0.009 A 
ATOM     44  C   UNL     1       8.430   9.360  -0.531  1.00  0.00     0.001 A 
ATOM     45  C   UNL     1       6.659  10.841  -1.242  1.00  0.00     0.001 A 
ATOM     46  C   UNL     1       7.676  10.519  -0.346  1.00  0.00     0.000 A 
ENDBRANCH  27  41
BRANCH  28  47
ATOM     47  C   UNL     1       4.445   2.738  -9.942  1.00  0.00    -0.014 A 
ATOM     48  C   UNL     1       5.367   2.016 -10.711  1.00  0.00     0.009 A 
ATOM     49  C   UNL     1       3.072   2.566 -10.182  1.00  0.00     0.009 A 
ATOM     50  C   UNL     1       4.923   1.140 -11.705  1.00  0.00     0.001 A 
ATOM     51  C   UNL     1       2.631   1.673 -11.159  1.00  0.00     0.001 A 
ATOM     52  C   UNL     1       3.557   0.963 -11.922  1.00  0.00     0.000 A 
ENDBRANCH  28  47
BRANCH  40  53
ATOM     53  C   UNL     1       7.514   8.998  -9.704  1.00  0.00    -0.014 A 
ATOM     54  C   UNL     1       6.625   9.785 -10.450  1.00  0.00     0.009 A 
ATOM     55  C   UNL     1       8.895   9.135  -9.918  1.00  0.00     0.009 A 
ATOM     56  C   UNL     1       7.111  10.682 -11.405  1.00  0.00     0.001 A 
ATOM     57  C   UNL     1       9.377  10.047 -10.857  1.00  0.00     0.001 A 
ATOM     58  C   UNL     1       8.485  10.816 -11.602  1.00  0.00     0.000 A 
ENDBRANCH  40  53
ENDBRANCH  14  15
ENDBRANCH   7   9
ENDBRANCH   4   5
ENDBRANCH   3   4
ENDBRANCH   2   3
ENDBRANCH   1   2
BRANCH   1  59
ATOM     59  C   UNL     1       6.262  -2.904   3.159  1.00  0.00     0.021 C 
BRANCH  59  60
ATOM     60  C   UNL     1       7.058  -2.375   4.350  1.00  0.00     0.116 C 
BRANCH  60  61
ATOM     61  N   UNL     1       6.696  -3.033   5.591  1.00  0.00    -0.352 N 
ATOM     62  C   UNL     1       7.506  -3.566   6.557  1.00  0.00     0.253 C 
ATOM     63  H   UNL     1       5.729  -3.107   5.763  1.00  0.00     0.163 HD
ATOM     64  O   UNL     1       7.027  -4.133   7.533  1.00  0.00    -0.269 OA
BRANCH  62  65
ATOM     65  C   UNL     1       8.965  -3.420   6.450  1.00  0.00     0.067 A 
ATOM     66  C   UNL     1       9.511  -2.129   6.493  1.00  0.00     0.017 A 
ATOM     67  C   UNL     1       9.820  -4.523   6.402  1.00  0.00     0.107 A 
ATOM     68  C   UNL     1      10.890  -1.965   6.471  1.00  0.00     0.021 A 
ATOM     69  N   UNL     1      11.177  -4.356   6.405  1.00  0.00    -0.254 NA
ATOM     70  C   UNL     1      11.675  -3.101   6.436  1.00  0.00     0.111 A 
BRANCH  67  71
ATOM     71  C   UNL     1       9.315  -5.962   6.351  1.00  0.00     0.321 C 
BRANCH  71  72
ATOM     72  N   UNL     1       9.616  -6.762   5.141  1.00  0.00    -0.322 N 
ATOM     73  C   UNL     1      11.044  -6.962   4.899  1.00  0.00     0.263 C 
ATOM     74  C   UNL     1       9.008  -6.227   3.909  1.00  0.00     0.234 C 
ATOM     75  H   UNL     1       9.192  -7.664   5.358  1.00  0.00     0.349 HD
ATOM     76  C   UNL     1      11.437  -6.081   3.724  1.00  0.00     0.068 C 
ATOM     77  C   UNL     1      10.139  -5.560   3.127  1.00  0.00     0.078 C 
BRANCH  74  78
ATOM     78  C   UNL     1       8.275  -7.280   3.076  1.00  0.00     0.098 A 
ATOM     79  C   UNL     1       8.903  -8.446   2.633  1.00  0.00     0.030 A 
ATOM     80  N   UNL     1       6.984  -7.000   2.746  1.00  0.00    -0.255 NA
ATOM     81  C   UNL     1       8.192  -9.353   1.851  1.00  0.00     0.004 A 
ATOM     82  C   UNL     1       6.315  -7.905   1.997  1.00  0.00     0.111 A 
ATOM     83  C   UNL     1       6.871  -9.082   1.527  1.00  0.00     0.020 A 
ENDBRANCH  74  78
ENDBRANCH  71  72
ENDBRANCH  67  71
ENDBRANCH  62  65
ENDBRANCH  60  61
ENDBRANCH  59  60
ENDBRANCH   1  59
TORSDOF 16
