REMARK SMILES O=C1C[C@H](c2cn[nH]c2C(=O)NCCCCCCNC(=O)c2ccc(-c3c4nc(c(-c5ccccc5)c5ccc([nH]5)c(-c5ccccc5)c5nc(c(-c6ccccc6)c6ccc3[nH]6)C=C5)C=C4)cc2)c2c(-c3cccs3)n[nH]c2N1
REMARK SMILES IDX 15 1 14 2 13 3 12 4 10 5 11 6 9 8 5 9 6 10 7 11 8 12 4 14
REMARK SMILES IDX 1 15 2 16 3 17 80 18 79 19 70 21 78 22 71 23 77 24 72 26
REMARK SMILES IDX 73 27 76 28 74 29 75 30 16 31 17 32 18 33 19 34 20 35 21 37
REMARK SMILES IDX 22 38 23 39 69 40 24 41 68 42 25 43 26 44 27 45 62 46 28 47
REMARK SMILES IDX 67 48 61 49 63 50 29 51 66 52 60 53 59 54 30 56 52 57 37 58
REMARK SMILES IDX 51 59 38 60 41 61 50 62 64 63 39 64 40 65 49 67 65 68 42 69
REMARK SMILES IDX 31 70 32 71 36 72 33 73 35 74 34 75 53 76 54 77 58 78 55 79
REMARK SMILES IDX 57 80 56 81 43 82 44 83 48 84 45 85 47 86 46 87
REMARK H PARENT 12 7 8 13 80 20 78 25 19 36 63 55 41 66
REMARK Flexibility Score: inf
ROOT
ATOM      1  C   UNL     1       5.012  -3.702   1.294  1.00  0.00     0.002 C 
ENDROOT
BRANCH   1   2
ATOM      2  C   UNL     1       4.247  -2.454   0.835  1.00  0.00     0.021 C 
BRANCH   2   3
ATOM      3  C   UNL     1       5.260  -1.140   0.272  1.00  0.00     0.116 C 
BRANCH   3   4
ATOM      4  N   UNL     1       5.624  -0.496  -1.758  1.00  0.00    -0.351 N 
ATOM      5  C   UNL     1       5.606   0.355  -2.895  1.00  0.00     0.269 C 
ATOM      6  O   UNL     1       6.186  -0.080  -3.894  1.00  0.00    -0.268 OA
ATOM      7  H   UNL     1       6.096  -1.280  -2.121  1.00  0.00     0.163 HD
BRANCH   5   8
ATOM      8  C   UNL     1       5.042   1.681  -2.905  1.00  0.00     0.126 A 
ATOM      9  C   UNL     1       4.396   2.423  -1.930  1.00  0.00     0.011 A 
ATOM     10  C   UNL     1       4.166   3.678  -2.527  1.00  0.00     0.140 A 
ATOM     11  N   UNL     1       4.613   3.732  -3.783  1.00  0.00    -0.183 NA
ATOM     12  N   UNL     1       5.147   2.514  -3.984  1.00  0.00    -0.273 N 
ATOM     13  H   UNL     1       5.573   2.246  -4.830  1.00  0.00     0.190 HD
BRANCH   9  14
ATOM     14  C   UNL     1       4.100   1.939  -0.557  1.00  0.00     0.069 C 
ATOM     15  O   UNL     1       0.615   0.437  -0.859  1.00  0.00    -0.275 OA
ATOM     16  C   UNL     1       1.852   0.464  -0.869  1.00  0.00     0.226 C 
ATOM     17  C   UNL     1       2.590   1.716  -0.310  1.00  0.00     0.114 C 
ATOM     18  N   UNL     1       2.516  -0.674  -1.265  1.00  0.00    -0.311 N 
ATOM     19  C   UNL     1       3.861  -0.743  -1.065  1.00  0.00     0.132 A 
ATOM     20  H   UNL     1       2.030  -1.421  -1.683  1.00  0.00     0.171 HD
ATOM     21  C   UNL     1       4.774   0.638  -0.461  1.00  0.00     0.031 A 
ATOM     22  N   UNL     1       5.044  -2.141  -1.332  1.00  0.00    -0.262 N 
ATOM     23  C   UNL     1       6.639   0.100  -0.321  1.00  0.00     0.108 A 
ATOM     24  N   UNL     1       6.780  -1.587  -0.838  1.00  0.00    -0.173 NA
ATOM     25  H   UNL     1       4.806  -3.032  -1.677  1.00  0.00     0.192 HD
BRANCH  23  26
ATOM     26  C   UNL     1       7.752   1.058  -0.110  1.00  0.00     0.055 A 
ATOM     27  C   UNL     1       8.941   1.011  -0.797  1.00  0.00     0.022 A 
ATOM     28  S   UNL     1       7.645   2.394   0.936  1.00  0.00    -0.142 S 
ATOM     29  C   UNL     1       9.758   2.142  -0.497  1.00  0.00     0.012 A 
ATOM     30  C   UNL     1       9.200   2.941   0.478  1.00  0.00     0.065 A 
ENDBRANCH  23  26
ENDBRANCH   9  14
ENDBRANCH   5   8
ENDBRANCH   3   4
ENDBRANCH   2   3
ENDBRANCH   1   2
BRANCH   1  31
ATOM     31  C   UNL     1       6.176  -3.488   2.269  1.00  0.00     0.002 C 
BRANCH  31  32
ATOM     32  C   UNL     1       5.920  -2.584   3.484  1.00  0.00     0.021 C 
BRANCH  32  33
ATOM     33  C   UNL     1       4.807  -3.059   4.402  1.00  0.00     0.116 C 
BRANCH  33  34
ATOM     34  N   UNL     1       4.987  -4.451   4.821  1.00  0.00    -0.352 N 
ATOM     35  C   UNL     1       4.105  -5.316   5.434  1.00  0.00     0.251 C 
ATOM     36  H   UNL     1       5.877  -4.829   4.635  1.00  0.00     0.163 HD
ATOM     37  O   UNL     1       4.501  -6.328   6.001  1.00  0.00    -0.269 OA
BRANCH  35  38
ATOM     38  C   UNL     1       2.667  -5.021   5.372  1.00  0.00     0.039 A 
ATOM     39  C   UNL     1       1.788  -5.305   6.421  1.00  0.00     0.014 A 
ATOM     40  C   UNL     1       2.208  -4.422   4.207  1.00  0.00     0.014 A 
ATOM     41  C   UNL     1       0.447  -4.971   6.262  1.00  0.00     0.010 A 
ATOM     42  C   UNL     1       0.992  -3.821   4.191  1.00  0.00     0.010 A 
ATOM     43  C   UNL     1       0.070  -4.243   5.126  1.00  0.00    -0.014 A 
BRANCH  43  44
ATOM     44  C   UNL     1      -1.290  -3.837   4.854  1.00  0.00     0.031 A 
ATOM     45  C   UNL     1      -1.808  -2.846   5.817  1.00  0.00     0.074 A 
ATOM     46  C   UNL     1      -1.896  -4.126   3.681  1.00  0.00     0.049 A 
ATOM     47  N   UNL     1      -2.679  -3.054   6.743  1.00  0.00    -0.248 NA
ATOM     48  C   UNL     1      -1.149  -1.532   5.892  1.00  0.00     0.031 C 
ATOM     49  C   UNL     1      -1.354  -4.790   2.486  1.00  0.00     0.029 A 
ATOM     50  N   UNL     1      -3.134  -3.765   3.273  1.00  0.00    -0.354 N 
ATOM     51  C   UNL     1      -2.835  -1.838   7.393  1.00  0.00     0.074 A 
ATOM     52  C   UNL     1      -1.724  -1.018   6.981  1.00  0.00     0.031 C 
ATOM     53  C   UNL     1      -2.178  -4.571   1.433  1.00  0.00     0.029 A 
ATOM     54  C   UNL     1      -3.370  -3.895   1.911  1.00  0.00     0.049 A 
ATOM     55  H   UNL     1      -3.820  -3.435   3.897  1.00  0.00     0.167 HD
ATOM     56  C   UNL     1      -4.005  -1.518   8.010  1.00  0.00     0.031 A 
ATOM     57  C   UNL     1      -4.457  -3.429   1.243  1.00  0.00     0.031 A 
ATOM     58  C   UNL     1      -4.872  -2.669   8.107  1.00  0.00     0.049 A 
ATOM     59  C   UNL     1      -5.519  -3.199   2.258  1.00  0.00     0.074 A 
ATOM     60  C   UNL     1      -4.777  -3.898   8.730  1.00  0.00     0.029 A 
ATOM     61  N   UNL     1      -5.823  -2.815   7.121  1.00  0.00    -0.354 N 
ATOM     62  N   UNL     1      -6.065  -4.165   2.943  1.00  0.00    -0.248 NA
ATOM     63  C   UNL     1      -5.591  -1.882   2.876  1.00  0.00     0.031 C 
ATOM     64  C   UNL     1      -5.298  -4.827   7.781  1.00  0.00     0.029 A 
ATOM     65  C   UNL     1      -5.771  -4.113   6.677  1.00  0.00     0.049 A 
ATOM     66  H   UNL     1      -6.431  -2.113   6.793  1.00  0.00     0.167 HD
ATOM     67  C   UNL     1      -6.143  -3.682   4.243  1.00  0.00     0.074 A 
ATOM     68  C   UNL     1      -5.915  -2.239   4.124  1.00  0.00     0.031 C 
ATOM     69  C   UNL     1      -6.072  -4.522   5.320  1.00  0.00     0.031 A 
BRANCH  56  70
ATOM     70  C   UNL     1      -4.530  -0.115   8.149  1.00  0.00    -0.014 A 
ATOM     71  C   UNL     1      -5.740   0.079   8.838  1.00  0.00     0.009 A 
ATOM     72  C   UNL     1      -4.033   0.984   7.424  1.00  0.00     0.009 A 
ATOM     73  C   UNL     1      -6.450   1.281   8.739  1.00  0.00     0.001 A 
ATOM     74  C   UNL     1      -4.719   2.199   7.354  1.00  0.00     0.001 A 
ATOM     75  C   UNL     1      -5.943   2.337   7.989  1.00  0.00     0.000 A 
ENDBRANCH  56  70
BRANCH  57  76
ATOM     76  C   UNL     1      -4.514  -2.848  -0.120  1.00  0.00    -0.014 A 
ATOM     77  C   UNL     1      -5.740  -2.651  -0.778  1.00  0.00     0.009 A 
ATOM     78  C   UNL     1      -3.378  -2.221  -0.666  1.00  0.00     0.009 A 
ATOM     79  C   UNL     1      -5.827  -1.830  -1.914  1.00  0.00     0.001 A 
ATOM     80  C   UNL     1      -3.465  -1.402  -1.798  1.00  0.00     0.001 A 
ATOM     81  C   UNL     1      -4.693  -1.195  -2.414  1.00  0.00     0.000 A 
ENDBRANCH  57  76
BRANCH  69  82
ATOM     82  C   UNL     1      -6.069  -6.013   5.056  1.00  0.00    -0.014 A 
ATOM     83  C   UNL     1      -5.058  -6.670   4.327  1.00  0.00     0.009 A 
ATOM     84  C   UNL     1      -7.024  -6.803   5.711  1.00  0.00     0.009 A 
ATOM     85  C   UNL     1      -5.021  -8.067   4.240  1.00  0.00     0.001 A 
ATOM     86  C   UNL     1      -6.976  -8.198   5.641  1.00  0.00     0.001 A 
ATOM     87  C   UNL     1      -5.979  -8.830   4.902  1.00  0.00     0.000 A 
ENDBRANCH  69  82
ENDBRANCH  43  44
ENDBRANCH  35  38
ENDBRANCH  33  34
ENDBRANCH  32  33
ENDBRANCH  31  32
ENDBRANCH   1  31
TORSDOF 15
