REMARK SMILES COc1ccc(CCN2/C(=[NH+]/C(=O)CCC(=O)NCCCCCCNC(=O)c3ccc(-c4c5nc(c(-c6ccccc6)c6ccc([nH]6)c(-c6ccccc6)c6nc(c(-c7ccccc7)c7ccc4[nH]7)C=C6)C=C5)cc3)S[C@@H]3CS(=O)(=O)C[C@@H]32)cc1
REMARK SMILES IDX 19 1 18 2 16 3 17 4 15 6 14 7 12 8 9 9 10 10 83 11 11 12
REMARK SMILES IDX 76 13 77 14 82 15 78 17 79 18 13 19 80 20 81 21 8 22 7 23
REMARK SMILES IDX 6 24 3 25 4 26 85 27 5 28 84 29 2 30 1 31 20 32 21 33 22 34
REMARK SMILES IDX 23 35 24 36 25 37 26 38 27 40 28 41 29 42 75 43 30 44 74 45
REMARK SMILES IDX 31 46 32 47 33 48 68 49 34 50 73 51 67 52 69 53 35 54 72 55
REMARK SMILES IDX 66 56 65 57 36 59 58 60 43 61 57 62 44 63 47 64 56 65 70 66
REMARK SMILES IDX 45 67 46 68 55 70 71 71 48 72 37 73 38 74 42 75 39 76 41 77
REMARK SMILES IDX 40 78 59 79 60 80 64 81 61 82 63 83 62 84 49 85 50 86 54 87
REMARK SMILES IDX 51 88 53 89 52 90
REMARK H PARENT 18 5 11 16 25 39 69 58 47 69
REMARK Flexibility Score: inf
ROOT
ATOM      1  C   UNL     1      -1.371   5.947  -1.388  1.00  0.00     0.116 C 
ENDROOT
BRANCH   1   2
ATOM      2  N   UNL     1      -0.267   6.898  -1.232  1.00  0.00    -0.356 N 
ATOM      3  C   UNL     1      -0.098   8.136  -1.775  1.00  0.00     0.220 C 
ATOM      4  O   UNL     1       0.981   8.710  -1.626  1.00  0.00    -0.275 OA
ATOM      5  H   UNL     1       0.464   6.596  -0.645  1.00  0.00     0.163 HD
BRANCH   3   6
ATOM      6  C   UNL     1      -1.250   8.790  -2.495  1.00  0.00     0.112 C 
BRANCH   6   7
ATOM      7  C   UNL     1      -0.887   9.229  -3.916  1.00  0.00     0.138 C 
BRANCH   7   8
ATOM      8  C   UNL     1      -1.116   8.202  -5.026  1.00  0.00     0.308 C 
ATOM      9  N   UNL     1       0.844   5.148  -5.936  1.00  0.00    -0.251 N 
ATOM     10  C   UNL     1      -0.151   6.218  -5.948  1.00  0.00     0.314 C 
ATOM     11  C   UNL     1       0.473   3.919  -6.678  1.00  0.00     0.206 C 
ATOM     12  N   UNL     1      -0.026   7.379  -5.346  1.00  0.00    -0.205 N 
ATOM     13  S   UNL     1      -1.776   5.751  -6.661  1.00  0.00    -0.030 SA
ATOM     14  C   UNL     1      -1.473   4.024  -7.060  1.00  0.00     0.120 C 
ATOM     15  C   UNL     1       1.018   2.194  -5.820  1.00  0.00     0.187 C 
ATOM     16  H   UNL     1       0.878   7.686  -5.108  1.00  0.00     0.316 HD
ATOM     17  C   UNL     1      -2.421   2.343  -6.467  1.00  0.00     0.156 C 
ATOM     18  S   UNL     1      -0.816   0.838  -5.630  1.00  0.00     0.155 S 
ATOM     19  O   UNL     1      -2.254   8.171  -5.500  1.00  0.00    -0.247 OA
ATOM     20  O   UNL     1      -1.033   0.531  -4.223  1.00  0.00    -0.229 OA
ATOM     21  O   UNL     1      -0.681  -0.320  -6.501  1.00  0.00    -0.229 OA
BRANCH   9  22
ATOM     22  C   UNL     1       2.305   5.162  -5.434  1.00  0.00     0.242 C 
BRANCH  22  23
ATOM     23  C   UNL     1       2.932   4.708  -3.915  1.00  0.00     0.081 C 
BRANCH  23  24
ATOM     24  C   UNL     1       2.828   3.439  -2.957  1.00  0.00    -0.044 A 
ATOM     25  C   UNL     1       2.256   1.028  -1.442  1.00  0.00     0.118 A 
ATOM     26  C   UNL     1       1.508   2.166  -1.264  1.00  0.00     0.046 A 
ATOM     27  C   UNL     1       3.380   1.132  -2.264  1.00  0.00     0.046 A 
ATOM     28  C   UNL     1       1.911   3.366  -1.882  1.00  0.00     0.007 A 
ATOM     29  C   UNL     1       3.650   2.307  -3.034  1.00  0.00     0.007 A 
BRANCH  25  30
ATOM     30  O   UNL     1       1.945  -0.193  -0.916  1.00  0.00    -0.497 OA
ATOM     31  C   UNL     1       1.417  -0.214   0.413  1.00  0.00     0.278 C 
ENDBRANCH  25  30
ENDBRANCH  23  24
ENDBRANCH  22  23
ENDBRANCH   9  22
ENDBRANCH   7   8
ENDBRANCH   6   7
ENDBRANCH   3   6
ENDBRANCH   1   2
BRANCH   1  32
ATOM     32  C   UNL     1      -1.596   5.495  -2.839  1.00  0.00     0.021 C 
BRANCH  32  33
ATOM     33  C   UNL     1      -0.289   5.013  -3.389  1.00  0.00     0.002 C 
BRANCH  33  34
ATOM     34  C   UNL     1      -0.122   3.612  -4.004  1.00  0.00     0.002 C 
BRANCH  34  35
ATOM     35  C   UNL     1      -0.852   3.066  -5.353  1.00  0.00     0.021 C 
BRANCH  35  36
ATOM     36  C   UNL     1      -0.477   2.240  -7.297  1.00  0.00     0.116 C 
BRANCH  36  37
ATOM     37  N   UNL     1       0.771   1.732  -8.088  1.00  0.00    -0.352 N 
ATOM     38  C   UNL     1       0.816   0.885  -9.184  1.00  0.00     0.251 C 
ATOM     39  H   UNL     1       1.642   2.057  -7.765  1.00  0.00     0.163 HD
ATOM     40  O   UNL     1       1.880   0.605  -9.718  1.00  0.00    -0.269 OA
BRANCH  38  41
ATOM     41  C   UNL     1      -0.454   0.423  -9.750  1.00  0.00     0.039 A 
ATOM     42  C   UNL     1      -0.781  -0.929  -9.715  1.00  0.00     0.014 A 
ATOM     43  C   UNL     1      -1.365   1.392 -10.180  1.00  0.00     0.014 A 
ATOM     44  C   UNL     1      -2.069  -1.308 -10.073  1.00  0.00     0.010 A 
ATOM     45  C   UNL     1      -2.678   1.027 -10.392  1.00  0.00     0.010 A 
ATOM     46  C   UNL     1      -3.029  -0.329 -10.381  1.00  0.00    -0.014 A 
BRANCH  46  47
ATOM     47  C   UNL     1      -4.397  -0.703 -10.783  1.00  0.00     0.031 A 
ATOM     48  C   UNL     1      -4.865  -0.333 -12.163  1.00  0.00     0.074 A 
ATOM     49  C   UNL     1      -5.202  -1.325  -9.901  1.00  0.00     0.049 A 
ATOM     50  N   UNL     1      -6.035  -0.518 -12.713  1.00  0.00    -0.248 NA
ATOM     51  C   UNL     1      -3.905   0.379 -13.031  1.00  0.00     0.031 C 
ATOM     52  C   UNL     1      -4.844  -1.685  -8.525  1.00  0.00     0.029 A 
ATOM     53  N   UNL     1      -6.487  -1.776 -10.037  1.00  0.00    -0.354 N 
ATOM     54  C   UNL     1      -5.953   0.074 -13.967  1.00  0.00     0.074 A 
ATOM     55  C   UNL     1      -4.655   0.690 -14.075  1.00  0.00     0.031 C 
ATOM     56  C   UNL     1      -5.868  -2.349  -7.964  1.00  0.00     0.029 A 
ATOM     57  C   UNL     1      -6.966  -2.417  -8.920  1.00  0.00     0.049 A 
ATOM     58  H   UNL     1      -7.018  -1.653 -10.857  1.00  0.00     0.167 HD
ATOM     59  C   UNL     1      -6.872   0.070 -14.957  1.00  0.00     0.031 A 
ATOM     60  C   UNL     1      -8.162  -2.995  -8.707  1.00  0.00     0.031 A 
ATOM     61  C   UNL     1      -8.141  -0.589 -14.844  1.00  0.00     0.049 A 
ATOM     62  C   UNL     1      -9.165  -2.980  -9.830  1.00  0.00     0.074 A 
ATOM     63  C   UNL     1      -9.130  -0.722 -15.800  1.00  0.00     0.029 A 
ATOM     64  N   UNL     1      -8.589  -1.231 -13.700  1.00  0.00    -0.354 N 
ATOM     65  N   UNL     1      -9.046  -2.486 -11.040  1.00  0.00    -0.248 NA
ATOM     66  C   UNL     1     -10.462  -3.614  -9.563  1.00  0.00     0.031 C 
ATOM     67  C   UNL     1     -10.207  -1.387 -15.210  1.00  0.00     0.029 A 
ATOM     68  C   UNL     1      -9.857  -1.736 -13.914  1.00  0.00     0.049 A 
ATOM     69  H   UNL     1      -8.080  -1.315 -12.861  1.00  0.00     0.167 HD
ATOM     70  C   UNL     1     -10.237  -2.781 -11.689  1.00  0.00     0.074 A 
ATOM     71  C   UNL     1     -11.054  -3.517 -10.745  1.00  0.00     0.031 C 
ATOM     72  C   UNL     1     -10.629  -2.474 -12.950  1.00  0.00     0.031 A 
BRANCH  59  73
ATOM     73  C   UNL     1      -6.540   0.792 -16.231  1.00  0.00    -0.014 A 
ATOM     74  C   UNL     1      -5.544   0.325 -17.104  1.00  0.00     0.009 A 
ATOM     75  C   UNL     1      -7.271   1.936 -16.588  1.00  0.00     0.009 A 
ATOM     76  C   UNL     1      -5.272   1.001 -18.295  1.00  0.00     0.001 A 
ATOM     77  C   UNL     1      -7.020   2.591 -17.794  1.00  0.00     0.001 A 
ATOM     78  C   UNL     1      -6.017   2.127 -18.643  1.00  0.00     0.000 A 
ENDBRANCH  59  73
BRANCH  60  79
ATOM     79  C   UNL     1      -8.482  -3.632  -7.401  1.00  0.00    -0.014 A 
ATOM     80  C   UNL     1      -8.721  -5.013  -7.313  1.00  0.00     0.009 A 
ATOM     81  C   UNL     1      -8.591  -2.856  -6.236  1.00  0.00     0.009 A 
ATOM     82  C   UNL     1      -9.114  -5.591  -6.102  1.00  0.00     0.001 A 
ATOM     83  C   UNL     1      -8.946  -3.442  -5.019  1.00  0.00     0.001 A 
ATOM     84  C   UNL     1      -9.225  -4.805  -4.957  1.00  0.00     0.000 A 
ENDBRANCH  60  79
BRANCH  72  85
ATOM     85  C   UNL     1     -11.974  -2.976 -13.389  1.00  0.00    -0.014 A 
ATOM     86  C   UNL     1     -13.161  -2.439 -12.870  1.00  0.00     0.009 A 
ATOM     87  C   UNL     1     -12.047  -3.964 -14.383  1.00  0.00     0.009 A 
ATOM     88  C   UNL     1     -14.397  -2.913 -13.310  1.00  0.00     0.001 A 
ATOM     89  C   UNL     1     -13.283  -4.407 -14.850  1.00  0.00     0.001 A 
ATOM     90  C   UNL     1     -14.456  -3.890 -14.304  1.00  0.00     0.000 A 
ENDBRANCH  72  85
ENDBRANCH  46  47
ENDBRANCH  38  41
ENDBRANCH  36  37
ENDBRANCH  35  36
ENDBRANCH  34  35
ENDBRANCH  33  34
ENDBRANCH  32  33
ENDBRANCH   1  32
TORSDOF 19
