REMARK SMILES O=C(NCCCCCCNC(=O)c1sccc1S(=O)(=O)Nc1ccccc1N1CCCCC1)c1ccc(-c2c3nc(c(-c4ccccc4)c4ccc([nH]4)c(-c4ccccc4)c4nc(c(-c5ccccc5)c5ccc2[nH]5)C=C4)C=C3)cc1
REMARK SMILES IDX 7 1 6 2 5 3 4 4 3 5 1 6 2 7 34 9 35 10 81 11 36 12 80 13
REMARK SMILES IDX 37 14 38 15 39 16 74 17 40 18 79 19 73 20 75 21 41 22 78 23
REMARK SMILES IDX 72 24 71 25 42 27 64 28 49 29 63 30 50 31 53 32 62 33 76 34
REMARK SMILES IDX 51 35 52 36 61 38 77 39 54 40 43 41 44 42 48 43 45 44 47 45
REMARK SMILES IDX 46 46 65 47 66 48 70 49 67 50 69 51 68 52 55 53 56 54 60 55
REMARK SMILES IDX 57 56 59 57 58 58 8 59 9 60 10 61 11 62 12 64 13 65 14 66
REMARK SMILES IDX 17 67 15 68 16 69 18 70 19 71 20 72 21 73 22 75 23 76 27 77
REMARK SMILES IDX 24 78 26 79 25 80 28 81 29 82 33 83 30 84 32 85 31 86
REMARK H PARENT 3 8 75 26 53 37 10 63 21 74
REMARK Flexibility Score: inf
ROOT
ATOM      1  C   UNL     1       4.566   2.862  -2.908  1.00  0.00     0.002 C 
ENDROOT
BRANCH   1   2
ATOM      2  C   UNL     1       4.154   1.497  -3.473  1.00  0.00     0.002 C 
BRANCH   2   3
ATOM      3  C   UNL     1       4.573   0.266  -2.682  1.00  0.00     0.021 C 
BRANCH   3   4
ATOM      4  C   UNL     1       4.221   0.301  -1.210  1.00  0.00     0.116 C 
BRANCH   4   5
ATOM      5  N   UNL     1       2.797   0.388  -0.940  1.00  0.00    -0.352 N 
ATOM      6  O   UNL     1       0.902  -0.081   0.213  1.00  0.00    -0.269 OA
ATOM      7  C   UNL     1       2.115  -0.176   0.117  1.00  0.00     0.251 C 
ATOM      8  H   UNL     1       2.260   0.907  -1.581  1.00  0.00     0.163 HD
BRANCH   7   9
ATOM      9  C   UNL     1       2.893  -0.947   1.113  1.00  0.00     0.039 A 
ATOM     10  C   UNL     1       4.062  -0.409   1.651  1.00  0.00     0.014 A 
ATOM     11  C   UNL     1       2.500  -2.250   1.430  1.00  0.00     0.014 A 
ATOM     12  C   UNL     1       4.927  -1.229   2.358  1.00  0.00     0.010 A 
ATOM     13  C   UNL     1       3.318  -3.037   2.246  1.00  0.00     0.010 A 
ATOM     14  C   UNL     1       4.554  -2.543   2.690  1.00  0.00    -0.014 A 
BRANCH  14  15
ATOM     15  C   UNL     1       5.450  -3.326   3.578  1.00  0.00     0.031 A 
ATOM     16  C   UNL     1       6.112  -4.596   3.123  1.00  0.00     0.074 A 
ATOM     17  C   UNL     1       5.710  -2.825   4.802  1.00  0.00     0.049 A 
ATOM     18  N   UNL     1       6.965  -5.351   3.771  1.00  0.00    -0.248 NA
ATOM     19  C   UNL     1       5.774  -5.093   1.780  1.00  0.00     0.031 C 
ATOM     20  C   UNL     1       5.112  -1.606   5.356  1.00  0.00     0.029 A 
ATOM     21  N   UNL     1       6.570  -3.245   5.782  1.00  0.00    -0.354 N 
ATOM     22  C   UNL     1       7.250  -6.417   2.928  1.00  0.00     0.074 A 
ATOM     23  C   UNL     1       6.464  -6.225   1.728  1.00  0.00     0.031 C 
ATOM     24  C   UNL     1       5.682  -1.333   6.537  1.00  0.00     0.029 A 
ATOM     25  C   UNL     1       6.621  -2.397   6.861  1.00  0.00     0.049 A 
ATOM     26  H   UNL     1       7.100  -4.072   5.718  1.00  0.00     0.167 HD
ATOM     27  C   UNL     1       8.094  -7.458   3.137  1.00  0.00     0.031 A 
ATOM     28  C   UNL     1       7.332  -2.470   7.999  1.00  0.00     0.031 A 
ATOM     29  C   UNL     1       8.873  -7.643   4.335  1.00  0.00     0.049 A 
ATOM     30  C   UNL     1       8.251  -3.634   8.201  1.00  0.00     0.074 A 
ATOM     31  C   UNL     1       9.756  -8.666   4.642  1.00  0.00     0.029 A 
ATOM     32  N   UNL     1       8.867  -6.784   5.423  1.00  0.00    -0.354 N 
ATOM     33  N   UNL     1       8.509  -4.630   7.390  1.00  0.00    -0.248 NA
ATOM     34  C   UNL     1       8.975  -3.686   9.477  1.00  0.00     0.031 C 
ATOM     35  C   UNL     1      10.252  -8.445   5.931  1.00  0.00     0.029 A 
ATOM     36  C   UNL     1       9.719  -7.259   6.407  1.00  0.00     0.049 A 
ATOM     37  H   UNL     1       8.335  -5.957   5.487  1.00  0.00     0.167 HD
ATOM     38  C   UNL     1       9.423  -5.431   8.057  1.00  0.00     0.074 A 
ATOM     39  C   UNL     1       9.706  -4.780   9.321  1.00  0.00     0.031 C 
ATOM     40  C   UNL     1       9.971  -6.606   7.665  1.00  0.00     0.031 A 
BRANCH  27  41
ATOM     41  C   UNL     1       8.206  -8.495   2.053  1.00  0.00    -0.014 A 
ATOM     42  C   UNL     1       8.890  -8.228   0.858  1.00  0.00     0.009 A 
ATOM     43  C   UNL     1       7.673  -9.779   2.257  1.00  0.00     0.009 A 
ATOM     44  C   UNL     1       9.019  -9.218  -0.121  1.00  0.00     0.001 A 
ATOM     45  C   UNL     1       7.824 -10.773   1.288  1.00  0.00     0.001 A 
ATOM     46  C   UNL     1       8.492 -10.490   0.097  1.00  0.00     0.000 A 
ENDBRANCH  27  41
BRANCH  28  47
ATOM     47  C   UNL     1       7.169  -1.422   9.039  1.00  0.00    -0.014 A 
ATOM     48  C   UNL     1       8.210  -0.528   9.328  1.00  0.00     0.009 A 
ATOM     49  C   UNL     1       5.955  -1.300   9.734  1.00  0.00     0.009 A 
ATOM     50  C   UNL     1       8.044   0.453  10.309  1.00  0.00     0.001 A 
ATOM     51  C   UNL     1       5.781  -0.298  10.688  1.00  0.00     0.001 A 
ATOM     52  C   UNL     1       6.829   0.571  10.982  1.00  0.00     0.000 A 
ENDBRANCH  28  47
BRANCH  40  53
ATOM     53  C   UNL     1      10.935  -7.245   8.622  1.00  0.00    -0.014 A 
ATOM     54  C   UNL     1      10.486  -7.842   9.811  1.00  0.00     0.009 A 
ATOM     55  C   UNL     1      12.308  -7.244   8.335  1.00  0.00     0.009 A 
ATOM     56  C   UNL     1      11.399  -8.385  10.716  1.00  0.00     0.001 A 
ATOM     57  C   UNL     1      13.216  -7.813   9.228  1.00  0.00     0.001 A 
ATOM     58  C   UNL     1      12.762  -8.371  10.423  1.00  0.00     0.000 A 
ENDBRANCH  40  53
ENDBRANCH  14  15
ENDBRANCH   7   9
ENDBRANCH   4   5
ENDBRANCH   3   4
ENDBRANCH   2   3
ENDBRANCH   1   2
BRANCH   1  59
ATOM     59  C   UNL     1       6.033   3.014  -2.478  1.00  0.00     0.021 C 
BRANCH  59  60
ATOM     60  C   UNL     1       7.043   2.715  -3.577  1.00  0.00     0.116 C 
BRANCH  60  61
ATOM     61  N   UNL     1       7.077   3.756  -4.571  1.00  0.00    -0.351 N 
ATOM     62  C   UNL     1       8.120   4.170  -5.351  1.00  0.00     0.262 C 
ATOM     63  H   UNL     1       6.229   4.237  -4.708  1.00  0.00     0.163 HD
ATOM     64  O   UNL     1       7.969   5.251  -5.926  1.00  0.00    -0.268 OA
BRANCH  62  65
ATOM     65  C   UNL     1       9.351   3.413  -5.415  1.00  0.00     0.112 A 
ATOM     66  S   UNL     1      10.772   4.356  -5.091  1.00  0.00    -0.137 S 
ATOM     67  C   UNL     1       9.686   2.109  -5.752  1.00  0.00     0.111 A 
ATOM     68  C   UNL     1      11.815   3.045  -5.361  1.00  0.00     0.067 A 
ATOM     69  C   UNL     1      11.118   1.909  -5.689  1.00  0.00     0.035 A 
BRANCH  67  70
ATOM     70  S   UNL     1       8.678   0.744  -6.127  1.00  0.00     0.263 S 
ATOM     71  O   UNL     1       9.554  -0.124  -6.892  1.00  0.00    -0.201 OA
ATOM     72  O   UNL     1       8.272   0.285  -4.812  1.00  0.00    -0.201 OA
BRANCH  70  73
ATOM     73  N   UNL     1       7.271   0.850  -7.022  1.00  0.00    -0.277 N 
ATOM     74  H   UNL     1       6.834   0.008  -7.285  1.00  0.00     0.180 HD
BRANCH  73  75
ATOM     75  C   UNL     1       6.658   2.068  -7.434  1.00  0.00     0.072 A 
ATOM     76  C   UNL     1       5.327   2.266  -7.041  1.00  0.00     0.029 A 
ATOM     77  C   UNL     1       7.312   3.010  -8.254  1.00  0.00     0.061 A 
ATOM     78  C   UNL     1       4.665   3.455  -7.329  1.00  0.00     0.002 A 
ATOM     79  C   UNL     1       6.623   4.205  -8.526  1.00  0.00     0.028 A 
ATOM     80  C   UNL     1       5.325   4.437  -8.054  1.00  0.00     0.002 A 
BRANCH  77  81
ATOM     81  N   UNL     1       8.554   2.766  -8.819  1.00  0.00    -0.370 N 
ATOM     82  C   UNL     1       9.611   3.775  -8.828  1.00  0.00     0.116 C 
ATOM     83  C   UNL     1       8.749   1.548  -9.611  1.00  0.00     0.116 C 
ATOM     84  C   UNL     1      10.043   4.108 -10.250  1.00  0.00     0.021 C 
ATOM     85  C   UNL     1       9.159   1.906 -11.037  1.00  0.00     0.021 C 
ATOM     86  C   UNL     1      10.365   2.840 -11.035  1.00  0.00     0.004 C 
ENDBRANCH  77  81
ENDBRANCH  73  75
ENDBRANCH  70  73
ENDBRANCH  67  70
ENDBRANCH  62  65
ENDBRANCH  60  61
ENDBRANCH  59  60
ENDBRANCH   1  59
TORSDOF 17
