REMARK SMILES CS(=O)(=O)c1ccc(-c2cc(Cl)cc3c2O[C@H](C(F)(F)F)C(C(=O)NCCCCCCNC(=O)c2ccc(-c4c5nc(c(-c6ccccc6)c6ccc([nH]6)c(-c6ccccc6)c6nc(c(-c7ccccc7)c7ccc4[nH]7)C=C6)C=C5)cc2)=C3)cc1
REMARK SMILES IDX 28 1 27 2 26 3 25 4 23 5 24 6 22 8 9 9 10 10 15 11 11 12
REMARK SMILES IDX 14 13 16 14 12 15 13 16 83 17 17 18 8 19 5 20 6 21 85 22
REMARK SMILES IDX 7 23 84 24 2 25 1 26 3 27 4 28 18 29 19 30 20 31 21 32 29 33
REMARK SMILES IDX 30 34 31 35 32 36 33 37 34 39 35 40 36 41 82 42 37 43 81 44
REMARK SMILES IDX 38 45 39 46 40 47 75 48 41 49 80 50 74 51 76 52 42 53 79 54
REMARK SMILES IDX 73 55 72 56 43 58 65 59 50 60 64 61 51 62 54 63 63 64 77 65
REMARK SMILES IDX 52 66 53 67 62 69 78 70 55 71 44 72 45 73 49 74 46 75 48 76
REMARK SMILES IDX 47 77 66 78 67 79 71 80 68 81 70 82 69 83 56 84 57 85 61 86
REMARK SMILES IDX 58 87 60 88 59 89
REMARK H PARENT 25 7 32 38 76 57 54 68
REMARK Flexibility Score: inf
ROOT
ATOM      1  C   UNL     1       1.085   6.440  14.273  1.00  0.00     0.002 C 
ENDROOT
BRANCH   1   2
ATOM      2  C   UNL     1      -0.061   6.610  13.260  1.00  0.00     0.021 C 
BRANCH   2   3
ATOM      3  C   UNL     1       0.322   7.359  11.975  1.00  0.00     0.116 C 
BRANCH   3   4
ATOM      4  N   UNL     1       1.398   6.660  11.302  1.00  0.00    -0.352 N 
ATOM      5  C   UNL     1       1.316   6.096  10.071  1.00  0.00     0.251 C 
ATOM      6  O   UNL     1       1.683   4.940   9.900  1.00  0.00    -0.270 OA
ATOM      7  H   UNL     1       2.258   6.589  11.776  1.00  0.00     0.163 HD
BRANCH   5   8
ATOM      8  C   UNL     1       0.928   7.003   8.952  1.00  0.00     0.067 C 
ATOM      9  C   UNL     1       1.539   4.434   5.860  1.00  0.00     0.026 A 
ATOM     10  C   UNL     1       2.806   3.829   6.080  1.00  0.00     0.033 A 
ATOM     11  C   UNL     1       1.252   5.572   6.641  1.00  0.00     0.135 A 
ATOM     12  C   UNL     1       3.783   4.394   6.896  1.00  0.00     0.042 A 
ATOM     13  C   UNL     1       2.303   6.194   7.367  1.00  0.00     0.019 A 
ATOM     14  O   UNL     1      -0.028   6.095   6.796  1.00  0.00    -0.475 OA
ATOM     15  Cl  UNL     1       5.269   3.569   7.147  1.00  0.00    -0.084 Cl
ATOM     16  C   UNL     1       3.565   5.621   7.487  1.00  0.00     0.032 A 
ATOM     17  C   UNL     1       1.975   7.376   8.191  1.00  0.00     0.025 C 
ATOM     18  C   UNL     1      -0.315   6.587   8.182  1.00  0.00     0.314 C 
BRANCH   9  19
ATOM     19  C   UNL     1       0.789   3.883   4.694  1.00  0.00    -0.015 A 
ATOM     20  C   UNL     1       0.385   2.731   2.125  1.00  0.00     0.067 A 
ATOM     21  C   UNL     1       0.492   1.906   3.241  1.00  0.00     0.021 A 
ATOM     22  C   UNL     1       0.383   4.121   2.291  1.00  0.00     0.021 A 
ATOM     23  C   UNL     1       0.668   2.483   4.512  1.00  0.00     0.010 A 
ATOM     24  C   UNL     1       0.570   4.689   3.565  1.00  0.00     0.010 A 
BRANCH  20  25
ATOM     25  S   UNL     1       0.319   2.083   0.463  1.00  0.00     0.175 S 
ATOM     26  C   UNL     1       1.076   0.480   0.451  1.00  0.00     0.163 C 
ATOM     27  O   UNL     1       1.161   2.938  -0.351  1.00  0.00    -0.224 OA
ATOM     28  O   UNL     1      -1.089   1.907   0.153  1.00  0.00    -0.224 OA
ENDBRANCH  20  25
ENDBRANCH   9  19
BRANCH  18  29
ATOM     29  C   UNL     1      -1.291   7.788   8.198  1.00  0.00     0.429 C 
ATOM     30  F   UNL     1      -1.385   8.404   6.999  1.00  0.00    -0.167 F 
ATOM     31  F   UNL     1      -2.536   7.405   8.568  1.00  0.00    -0.167 F 
ATOM     32  F   UNL     1      -0.916   8.745   9.092  1.00  0.00    -0.167 F 
ENDBRANCH  18  29
ENDBRANCH   5   8
ENDBRANCH   3   4
ENDBRANCH   2   3
ENDBRANCH   1   2
BRANCH   1  33
ATOM     33  C   UNL     1       1.767   7.742  14.697  1.00  0.00     0.002 C 
BRANCH  33  34
ATOM     34  C   UNL     1       0.833   8.765  15.341  1.00  0.00     0.021 C 
BRANCH  34  35
ATOM     35  C   UNL     1       0.059   8.244  16.546  1.00  0.00     0.116 C 
BRANCH  35  36
ATOM     36  N   UNL     1       0.934   7.816  17.627  1.00  0.00    -0.352 N 
ATOM     37  C   UNL     1       0.874   8.126  18.962  1.00  0.00     0.251 C 
ATOM     38  H   UNL     1       1.673   7.222  17.363  1.00  0.00     0.163 HD
ATOM     39  O   UNL     1       1.792   7.816  19.714  1.00  0.00    -0.269 OA
BRANCH  37  40
ATOM     40  C   UNL     1      -0.295   8.862  19.486  1.00  0.00     0.039 A 
ATOM     41  C   UNL     1      -0.080   9.941  20.346  1.00  0.00     0.014 A 
ATOM     42  C   UNL     1      -1.594   8.498  19.121  1.00  0.00     0.014 A 
ATOM     43  C   UNL     1      -1.167  10.693  20.791  1.00  0.00     0.010 A 
ATOM     44  C   UNL     1      -2.668   9.297  19.500  1.00  0.00     0.010 A 
ATOM     45  C   UNL     1      -2.466  10.399  20.343  1.00  0.00    -0.014 A 
BRANCH  45  46
ATOM     46  C   UNL     1      -3.617  11.248  20.738  1.00  0.00     0.031 A 
ATOM     47  C   UNL     1      -4.743  10.676  21.552  1.00  0.00     0.074 A 
ATOM     48  C   UNL     1      -3.679  12.522  20.306  1.00  0.00     0.049 A 
ATOM     49  N   UNL     1      -5.837  11.260  21.972  1.00  0.00    -0.248 NA
ATOM     50  C   UNL     1      -4.642   9.255  21.919  1.00  0.00     0.031 C 
ATOM     51  C   UNL     1      -2.680  13.178  19.459  1.00  0.00     0.029 A 
ATOM     52  N   UNL     1      -4.627  13.491  20.514  1.00  0.00    -0.354 N 
ATOM     53  C   UNL     1      -6.561  10.275  22.633  1.00  0.00     0.074 A 
ATOM     54  C   UNL     1      -5.808   9.046  22.512  1.00  0.00     0.031 C 
ATOM     55  C   UNL     1      -3.055  14.447  19.241  1.00  0.00     0.029 A 
ATOM     56  C   UNL     1      -4.338  14.683  19.896  1.00  0.00     0.049 A 
ATOM     57  H   UNL     1      -5.437  13.346  21.054  1.00  0.00     0.167 HD
ATOM     58  C   UNL     1      -7.738  10.387  23.294  1.00  0.00     0.031 A 
ATOM     59  C   UNL     1      -5.030  15.837  19.852  1.00  0.00     0.031 A 
ATOM     60  C   UNL     1      -8.485  11.611  23.411  1.00  0.00     0.049 A 
ATOM     61  C   UNL     1      -6.331  15.941  20.594  1.00  0.00     0.074 A 
ATOM     62  C   UNL     1      -9.647  11.848  24.124  1.00  0.00     0.029 A 
ATOM     63  N   UNL     1      -8.152  12.803  22.783  1.00  0.00    -0.354 N 
ATOM     64  N   UNL     1      -6.954  15.028  21.300  1.00  0.00    -0.248 NA
ATOM     65  C   UNL     1      -7.017  17.239  20.547  1.00  0.00     0.031 C 
ATOM     66  C   UNL     1     -10.055  13.162  23.870  1.00  0.00     0.029 A 
ATOM     67  C   UNL     1      -9.109  13.766  23.058  1.00  0.00     0.049 A 
ATOM     68  H   UNL     1      -7.353  12.943  22.225  1.00  0.00     0.167 HD
ATOM     69  C   UNL     1      -8.096  15.645  21.795  1.00  0.00     0.074 A 
ATOM     70  C   UNL     1      -8.065  17.016  21.328  1.00  0.00     0.031 C 
ATOM     71  C   UNL     1      -9.079  15.122  22.569  1.00  0.00     0.031 A 
BRANCH  58  72
ATOM     72  C   UNL     1      -8.300   9.136  23.917  1.00  0.00    -0.014 A 
ATOM     73  C   UNL     1      -7.666   8.503  24.999  1.00  0.00     0.009 A 
ATOM     74  C   UNL     1      -9.490   8.586  23.416  1.00  0.00     0.009 A 
ATOM     75  C   UNL     1      -8.182   7.318  25.529  1.00  0.00     0.001 A 
ATOM     76  C   UNL     1     -10.024   7.422  23.971  1.00  0.00     0.001 A 
ATOM     77  C   UNL     1      -9.362   6.781  25.017  1.00  0.00     0.000 A 
ENDBRANCH  58  72
BRANCH  59  78
ATOM     78  C   UNL     1      -4.491  16.985  19.076  1.00  0.00    -0.014 A 
ATOM     79  C   UNL     1      -3.985  18.118  19.728  1.00  0.00     0.009 A 
ATOM     80  C   UNL     1      -4.452  16.934  17.673  1.00  0.00     0.009 A 
ATOM     81  C   UNL     1      -3.466  19.185  18.990  1.00  0.00     0.001 A 
ATOM     82  C   UNL     1      -3.905  17.989  16.940  1.00  0.00     0.001 A 
ATOM     83  C   UNL     1      -3.418  19.116  17.599  1.00  0.00     0.000 A 
ENDBRANCH  59  78
BRANCH  71  84
ATOM     84  C   UNL     1     -10.198  16.043  22.972  1.00  0.00    -0.014 A 
ATOM     85  C   UNL     1     -11.143  16.498  22.038  1.00  0.00     0.009 A 
ATOM     86  C   UNL     1     -10.329  16.434  24.314  1.00  0.00     0.009 A 
ATOM     87  C   UNL     1     -12.172  17.355  22.435  1.00  0.00     0.001 A 
ATOM     88  C   UNL     1     -11.377  17.263  24.714  1.00  0.00     0.001 A 
ATOM     89  C   UNL     1     -12.291  17.732  23.772  1.00  0.00     0.000 A 
ENDBRANCH  71  84
ENDBRANCH  45  46
ENDBRANCH  37  40
ENDBRANCH  35  36
ENDBRANCH  34  35
ENDBRANCH  33  34
ENDBRANCH   1  33
TORSDOF 16
