REMARK SMILES [NH3+][C@H](c1cc(F)c(F)cc1C(=O)NCCCCCCNC(=O)c1ccc(-c2c3nc(c(-c4ccccc4)c4ccc([nH]4)c(-c4ccccc4)c4nc(c(-c5ccccc5)c5ccc2[nH]5)C=C4)C=C3)cc1)C(F)(F)F
REMARK SMILES IDX 16 1 15 2 14 3 13 4 11 5 12 6 10 8 3 9 4 10 5 11 9 12 6 13
REMARK SMILES IDX 7 14 8 15 2 16 1 17 71 21 72 22 73 23 74 24 17 25 18 26
REMARK SMILES IDX 19 27 20 28 21 29 22 31 23 32 24 33 70 34 25 35 69 36 26 37
REMARK SMILES IDX 27 38 28 39 63 40 29 41 68 42 62 43 64 44 30 45 67 46 61 47
REMARK SMILES IDX 60 48 31 50 53 51 38 52 52 53 39 54 42 55 51 56 65 57 40 58
REMARK SMILES IDX 41 59 50 61 66 62 43 63 32 64 33 65 37 66 34 67 36 68 35 69
REMARK SMILES IDX 54 70 55 71 59 72 56 73 58 74 57 75 44 76 45 77 49 78 46 79
REMARK SMILES IDX 48 80 47 81
REMARK H PARENT 13 7 1 18 1 19 1 20 20 30 64 49 42 60
REMARK Flexibility Score: inf
ROOT
ATOM      1  C   UNL     1       0.175   1.135  -5.208  1.00  0.00     0.002 C 
ENDROOT
BRANCH   1   2
ATOM      2  C   UNL     1       0.196   0.650  -3.758  1.00  0.00     0.021 C 
BRANCH   2   3
ATOM      3  C   UNL     1       1.565   0.763  -3.063  1.00  0.00     0.116 C 
BRANCH   3   4
ATOM      4  N   UNL     1       1.558   1.930  -2.200  1.00  0.00    -0.352 N 
ATOM      5  C   UNL     1       1.403   2.175  -0.866  1.00  0.00     0.251 C 
ATOM      6  O   UNL     1       1.310   3.369  -0.561  1.00  0.00    -0.269 OA
ATOM      7  H   UNL     1       1.703   2.760  -2.708  1.00  0.00     0.163 HD
BRANCH   5   8
ATOM      8  C   UNL     1       1.429   1.192   0.267  1.00  0.00     0.052 A 
ATOM      9  C   UNL     1       0.740  -0.038   0.426  1.00  0.00     0.034 A 
ATOM     10  C   UNL     1       0.832  -0.712   1.674  1.00  0.00     0.053 A 
ATOM     11  C   UNL     1       1.534  -0.172   2.744  1.00  0.00     0.159 A 
ATOM     12  C   UNL     1       2.143   1.703   1.381  1.00  0.00     0.056 A 
ATOM     13  F   UNL     1       1.556  -0.824   3.913  1.00  0.00    -0.204 F 
ATOM     14  C   UNL     1       2.183   1.035   2.599  1.00  0.00     0.159 A 
ATOM     15  F   UNL     1       2.839   1.581   3.632  1.00  0.00    -0.204 F 
BRANCH   9  16
ATOM     16  C   UNL     1      -0.133  -0.690  -0.630  1.00  0.00     0.319 C 
BRANCH  16  17
ATOM     17  N   UNL     1       0.507  -1.957  -1.090  1.00  0.00    -0.344 N 
ATOM     18  H   UNL     1      -0.079  -2.396  -1.800  1.00  0.00     0.345 HD
ATOM     19  H   UNL     1       0.615  -2.591  -0.298  1.00  0.00     0.345 HD
ATOM     20  H   UNL     1       1.424  -1.750  -1.487  1.00  0.00     0.345 HD
ENDBRANCH  16  17
BRANCH  16  21
ATOM     21  C   UNL     1      -1.640  -0.817  -0.234  1.00  0.00     0.445 C 
ATOM     22  F   UNL     1      -2.147   0.369   0.165  1.00  0.00    -0.165 F 
ATOM     23  F   UNL     1      -2.376  -1.234  -1.294  1.00  0.00    -0.165 F 
ATOM     24  F   UNL     1      -1.823  -1.712   0.762  1.00  0.00    -0.165 F 
ENDBRANCH  16  21
ENDBRANCH   9  16
ENDBRANCH   5   8
ENDBRANCH   3   4
ENDBRANCH   2   3
ENDBRANCH   1   2
BRANCH   1  25
ATOM     25  C   UNL     1       0.845   0.182  -6.201  1.00  0.00     0.002 C 
BRANCH  25  26
ATOM     26  C   UNL     1       0.311  -1.256  -6.198  1.00  0.00     0.021 C 
BRANCH  26  27
ATOM     27  C   UNL     1      -1.198  -1.388  -6.390  1.00  0.00     0.116 C 
BRANCH  27  28
ATOM     28  N   UNL     1      -1.624  -0.878  -7.683  1.00  0.00    -0.352 N 
ATOM     29  C   UNL     1      -2.147  -1.549  -8.760  1.00  0.00     0.251 C 
ATOM     30  H   UNL     1      -1.521   0.094  -7.805  1.00  0.00     0.163 HD
ATOM     31  O   UNL     1      -2.213  -1.001  -9.855  1.00  0.00    -0.269 OA
BRANCH  29  32
ATOM     32  C   UNL     1      -2.630  -2.938  -8.605  1.00  0.00     0.039 A 
ATOM     33  C   UNL     1      -2.306  -3.880  -9.586  1.00  0.00     0.014 A 
ATOM     34  C   UNL     1      -3.439  -3.299  -7.524  1.00  0.00     0.014 A 
ATOM     35  C   UNL     1      -2.753  -5.197  -9.457  1.00  0.00     0.010 A 
ATOM     36  C   UNL     1      -3.832  -4.626  -7.364  1.00  0.00     0.010 A 
ATOM     37  C   UNL     1      -3.501  -5.585  -8.333  1.00  0.00    -0.014 A 
BRANCH  37  38
ATOM     38  C   UNL     1      -3.953  -6.987  -8.158  1.00  0.00     0.031 A 
ATOM     39  C   UNL     1      -5.419  -7.319  -8.183  1.00  0.00     0.074 A 
ATOM     40  C   UNL     1      -3.048  -7.953  -7.910  1.00  0.00     0.049 A 
ATOM     41  N   UNL     1      -6.008  -8.473  -7.991  1.00  0.00    -0.248 NA
ATOM     42  C   UNL     1      -6.346  -6.204  -8.432  1.00  0.00     0.031 C 
ATOM     43  C   UNL     1      -1.600  -7.755  -7.820  1.00  0.00     0.029 A 
ATOM     44  N   UNL     1      -3.216  -9.295  -7.677  1.00  0.00    -0.354 N 
ATOM     45  C   UNL     1      -7.371  -8.218  -8.075  1.00  0.00     0.074 A 
ATOM     46  C   UNL     1      -7.523  -6.795  -8.291  1.00  0.00     0.031 C 
ATOM     47  C   UNL     1      -1.011  -8.936  -7.573  1.00  0.00     0.029 A 
ATOM     48  C   UNL     1      -2.039  -9.965  -7.451  1.00  0.00     0.049 A 
ATOM     49  H   UNL     1      -4.097  -9.735  -7.672  1.00  0.00     0.167 HD
ATOM     50  C   UNL     1      -8.405  -9.091  -7.994  1.00  0.00     0.031 A 
ATOM     51  C   UNL     1      -1.812 -11.262  -7.172  1.00  0.00     0.031 A 
ATOM     52  C   UNL     1      -8.254 -10.507  -7.790  1.00  0.00     0.049 A 
ATOM     53  C   UNL     1      -2.973 -12.211  -7.085  1.00  0.00     0.074 A 
ATOM     54  C   UNL     1      -9.235 -11.483  -7.758  1.00  0.00     0.029 A 
ATOM     55  N   UNL     1      -7.044 -11.148  -7.578  1.00  0.00    -0.354 N 
ATOM     56  N   UNL     1      -4.252 -11.967  -7.236  1.00  0.00    -0.248 NA
ATOM     57  C   UNL     1      -2.656 -13.618  -6.802  1.00  0.00     0.031 C 
ATOM     58  C   UNL     1      -8.621 -12.709  -7.479  1.00  0.00     0.029 A 
ATOM     59  C   UNL     1      -7.254 -12.504  -7.390  1.00  0.00     0.049 A 
ATOM     60  H   UNL     1      -6.165 -10.705  -7.564  1.00  0.00     0.167 HD
ATOM     61  C   UNL     1      -4.891 -13.191  -7.089  1.00  0.00     0.074 A 
ATOM     62  C   UNL     1      -3.857 -14.178  -6.852  1.00  0.00     0.031 C 
ATOM     63  C   UNL     1      -6.216 -13.472  -7.148  1.00  0.00     0.031 A 
BRANCH  50  64
ATOM     64  C   UNL     1      -9.793  -8.527  -8.115  1.00  0.00    -0.014 A 
ATOM     65  C   UNL     1     -10.274  -8.028  -9.337  1.00  0.00     0.009 A 
ATOM     66  C   UNL     1     -10.640  -8.510  -6.996  1.00  0.00     0.009 A 
ATOM     67  C   UNL     1     -11.558  -7.486  -9.424  1.00  0.00     0.001 A 
ATOM     68  C   UNL     1     -11.934  -7.994  -7.093  1.00  0.00     0.001 A 
ATOM     69  C   UNL     1     -12.387  -7.472  -8.304  1.00  0.00     0.000 A 
ENDBRANCH  50  64
BRANCH  51  70
ATOM     70  C   UNL     1      -0.420 -11.741  -6.975  1.00  0.00    -0.014 A 
ATOM     71  C   UNL     1       0.205 -12.528  -7.954  1.00  0.00     0.009 A 
ATOM     72  C   UNL     1       0.295 -11.403  -5.815  1.00  0.00     0.009 A 
ATOM     73  C   UNL     1       1.512 -12.982  -7.768  1.00  0.00     0.001 A 
ATOM     74  C   UNL     1       1.611 -11.838  -5.643  1.00  0.00     0.001 A 
ATOM     75  C   UNL     1       2.216 -12.633  -6.616  1.00  0.00     0.000 A 
ENDBRANCH  51  70
BRANCH  63  76
ATOM     76  C   UNL     1      -6.619 -14.909  -6.979  1.00  0.00    -0.014 A 
ATOM     77  C   UNL     1      -6.574 -15.535  -5.724  1.00  0.00     0.009 A 
ATOM     78  C   UNL     1      -7.089 -15.633  -8.086  1.00  0.00     0.009 A 
ATOM     79  C   UNL     1      -6.962 -16.869  -5.588  1.00  0.00     0.001 A 
ATOM     80  C   UNL     1      -7.501 -16.958  -7.942  1.00  0.00     0.001 A 
ATOM     81  C   UNL     1      -7.429 -17.578  -6.695  1.00  0.00     0.000 A 
ENDBRANCH  63  76
ENDBRANCH  37  38
ENDBRANCH  29  32
ENDBRANCH  27  28
ENDBRANCH  26  27
ENDBRANCH  25  26
ENDBRANCH   1  25
TORSDOF 16
