REMARK SMILES O=C(NCCCCCCNC(=O)C1(CCc2ccccn2)CCCCC1)c1ccc(-c2c3nc(c(-c4ccccc4)c4ccc([nH]4)c(-c4ccccc4)c4nc(c(-c5ccccc5)c5ccc2[nH]5)C=C4)C=C3)cc1
REMARK SMILES IDX 7 1 6 2 5 3 4 4 3 5 1 6 2 7 27 9 28 10 74 11 29 12 73 13
REMARK SMILES IDX 30 14 31 15 32 16 67 17 33 18 72 19 66 20 68 21 34 22 71 23
REMARK SMILES IDX 65 24 64 25 35 27 57 28 42 29 56 30 43 31 46 32 55 33 69 34
REMARK SMILES IDX 44 35 45 36 54 38 70 39 47 40 36 41 37 42 41 43 38 44 40 45
REMARK SMILES IDX 39 46 58 47 59 48 63 49 60 50 62 51 61 52 48 53 49 54 53 55
REMARK SMILES IDX 50 56 52 57 51 58 8 59 9 60 10 61 11 62 12 64 13 65 22 66
REMARK SMILES IDX 26 67 23 68 25 69 24 70 14 71 15 72 16 73 17 74 21 75 18 76
REMARK SMILES IDX 20 77 19 78
REMARK H PARENT 3 8 68 26 46 37 10 63
REMARK Flexibility Score: inf
ROOT
ATOM      1  C   UNL     1       4.476   4.260   0.583  1.00  0.00     0.002 C 
ENDROOT
BRANCH   1   2
ATOM      2  C   UNL     1       3.865   3.697  -0.707  1.00  0.00     0.002 C 
BRANCH   2   3
ATOM      3  C   UNL     1       4.379   2.319  -1.123  1.00  0.00     0.021 C 
BRANCH   3   4
ATOM      4  C   UNL     1       4.206   1.246  -0.059  1.00  0.00     0.116 C 
BRANCH   4   5
ATOM      5  N   UNL     1       2.806   1.004   0.243  1.00  0.00    -0.352 N 
ATOM      6  O   UNL     1       0.892  -0.191   0.288  1.00  0.00    -0.269 OA
ATOM      7  C   UNL     1       2.112  -0.179   0.210  1.00  0.00     0.251 C 
ATOM      8  H   UNL     1       2.284   1.796   0.507  1.00  0.00     0.163 HD
BRANCH   7   9
ATOM      9  C   UNL     1       2.862  -1.444   0.066  1.00  0.00     0.039 A 
ATOM     10  C   UNL     1       4.020  -1.663   0.817  1.00  0.00     0.014 A 
ATOM     11  C   UNL     1       2.399  -2.417  -0.822  1.00  0.00     0.014 A 
ATOM     12  C   UNL     1       4.783  -2.799   0.590  1.00  0.00     0.010 A 
ATOM     13  C   UNL     1       3.118  -3.603  -0.979  1.00  0.00     0.010 A 
ATOM     14  C   UNL     1       4.322  -3.796  -0.285  1.00  0.00    -0.014 A 
BRANCH  14  15
ATOM     15  C   UNL     1       5.070  -5.072  -0.377  1.00  0.00     0.031 A 
ATOM     16  C   UNL     1       5.724  -5.505  -1.656  1.00  0.00     0.074 A 
ATOM     17  C   UNL     1       5.163  -5.833   0.732  1.00  0.00     0.049 A 
ATOM     18  N   UNL     1       6.417  -6.590  -1.894  1.00  0.00    -0.248 NA
ATOM     19  C   UNL     1       5.582  -4.615  -2.818  1.00  0.00     0.031 C 
ATOM     20  C   UNL     1       4.561  -5.510   2.030  1.00  0.00     0.029 A 
ATOM     21  N   UNL     1       5.809  -7.020   0.954  1.00  0.00    -0.354 N 
ATOM     22  C   UNL     1       6.774  -6.526  -3.235  1.00  0.00     0.074 A 
ATOM     23  C   UNL     1       6.206  -5.305  -3.765  1.00  0.00     0.031 C 
ATOM     24  C   UNL     1       4.909  -6.447   2.922  1.00  0.00     0.029 A 
ATOM     25  C   UNL     1       5.691  -7.472   2.246  1.00  0.00     0.049 A 
ATOM     26  H   UNL     1       6.310  -7.502   0.257  1.00  0.00     0.167 HD
ATOM     27  C   UNL     1       7.511  -7.407  -3.953  1.00  0.00     0.031 A 
ATOM     28  C   UNL     1       6.140  -8.602   2.821  1.00  0.00     0.031 A 
ATOM     29  C   UNL     1       8.068  -8.622  -3.417  1.00  0.00     0.049 A 
ATOM     30  C   UNL     1       6.915  -9.577   1.986  1.00  0.00     0.074 A 
ATOM     31  C   UNL     1       8.852  -9.567  -4.057  1.00  0.00     0.029 A 
ATOM     32  N   UNL     1       7.893  -9.065  -2.114  1.00  0.00    -0.354 N 
ATOM     33  N   UNL     1       7.275  -9.483   0.729  1.00  0.00    -0.248 NA
ATOM     34  C   UNL     1       7.347 -10.813   2.650  1.00  0.00     0.031 C 
ATOM     35  C   UNL     1       9.104 -10.608  -3.158  1.00  0.00     0.029 A 
ATOM     36  C   UNL     1       8.532 -10.282  -1.939  1.00  0.00     0.049 A 
ATOM     37  H   UNL     1       7.390  -8.585  -1.417  1.00  0.00     0.167 HD
ATOM     38  C   UNL     1       7.992 -10.638   0.456  1.00  0.00     0.074 A 
ATOM     39  C   UNL     1       8.037 -11.404   1.685  1.00  0.00     0.031 C 
ATOM     40  C   UNL     1       8.562 -11.031  -0.709  1.00  0.00     0.031 A 
BRANCH  27  41
ATOM     41  C   UNL     1       7.736  -7.108  -5.410  1.00  0.00    -0.014 A 
ATOM     42  C   UNL     1       8.595  -6.078  -5.823  1.00  0.00     0.009 A 
ATOM     43  C   UNL     1       7.124  -7.911  -6.386  1.00  0.00     0.009 A 
ATOM     44  C   UNL     1       8.815  -5.842  -7.182  1.00  0.00     0.001 A 
ATOM     45  C   UNL     1       7.367  -7.691  -7.744  1.00  0.00     0.001 A 
ATOM     46  C   UNL     1       8.207  -6.652  -8.141  1.00  0.00     0.000 A 
ENDBRANCH  27  41
BRANCH  28  47
ATOM     47  C   UNL     1       5.841  -8.878   4.249  1.00  0.00    -0.014 A 
ATOM     48  C   UNL     1       6.865  -8.887   5.207  1.00  0.00     0.009 A 
ATOM     49  C   UNL     1       4.522  -9.129   4.663  1.00  0.00     0.009 A 
ATOM     50  C   UNL     1       6.578  -9.169   6.545  1.00  0.00     0.001 A 
ATOM     51  C   UNL     1       4.234  -9.376   6.005  1.00  0.00     0.001 A 
ATOM     52  C   UNL     1       5.263  -9.407   6.943  1.00  0.00     0.000 A 
ENDBRANCH  28  47
BRANCH  40  53
ATOM     53  C   UNL     1       9.314 -12.331  -0.692  1.00  0.00    -0.014 A 
ATOM     54  C   UNL     1       8.643 -13.561  -0.605  1.00  0.00     0.009 A 
ATOM     55  C   UNL     1      10.714 -12.322  -0.790  1.00  0.00     0.009 A 
ATOM     56  C   UNL     1       9.365 -14.756  -0.577  1.00  0.00     0.001 A 
ATOM     57  C   UNL     1      11.430 -13.520  -0.795  1.00  0.00     0.001 A 
ATOM     58  C   UNL     1      10.756 -14.734  -0.678  1.00  0.00     0.000 A 
ENDBRANCH  40  53
ENDBRANCH  14  15
ENDBRANCH   7   9
ENDBRANCH   4   5
ENDBRANCH   3   4
ENDBRANCH   2   3
ENDBRANCH   1   2
BRANCH   1  59
ATOM     59  C   UNL     1       6.006   4.198   0.665  1.00  0.00     0.021 C 
BRANCH  59  60
ATOM     60  C   UNL     1       6.706   4.872  -0.507  1.00  0.00     0.116 C 
BRANCH  60  61
ATOM     61  N   UNL     1       6.678   6.309  -0.374  1.00  0.00    -0.356 N 
ATOM     62  C   UNL     1       7.608   7.291  -0.413  1.00  0.00     0.226 C 
ATOM     63  H   UNL     1       5.769   6.655  -0.218  1.00  0.00     0.163 HD
ATOM     64  O   UNL     1       7.159   8.425  -0.197  1.00  0.00    -0.274 OA
BRANCH  62  65
ATOM     65  C   UNL     1       9.117   7.079  -0.736  1.00  0.00     0.050 C 
ATOM     66  C   UNL     1       9.819   8.294  -0.026  1.00  0.00     0.017 C 
ATOM     67  C   UNL     1       9.711   5.770  -0.155  1.00  0.00     0.017 C 
ATOM     68  C   UNL     1      11.335   8.205   0.103  1.00  0.00     0.001 C 
ATOM     69  C   UNL     1      11.224   5.730   0.055  1.00  0.00     0.001 C 
ATOM     70  C   UNL     1      11.733   6.931   0.823  1.00  0.00     0.000 C 
BRANCH  65  71
ATOM     71  C   UNL     1       9.375   7.207  -2.275  1.00  0.00     0.023 C 
BRANCH  71  72
ATOM     72  C   UNL     1       8.656   6.240  -3.244  1.00  0.00     0.057 C 
BRANCH  72  73
ATOM     73  C   UNL     1       7.198   6.527  -3.522  1.00  0.00     0.040 A 
ATOM     74  C   UNL     1       6.349   5.505  -3.944  1.00  0.00     0.024 A 
ATOM     75  N   UNL     1       6.752   7.787  -3.326  1.00  0.00    -0.261 NA
ATOM     76  C   UNL     1       4.983   5.763  -4.053  1.00  0.00     0.003 A 
ATOM     77  C   UNL     1       5.425   8.013  -3.432  1.00  0.00     0.111 A 
ATOM     78  C   UNL     1       4.506   7.037  -3.771  1.00  0.00     0.020 A 
ENDBRANCH  72  73
ENDBRANCH  71  72
ENDBRANCH  65  71
ENDBRANCH  62  65
ENDBRANCH  60  61
ENDBRANCH  59  60
ENDBRANCH   1  59
TORSDOF 16
