REMARK SMILES O=C(NCCCCCCNC(=O)[C@@H]1C[N@@H+](CC(=O)c2ccc[nH]2)CC[NH2+]1)c1ccc(-c2c3nc(c(-c4ccccc4)c4ccc([nH]4)c(-c4ccccc4)c4nc(c(-c5ccccc5)c5ccc2[nH]5)C=C4)C=C3)cc1
REMARK SMILES IDX 7 1 6 2 5 3 4 4 3 5 1 6 2 7 27 9 28 10 74 11 29 12 73 13
REMARK SMILES IDX 30 14 31 15 32 16 67 17 33 18 72 19 66 20 68 21 34 22 71 23
REMARK SMILES IDX 65 24 64 25 35 27 57 28 42 29 56 30 43 31 46 32 55 33 69 34
REMARK SMILES IDX 44 35 45 36 54 38 70 39 47 40 36 41 37 42 41 43 38 44 40 45
REMARK SMILES IDX 39 46 58 47 59 48 63 49 60 50 62 51 61 52 48 53 49 54 53 55
REMARK SMILES IDX 50 56 52 57 51 58 8 59 9 60 10 61 11 62 12 64 13 65 14 66
REMARK SMILES IDX 26 67 15 68 25 69 24 72 16 74 17 75 18 76 19 77 20 78 23 79
REMARK SMILES IDX 21 80 22 81
REMARK H PARENT 3 8 68 26 46 37 10 63 26 70 26 71 15 73 23 82
REMARK Flexibility Score: inf
ROOT
ATOM      1  C   UNL     1       4.675   2.340   3.524  1.00  0.00     0.002 C 
ENDROOT
BRANCH   1   2
ATOM      2  C   UNL     1       3.848   2.623   2.263  1.00  0.00     0.002 C 
BRANCH   2   3
ATOM      3  C   UNL     1       4.366   1.943   0.994  1.00  0.00     0.021 C 
BRANCH   3   4
ATOM      4  C   UNL     1       4.361   0.421   1.079  1.00  0.00     0.116 C 
BRANCH   4   5
ATOM      5  N   UNL     1       3.056  -0.162   0.848  1.00  0.00    -0.352 N 
ATOM      6  O   UNL     1       1.140  -0.672  -0.205  1.00  0.00    -0.269 OA
ATOM      7  C   UNL     1       2.247  -0.137  -0.259  1.00  0.00     0.251 C 
ATOM      8  H   UNL     1       2.687  -0.659   1.614  1.00  0.00     0.163 HD
BRANCH   7   9
ATOM      9  C   UNL     1       2.643   0.580  -1.495  1.00  0.00     0.039 A 
ATOM     10  C   UNL     1       3.949   0.559  -1.992  1.00  0.00     0.014 A 
ATOM     11  C   UNL     1       1.645   1.275  -2.196  1.00  0.00     0.014 A 
ATOM     12  C   UNL     1       4.276   1.287  -3.126  1.00  0.00     0.010 A 
ATOM     13  C   UNL     1       1.953   1.960  -3.373  1.00  0.00     0.010 A 
ATOM     14  C   UNL     1       3.272   1.952  -3.841  1.00  0.00    -0.014 A 
BRANCH  14  15
ATOM     15  C   UNL     1       3.611   2.330  -5.232  1.00  0.00     0.031 A 
ATOM     16  C   UNL     1       3.651   1.084  -6.144  1.00  0.00     0.074 A 
ATOM     17  C   UNL     1       3.942   3.632  -5.477  1.00  0.00     0.049 A 
ATOM     18  N   UNL     1       4.319   0.872  -7.236  1.00  0.00    -0.248 NA
ATOM     19  C   UNL     1       2.883  -0.131  -5.744  1.00  0.00     0.031 C 
ATOM     20  C   UNL     1       3.818   4.734  -4.498  1.00  0.00     0.029 A 
ATOM     21  N   UNL     1       4.458   4.295  -6.572  1.00  0.00    -0.354 N 
ATOM     22  C   UNL     1       3.952  -0.403  -7.723  1.00  0.00     0.074 A 
ATOM     23  C   UNL     1       3.132  -1.006  -6.719  1.00  0.00     0.031 C 
ATOM     24  C   UNL     1       4.309   5.887  -5.005  1.00  0.00     0.029 A 
ATOM     25  C   UNL     1       4.795   5.656  -6.353  1.00  0.00     0.049 A 
ATOM     26  H   UNL     1       4.584   3.855  -7.444  1.00  0.00     0.167 HD
ATOM     27  C   UNL     1       4.260  -0.854  -8.973  1.00  0.00     0.031 A 
ATOM     28  C   UNL     1       5.459   6.525  -7.177  1.00  0.00     0.031 A 
ATOM     29  C   UNL     1       5.119   0.062  -9.637  1.00  0.00     0.049 A 
ATOM     30  C   UNL     1       5.654   5.815  -8.447  1.00  0.00     0.074 A 
ATOM     31  C   UNL     1       6.444   0.370  -9.483  1.00  0.00     0.029 A 
ATOM     32  N   UNL     1       4.513   1.042 -10.381  1.00  0.00    -0.354 N 
ATOM     33  N   UNL     1       4.723   5.594  -9.322  1.00  0.00    -0.248 NA
ATOM     34  C   UNL     1       6.982   5.275  -8.766  1.00  0.00     0.031 C 
ATOM     35  C   UNL     1       6.489   1.760  -9.723  1.00  0.00     0.029 A 
ATOM     36  C   UNL     1       5.238   2.190 -10.179  1.00  0.00     0.049 A 
ATOM     37  H   UNL     1       3.715   0.942 -10.949  1.00  0.00     0.167 HD
ATOM     38  C   UNL     1       5.260   4.573 -10.064  1.00  0.00     0.074 A 
ATOM     39  C   UNL     1       6.695   4.667  -9.915  1.00  0.00     0.031 C 
ATOM     40  C   UNL     1       4.534   3.446 -10.269  1.00  0.00     0.031 A 
BRANCH  27  41
ATOM     41  C   UNL     1       3.687  -1.982  -9.784  1.00  0.00    -0.014 A 
ATOM     42  C   UNL     1       4.383  -2.367 -10.956  1.00  0.00     0.009 A 
ATOM     43  C   UNL     1       2.377  -2.448  -9.637  1.00  0.00     0.009 A 
ATOM     44  C   UNL     1       3.765  -3.086 -11.980  1.00  0.00     0.001 A 
ATOM     45  C   UNL     1       1.766  -3.201 -10.650  1.00  0.00     0.001 A 
ATOM     46  C   UNL     1       2.446  -3.489 -11.833  1.00  0.00     0.000 A 
ENDBRANCH  27  41
BRANCH  28  47
ATOM     47  C   UNL     1       6.066   7.907  -7.120  1.00  0.00    -0.014 A 
ATOM     48  C   UNL     1       5.955   8.816  -6.068  1.00  0.00     0.009 A 
ATOM     49  C   UNL     1       6.883   8.334  -8.207  1.00  0.00     0.009 A 
ATOM     50  C   UNL     1       6.684  10.028  -6.071  1.00  0.00     0.001 A 
ATOM     51  C   UNL     1       7.641   9.508  -8.198  1.00  0.00     0.001 A 
ATOM     52  C   UNL     1       7.550  10.356  -7.114  1.00  0.00     0.000 A 
ENDBRANCH  28  47
BRANCH  40  53
ATOM     53  C   UNL     1       3.030   3.618 -10.108  1.00  0.00    -0.014 A 
ATOM     54  C   UNL     1       2.329   4.503 -10.940  1.00  0.00     0.009 A 
ATOM     55  C   UNL     1       2.307   3.017  -9.061  1.00  0.00     0.009 A 
ATOM     56  C   UNL     1       0.973   4.788 -10.723  1.00  0.00     0.001 A 
ATOM     57  C   UNL     1       0.951   3.295  -8.841  1.00  0.00     0.001 A 
ATOM     58  C   UNL     1       0.284   4.187  -9.673  1.00  0.00     0.000 A 
ENDBRANCH  40  53
ENDBRANCH  14  15
ENDBRANCH   7   9
ENDBRANCH   4   5
ENDBRANCH   3   4
ENDBRANCH   2   3
ENDBRANCH   1   2
BRANCH   1  59
ATOM     59  C   UNL     1       6.195   2.436   3.333  1.00  0.00     0.021 C 
BRANCH  59  60
ATOM     60  C   UNL     1       6.642   3.731   2.662  1.00  0.00     0.116 C 
BRANCH  60  61
ATOM     61  N   UNL     1       6.540   4.853   3.551  1.00  0.00    -0.351 N 
ATOM     62  C   UNL     1       7.457   5.454   4.337  1.00  0.00     0.284 C 
ATOM     63  H   UNL     1       5.642   5.255   3.596  1.00  0.00     0.163 HD
ATOM     64  O   UNL     1       7.048   6.447   4.956  1.00  0.00    -0.268 OA
BRANCH  62  65
ATOM     65  C   UNL     1       8.914   5.001   4.511  1.00  0.00     0.328 C 
ATOM     66  C   UNL     1       9.811   6.222   4.196  1.00  0.00     0.339 C 
ATOM     67  N   UNL     1       9.392   3.802   3.771  1.00  0.00    -0.327 N 
ATOM     68  N   UNL     1      11.243   6.034   4.464  1.00  0.00    -0.318 N 
ATOM     69  C   UNL     1      10.781   3.528   4.211  1.00  0.00     0.323 C 
ATOM     70  H   UNL     1       9.374   3.982   2.767  1.00  0.00     0.347 HD
ATOM     71  H   UNL     1       8.791   3.000   3.962  1.00  0.00     0.347 HD
ATOM     72  C   UNL     1      11.730   4.732   3.981  1.00  0.00     0.324 C 
ATOM     73  H   UNL     1      11.741   6.721   3.897  1.00  0.00     0.348 HD
BRANCH  68  74
ATOM     74  C   UNL     1      11.658   6.411   5.832  1.00  0.00     0.346 C 
BRANCH  74  75
ATOM     75  C   UNL     1      11.373   5.389   6.941  1.00  0.00     0.232 C 
ATOM     76  O   UNL     1      12.180   4.500   7.176  1.00  0.00    -0.286 OA
BRANCH  75  77
ATOM     77  C   UNL     1      10.105   5.454   7.661  1.00  0.00     0.088 A 
ATOM     78  C   UNL     1       9.039   6.335   7.611  1.00  0.00     0.031 A 
ATOM     79  N   UNL     1       9.743   4.455   8.544  1.00  0.00    -0.359 N 
ATOM     80  C   UNL     1       7.964   5.760   8.337  1.00  0.00     0.020 A 
ATOM     81  C   UNL     1       8.430   4.597   8.903  1.00  0.00     0.083 A 
ATOM     82  H   UNL     1      10.342   3.745   8.869  1.00  0.00     0.166 HD
ENDBRANCH  75  77
ENDBRANCH  74  75
ENDBRANCH  68  74
ENDBRANCH  62  65
ENDBRANCH  60  61
ENDBRANCH  59  60
ENDBRANCH   1  59
TORSDOF 16
