REMARK SMILES C[C@H]1CCCCC[C@H]1NC(=O)c1csc(/C=C/C(=O)NCCCCCCNC(=O)c2ccc(-c3c4nc(c(-c5ccccc5)c5ccc([nH]5)c(-c5ccccc5)c5nc(c(-c6ccccc6)c6ccc3[nH]6)C=C5)C=C4)cc2)c1
REMARK SMILES IDX 21 1 20 2 18 3 19 4 17 6 16 7 15 8 12 9 13 10 78 11 14 12
REMARK SMILES IDX 10 13 9 14 11 16 8 17 2 18 1 19 3 20 7 22 6 23 5 24 4 25
REMARK SMILES IDX 22 27 23 28 24 29 25 30 26 31 27 32 28 33 29 35 30 36 31 37
REMARK SMILES IDX 77 38 32 39 76 40 33 41 34 42 35 43 70 44 36 45 75 46 69 47
REMARK SMILES IDX 71 48 37 49 74 50 68 51 67 52 38 54 60 55 45 56 59 57 46 58
REMARK SMILES IDX 49 59 58 60 72 61 47 62 48 63 57 65 73 66 50 67 39 68 40 69
REMARK SMILES IDX 44 70 41 71 43 72 42 73 61 74 62 75 66 76 63 77 65 78 64 79
REMARK SMILES IDX 51 80 52 81 56 82 53 83 55 84 54 85
REMARK H PARENT 20 5 9 15 27 34 71 53 49 64
REMARK Flexibility Score: 80.00
ROOT
ATOM      1  C   UNL     1       7.174   4.042  -3.331  1.00  0.00     0.116 C 
ENDROOT
BRANCH   1   2
ATOM      2  N   UNL     1       8.277   3.099  -3.309  1.00  0.00    -0.353 N 
ATOM      3  C   UNL     1       8.311   1.744  -3.402  1.00  0.00     0.244 C 
ATOM      4  O   UNL     1       9.395   1.165  -3.384  1.00  0.00    -0.270 OA
ATOM      5  H   UNL     1       9.163   3.517  -3.208  1.00  0.00     0.163 HD
BRANCH   3   6
ATOM      6  C   UNL     1       7.079   0.962  -3.638  1.00  0.00     0.072 C 
ATOM      7  C   UNL     1       5.918   1.153  -2.997  1.00  0.00     0.024 C 
BRANCH   7   8
ATOM      8  C   UNL     1       4.724   0.444  -3.316  1.00  0.00     0.028 A 
ATOM      9  C   UNL     1       2.424  -0.047  -3.507  1.00  0.00     0.051 A 
ATOM     10  C   UNL     1       3.002  -1.222  -3.943  1.00  0.00     0.079 A 
ATOM     11  C   UNL     1       3.431   0.928  -3.215  1.00  0.00     0.033 A 
ATOM     12  S   UNL     1       4.706  -1.185  -3.865  1.00  0.00    -0.144 S 
BRANCH   9  13
ATOM     13  C   UNL     1       0.992   0.191  -3.390  1.00  0.00     0.252 C 
ATOM     14  N   UNL     1       0.251  -0.647  -2.592  1.00  0.00    -0.349 N 
ATOM     15  H   UNL     1      -0.720  -0.487  -2.595  1.00  0.00     0.164 HD
ATOM     16  O   UNL     1       0.449   1.147  -3.933  1.00  0.00    -0.269 OA
BRANCH  14  17
ATOM     17  C   UNL     1       0.707  -1.744  -1.737  1.00  0.00     0.085 C 
BRANCH  17  18
ATOM     18  C   UNL     1       0.358  -1.490  -0.255  1.00  0.00     0.008 C 
ATOM     19  C   UNL     1      -1.135  -1.243  -0.001  1.00  0.00     0.010 C 
BRANCH  18  20
ATOM     20  C   UNL     1       0.934  -2.580   0.672  1.00  0.00     0.005 CG0
ATOM     21  G   UNL     1       0.243  -3.939   0.595  1.00  0.00     0.000 G0
ENDBRANCH  18  20
ENDBRANCH  17  18
BRANCH  17  22
ATOM     22  C   UNL     1       0.220  -3.080  -2.317  1.00  0.00     0.025 C 
BRANCH  22  23
ATOM     23  C   UNL     1       1.083  -4.254  -1.864  1.00  0.00     0.002 C 
BRANCH  23  24
ATOM     24  C   UNL     1       0.707  -4.870  -0.522  1.00  0.00     0.000 C 
BRANCH  24  25
ATOM     25  C   UNL     1       0.243  -3.939   0.595  1.00  0.00     0.000 CG0
ATOM     26  G   UNL     1       0.934  -2.580   0.672  1.00  0.00     0.000 G0
ENDBRANCH  24  25
ENDBRANCH  23  24
ENDBRANCH  22  23
ENDBRANCH  17  22
ENDBRANCH  14  17
ENDBRANCH   9  13
ENDBRANCH   7   8
ENDBRANCH   3   6
ENDBRANCH   1   2
BRANCH   1  27
ATOM     27  C   UNL     1       7.041   4.721  -1.966  1.00  0.00     0.021 C 
BRANCH  27  28
ATOM     28  C   UNL     1       8.066   5.843  -1.751  1.00  0.00     0.002 C 
BRANCH  28  29
ATOM     29  C   UNL     1       7.955   7.008  -2.743  1.00  0.00     0.002 C 
BRANCH  29  30
ATOM     30  C   UNL     1       6.569   7.653  -2.821  1.00  0.00     0.021 C 
BRANCH  30  31
ATOM     31  C   UNL     1       6.091   8.258  -1.506  1.00  0.00     0.116 C 
BRANCH  31  32
ATOM     32  N   UNL     1       6.944   9.358  -1.082  1.00  0.00    -0.352 N 
ATOM     33  C   UNL     1       6.614  10.664  -0.829  1.00  0.00     0.251 C 
ATOM     34  H   UNL     1       7.894   9.131  -0.958  1.00  0.00     0.163 HD
ATOM     35  O   UNL     1       7.490  11.516  -0.720  1.00  0.00    -0.269 OA
BRANCH  33  36
ATOM     36  C   UNL     1       5.193  11.046  -0.697  1.00  0.00     0.039 A 
ATOM     37  C   UNL     1       4.744  12.214  -1.316  1.00  0.00     0.014 A 
ATOM     38  C   UNL     1       4.311  10.256   0.045  1.00  0.00     0.014 A 
ATOM     39  C   UNL     1       3.396  12.563  -1.234  1.00  0.00     0.010 A 
ATOM     40  C   UNL     1       2.954  10.561   0.059  1.00  0.00     0.010 A 
ATOM     41  C   UNL     1       2.485  11.722  -0.572  1.00  0.00    -0.014 A 
BRANCH  41  42
ATOM     42  C   UNL     1       1.036  12.042  -0.530  1.00  0.00     0.031 A 
ATOM     43  C   UNL     1       0.359  12.316   0.784  1.00  0.00     0.074 A 
ATOM     44  C   UNL     1       0.320  12.029  -1.671  1.00  0.00     0.049 A 
ATOM     45  N   UNL     1      -0.903  12.568   1.025  1.00  0.00    -0.248 NA
ATOM     46  C   UNL     1       1.204  12.275   1.988  1.00  0.00     0.031 C 
ATOM     47  C   UNL     1       0.853  11.740  -3.004  1.00  0.00     0.029 A 
ATOM     48  N   UNL     1      -1.015  12.260  -1.889  1.00  0.00    -0.354 N 
ATOM     49  C   UNL     1      -1.003  12.702   2.404  1.00  0.00     0.074 A 
ATOM     50  C   UNL     1       0.311  12.446   2.951  1.00  0.00     0.031 C 
ATOM     51  C   UNL     1      -0.137  11.843  -3.904  1.00  0.00     0.029 A 
ATOM     52  C   UNL     1      -1.381  12.158  -3.209  1.00  0.00     0.049 A 
ATOM     53  H   UNL     1      -1.649  12.479  -1.169  1.00  0.00     0.167 HD
ATOM     54  C   UNL     1      -2.087  13.029   3.148  1.00  0.00     0.031 A 
ATOM     55  C   UNL     1      -2.586  12.293  -3.794  1.00  0.00     0.031 A 
ATOM     56  C   UNL     1      -3.394  13.281   2.602  1.00  0.00     0.049 A 
ATOM     57  C   UNL     1      -3.780  12.626  -2.944  1.00  0.00     0.074 A 
ATOM     58  C   UNL     1      -4.546  13.668   3.264  1.00  0.00     0.029 A 
ATOM     59  N   UNL     1      -3.725  13.161   1.260  1.00  0.00    -0.354 N 
ATOM     60  N   UNL     1      -3.845  12.820  -1.649  1.00  0.00    -0.248 NA
ATOM     61  C   UNL     1      -5.066  12.769  -3.641  1.00  0.00     0.031 C 
ATOM     62  C   UNL     1      -5.588  13.720   2.334  1.00  0.00     0.029 A 
ATOM     63  C   UNL     1      -5.071  13.436   1.080  1.00  0.00     0.049 A 
ATOM     64  H   UNL     1      -3.097  12.917   0.542  1.00  0.00     0.167 HD
ATOM     65  C   UNL     1      -5.170  13.137  -1.380  1.00  0.00     0.074 A 
ATOM     66  C   UNL     1      -5.869  13.126  -2.648  1.00  0.00     0.031 C 
ATOM     67  C   UNL     1      -5.755  13.416  -0.189  1.00  0.00     0.031 A 
BRANCH  54  68
ATOM     68  C   UNL     1      -1.902  13.115   4.639  1.00  0.00    -0.014 A 
ATOM     69  C   UNL     1      -1.119  14.125   5.222  1.00  0.00     0.009 A 
ATOM     70  C   UNL     1      -2.540  12.187   5.477  1.00  0.00     0.009 A 
ATOM     71  C   UNL     1      -0.941  14.175   6.606  1.00  0.00     0.001 A 
ATOM     72  C   UNL     1      -2.389  12.260   6.863  1.00  0.00     0.001 A 
ATOM     73  C   UNL     1      -1.581  13.246   7.426  1.00  0.00     0.000 A 
ENDBRANCH  54  68
BRANCH  55  74
ATOM     74  C   UNL     1      -2.720  12.126  -5.266  1.00  0.00    -0.014 A 
ATOM     75  C   UNL     1      -3.010  13.227  -6.086  1.00  0.00     0.009 A 
ATOM     76  C   UNL     1      -2.556  10.864  -5.859  1.00  0.00     0.009 A 
ATOM     77  C   UNL     1      -3.160  13.063  -7.465  1.00  0.00     0.001 A 
ATOM     78  C   UNL     1      -2.675  10.709  -7.242  1.00  0.00     0.001 A 
ATOM     79  C   UNL     1      -2.987  11.806  -8.042  1.00  0.00     0.000 A 
ENDBRANCH  55  74
BRANCH  67  80
ATOM     80  C   UNL     1      -7.217  13.768  -0.205  1.00  0.00    -0.014 A 
ATOM     81  C   UNL     1      -8.201  12.805  -0.478  1.00  0.00     0.009 A 
ATOM     82  C   UNL     1      -7.616  15.079   0.099  1.00  0.00     0.009 A 
ATOM     83  C   UNL     1      -9.552  13.158  -0.483  1.00  0.00     0.001 A 
ATOM     84  C   UNL     1      -8.969  15.421   0.128  1.00  0.00     0.001 A 
ATOM     85  C   UNL     1      -9.935  14.463  -0.174  1.00  0.00     0.000 A 
ENDBRANCH  67  80
ENDBRANCH  41  42
ENDBRANCH  33  36
ENDBRANCH  31  32
ENDBRANCH  30  31
ENDBRANCH  29  30
ENDBRANCH  28  29
ENDBRANCH  27  28
ENDBRANCH   1  27
TORSDOF 16
