REMARK SMILES C[C@H]1CCc2sc3ncn4nc(/C=C\C(=O)NCCCCCCNC(=O)c5ccc(-c6c7nc(c(-c8ccccc8)c8ccc([nH]8)c(-c8ccccc8)c8nc(c(-c9ccccc9)c9ccc6[nH]9)C=C8)C=C7)cc5)nc4c3c2C1
REMARK SMILES IDX 21 1 20 2 19 3 18 4 17 5 15 6 16 7 14 9 13 10 12 11 1 12
REMARK SMILES IDX 2 13 3 14 79 15 4 16 78 17 5 18 77 19 6 20 7 21 76 22 8 23
REMARK SMILES IDX 10 24 75 25 9 26 11 27 22 28 23 29 24 30 25 31 26 33 27 34
REMARK SMILES IDX 28 35 74 36 29 37 73 38 30 39 31 40 32 41 67 42 33 43 72 44
REMARK SMILES IDX 66 45 68 46 34 47 71 48 65 49 64 50 35 52 57 53 42 54 56 55
REMARK SMILES IDX 43 56 46 57 55 58 69 59 44 60 45 61 54 63 70 64 47 65 36 66
REMARK SMILES IDX 37 67 41 68 38 69 40 70 39 71 58 72 59 73 63 74 60 75 62 76
REMARK SMILES IDX 61 77 48 78 49 79 53 80 50 81 52 82 51 83
REMARK H PARENT 17 8 24 32 68 51 46 62
REMARK Flexibility Score: inf
ROOT
ATOM      1  C   UNL     1       2.711  -4.014   1.170  1.00  0.00     0.002 C 
ENDROOT
BRANCH   1   2
ATOM      2  C   UNL     1       4.107  -3.485   0.822  1.00  0.00     0.002 C 
BRANCH   2   3
ATOM      3  C   UNL     1       4.720  -3.896  -0.525  1.00  0.00     0.021 C 
BRANCH   3   4
ATOM      4  C   UNL     1       3.800  -3.877  -1.737  1.00  0.00     0.116 C 
BRANCH   4   5
ATOM      5  N   UNL     1       3.747  -2.648  -2.498  1.00  0.00    -0.353 N 
ATOM      6  C   UNL     1       3.577  -2.502  -3.848  1.00  0.00     0.244 C 
ATOM      7  O   UNL     1       3.432  -1.380  -4.330  1.00  0.00    -0.270 OA
ATOM      8  H   UNL     1       3.845  -1.815  -1.982  1.00  0.00     0.163 HD
BRANCH   6   9
ATOM      9  C   UNL     1       3.748  -3.655  -4.769  1.00  0.00     0.075 C 
ATOM     10  C   UNL     1       3.107  -4.835  -4.811  1.00  0.00     0.057 C 
BRANCH  10  11
ATOM     11  C   UNL     1       2.077  -5.327  -3.959  1.00  0.00     0.175 A 
ATOM     12  C   UNL     1      -1.855  -0.843  -0.140  1.00  0.00     0.008 C 
ATOM     13  C   UNL     1      -0.414  -1.300   0.090  1.00  0.00    -0.009 C 
ATOM     14  C   UNL     1      -0.226  -1.795   1.540  1.00  0.00     0.009 C 
ATOM     15  C   UNL     1       0.009  -2.370  -0.947  1.00  0.00     0.041 C 
ATOM     16  C   UNL     1      -1.004  -3.088   1.849  1.00  0.00     0.047 C 
ATOM     17  C   UNL     1      -0.449  -3.751  -0.570  1.00  0.00    -0.020 A 
ATOM     18  C   UNL     1      -0.936  -4.045   0.695  1.00  0.00     0.011 A 
ATOM     19  C   UNL     1      -0.222  -4.965  -1.276  1.00  0.00     0.060 A 
ATOM     20  S   UNL     1      -1.415  -5.680   0.859  1.00  0.00    -0.120 S 
ATOM     21  C   UNL     1      -0.614  -6.112  -0.594  1.00  0.00     0.129 A 
ATOM     22  C   UNL     1       0.601  -5.242  -2.470  1.00  0.00     0.168 A 
ATOM     23  N   UNL     1      -0.277  -7.418  -0.874  1.00  0.00    -0.225 NA
ATOM     24  N   UNL     1       0.977  -6.536  -2.676  1.00  0.00    -0.201 N 
ATOM     25  N   UNL     1       1.248  -4.451  -3.290  1.00  0.00    -0.207 NA
ATOM     26  C   UNL     1       0.551  -7.595  -1.873  1.00  0.00     0.227 A 
ATOM     27  N   UNL     1       1.924  -6.624  -3.629  1.00  0.00    -0.145 NA
ENDBRANCH  10  11
ENDBRANCH   6   9
ENDBRANCH   4   5
ENDBRANCH   3   4
ENDBRANCH   2   3
ENDBRANCH   1   2
BRANCH   1  28
ATOM     28  C   UNL     1       2.468  -5.517   1.036  1.00  0.00     0.021 C 
BRANCH  28  29
ATOM     29  C   UNL     1       2.475  -6.247   2.361  1.00  0.00     0.116 C 
BRANCH  29  30
ATOM     30  N   UNL     1       1.335  -5.985   3.260  1.00  0.00    -0.352 N 
ATOM     31  C   UNL     1       1.032  -6.618   4.479  1.00  0.00     0.251 C 
ATOM     32  H   UNL     1       0.710  -5.281   2.972  1.00  0.00     0.163 HD
ATOM     33  O   UNL     1      -0.033  -6.501   5.033  1.00  0.00    -0.269 OA
BRANCH  31  34
ATOM     34  C   UNL     1       2.117  -7.432   5.078  1.00  0.00     0.039 A 
ATOM     35  C   UNL     1       1.986  -8.783   5.412  1.00  0.00     0.014 A 
ATOM     36  C   UNL     1       3.357  -6.851   4.963  1.00  0.00     0.014 A 
ATOM     37  C   UNL     1       3.145  -9.565   5.429  1.00  0.00     0.010 A 
ATOM     38  C   UNL     1       4.343  -7.686   4.544  1.00  0.00     0.010 A 
ATOM     39  C   UNL     1       4.326  -9.017   4.901  1.00  0.00    -0.014 A 
BRANCH  39  40
ATOM     40  C   UNL     1       5.534  -9.773   4.585  1.00  0.00     0.031 A 
ATOM     41  C   UNL     1       5.286 -11.122   4.035  1.00  0.00     0.074 A 
ATOM     42  C   UNL     1       6.786  -9.250   4.625  1.00  0.00     0.049 A 
ATOM     43  N   UNL     1       5.248 -12.218   4.713  1.00  0.00    -0.248 NA
ATOM     44  C   UNL     1       4.857 -11.271   2.636  1.00  0.00     0.031 C 
ATOM     45  C   UNL     1       7.217  -7.858   4.869  1.00  0.00     0.029 A 
ATOM     46  N   UNL     1       7.973  -9.869   4.382  1.00  0.00    -0.354 N 
ATOM     47  C   UNL     1       5.051 -13.229   3.787  1.00  0.00     0.074 A 
ATOM     48  C   UNL     1       4.602 -12.583   2.579  1.00  0.00     0.031 C 
ATOM     49  C   UNL     1       8.514  -7.698   4.531  1.00  0.00     0.029 A 
ATOM     50  C   UNL     1       9.063  -9.012   4.292  1.00  0.00     0.049 A 
ATOM     51  H   UNL     1       8.052 -10.844   4.278  1.00  0.00     0.167 HD
ATOM     52  C   UNL     1       5.575 -14.467   4.004  1.00  0.00     0.031 A 
ATOM     53  C   UNL     1      10.363  -9.354   4.153  1.00  0.00     0.031 A 
ATOM     54  C   UNL     1       6.130 -14.561   5.335  1.00  0.00     0.049 A 
ATOM     55  C   UNL     1      10.484 -10.726   4.684  1.00  0.00     0.074 A 
ATOM     56  C   UNL     1       5.633 -14.614   6.618  1.00  0.00     0.029 A 
ATOM     57  N   UNL     1       7.432 -14.131   5.418  1.00  0.00    -0.354 N 
ATOM     58  N   UNL     1      10.292 -11.021   5.938  1.00  0.00    -0.248 NA
ATOM     59  C   UNL     1      10.440 -11.848   3.760  1.00  0.00     0.031 C 
ATOM     60  C   UNL     1       6.596 -13.945   7.434  1.00  0.00     0.029 A 
ATOM     61  C   UNL     1       7.681 -13.566   6.642  1.00  0.00     0.049 A 
ATOM     62  H   UNL     1       8.097 -14.216   4.696  1.00  0.00     0.167 HD
ATOM     63  C   UNL     1       9.673 -12.257   5.907  1.00  0.00     0.074 A 
ATOM     64  C   UNL     1       9.951 -12.786   4.576  1.00  0.00     0.031 C 
ATOM     65  C   UNL     1       8.746 -12.602   6.848  1.00  0.00     0.031 A 
BRANCH  52  66
ATOM     66  C   UNL     1       6.045 -15.394   2.912  1.00  0.00    -0.014 A 
ATOM     67  C   UNL     1       6.465 -16.690   3.261  1.00  0.00     0.009 A 
ATOM     68  C   UNL     1       6.349 -14.959   1.608  1.00  0.00     0.009 A 
ATOM     69  C   UNL     1       7.180 -17.491   2.362  1.00  0.00     0.001 A 
ATOM     70  C   UNL     1       7.033 -15.769   0.697  1.00  0.00     0.001 A 
ATOM     71  C   UNL     1       7.465 -17.029   1.081  1.00  0.00     0.000 A 
ENDBRANCH  52  66
BRANCH  53  72
ATOM     72  C   UNL     1      11.383  -8.745   3.276  1.00  0.00    -0.014 A 
ATOM     73  C   UNL     1      12.726  -9.139   3.389  1.00  0.00     0.009 A 
ATOM     74  C   UNL     1      10.998  -8.039   2.122  1.00  0.00     0.009 A 
ATOM     75  C   UNL     1      13.630  -8.919   2.343  1.00  0.00     0.001 A 
ATOM     76  C   UNL     1      11.904  -7.816   1.079  1.00  0.00     0.001 A 
ATOM     77  C   UNL     1      13.212  -8.281   1.179  1.00  0.00     0.000 A 
ENDBRANCH  53  72
BRANCH  65  78
ATOM     78  C   UNL     1       8.729 -11.813   8.132  1.00  0.00    -0.014 A 
ATOM     79  C   UNL     1       8.386 -10.453   8.217  1.00  0.00     0.009 A 
ATOM     80  C   UNL     1       8.981 -12.510   9.323  1.00  0.00     0.009 A 
ATOM     81  C   UNL     1       8.311  -9.812   9.461  1.00  0.00     0.001 A 
ATOM     82  C   UNL     1       8.888 -11.877  10.563  1.00  0.00     0.001 A 
ATOM     83  C   UNL     1       8.556 -10.527  10.632  1.00  0.00     0.000 A 
ENDBRANCH  65  78
ENDBRANCH  39  40
ENDBRANCH  31  34
ENDBRANCH  29  30
ENDBRANCH  28  29
ENDBRANCH   1  28
TORSDOF 14
