REMARK SMILES O=C(NCCCCCCNC(=O)c1ccc2c(=O)[nH]c(N3CC[NH2+]CC3)nc2c1)c1ccc(-c2c3nc(c(-c4ccccc4)c4ccc([nH]4)c(-c4ccccc4)c4nc(c(-c5ccccc5)c5ccc2[nH]5)C=C4)C=C3)cc1
REMARK SMILES IDX 6 1 5 2 4 3 3 4 1 5 2 6 30 8 31 9 77 10 32 11 76 12 33 13
REMARK SMILES IDX 34 14 35 15 70 16 36 17 75 18 69 19 71 20 37 21 74 22 68 23
REMARK SMILES IDX 67 24 38 26 60 27 45 28 59 29 46 30 49 31 58 32 72 33 47 34
REMARK SMILES IDX 48 35 57 37 73 38 50 39 39 40 40 41 44 42 41 43 43 44 42 45
REMARK SMILES IDX 61 46 62 47 66 48 63 49 65 50 64 51 51 52 52 53 56 54 53 55
REMARK SMILES IDX 55 56 54 57 7 58 8 59 9 60 10 61 11 62 12 64 13 65 14 66
REMARK SMILES IDX 29 67 15 68 28 69 16 70 27 71 17 72 20 73 18 74 19 75 21 77
REMARK SMILES IDX 22 78 26 79 23 80 25 81 24 82
REMARK H PARENT 3 7 71 25 49 36 10 63 19 76 24 83 24 84
REMARK Flexibility Score: inf
ROOT
ATOM      1  C   UNL     1       4.122  -3.123  -2.426  1.00  0.00     0.002 C 
ENDROOT
BRANCH   1   2
ATOM      2  C   UNL     1       4.581  -2.490  -1.114  1.00  0.00     0.021 C 
BRANCH   2   3
ATOM      3  C   UNL     1       4.347  -0.990  -1.008  1.00  0.00     0.116 C 
BRANCH   3   4
ATOM      4  N   UNL     1       2.937  -0.634  -1.004  1.00  0.00    -0.352 N 
ATOM      5  O   UNL     1       1.007   0.190  -0.166  1.00  0.00    -0.269 OA
ATOM      6  C   UNL     1       2.228   0.105  -0.086  1.00  0.00     0.251 C 
ATOM      7  H   UNL     1       2.415  -0.971  -1.768  1.00  0.00     0.163 HD
BRANCH   6   8
ATOM      8  C   UNL     1       2.943   0.771   1.024  1.00  0.00     0.039 A 
ATOM      9  C   UNL     1       4.129   1.467   0.789  1.00  0.00     0.014 A 
ATOM     10  C   UNL     1       2.432   0.675   2.322  1.00  0.00     0.014 A 
ATOM     11  C   UNL     1       4.892   1.910   1.863  1.00  0.00     0.010 A 
ATOM     12  C   UNL     1       3.151   1.214   3.393  1.00  0.00     0.010 A 
ATOM     13  C   UNL     1       4.410   1.797   3.177  1.00  0.00    -0.014 A 
BRANCH  13  14
ATOM     14  C   UNL     1       5.229   2.332   4.295  1.00  0.00     0.031 A 
ATOM     15  C   UNL     1       5.775   1.430   5.370  1.00  0.00     0.074 A 
ATOM     16  C   UNL     1       5.522   3.647   4.310  1.00  0.00     0.049 A 
ATOM     17  N   UNL     1       6.560   1.730   6.375  1.00  0.00    -0.248 NA
ATOM     18  C   UNL     1       5.387   0.012   5.318  1.00  0.00     0.031 C 
ATOM     19  C   UNL     1       5.051   4.627   3.327  1.00  0.00     0.029 A 
ATOM     20  N   UNL     1       6.309   4.382   5.158  1.00  0.00    -0.354 N 
ATOM     21  C   UNL     1       6.737   0.550   7.088  1.00  0.00     0.074 A 
ATOM     22  C   UNL     1       5.959  -0.467   6.415  1.00  0.00     0.031 C 
ATOM     23  C   UNL     1       5.612   5.816   3.587  1.00  0.00     0.029 A 
ATOM     24  C   UNL     1       6.424   5.701   4.792  1.00  0.00     0.049 A 
ATOM     25  H   UNL     1       6.749   4.002   5.952  1.00  0.00     0.167 HD
ATOM     26  C   UNL     1       7.481   0.334   8.200  1.00  0.00     0.031 A 
ATOM     27  C   UNL     1       7.099   6.713   5.365  1.00  0.00     0.031 A 
ATOM     28  C   UNL     1       8.259   1.347   8.867  1.00  0.00     0.049 A 
ATOM     29  C   UNL     1       7.891   6.450   6.611  1.00  0.00     0.074 A 
ATOM     30  C   UNL     1       9.079   1.214   9.976  1.00  0.00     0.029 A 
ATOM     31  N   UNL     1       8.307   2.681   8.494  1.00  0.00    -0.354 N 
ATOM     32  N   UNL     1       8.082   5.318   7.244  1.00  0.00    -0.248 NA
ATOM     33  C   UNL     1       8.563   7.606   7.218  1.00  0.00     0.031 C 
ATOM     34  C   UNL     1       9.576   2.479  10.308  1.00  0.00     0.029 A 
ATOM     35  C   UNL     1       9.118   3.388   9.368  1.00  0.00     0.049 A 
ATOM     36  H   UNL     1       7.834   3.069   7.723  1.00  0.00     0.167 HD
ATOM     37  C   UNL     1       8.917   5.621   8.311  1.00  0.00     0.074 A 
ATOM     38  C   UNL     1       9.210   7.037   8.226  1.00  0.00     0.031 C 
ATOM     39  C   UNL     1       9.398   4.798   9.275  1.00  0.00     0.031 A 
BRANCH  26  40
ATOM     40  C   UNL     1       7.462  -1.050   8.794  1.00  0.00    -0.014 A 
ATOM     41  C   UNL     1       8.092  -2.132   8.159  1.00  0.00     0.009 A 
ATOM     42  C   UNL     1       6.838  -1.264  10.034  1.00  0.00     0.009 A 
ATOM     43  C   UNL     1       8.064  -3.405   8.736  1.00  0.00     0.001 A 
ATOM     44  C   UNL     1       6.838  -2.530  10.622  1.00  0.00     0.001 A 
ATOM     45  C   UNL     1       7.442  -3.602   9.968  1.00  0.00     0.000 A 
ENDBRANCH  26  40
BRANCH  27  46
ATOM     46  C   UNL     1       7.054   8.070   4.761  1.00  0.00    -0.014 A 
ATOM     47  C   UNL     1       8.198   8.626   4.168  1.00  0.00     0.009 A 
ATOM     48  C   UNL     1       5.864   8.815   4.769  1.00  0.00     0.009 A 
ATOM     49  C   UNL     1       8.156   9.909   3.618  1.00  0.00     0.001 A 
ATOM     50  C   UNL     1       5.816  10.083   4.189  1.00  0.00     0.001 A 
ATOM     51  C   UNL     1       6.965  10.633   3.624  1.00  0.00     0.000 A 
ENDBRANCH  27  46
BRANCH  39  52
ATOM     52  C   UNL     1      10.325   5.407  10.289  1.00  0.00    -0.014 A 
ATOM     53  C   UNL     1       9.859   6.302  11.265  1.00  0.00     0.009 A 
ATOM     54  C   UNL     1      11.687   5.068  10.272  1.00  0.00     0.009 A 
ATOM     55  C   UNL     1      10.747   6.878  12.175  1.00  0.00     0.001 A 
ATOM     56  C   UNL     1      12.566   5.620  11.204  1.00  0.00     0.001 A 
ATOM     57  C   UNL     1      12.098   6.534  12.147  1.00  0.00     0.000 A 
ENDBRANCH  39  52
ENDBRANCH  13  14
ENDBRANCH   6   8
ENDBRANCH   3   4
ENDBRANCH   2   3
ENDBRANCH   1   2
BRANCH   1  58
ATOM     58  C   UNL     1       4.694  -2.489  -3.697  1.00  0.00     0.002 C 
BRANCH  58  59
ATOM     59  C   UNL     1       6.221  -2.367  -3.748  1.00  0.00     0.021 C 
BRANCH  59  60
ATOM     60  C   UNL     1       6.981  -3.673  -3.532  1.00  0.00     0.116 C 
BRANCH  60  61
ATOM     61  N   UNL     1       6.685  -4.648  -4.566  1.00  0.00    -0.352 N 
ATOM     62  C   UNL     1       7.546  -5.276  -5.429  1.00  0.00     0.251 C 
ATOM     63  H   UNL     1       5.736  -4.892  -4.661  1.00  0.00     0.163 HD
ATOM     64  O   UNL     1       7.120  -5.940  -6.367  1.00  0.00    -0.269 OA
BRANCH  62  65
ATOM     65  C   UNL     1       9.001  -5.146  -5.220  1.00  0.00     0.041 A 
ATOM     66  C   UNL     1       9.566  -5.487  -3.983  1.00  0.00     0.015 A 
ATOM     67  C   UNL     1       9.802  -4.709  -6.281  1.00  0.00     0.043 A 
ATOM     68  C   UNL     1      10.934  -5.335  -3.790  1.00  0.00     0.017 A 
ATOM     69  C   UNL     1      11.177  -4.564  -6.100  1.00  0.00     0.081 A 
ATOM     70  C   UNL     1      11.722  -4.877  -4.850  1.00  0.00     0.066 A 
ATOM     71  N   UNL     1      11.967  -4.127  -7.178  1.00  0.00    -0.214 NA
ATOM     72  C   UNL     1      13.174  -4.733  -4.692  1.00  0.00     0.260 A 
ATOM     73  C   UNL     1      13.255  -4.099  -7.031  1.00  0.00     0.206 A 
ATOM     74  O   UNL     1      13.733  -4.891  -3.619  1.00  0.00    -0.269 OA
ATOM     75  N   UNL     1      13.850  -4.399  -5.835  1.00  0.00    -0.292 N 
ATOM     76  H   UNL     1      14.833  -4.373  -5.794  1.00  0.00     0.173 HD
BRANCH  73  77
ATOM     77  N   UNL     1      14.113  -3.734  -8.030  1.00  0.00    -0.331 N 
ATOM     78  C   UNL     1      13.806  -2.637  -8.948  1.00  0.00     0.181 C 
ATOM     79  C   UNL     1      15.240  -4.571  -8.450  1.00  0.00     0.181 C 
ATOM     80  C   UNL     1      15.084  -1.787  -9.154  1.00  0.00     0.282 C 
ATOM     81  C   UNL     1      16.487  -3.694  -8.674  1.00  0.00     0.282 C 
ATOM     82  N   UNL     1      16.257  -2.570  -9.606  1.00  0.00    -0.343 N 
ATOM     83  H   UNL     1      17.081  -1.969  -9.624  1.00  0.00     0.346 HD
ATOM     84  H   UNL     1      16.083  -2.935 -10.543  1.00  0.00     0.346 HD
ENDBRANCH  73  77
ENDBRANCH  62  65
ENDBRANCH  60  61
ENDBRANCH  59  60
ENDBRANCH  58  59
ENDBRANCH   1  58
TORSDOF 14
