REMARK SMILES C#CCOc1ccc(/C=C(\Sc2nc(C)n[nH]2)C(=O)NCCCCCCNC(=O)c2ccc(-c3c4nc(c(-c5ccccc5)c5ccc([nH]5)c(-c5ccccc5)c5nc(c(-c6ccccc6)c6ccc3[nH]6)C=C5)C=C4)cc2)cc1
REMARK SMILES IDX 22 1 21 2 20 3 18 4 19 5 10 7 9 8 8 9 5 10 6 11 79 12 7 13
REMARK SMILES IDX 78 14 4 15 3 16 2 17 1 18 11 19 12 20 13 21 17 22 14 23
REMARK SMILES IDX 16 24 15 26 23 27 24 28 25 29 26 30 27 31 28 32 29 34 30 35
REMARK SMILES IDX 31 36 77 37 32 38 76 39 33 40 34 41 35 42 70 43 36 44 75 45
REMARK SMILES IDX 69 46 71 47 37 48 74 49 68 50 67 51 38 53 60 54 45 55 59 56
REMARK SMILES IDX 46 57 49 58 58 59 72 60 47 61 48 62 57 64 73 65 50 66 39 67
REMARK SMILES IDX 40 68 44 69 41 70 43 71 42 72 61 73 62 74 66 75 63 76 65 77
REMARK SMILES IDX 64 78 51 79 52 80 56 81 53 82 55 83 54 84
REMARK H PARENT 20 6 17 25 27 33 71 52 49 63
REMARK Flexibility Score: inf
ROOT
ATOM      1  C   UNL     1      -4.048   8.997  -5.345  1.00  0.00     0.021 C 
ENDROOT
BRANCH   1   2
ATOM      2  C   UNL     1      -3.184   7.942  -6.040  1.00  0.00     0.116 C 
BRANCH   2   3
ATOM      3  N   UNL     1      -1.831   8.024  -5.543  1.00  0.00    -0.352 N 
ATOM      4  C   UNL     1      -1.189   7.246  -4.632  1.00  0.00     0.258 C 
ATOM      5  O   UNL     1      -0.060   7.591  -4.277  1.00  0.00    -0.269 OA
ATOM      6  H   UNL     1      -1.290   8.755  -5.922  1.00  0.00     0.163 HD
BRANCH   4   7
ATOM      7  C   UNL     1      -1.807   5.960  -4.136  1.00  0.00     0.081 C 
ATOM      8  C   UNL     1      -0.893   4.970  -4.198  1.00  0.00     0.029 C 
BRANCH   8   9
ATOM      9  C   UNL     1      -0.988   3.630  -3.659  1.00  0.00    -0.024 A 
ATOM     10  C   UNL     1      -1.573   1.308  -2.192  1.00  0.00     0.120 A 
ATOM     11  C   UNL     1      -2.253   1.600  -3.359  1.00  0.00     0.047 A 
ATOM     12  C   UNL     1      -0.419   2.067  -1.957  1.00  0.00     0.047 A 
ATOM     13  C   UNL     1      -1.945   2.737  -4.107  1.00  0.00     0.012 A 
ATOM     14  C   UNL     1      -0.115   3.219  -2.677  1.00  0.00     0.012 A 
BRANCH  10  15
ATOM     15  O   UNL     1      -2.137   0.274  -1.471  1.00  0.00    -0.481 OA
BRANCH  15  16
ATOM     16  C   UNL     1      -1.778   0.023  -0.086  1.00  0.00     0.318 C 
BRANCH  16  17
ATOM     17  C   UNL     1      -0.258   0.023  -0.086  1.00  0.00    -0.065 C 
ATOM     18  C   UNL     1       1.046   0.023  -0.086  1.00  0.00     0.007 C 
ENDBRANCH  16  17
ENDBRANCH  15  16
ENDBRANCH  10  15
ENDBRANCH   8   9
BRANCH   7  19
ATOM     19  S   UNL     1      -3.323   6.109  -3.304  1.00  0.00    -0.045 SA
BRANCH  19  20
ATOM     20  C   UNL     1      -4.180   4.612  -3.307  1.00  0.00     0.188 A 
ATOM     21  N   UNL     1      -4.639   3.837  -4.270  1.00  0.00    -0.206 NA
ATOM     22  N   UNL     1      -4.655   4.156  -2.115  1.00  0.00    -0.254 N 
ATOM     23  C   UNL     1      -5.279   2.818  -3.570  1.00  0.00     0.148 A 
ATOM     24  N   UNL     1      -5.361   3.023  -2.250  1.00  0.00    -0.158 NA
ATOM     25  H   UNL     1      -4.498   4.605  -1.253  1.00  0.00     0.192 HD
ATOM     26  C   UNL     1      -5.679   1.511  -4.157  1.00  0.00     0.092 C 
ENDBRANCH  19  20
ENDBRANCH   7  19
ENDBRANCH   4   7
ENDBRANCH   2   3
ENDBRANCH   1   2
BRANCH   1  27
ATOM     27  C   UNL     1      -3.819  10.416  -5.878  1.00  0.00     0.002 C 
BRANCH  27  28
ATOM     28  C   UNL     1      -3.976  10.578  -7.399  1.00  0.00     0.002 C 
BRANCH  28  29
ATOM     29  C   UNL     1      -5.247   9.968  -8.012  1.00  0.00     0.021 C 
BRANCH  29  30
ATOM     30  C   UNL     1      -6.510  10.700  -7.605  1.00  0.00     0.116 C 
BRANCH  30  31
ATOM     31  N   UNL     1      -6.571  12.051  -8.174  1.00  0.00    -0.352 N 
ATOM     32  C   UNL     1      -7.546  13.022  -8.000  1.00  0.00     0.251 C 
ATOM     33  H   UNL     1      -5.819  12.302  -8.757  1.00  0.00     0.163 HD
ATOM     34  O   UNL     1      -7.675  13.947  -8.775  1.00  0.00    -0.269 OA
BRANCH  32  35
ATOM     35  C   UNL     1      -8.406  12.908  -6.811  1.00  0.00     0.039 A 
ATOM     36  C   UNL     1      -9.776  13.187  -6.827  1.00  0.00     0.014 A 
ATOM     37  C   UNL     1      -7.782  12.452  -5.659  1.00  0.00     0.014 A 
ATOM     38  C   UNL     1     -10.506  12.960  -5.662  1.00  0.00     0.010 A 
ATOM     39  C   UNL     1      -8.539  11.957  -4.646  1.00  0.00     0.010 A 
ATOM     40  C   UNL     1      -9.864  12.348  -4.576  1.00  0.00    -0.014 A 
BRANCH  40  41
ATOM     41  C   UNL     1     -10.522  12.053  -3.318  1.00  0.00     0.031 A 
ATOM     42  C   UNL     1     -11.613  11.056  -3.420  1.00  0.00     0.074 A 
ATOM     43  C   UNL     1      -9.971  12.428  -2.141  1.00  0.00     0.049 A 
ATOM     44  N   UNL     1     -12.874  11.248  -3.237  1.00  0.00    -0.248 NA
ATOM     45  C   UNL     1     -11.278   9.713  -3.925  1.00  0.00     0.031 C 
ATOM     46  C   UNL     1      -8.677  13.088  -1.891  1.00  0.00     0.029 A 
ATOM     47  N   UNL     1     -10.407  12.173  -0.883  1.00  0.00    -0.354 N 
ATOM     48  C   UNL     1     -13.479  10.007  -3.412  1.00  0.00     0.074 A 
ATOM     49  C   UNL     1     -12.486   9.157  -4.019  1.00  0.00     0.031 C 
ATOM     50  C   UNL     1      -8.339  12.955  -0.588  1.00  0.00     0.029 A 
ATOM     51  C   UNL     1      -9.464  12.373   0.118  1.00  0.00     0.049 A 
ATOM     52  H   UNL     1     -11.323  11.868  -0.693  1.00  0.00     0.167 HD
ATOM     53  C   UNL     1     -14.664   9.707  -2.812  1.00  0.00     0.031 A 
ATOM     54  C   UNL     1      -9.601  12.049   1.428  1.00  0.00     0.031 A 
ATOM     55  C   UNL     1     -15.297  10.889  -2.283  1.00  0.00     0.049 A 
ATOM     56  C   UNL     1     -11.051  11.863   1.676  1.00  0.00     0.074 A 
ATOM     57  C   UNL     1     -15.796  12.054  -2.829  1.00  0.00     0.029 A 
ATOM     58  N   UNL     1     -15.088  11.156  -0.949  1.00  0.00    -0.354 N 
ATOM     59  N   UNL     1     -11.922  12.829   1.582  1.00  0.00    -0.248 NA
ATOM     60  C   UNL     1     -11.590  10.520   1.536  1.00  0.00     0.031 C 
ATOM     61  C   UNL     1     -15.399  13.081  -1.922  1.00  0.00     0.029 A 
ATOM     62  C   UNL     1     -14.758  12.483  -0.834  1.00  0.00     0.049 A 
ATOM     63  H   UNL     1     -15.163  10.510  -0.210  1.00  0.00     0.167 HD
ATOM     64  C   UNL     1     -13.017  12.260   0.945  1.00  0.00     0.074 A 
ATOM     65  C   UNL     1     -12.786  10.816   1.018  1.00  0.00     0.031 C 
ATOM     66  C   UNL     1     -13.851  13.011   0.165  1.00  0.00     0.031 A 
BRANCH  53  67
ATOM     67  C   UNL     1     -15.046   8.326  -2.344  1.00  0.00    -0.014 A 
ATOM     68  C   UNL     1     -16.313   8.142  -1.762  1.00  0.00     0.009 A 
ATOM     69  C   UNL     1     -14.128   7.268  -2.203  1.00  0.00     0.009 A 
ATOM     70  C   UNL     1     -16.616   6.995  -1.018  1.00  0.00     0.001 A 
ATOM     71  C   UNL     1     -14.440   6.104  -1.494  1.00  0.00     0.001 A 
ATOM     72  C   UNL     1     -15.675   5.980  -0.877  1.00  0.00     0.000 A 
ENDBRANCH  53  67
BRANCH  54  73
ATOM     73  C   UNL     1      -8.570  11.557   2.370  1.00  0.00    -0.014 A 
ATOM     74  C   UNL     1      -8.765  11.623   3.759  1.00  0.00     0.009 A 
ATOM     75  C   UNL     1      -7.514  10.756   1.897  1.00  0.00     0.009 A 
ATOM     76  C   UNL     1      -7.954  10.888   4.638  1.00  0.00     0.001 A 
ATOM     77  C   UNL     1      -6.707  10.020   2.773  1.00  0.00     0.001 A 
ATOM     78  C   UNL     1      -6.936  10.075   4.143  1.00  0.00     0.000 A 
ENDBRANCH  54  73
BRANCH  66  79
ATOM     79  C   UNL     1     -13.663  14.512   0.171  1.00  0.00    -0.014 A 
ATOM     80  C   UNL     1     -12.496  15.152  -0.290  1.00  0.00     0.009 A 
ATOM     81  C   UNL     1     -14.765  15.312   0.503  1.00  0.00     0.009 A 
ATOM     82  C   UNL     1     -12.432  16.548  -0.390  1.00  0.00     0.001 A 
ATOM     83  C   UNL     1     -14.708  16.703   0.385  1.00  0.00     0.001 A 
ATOM     84  C   UNL     1     -13.541  17.321  -0.057  1.00  0.00     0.000 A 
ENDBRANCH  66  79
ENDBRANCH  40  41
ENDBRANCH  32  35
ENDBRANCH  30  31
ENDBRANCH  29  30
ENDBRANCH  28  29
ENDBRANCH  27  28
ENDBRANCH   1  27
TORSDOF 19
