REMARK SMILES CC[C@@](C)(NC(=O)c1c(C)cc(C)[nH]c1=O)C(=O)NCCCCCCNC(=O)c1ccc(-c2c3nc(c(-c4ccccc4)c4ccc([nH]4)c(-c4ccccc4)c4nc(c(-c5ccccc5)c5ccc2[nH]5)C=C4)C=C3)cc1
REMARK SMILES IDX 22 1 21 2 20 3 19 4 17 5 18 6 3 8 4 9 2 10 1 11 5 12 6 13
REMARK SMILES IDX 7 15 8 16 9 17 15 18 10 19 11 20 14 21 16 22 12 23 13 25
REMARK SMILES IDX 23 26 24 27 25 28 26 29 27 30 28 32 29 33 30 34 76 35 31 36
REMARK SMILES IDX 75 37 32 38 33 39 34 40 69 41 35 42 74 43 68 44 70 45 36 46
REMARK SMILES IDX 73 47 67 48 66 49 37 51 59 52 44 53 58 54 45 55 48 56 57 57
REMARK SMILES IDX 71 58 46 59 47 60 56 62 72 63 49 64 38 65 39 66 43 67 40 68
REMARK SMILES IDX 42 69 41 70 60 71 61 72 65 73 62 74 64 75 63 76 50 77 51 78
REMARK SMILES IDX 55 79 52 80 54 81 53 82
REMARK H PARENT 19 7 5 14 14 24 26 31 70 50 48 61
REMARK Flexibility Score: inf
ROOT
ATOM      1  C   UNL     1       4.170   5.959   1.754  1.00  0.00     0.002 C 
ENDROOT
BRANCH   1   2
ATOM      2  C   UNL     1       2.641   5.860   1.711  1.00  0.00     0.021 C 
BRANCH   2   3
ATOM      3  C   UNL     1       1.978   5.436   0.402  1.00  0.00     0.116 C 
BRANCH   3   4
ATOM      4  N   UNL     1       2.408   4.185  -0.179  1.00  0.00    -0.354 N 
ATOM      5  C   UNL     1       2.037   2.879  -0.024  1.00  0.00     0.245 C 
ATOM      6  O   UNL     1       2.444   2.126  -0.922  1.00  0.00    -0.272 OA
ATOM      7  H   UNL     1       3.132   4.300  -0.835  1.00  0.00     0.163 HD
BRANCH   5   8
ATOM      8  C   UNL     1       1.019   2.369   1.066  1.00  0.00     0.116 C 
ATOM      9  C   UNL     1      -0.351   2.773   0.446  1.00  0.00     0.045 C 
BRANCH   8  10
ATOM     10  C   UNL     1       1.012   0.816   1.242  1.00  0.00     0.035 C 
ATOM     11  C   UNL     1       0.925  -0.055  -0.008  1.00  0.00     0.007 C 
ENDBRANCH   8  10
BRANCH   8  12
ATOM     12  N   UNL     1       1.040   2.947   2.461  1.00  0.00    -0.338 N 
ATOM     13  C   UNL     1       1.773   2.817   3.608  1.00  0.00     0.258 C 
ATOM     14  H   UNL     1       0.318   3.606   2.578  1.00  0.00     0.164 HD
ATOM     15  O   UNL     1       1.128   3.150   4.614  1.00  0.00    -0.269 OA
BRANCH  13  16
ATOM     16  C   UNL     1       3.231   2.434   3.759  1.00  0.00     0.107 A 
ATOM     17  C   UNL     1       3.828   2.239   4.976  1.00  0.00    -0.031 A 
ATOM     18  C   UNL     1       4.167   2.393   2.604  1.00  0.00     0.261 A 
ATOM     19  C   UNL     1       3.184   2.161   6.341  1.00  0.00     0.045 C 
ATOM     20  C   UNL     1       5.297   2.130   5.094  1.00  0.00     0.025 A 
ATOM     21  N   UNL     1       5.490   2.178   2.802  1.00  0.00    -0.326 N 
ATOM     22  O   UNL     1       3.845   2.582   1.451  1.00  0.00    -0.269 OA
ATOM     23  C   UNL     1       6.087   2.107   4.013  1.00  0.00     0.015 A 
ATOM     24  H   UNL     1       6.058   2.065   2.006  1.00  0.00     0.169 HD
ATOM     25  C   UNL     1       7.581   2.121   3.992  1.00  0.00     0.064 C 
ENDBRANCH  13  16
ENDBRANCH   8  12
ENDBRANCH   5   8
ENDBRANCH   3   4
ENDBRANCH   2   3
ENDBRANCH   1   2
BRANCH   1  26
ATOM     26  C   UNL     1       4.844   6.894   0.750  1.00  0.00     0.002 C 
BRANCH  26  27
ATOM     27  C   UNL     1       4.340   8.334   0.743  1.00  0.00     0.021 C 
BRANCH  27  28
ATOM     28  C   UNL     1       4.392   9.042   2.092  1.00  0.00     0.116 C 
BRANCH  28  29
ATOM     29  N   UNL     1       5.752   9.327   2.528  1.00  0.00    -0.352 N 
ATOM     30  C   UNL     1       6.319  10.549   2.804  1.00  0.00     0.251 C 
ATOM     31  H   UNL     1       6.340   8.546   2.639  1.00  0.00     0.163 HD
ATOM     32  O   UNL     1       7.521  10.662   3.018  1.00  0.00    -0.269 OA
BRANCH  30  33
ATOM     33  C   UNL     1       5.450  11.742   2.814  1.00  0.00     0.039 A 
ATOM     34  C   UNL     1       5.756  12.819   1.981  1.00  0.00     0.014 A 
ATOM     35  C   UNL     1       4.294  11.751   3.601  1.00  0.00     0.014 A 
ATOM     36  C   UNL     1       4.863  13.886   1.888  1.00  0.00     0.010 A 
ATOM     37  C   UNL     1       3.372  12.781   3.452  1.00  0.00     0.010 A 
ATOM     38  C   UNL     1       3.651  13.861   2.599  1.00  0.00    -0.014 A 
BRANCH  38  39
ATOM     39  C   UNL     1       2.674  14.971   2.489  1.00  0.00     0.031 A 
ATOM     40  C   UNL     1       2.398  15.836   3.687  1.00  0.00     0.074 A 
ATOM     41  C   UNL     1       2.015  15.180   1.333  1.00  0.00     0.049 A 
ATOM     42  N   UNL     1       1.559  16.833   3.808  1.00  0.00    -0.248 NA
ATOM     43  C   UNL     1       3.148  15.530   4.917  1.00  0.00     0.031 C 
ATOM     44  C   UNL     1       2.178  14.395   0.107  1.00  0.00     0.029 A 
ATOM     45  N   UNL     1       1.077  16.125   0.999  1.00  0.00    -0.354 N 
ATOM     46  C   UNL     1       1.680  17.267   5.121  1.00  0.00     0.074 A 
ATOM     47  C   UNL     1       2.625  16.391   5.776  1.00  0.00     0.031 C 
ATOM     48  C   UNL     1       1.396  14.914  -0.854  1.00  0.00     0.029 A 
ATOM     49  C   UNL     1       0.651  16.043  -0.306  1.00  0.00     0.049 A 
ATOM     50  H   UNL     1       0.740  16.797   1.634  1.00  0.00     0.167 HD
ATOM     51  C   UNL     1       1.079  18.319   5.723  1.00  0.00     0.031 A 
ATOM     52  C   UNL     1      -0.235  16.798  -0.983  1.00  0.00     0.031 A 
ATOM     53  C   UNL     1       0.151  19.200   5.070  1.00  0.00     0.049 A 
ATOM     54  C   UNL     1      -0.916  17.939  -0.279  1.00  0.00     0.074 A 
ATOM     55  C   UNL     1      -0.485  20.314   5.587  1.00  0.00     0.029 A 
ATOM     56  N   UNL     1      -0.268  19.068   3.757  1.00  0.00    -0.354 N 
ATOM     57  N   UNL     1      -0.758  18.363   0.952  1.00  0.00    -0.248 NA
ATOM     58  C   UNL     1      -1.895  18.712  -1.059  1.00  0.00     0.031 C 
ATOM     59  C   UNL     1      -1.323  20.834   4.597  1.00  0.00     0.029 A 
ATOM     60  C   UNL     1      -1.169  20.072   3.450  1.00  0.00     0.049 A 
ATOM     61  H   UNL     1       0.030  18.366   3.135  1.00  0.00     0.167 HD
ATOM     62  C   UNL     1      -1.595  19.462   1.085  1.00  0.00     0.074 A 
ATOM     63  C   UNL     1      -2.248  19.651  -0.193  1.00  0.00     0.031 C 
ATOM     64  C   UNL     1      -1.805  20.245   2.171  1.00  0.00     0.031 A 
BRANCH  51  65
ATOM     65  C   UNL     1       1.424  18.588   7.159  1.00  0.00    -0.014 A 
ATOM     66  C   UNL     1       2.679  19.110   7.512  1.00  0.00     0.009 A 
ATOM     67  C   UNL     1       0.468  18.376   8.164  1.00  0.00     0.009 A 
ATOM     68  C   UNL     1       2.977  19.395   8.845  1.00  0.00     0.001 A 
ATOM     69  C   UNL     1       0.759  18.687   9.493  1.00  0.00     0.001 A 
ATOM     70  C   UNL     1       2.014  19.190   9.833  1.00  0.00     0.000 A 
ENDBRANCH  51  65
BRANCH  52  71
ATOM     71  C   UNL     1      -0.513  16.520  -2.417  1.00  0.00    -0.014 A 
ATOM     72  C   UNL     1      -0.070  17.409  -3.409  1.00  0.00     0.009 A 
ATOM     73  C   UNL     1      -1.227  15.376  -2.803  1.00  0.00     0.009 A 
ATOM     74  C   UNL     1      -0.355  17.169  -4.755  1.00  0.00     0.001 A 
ATOM     75  C   UNL     1      -1.487  15.124  -4.152  1.00  0.00     0.001 A 
ATOM     76  C   UNL     1      -1.059  16.025  -5.126  1.00  0.00     0.000 A 
ENDBRANCH  52  71
BRANCH  64  77
ATOM     77  C   UNL     1      -2.762  21.393   2.025  1.00  0.00    -0.014 A 
ATOM     78  C   UNL     1      -4.147  21.178   1.976  1.00  0.00     0.009 A 
ATOM     79  C   UNL     1      -2.274  22.709   2.019  1.00  0.00     0.009 A 
ATOM     80  C   UNL     1      -5.026  22.260   1.904  1.00  0.00     0.001 A 
ATOM     81  C   UNL     1      -3.155  23.790   1.975  1.00  0.00     0.001 A 
ATOM     82  C   UNL     1      -4.530  23.564   1.912  1.00  0.00     0.000 A 
ENDBRANCH  64  77
ENDBRANCH  38  39
ENDBRANCH  30  33
ENDBRANCH  28  29
ENDBRANCH  27  28
ENDBRANCH  26  27
ENDBRANCH   1  26
TORSDOF 16
