REMARK SMILES Cc1ccc(-c2ncc(C(=O)NCCCCCCNC(=O)c3ccc(-c4c5nc(c(-c6ccccc6)c6ccc([nH]6)c(-c6ccccc6)c6nc(c(-c7ccccc7)c7ccc4[nH]7)C=C6)C=C5)cc3)c(Nc3ccccc3)n2)cc1
REMARK SMILES IDX 15 1 14 2 13 3 12 4 10 5 11 6 9 8 6 9 7 10 78 11 8 12 70 13
REMARK SMILES IDX 5 14 1 15 2 16 3 17 80 18 4 19 79 20 71 21 72 23 73 24 77 25
REMARK SMILES IDX 74 26 76 27 75 28 16 29 17 30 18 31 19 32 20 33 21 35 22 36
REMARK SMILES IDX 23 37 69 38 24 39 68 40 25 41 26 42 27 43 62 44 28 45 67 46
REMARK SMILES IDX 61 47 63 48 29 49 66 50 60 51 59 52 30 54 52 55 37 56 51 57
REMARK SMILES IDX 38 58 41 59 50 60 64 61 39 62 40 63 49 65 65 66 42 67 31 68
REMARK SMILES IDX 32 69 36 70 33 71 35 72 34 73 53 74 54 75 58 76 55 77 57 78
REMARK SMILES IDX 56 79 43 80 44 81 48 82 45 83 47 84 46 85
REMARK H PARENT 12 7 71 22 19 34 63 53 41 64
REMARK Flexibility Score: inf
ROOT
ATOM      1  C   UNL     1      -9.670  -0.725   3.442  1.00  0.00     0.002 C 
ENDROOT
BRANCH   1   2
ATOM      2  C   UNL     1      -8.169  -0.771   3.110  1.00  0.00     0.021 C 
BRANCH   2   3
ATOM      3  C   UNL     1      -7.852  -1.379   1.740  1.00  0.00     0.116 C 
BRANCH   3   4
ATOM      4  N   UNL     1      -8.085  -0.400   0.696  1.00  0.00    -0.352 N 
ATOM      5  C   UNL     1      -7.258   0.379  -0.071  1.00  0.00     0.256 C 
ATOM      6  O   UNL     1      -7.804   1.177  -0.838  1.00  0.00    -0.269 OA
ATOM      7  H   UNL     1      -9.040  -0.266   0.495  1.00  0.00     0.163 HD
BRANCH   5   8
ATOM      8  C   UNL     1      -5.779   0.294  -0.061  1.00  0.00     0.100 A 
ATOM      9  C   UNL     1      -3.063   0.156  -0.081  1.00  0.00     0.161 A 
ATOM     10  N   UNL     1      -3.689  -0.185   1.055  1.00  0.00    -0.236 NA
ATOM     11  N   UNL     1      -3.679   0.604  -1.182  1.00  0.00    -0.210 NA
ATOM     12  C   UNL     1      -5.034  -0.070   1.040  1.00  0.00     0.131 A 
ATOM     13  C   UNL     1      -5.030   0.688  -1.174  1.00  0.00     0.147 A 
BRANCH   9  14
ATOM     14  C   UNL     1      -1.604   0.106  -0.095  1.00  0.00     0.019 A 
ATOM     15  C   UNL     1       2.722  -0.009  -0.029  1.00  0.00     0.044 C 
ATOM     16  C   UNL     1       1.223   0.037  -0.061  1.00  0.00    -0.051 A 
ATOM     17  C   UNL     1       0.483  -1.147   0.027  1.00  0.00     0.004 A 
ATOM     18  C   UNL     1       0.546   1.254  -0.192  1.00  0.00     0.004 A 
ATOM     19  C   UNL     1      -0.915  -1.111   0.019  1.00  0.00     0.012 A 
ATOM     20  C   UNL     1      -0.851   1.285  -0.216  1.00  0.00     0.012 A 
ENDBRANCH   9  14
BRANCH  13  21
ATOM     21  N   UNL     1      -5.666   1.214  -2.320  1.00  0.00    -0.339 N 
ATOM     22  H   UNL     1      -6.650   1.226  -2.299  1.00  0.00     0.168 HD
BRANCH  21  23
ATOM     23  C   UNL     1      -5.069   1.720  -3.485  1.00  0.00     0.040 A 
ATOM     24  C   UNL     1      -5.373   3.023  -3.901  1.00  0.00     0.026 A 
ATOM     25  C   UNL     1      -4.094   1.005  -4.188  1.00  0.00     0.026 A 
ATOM     26  C   UNL     1      -4.722   3.595  -4.995  1.00  0.00     0.002 A 
ATOM     27  C   UNL     1      -3.457   1.565  -5.297  1.00  0.00     0.002 A 
ATOM     28  C   UNL     1      -3.767   2.863  -5.697  1.00  0.00     0.000 A 
ENDBRANCH  21  23
ENDBRANCH  13  21
ENDBRANCH   5   8
ENDBRANCH   3   4
ENDBRANCH   2   3
ENDBRANCH   1   2
BRANCH   1  29
ATOM     29  C   UNL     1     -10.417  -2.070   3.383  1.00  0.00     0.002 C 
BRANCH  29  30
ATOM     30  C   UNL     1      -9.715  -3.251   4.058  1.00  0.00     0.021 C 
BRANCH  30  31
ATOM     31  C   UNL     1      -9.680  -3.152   5.576  1.00  0.00     0.116 C 
BRANCH  31  32
ATOM     32  N   UNL     1     -10.734  -3.908   6.231  1.00  0.00    -0.352 N 
ATOM     33  C   UNL     1     -11.093  -3.992   7.569  1.00  0.00     0.251 C 
ATOM     34  H   UNL     1     -11.286  -4.453   5.624  1.00  0.00     0.163 HD
ATOM     35  O   UNL     1     -11.949  -4.774   7.908  1.00  0.00    -0.269 OA
BRANCH  33  36
ATOM     36  C   UNL     1     -10.541  -3.015   8.551  1.00  0.00     0.039 A 
ATOM     37  C   UNL     1     -11.424  -2.531   9.527  1.00  0.00     0.014 A 
ATOM     38  C   UNL     1      -9.285  -2.436   8.408  1.00  0.00     0.014 A 
ATOM     39  C   UNL     1     -11.155  -1.320  10.158  1.00  0.00     0.010 A 
ATOM     40  C   UNL     1      -9.056  -1.192   8.957  1.00  0.00     0.010 A 
ATOM     41  C   UNL     1     -10.026  -0.604   9.769  1.00  0.00    -0.014 A 
BRANCH  41  42
ATOM     42  C   UNL     1      -9.828   0.805  10.065  1.00  0.00     0.031 A 
ATOM     43  C   UNL     1      -8.905   1.218  11.138  1.00  0.00     0.074 A 
ATOM     44  C   UNL     1     -10.460   1.738   9.320  1.00  0.00     0.049 A 
ATOM     45  N   UNL     1      -8.990   2.340  11.770  1.00  0.00    -0.248 NA
ATOM     46  C   UNL     1      -7.826   0.363  11.620  1.00  0.00     0.031 C 
ATOM     47  C   UNL     1     -10.198   3.175   9.282  1.00  0.00     0.029 A 
ATOM     48  N   UNL     1     -11.588   1.615   8.534  1.00  0.00    -0.354 N 
ATOM     49  C   UNL     1      -7.837   2.486  12.502  1.00  0.00     0.074 A 
ATOM     50  C   UNL     1      -7.186   1.196  12.448  1.00  0.00     0.031 C 
ATOM     51  C   UNL     1     -11.270   3.799   8.763  1.00  0.00     0.029 A 
ATOM     52  C   UNL     1     -12.314   2.801   8.598  1.00  0.00     0.049 A 
ATOM     53  H   UNL     1     -11.838   0.819   8.012  1.00  0.00     0.167 HD
ATOM     54  C   UNL     1      -7.478   3.721  12.949  1.00  0.00     0.031 A 
ATOM     55  C   UNL     1     -13.552   2.880   9.173  1.00  0.00     0.031 A 
ATOM     56  C   UNL     1      -8.477   4.733  12.614  1.00  0.00     0.049 A 
ATOM     57  C   UNL     1     -13.605   3.808  10.375  1.00  0.00     0.074 A 
ATOM     58  C   UNL     1      -8.559   5.676  11.602  1.00  0.00     0.029 A 
ATOM     59  N   UNL     1      -9.741   4.656  13.184  1.00  0.00    -0.354 N 
ATOM     60  N   UNL     1     -12.552   4.210  11.032  1.00  0.00    -0.248 NA
ATOM     61  C   UNL     1     -14.844   4.326  10.951  1.00  0.00     0.031 C 
ATOM     62  C   UNL     1      -9.904   6.122  11.525  1.00  0.00     0.029 A 
ATOM     63  C   UNL     1     -10.628   5.471  12.509  1.00  0.00     0.049 A 
ATOM     64  H   UNL     1      -9.973   4.098  13.961  1.00  0.00     0.167 HD
ATOM     65  C   UNL     1     -12.932   5.012  12.076  1.00  0.00     0.074 A 
ATOM     66  C   UNL     1     -14.379   5.063  11.977  1.00  0.00     0.031 C 
ATOM     67  C   UNL     1     -12.019   5.554  12.936  1.00  0.00     0.031 A 
BRANCH  54  68
ATOM     68  C   UNL     1      -6.083   4.048  13.418  1.00  0.00    -0.014 A 
ATOM     69  C   UNL     1      -5.562   5.338  13.207  1.00  0.00     0.009 A 
ATOM     70  C   UNL     1      -5.216   3.124  14.025  1.00  0.00     0.009 A 
ATOM     71  C   UNL     1      -4.227   5.655  13.487  1.00  0.00     0.001 A 
ATOM     72  C   UNL     1      -3.868   3.420  14.269  1.00  0.00     0.001 A 
ATOM     73  C   UNL     1      -3.370   4.685  13.989  1.00  0.00     0.000 A 
ENDBRANCH  54  68
BRANCH  55  74
ATOM     74  C   UNL     1     -14.366   1.641   9.030  1.00  0.00    -0.014 A 
ATOM     75  C   UNL     1     -14.834   1.298   7.747  1.00  0.00     0.009 A 
ATOM     76  C   UNL     1     -14.349   0.652  10.024  1.00  0.00     0.009 A 
ATOM     77  C   UNL     1     -15.155  -0.026   7.432  1.00  0.00     0.001 A 
ATOM     78  C   UNL     1     -14.680  -0.672   9.706  1.00  0.00     0.001 A 
ATOM     79  C   UNL     1     -15.045  -1.016   8.404  1.00  0.00     0.000 A 
ENDBRANCH  55  74
BRANCH  67  80
ATOM     80  C   UNL     1     -12.313   6.268  14.235  1.00  0.00    -0.014 A 
ATOM     81  C   UNL     1     -13.509   6.154  14.954  1.00  0.00     0.009 A 
ATOM     82  C   UNL     1     -11.274   7.003  14.855  1.00  0.00     0.009 A 
ATOM     83  C   UNL     1     -13.670   6.770  16.205  1.00  0.00     0.001 A 
ATOM     84  C   UNL     1     -11.414   7.577  16.121  1.00  0.00     0.001 A 
ATOM     85  C   UNL     1     -12.620   7.470  16.793  1.00  0.00     0.000 A 
ENDBRANCH  67  80
ENDBRANCH  41  42
ENDBRANCH  33  36
ENDBRANCH  31  32
ENDBRANCH  30  31
ENDBRANCH  29  30
ENDBRANCH   1  29
TORSDOF 16
