REMARK SMILES COC(=O)c1c(NC(=O)[C@@H]2[C@H]3CC[C@H](CC3)[C@H]2C(=O)NCCCCCCNC(=O)c2ccc(-c3c4nc(c(-c5ccccc5)c5ccc([nH]5)c(-c5ccccc5)c5nc(c(-c6ccccc6)c6ccc3[nH]6)C=C5)C=C4)cc2)sc(C)c1-c1ccc(C)cc1
REMARK SMILES IDX 22 1 21 2 20 3 18 4 19 5 17 7 10 8 11 9 16 10 12 11 14 12
REMARK SMILES IDX 15 13 13 14 8 15 7 16 9 18 6 19 5 20 81 21 78 22 79 23 80 24
REMARK SMILES IDX 3 25 4 26 2 27 1 28 82 29 83 30 88 31 84 32 87 33 85 34
REMARK SMILES IDX 86 35 23 36 24 37 25 38 26 39 27 40 28 41 29 43 30 44 31 45
REMARK SMILES IDX 77 46 32 47 76 48 33 49 34 50 35 51 70 52 36 53 75 54 69 55
REMARK SMILES IDX 71 56 37 57 74 58 68 59 67 60 38 62 60 63 45 64 59 65 46 66
REMARK SMILES IDX 49 67 58 68 72 69 47 70 48 71 57 73 73 74 50 75 39 76 40 77
REMARK SMILES IDX 44 78 41 79 43 80 42 81 61 82 62 83 66 84 63 85 65 86 64 87
REMARK SMILES IDX 51 88 52 89 56 90 53 91 55 92 54 93
REMARK H PARENT 20 6 7 17 27 42 71 61 49 72
REMARK Flexibility Score: inf
ROOT
ATOM      1  C   UNL     1       6.311  -5.680  -0.830  1.00  0.00     0.021 C 
ENDROOT
BRANCH   1   2
ATOM      2  C   UNL     1       4.976  -6.274  -0.413  1.00  0.00     0.116 C 
BRANCH   2   3
ATOM      3  N   UNL     1       3.882  -5.343  -0.510  1.00  0.00    -0.356 N 
ATOM      4  C   UNL     1       2.590  -5.501  -0.888  1.00  0.00     0.224 C 
ATOM      5  O   UNL     1       1.878  -4.495  -0.771  1.00  0.00    -0.275 OA
ATOM      6  H   UNL     1       4.115  -4.421  -0.254  1.00  0.00     0.163 HD
BRANCH   4   7
ATOM      7  C   UNL     1       1.935  -6.835  -1.281  1.00  0.00     0.094 C 
ATOM      8  C   UNL     1       2.623  -7.832  -2.287  1.00  0.00     0.094 C 
ATOM      9  C   UNL     1       2.571  -9.193  -1.593  1.00  0.00     0.002 C 
ATOM     10  C   UNL     1       3.314  -9.241  -0.260  1.00  0.00     0.005 C 
ATOM     11  C   UNL     1       1.095  -9.582  -1.377  1.00  0.00     0.005 C 
ATOM     12  C   UNL     1       1.483  -7.571   0.038  1.00  0.00     0.002 C 
ATOM     13  C   UNL     1       2.624  -8.333   0.737  1.00  0.00     0.005 C 
ATOM     14  C   UNL     1       0.452  -8.638  -0.363  1.00  0.00     0.005 C 
BRANCH   8  15
ATOM     15  C   UNL     1       2.029  -7.795  -3.744  1.00  0.00     0.229 C 
ATOM     16  N   UNL     1       1.998  -8.821  -4.678  1.00  0.00    -0.317 N 
ATOM     17  H   UNL     1       2.074  -8.546  -5.620  1.00  0.00     0.170 HD
ATOM     18  O   UNL     1       1.638  -6.696  -4.173  1.00  0.00    -0.274 OA
BRANCH  16  19
ATOM     19  C   UNL     1       1.875 -10.182  -4.452  1.00  0.00     0.111 A 
ATOM     20  C   UNL     1       0.914 -11.108  -4.861  1.00  0.00     0.102 A 
ATOM     21  C   UNL     1       1.039 -12.290  -4.022  1.00  0.00     0.012 A 
ATOM     22  S   UNL     1       3.265 -11.128  -4.066  1.00  0.00    -0.122 S 
ATOM     23  C   UNL     1       2.197 -12.227  -3.260  1.00  0.00     0.012 A 
ATOM     24  C   UNL     1       2.600 -12.996  -2.047  1.00  0.00     0.057 C 
BRANCH  20  25
ATOM     25  C   UNL     1      -0.065 -10.842  -5.912  1.00  0.00     0.341 C 
ATOM     26  O   UNL     1       0.020  -9.895  -6.666  1.00  0.00    -0.246 OA
BRANCH  25  27
ATOM     27  O   UNL     1      -1.004 -11.829  -6.001  1.00  0.00    -0.465 OA
ATOM     28  C   UNL     1      -1.773 -11.846  -7.201  1.00  0.00     0.282 C 
ENDBRANCH  25  27
ENDBRANCH  20  25
BRANCH  21  29
ATOM     29  C   UNL     1       0.259 -13.518  -4.009  1.00  0.00    -0.016 A 
ATOM     30  C   UNL     1       0.620 -14.512  -4.925  1.00  0.00     0.009 A 
ATOM     31  C   UNL     1      -0.742 -13.771  -3.068  1.00  0.00     0.009 A 
ATOM     32  C   UNL     1       0.000 -15.757  -4.895  1.00  0.00     0.004 A 
ATOM     33  C   UNL     1      -1.367 -15.026  -3.041  1.00  0.00     0.004 A 
ATOM     34  C   UNL     1      -0.992 -16.029  -3.947  1.00  0.00    -0.051 A 
ATOM     35  C   UNL     1      -1.624 -17.389  -3.927  1.00  0.00     0.044 C 
ENDBRANCH  21  29
ENDBRANCH  16  19
ENDBRANCH   8  15
ENDBRANCH   4   7
ENDBRANCH   2   3
ENDBRANCH   1   2
BRANCH   1  36
ATOM     36  C   UNL     1       7.171  -5.212   0.345  1.00  0.00     0.002 C 
BRANCH  36  37
ATOM     37  C   UNL     1       7.475  -6.269   1.418  1.00  0.00     0.002 C 
BRANCH  37  38
ATOM     38  C   UNL     1       8.019  -7.610   0.913  1.00  0.00     0.021 C 
BRANCH  38  39
ATOM     39  C   UNL     1       9.251  -7.520   0.016  1.00  0.00     0.116 C 
BRANCH  39  40
ATOM     40  N   UNL     1      10.307  -6.713   0.603  1.00  0.00    -0.352 N 
ATOM     41  C   UNL     1      11.620  -7.013   0.854  1.00  0.00     0.251 C 
ATOM     42  H   UNL     1      10.035  -5.804   0.864  1.00  0.00     0.163 HD
ATOM     43  O   UNL     1      12.306  -6.244   1.520  1.00  0.00    -0.269 OA
BRANCH  41  44
ATOM     44  C   UNL     1      12.207  -8.269   0.347  1.00  0.00     0.039 A 
ATOM     45  C   UNL     1      13.014  -9.019   1.206  1.00  0.00     0.014 A 
ATOM     46  C   UNL     1      11.985  -8.697  -0.964  1.00  0.00     0.014 A 
ATOM     47  C   UNL     1      13.539 -10.237   0.774  1.00  0.00     0.010 A 
ATOM     48  C   UNL     1      12.457  -9.942  -1.374  1.00  0.00     0.010 A 
ATOM     49  C   UNL     1      13.229 -10.727  -0.505  1.00  0.00    -0.014 A 
BRANCH  49  50
ATOM     50  C   UNL     1      13.660 -12.083  -0.924  1.00  0.00     0.031 A 
ATOM     51  C   UNL     1      14.631 -12.264  -2.055  1.00  0.00     0.074 A 
ATOM     52  C   UNL     1      13.114 -13.158  -0.320  1.00  0.00     0.049 A 
ATOM     53  N   UNL     1      15.074 -13.375  -2.589  1.00  0.00    -0.248 NA
ATOM     54  C   UNL     1      15.161 -11.043  -2.682  1.00  0.00     0.031 C 
ATOM     55  C   UNL     1      12.129 -13.111   0.763  1.00  0.00     0.029 A 
ATOM     56  N   UNL     1      13.303 -14.499  -0.538  1.00  0.00    -0.354 N 
ATOM     57  C   UNL     1      15.921 -12.988  -3.619  1.00  0.00     0.074 A 
ATOM     58  C   UNL     1      15.902 -11.541  -3.662  1.00  0.00     0.031 C 
ATOM     59  C   UNL     1      11.815 -14.364   1.127  1.00  0.00     0.029 A 
ATOM     60  C   UNL     1      12.540 -15.301   0.276  1.00  0.00     0.049 A 
ATOM     61  H   UNL     1      13.926 -14.853  -1.214  1.00  0.00     0.167 HD
ATOM     62  C   UNL     1      16.658 -13.768  -4.445  1.00  0.00     0.031 A 
ATOM     63  C   UNL     1      12.423 -16.641   0.322  1.00  0.00     0.031 A 
ATOM     64  C   UNL     1      16.680 -15.206  -4.396  1.00  0.00     0.049 A 
ATOM     65  C   UNL     1      13.233 -17.480  -0.626  1.00  0.00     0.074 A 
ATOM     66  C   UNL     1      17.447 -16.081  -5.146  1.00  0.00     0.029 A 
ATOM     67  N   UNL     1      15.892 -15.981  -3.560  1.00  0.00    -0.354 N 
ATOM     68  N   UNL     1      14.093 -17.097  -1.538  1.00  0.00    -0.248 NA
ATOM     69  C   UNL     1      13.058 -18.936  -0.534  1.00  0.00     0.031 C 
ATOM     70  C   UNL     1      17.078 -17.387  -4.807  1.00  0.00     0.029 A 
ATOM     71  C   UNL     1      16.125 -17.324  -3.804  1.00  0.00     0.049 A 
ATOM     72  H   UNL     1      15.260 -15.629  -2.892  1.00  0.00     0.167 HD
ATOM     73  C   UNL     1      14.575 -18.264  -2.115  1.00  0.00     0.074 A 
ATOM     74  C   UNL     1      13.931 -19.368  -1.433  1.00  0.00     0.031 C 
ATOM     75  C   UNL     1      15.468 -18.410  -3.124  1.00  0.00     0.031 A 
BRANCH  62  76
ATOM     76  C   UNL     1      17.501 -13.085  -5.486  1.00  0.00    -0.014 A 
ATOM     77  C   UNL     1      18.657 -12.372  -5.134  1.00  0.00     0.009 A 
ATOM     78  C   UNL     1      17.169 -13.214  -6.844  1.00  0.00     0.009 A 
ATOM     79  C   UNL     1      19.450 -11.780  -6.120  1.00  0.00     0.001 A 
ATOM     80  C   UNL     1      17.978 -12.645  -7.829  1.00  0.00     0.001 A 
ATOM     81  C   UNL     1      19.114 -11.923  -7.466  1.00  0.00     0.000 A 
ENDBRANCH  62  76
BRANCH  63  82
ATOM     82  C   UNL     1      11.490 -17.277   1.289  1.00  0.00    -0.014 A 
ATOM     83  C   UNL     1      11.981 -18.033   2.364  1.00  0.00     0.009 A 
ATOM     84  C   UNL     1      10.101 -17.147   1.129  1.00  0.00     0.009 A 
ATOM     85  C   UNL     1      11.100 -18.672   3.240  1.00  0.00     0.001 A 
ATOM     86  C   UNL     1       9.223 -17.760   2.025  1.00  0.00     0.001 A 
ATOM     87  C   UNL     1       9.723 -18.532   3.072  1.00  0.00     0.000 A 
ENDBRANCH  63  82
BRANCH  75  88
ATOM     88  C   UNL     1      15.809 -19.813  -3.539  1.00  0.00    -0.014 A 
ATOM     89  C   UNL     1      14.888 -20.606  -4.240  1.00  0.00     0.009 A 
ATOM     90  C   UNL     1      17.081 -20.335  -3.255  1.00  0.00     0.009 A 
ATOM     91  C   UNL     1      15.222 -21.907  -4.620  1.00  0.00     0.001 A 
ATOM     92  C   UNL     1      17.423 -21.625  -3.663  1.00  0.00     0.001 A 
ATOM     93  C   UNL     1      16.490 -22.413  -4.336  1.00  0.00     0.000 A 
ENDBRANCH  75  88
ENDBRANCH  49  50
ENDBRANCH  41  44
ENDBRANCH  39  40
ENDBRANCH  38  39
ENDBRANCH  37  38
ENDBRANCH  36  37
ENDBRANCH   1  36
TORSDOF 18
