REMARK SMILES C[C@H](C(=O)NCCCCCCNC(=O)c1ccc(-c2c3nc(c(-c4ccccc4)c4ccc([nH]4)c(-c4ccccc4)c4nc(c(-c5ccccc5)c5ccc2[nH]5)C=C4)C=C3)cc1)N1CCc2ccccc21
REMARK SMILES IDX 9 1 8 2 7 3 6 4 5 5 3 6 4 7 2 9 1 10 63 11 64 12 71 13 65 14
REMARK SMILES IDX 66 15 70 16 67 17 69 18 68 19 10 20 11 21 12 22 13 23 14 25
REMARK SMILES IDX 15 26 16 27 62 28 17 29 61 30 18 31 19 32 20 33 55 34 21 35
REMARK SMILES IDX 60 36 54 37 56 38 22 39 59 40 53 41 52 42 23 44 45 45 30 46
REMARK SMILES IDX 44 47 31 48 34 49 43 50 57 51 32 52 33 53 42 55 58 56 35 57
REMARK SMILES IDX 24 58 25 59 29 60 26 61 28 62 27 63 46 64 47 65 51 66 48 67
REMARK SMILES IDX 50 68 49 69 36 70 37 71 41 72 38 73 40 74 39 75
REMARK H PARENT 5 8 12 24 56 43 34 54
REMARK Flexibility Score: inf
ROOT
ATOM      1  C   UNL     1       2.099   4.070   3.596  1.00  0.00     0.002 C 
ENDROOT
BRANCH   1   2
ATOM      2  C   UNL     1       2.298   2.601   3.226  1.00  0.00     0.002 C 
BRANCH   2   3
ATOM      3  C   UNL     1       0.994   1.854   2.933  1.00  0.00     0.021 C 
BRANCH   3   4
ATOM      4  C   UNL     1       0.473   2.012   1.503  1.00  0.00     0.116 C 
BRANCH   4   5
ATOM      5  N   UNL     1       1.420   1.575   0.496  1.00  0.00    -0.354 N 
ATOM      6  C   UNL     1       1.555   0.382  -0.152  1.00  0.00     0.242 C 
ATOM      7  O   UNL     1       2.463   0.323  -0.992  1.00  0.00    -0.273 OA
ATOM      8  H   UNL     1       2.079   2.257   0.234  1.00  0.00     0.163 HD
BRANCH   6   9
ATOM      9  C   UNL     1       0.573  -0.799   0.046  1.00  0.00     0.168 C 
ATOM     10  C   UNL     1       1.180  -2.103  -0.499  1.00  0.00     0.042 C 
BRANCH   9  11
ATOM     11  N   UNL     1       0.116  -1.001   1.427  1.00  0.00    -0.359 N 
ATOM     12  C   UNL     1      -1.273  -1.399   1.693  1.00  0.00     0.122 C 
ATOM     13  C   UNL     1       0.900  -1.564   2.426  1.00  0.00     0.041 A 
ATOM     14  C   UNL     1      -1.318  -2.050   3.089  1.00  0.00     0.059 C 
ATOM     15  C   UNL     1       0.133  -2.205   3.400  1.00  0.00    -0.023 A 
ATOM     16  C   UNL     1       2.279  -1.507   2.562  1.00  0.00     0.026 A 
ATOM     17  C   UNL     1       0.715  -2.840   4.485  1.00  0.00     0.006 A 
ATOM     18  C   UNL     1       2.882  -2.120   3.661  1.00  0.00     0.002 A 
ATOM     19  C   UNL     1       2.105  -2.798   4.608  1.00  0.00     0.000 A 
ENDBRANCH   9  11
ENDBRANCH   6   9
ENDBRANCH   4   5
ENDBRANCH   3   4
ENDBRANCH   2   3
ENDBRANCH   1   2
BRANCH   1  20
ATOM     20  C   UNL     1       1.247   4.303   4.847  1.00  0.00     0.021 C 
BRANCH  20  21
ATOM     21  C   UNL     1       1.736   3.562   6.088  1.00  0.00     0.116 C 
BRANCH  21  22
ATOM     22  N   UNL     1       3.007   4.099   6.556  1.00  0.00    -0.352 N 
ATOM     23  C   UNL     1       3.248   4.809   7.705  1.00  0.00     0.251 C 
ATOM     24  H   UNL     1       3.787   3.934   5.978  1.00  0.00     0.163 HD
ATOM     25  O   UNL     1       4.282   5.455   7.854  1.00  0.00    -0.269 OA
BRANCH  23  26
ATOM     26  C   UNL     1       2.229   4.781   8.770  1.00  0.00     0.039 A 
ATOM     27  C   UNL     1       1.750   5.978   9.304  1.00  0.00     0.014 A 
ATOM     28  C   UNL     1       1.722   3.551   9.199  1.00  0.00     0.014 A 
ATOM     29  C   UNL     1       0.713   5.943  10.239  1.00  0.00     0.010 A 
ATOM     30  C   UNL     1       0.641   3.523  10.069  1.00  0.00     0.010 A 
ATOM     31  C   UNL     1       0.133   4.717  10.606  1.00  0.00    -0.014 A 
BRANCH  31  32
ATOM     32  C   UNL     1      -0.996   4.646  11.565  1.00  0.00     0.031 A 
ATOM     33  C   UNL     1      -0.818   3.924  12.870  1.00  0.00     0.074 A 
ATOM     34  C   UNL     1      -2.201   5.141  11.223  1.00  0.00     0.049 A 
ATOM     35  N   UNL     1      -1.704   3.654  13.794  1.00  0.00    -0.248 NA
ATOM     36  C   UNL     1       0.530   3.408  13.159  1.00  0.00     0.031 C 
ATOM     37  C   UNL     1      -2.512   5.823   9.967  1.00  0.00     0.029 A 
ATOM     38  N   UNL     1      -3.395   5.124  11.899  1.00  0.00    -0.354 N 
ATOM     39  C   UNL     1      -1.028   2.914  14.756  1.00  0.00     0.074 A 
ATOM     40  C   UNL     1       0.324   2.732  14.278  1.00  0.00     0.031 C 
ATOM     41  C   UNL     1      -3.809   6.169   9.966  1.00  0.00     0.029 A 
ATOM     42  C   UNL     1      -4.430   5.693  11.199  1.00  0.00     0.049 A 
ATOM     43  H   UNL     1      -3.500   4.741  12.800  1.00  0.00     0.167 HD
ATOM     44  C   UNL     1      -1.487   2.442  15.939  1.00  0.00     0.031 A 
ATOM     45  C   UNL     1      -5.738   5.801  11.503  1.00  0.00     0.031 A 
ATOM     46  C   UNL     1      -2.834   2.627  16.409  1.00  0.00     0.049 A 
ATOM     47  C   UNL     1      -6.234   5.260  12.815  1.00  0.00     0.074 A 
ATOM     48  C   UNL     1      -3.383   2.249  17.621  1.00  0.00     0.029 A 
ATOM     49  N   UNL     1      -3.846   3.233  15.680  1.00  0.00    -0.354 N 
ATOM     50  N   UNL     1      -5.565   4.635  13.754  1.00  0.00    -0.248 NA
ATOM     51  C   UNL     1      -7.660   5.447  13.115  1.00  0.00     0.031 C 
ATOM     52  C   UNL     1      -4.745   2.566  17.598  1.00  0.00     0.029 A 
ATOM     53  C   UNL     1      -5.027   3.207  16.402  1.00  0.00     0.049 A 
ATOM     54  H   UNL     1      -3.741   3.624  14.783  1.00  0.00     0.167 HD
ATOM     55  C   UNL     1      -6.480   4.378  14.767  1.00  0.00     0.074 A 
ATOM     56  C   UNL     1      -7.750   4.924  14.331  1.00  0.00     0.031 C 
ATOM     57  C   UNL     1      -6.284   3.752  15.953  1.00  0.00     0.031 A 
BRANCH  44  58
ATOM     58  C   UNL     1      -0.524   1.655  16.787  1.00  0.00    -0.014 A 
ATOM     59  C   UNL     1       0.605   2.255  17.368  1.00  0.00     0.009 A 
ATOM     60  C   UNL     1      -0.750   0.287  17.007  1.00  0.00     0.009 A 
ATOM     61  C   UNL     1       1.517   1.491  18.100  1.00  0.00     0.001 A 
ATOM     62  C   UNL     1       0.143  -0.467  17.771  1.00  0.00     0.001 A 
ATOM     63  C   UNL     1       1.283   0.132  18.303  1.00  0.00     0.000 A 
ENDBRANCH  44  58
BRANCH  45  64
ATOM     64  C   UNL     1      -6.663   6.451  10.539  1.00  0.00    -0.014 A 
ATOM     65  C   UNL     1      -7.204   7.718  10.806  1.00  0.00     0.009 A 
ATOM     66  C   UNL     1      -6.983   5.820   9.326  1.00  0.00     0.009 A 
ATOM     67  C   UNL     1      -8.057   8.331   9.885  1.00  0.00     0.001 A 
ATOM     68  C   UNL     1      -7.812   6.448   8.394  1.00  0.00     0.001 A 
ATOM     69  C   UNL     1      -8.354   7.700   8.677  1.00  0.00     0.000 A 
ENDBRANCH  45  64
BRANCH  57  70
ATOM     70  C   UNL     1      -7.456   3.649  16.889  1.00  0.00    -0.014 A 
ATOM     71  C   UNL     1      -8.520   2.770  16.637  1.00  0.00     0.009 A 
ATOM     72  C   UNL     1      -7.453   4.389  18.083  1.00  0.00     0.009 A 
ATOM     73  C   UNL     1      -9.566   2.649  17.554  1.00  0.00     0.001 A 
ATOM     74  C   UNL     1      -8.484   4.243  19.011  1.00  0.00     0.001 A 
ATOM     75  C   UNL     1      -9.543   3.378  18.743  1.00  0.00     0.000 A 
ENDBRANCH  57  70
ENDBRANCH  31  32
ENDBRANCH  23  26
ENDBRANCH  21  22
ENDBRANCH  20  21
ENDBRANCH   1  20
TORSDOF 14
