REMARK SMILES Cc1ccc([C@@H](C)Nc2ccc(N)cc2C(=O)NCCCCCCNC(=O)c2ccc(-c3c4nc(c(-c5ccccc5)c5ccc([nH]5)c(-c5ccccc5)c5nc(c(-c6ccccc6)c6ccc3[nH]6)C=C5)C=C4)cc2)cc1F
REMARK SMILES IDX 21 1 20 2 19 3 18 4 16 5 17 6 15 8 9 9 10 10 11 11 14 12
REMARK SMILES IDX 12 13 8 14 6 16 7 17 5 18 1 19 2 20 3 21 77 22 4 23 76 24
REMARK SMILES IDX 78 25 13 26 22 29 23 30 24 31 25 32 26 33 27 35 28 36 29 37
REMARK SMILES IDX 75 38 30 39 74 40 31 41 32 42 33 43 68 44 34 45 73 46 67 47
REMARK SMILES IDX 69 48 35 49 72 50 66 51 65 52 36 54 58 55 43 56 57 57 44 58
REMARK SMILES IDX 47 59 56 60 70 61 45 62 46 63 55 65 71 66 48 67 37 68 38 69
REMARK SMILES IDX 42 70 39 71 41 72 40 73 59 74 60 75 64 76 61 77 63 78 62 79
REMARK SMILES IDX 49 80 50 81 54 82 51 83 53 84 52 85
REMARK H PARENT 18 7 8 15 13 27 13 28 25 34 69 53 47 64
REMARK Flexibility Score: inf
ROOT
ATOM      1  C   UNL     1      -1.408   0.576  -0.772  1.00  0.00     0.002 C 
ENDROOT
BRANCH   1   2
ATOM      2  C   UNL     1      -0.537  -1.116   0.303  1.00  0.00     0.021 C 
BRANCH   2   3
ATOM      3  C   UNL     1      -0.762  -2.836   0.433  1.00  0.00     0.116 C 
BRANCH   3   4
ATOM      4  N   UNL     1      -0.949  -3.676  -0.743  1.00  0.00    -0.352 N 
ATOM      5  C   UNL     1      -1.947  -4.564  -1.060  1.00  0.00     0.253 C 
ATOM      6  O   UNL     1      -1.992  -5.048  -2.190  1.00  0.00    -0.269 OA
ATOM      7  H   UNL     1      -0.242  -3.593  -1.423  1.00  0.00     0.163 HD
BRANCH   5   8
ATOM      8  C   UNL     1      -2.861  -5.059  -0.010  1.00  0.00     0.065 A 
ATOM      9  C   UNL     1      -3.480  -4.254   0.953  1.00  0.00     0.048 A 
ATOM     10  C   UNL     1      -3.756  -4.908   2.171  1.00  0.00     0.028 A 
ATOM     11  C   UNL     1      -3.585  -6.296   2.344  1.00  0.00     0.027 A 
ATOM     12  C   UNL     1      -2.838  -6.468   0.104  1.00  0.00     0.041 A 
ATOM     13  C   UNL     1      -3.234  -7.104   1.272  1.00  0.00     0.032 A 
BRANCH   9  14
ATOM     14  N   UNL     1      -3.814  -2.912   0.848  1.00  0.00    -0.378 N 
ATOM     15  H   UNL     1      -4.103  -2.504   1.697  1.00  0.00     0.161 HD
BRANCH  14  16
ATOM     16  C   UNL     1      -3.817  -1.980  -0.298  1.00  0.00     0.106 C 
ATOM     17  C   UNL     1      -4.456  -2.541  -1.560  1.00  0.00     0.036 C 
BRANCH  16  18
ATOM     18  C   UNL     1      -2.517  -1.177  -0.371  1.00  0.00    -0.023 A 
ATOM     19  C   UNL     1       1.843   1.481   0.060  1.00  0.00     0.047 C 
ATOM     20  C   UNL     1       0.614   0.643  -0.062  1.00  0.00    -0.015 A 
ATOM     21  C   UNL     1      -0.666   0.820   1.190  1.00  0.00     0.007 A 
ATOM     22  C   UNL     1       0.310  -0.415  -1.495  1.00  0.00     0.126 A 
ATOM     23  C   UNL     1      -2.209  -0.105   1.050  1.00  0.00     0.006 A 
ATOM     24  C   UNL     1      -1.251  -1.324  -1.657  1.00  0.00     0.045 A 
ATOM     25  F   UNL     1       1.267  -0.569  -2.419  1.00  0.00    -0.207 F 
ENDBRANCH  16  18
ENDBRANCH  14  16
ENDBRANCH   9  14
BRANCH  13  26
ATOM     26  N   UNL     1      -3.076  -8.473   1.414  1.00  0.00    -0.399 N 
ATOM     27  H   UNL     1      -3.360  -8.917   2.246  1.00  0.00     0.156 HD
ATOM     28  H   UNL     1      -2.681  -9.002   0.684  1.00  0.00     0.156 HD
ENDBRANCH  13  26
ENDBRANCH   5   8
ENDBRANCH   3   4
ENDBRANCH   2   3
ENDBRANCH   1   2
BRANCH   1  29
ATOM     29  C   UNL     1      -2.865   1.451  -0.852  1.00  0.00     0.002 C 
BRANCH  29  30
ATOM     30  C   UNL     1      -3.315   2.520   0.165  1.00  0.00     0.021 C 
BRANCH  30  31
ATOM     31  C   UNL     1      -2.354   3.593   0.676  1.00  0.00     0.116 C 
BRANCH  31  32
ATOM     32  N   UNL     1      -1.676   4.410  -0.311  1.00  0.00    -0.352 N 
ATOM     33  C   UNL     1      -1.018   5.596  -0.042  1.00  0.00     0.251 C 
ATOM     34  H   UNL     1      -1.684   4.097  -1.244  1.00  0.00     0.163 HD
ATOM     35  O   UNL     1      -0.547   6.300  -0.925  1.00  0.00    -0.269 OA
BRANCH  33  36
ATOM     36  C   UNL     1      -0.909   6.012   1.374  1.00  0.00     0.039 A 
ATOM     37  C   UNL     1      -1.620   7.126   1.823  1.00  0.00     0.014 A 
ATOM     38  C   UNL     1      -0.174   5.226   2.265  1.00  0.00     0.014 A 
ATOM     39  C   UNL     1      -1.620   7.431   3.186  1.00  0.00     0.010 A 
ATOM     40  C   UNL     1      -0.234   5.494   3.631  1.00  0.00     0.010 A 
ATOM     41  C   UNL     1      -0.945   6.608   4.105  1.00  0.00    -0.014 A 
BRANCH  41  42
ATOM     42  C   UNL     1      -0.951   6.939   5.555  1.00  0.00     0.031 A 
ATOM     43  C   UNL     1       0.331   7.323   6.244  1.00  0.00     0.074 A 
ATOM     44  C   UNL     1      -2.106   6.904   6.249  1.00  0.00     0.049 A 
ATOM     45  N   UNL     1       0.520   7.707   7.481  1.00  0.00    -0.248 NA
ATOM     46  C   UNL     1       1.565   7.252   5.444  1.00  0.00     0.031 C 
ATOM     47  C   UNL     1      -3.409   6.516   5.705  1.00  0.00     0.029 A 
ATOM     48  N   UNL     1      -2.375   7.219   7.559  1.00  0.00    -0.354 N 
ATOM     49  C   UNL     1       1.888   7.921   7.604  1.00  0.00     0.074 A 
ATOM     50  C   UNL     1       2.489   7.557   6.341  1.00  0.00     0.031 C 
ATOM     51  C   UNL     1      -4.345   6.666   6.656  1.00  0.00     0.029 A 
ATOM     52  C   UNL     1      -3.706   7.116   7.888  1.00  0.00     0.049 A 
ATOM     53  H   UNL     1      -1.680   7.492   8.200  1.00  0.00     0.167 HD
ATOM     54  C   UNL     1       2.581   8.404   8.662  1.00  0.00     0.031 A 
ATOM     55  C   UNL     1      -4.340   7.361   9.052  1.00  0.00     0.031 A 
ATOM     56  C   UNL     1       1.982   8.758   9.921  1.00  0.00     0.049 A 
ATOM     57  C   UNL     1      -3.539   7.852  10.229  1.00  0.00     0.074 A 
ATOM     58  C   UNL     1       2.589   9.291  11.044  1.00  0.00     0.029 A 
ATOM     59  N   UNL     1       0.638   8.602  10.225  1.00  0.00    -0.354 N 
ATOM     60  N   UNL     1      -2.258   8.122  10.303  1.00  0.00    -0.248 NA
ATOM     61  C   UNL     1      -4.277   8.085  11.478  1.00  0.00     0.031 C 
ATOM     62  C   UNL     1       1.627   9.385  12.054  1.00  0.00     0.029 A 
ATOM     63  C   UNL     1       0.404   8.992  11.533  1.00  0.00     0.049 A 
ATOM     64  H   UNL     1      -0.047   8.265   9.604  1.00  0.00     0.167 HD
ATOM     65  C   UNL     1      -2.042   8.583  11.596  1.00  0.00     0.074 A 
ATOM     66  C   UNL     1      -3.329   8.580  12.261  1.00  0.00     0.031 C 
ATOM     67  C   UNL     1      -0.883   8.975  12.182  1.00  0.00     0.031 A 
BRANCH  54  68
ATOM     68  C   UNL     1       4.072   8.555   8.506  1.00  0.00    -0.014 A 
ATOM     69  C   UNL     1       4.625   9.496   7.621  1.00  0.00     0.009 A 
ATOM     70  C   UNL     1       4.937   7.762   9.275  1.00  0.00     0.009 A 
ATOM     71  C   UNL     1       6.010   9.607   7.478  1.00  0.00     0.001 A 
ATOM     72  C   UNL     1       6.321   7.901   9.157  1.00  0.00     0.001 A 
ATOM     73  C   UNL     1       6.856   8.814   8.251  1.00  0.00     0.000 A 
ENDBRANCH  54  68
BRANCH  55  74
ATOM     74  C   UNL     1      -5.810   7.150   9.167  1.00  0.00    -0.014 A 
ATOM     75  C   UNL     1      -6.680   8.229   9.388  1.00  0.00     0.009 A 
ATOM     76  C   UNL     1      -6.351   5.857   9.079  1.00  0.00     0.009 A 
ATOM     77  C   UNL     1      -8.051   8.014   9.554  1.00  0.00     0.001 A 
ATOM     78  C   UNL     1      -7.726   5.649   9.207  1.00  0.00     0.001 A 
ATOM     79  C   UNL     1      -8.573   6.725   9.458  1.00  0.00     0.000 A 
ENDBRANCH  55  74
BRANCH  67  80
ATOM     80  C   UNL     1      -0.960   9.465  13.602  1.00  0.00    -0.014 A 
ATOM     81  C   UNL     1      -1.258   8.598  14.665  1.00  0.00     0.009 A 
ATOM     82  C   UNL     1      -0.689  10.814  13.884  1.00  0.00     0.009 A 
ATOM     83  C   UNL     1      -1.329   9.082  15.973  1.00  0.00     0.001 A 
ATOM     84  C   UNL     1      -0.720  11.286  15.196  1.00  0.00     0.001 A 
ATOM     85  C   UNL     1      -1.054  10.423  16.238  1.00  0.00     0.000 A 
ENDBRANCH  67  80
ENDBRANCH  41  42
ENDBRANCH  33  36
ENDBRANCH  31  32
ENDBRANCH  30  31
ENDBRANCH  29  30
ENDBRANCH   1  29
TORSDOF 17
