REMARK SMILES CC1=C[C@H](C)[C@@H](C(=O)NCCCCCCNC(=O)c2ccc(-c3c4nc(c(-c5ccccc5)c5ccc([nH]5)c(-c5ccccc5)c5nc(c(-c6ccccc6)c6ccc3[nH]6)C=C5)C=C4)cc2)[C@H](C(=O)Nc2cccnc2)C1
REMARK SMILES IDX 12 1 11 2 10 3 9 4 7 5 8 6 6 8 1 9 2 10 3 11 77 12 4 13
REMARK SMILES IDX 67 14 5 15 68 16 69 17 70 18 71 20 72 21 76 22 73 23 75 24
REMARK SMILES IDX 74 25 13 26 14 27 15 28 16 29 17 30 18 32 19 33 20 34 66 35
REMARK SMILES IDX 21 36 65 37 22 38 23 39 24 40 59 41 25 42 64 43 58 44 60 45
REMARK SMILES IDX 26 46 63 47 57 48 56 49 27 51 49 52 34 53 48 54 35 55 38 56
REMARK SMILES IDX 47 57 61 58 36 59 37 60 46 62 62 63 39 64 28 65 29 66 33 67
REMARK SMILES IDX 30 68 32 69 31 70 50 71 51 72 55 73 52 74 54 75 53 76 40 77
REMARK SMILES IDX 41 78 45 79 42 80 44 81 43 82
REMARK H PARENT 9 7 70 19 16 31 60 50 38 61
REMARK Flexibility Score: inf
ROOT
ATOM      1  C   UNL     1      -5.100  -1.077  -1.155  1.00  0.00     0.002 C 
ENDROOT
BRANCH   1   2
ATOM      2  C   UNL     1      -3.731  -0.506  -1.523  1.00  0.00     0.021 C 
BRANCH   2   3
ATOM      3  C   UNL     1      -2.681  -1.564  -1.830  1.00  0.00     0.116 C 
BRANCH   3   4
ATOM      4  N   UNL     1      -2.645  -1.963  -3.222  1.00  0.00    -0.356 N 
ATOM      5  C   UNL     1      -1.575  -2.318  -3.999  1.00  0.00     0.224 C 
ATOM      6  O   UNL     1      -1.811  -2.786  -5.115  1.00  0.00    -0.275 OA
ATOM      7  H   UNL     1      -3.518  -1.982  -3.677  1.00  0.00     0.163 HD
BRANCH   5   8
ATOM      8  C   UNL     1      -0.121  -2.154  -3.512  1.00  0.00     0.098 C 
ATOM      9  C   UNL     1       1.335  -0.423   0.345  1.00  0.00     0.039 C 
ATOM     10  C   UNL     1       0.853  -1.043  -0.937  1.00  0.00    -0.076 C 
ATOM     11  C   UNL     1       0.689  -2.370  -1.065  1.00  0.00    -0.024 C 
ATOM     12  C   UNL     1       0.519  -0.061  -2.025  1.00  0.00     0.044 C 
ATOM     13  C   UNL     1       0.091  -3.054  -2.265  1.00  0.00     0.022 C 
ATOM     14  C   UNL     1       0.234  -0.649  -3.414  1.00  0.00     0.096 C 
ATOM     15  C   UNL     1       0.829  -4.357  -2.611  1.00  0.00     0.013 C 
BRANCH  14  16
ATOM     16  C   UNL     1       1.226  -0.171  -4.499  1.00  0.00     0.228 C 
ATOM     17  O   UNL     1       0.798   0.138  -5.617  1.00  0.00    -0.274 OA
ATOM     18  N   UNL     1       2.549   0.067  -4.253  1.00  0.00    -0.324 N 
ATOM     19  H   UNL     1       2.974   0.715  -4.861  1.00  0.00     0.169 HD
BRANCH  18  20
ATOM     20  C   UNL     1       3.396  -0.464  -3.275  1.00  0.00     0.059 A 
ATOM     21  C   UNL     1       3.380  -1.811  -2.956  1.00  0.00     0.029 A 
ATOM     22  C   UNL     1       4.335   0.335  -2.635  1.00  0.00     0.137 A 
ATOM     23  C   UNL     1       4.208  -2.298  -1.948  1.00  0.00     0.022 A 
ATOM     24  N   UNL     1       5.150  -0.101  -1.644  1.00  0.00    -0.263 NA
ATOM     25  C   UNL     1       5.053  -1.407  -1.311  1.00  0.00     0.111 A 
ENDBRANCH  18  20
ENDBRANCH  14  16
ENDBRANCH   5   8
ENDBRANCH   3   4
ENDBRANCH   2   3
ENDBRANCH   1   2
BRANCH   1  26
ATOM     26  C   UNL     1      -5.126  -1.994   0.075  1.00  0.00     0.002 C 
BRANCH  26  27
ATOM     27  C   UNL     1      -4.500  -1.427   1.355  1.00  0.00     0.021 C 
BRANCH  27  28
ATOM     28  C   UNL     1      -5.051  -0.080   1.815  1.00  0.00     0.116 C 
BRANCH  28  29
ATOM     29  N   UNL     1      -6.490  -0.103   2.001  1.00  0.00    -0.352 N 
ATOM     30  C   UNL     1      -7.253   0.384   3.026  1.00  0.00     0.251 C 
ATOM     31  H   UNL     1      -6.996  -0.536   1.275  1.00  0.00     0.163 HD
ATOM     32  O   UNL     1      -8.458   0.127   3.059  1.00  0.00    -0.269 OA
BRANCH  30  33
ATOM     33  C   UNL     1      -6.655   1.204   4.100  1.00  0.00     0.039 A 
ATOM     34  C   UNL     1      -7.099   1.006   5.411  1.00  0.00     0.014 A 
ATOM     35  C   UNL     1      -5.724   2.211   3.824  1.00  0.00     0.014 A 
ATOM     36  C   UNL     1      -6.601   1.801   6.444  1.00  0.00     0.010 A 
ATOM     37  C   UNL     1      -5.180   2.962   4.865  1.00  0.00     0.010 A 
ATOM     38  C   UNL     1      -5.633   2.782   6.180  1.00  0.00    -0.014 A 
BRANCH  38  39
ATOM     39  C   UNL     1      -5.141   3.667   7.265  1.00  0.00     0.031 A 
ATOM     40  C   UNL     1      -5.489   5.131   7.255  1.00  0.00     0.074 A 
ATOM     41  C   UNL     1      -4.380   3.159   8.253  1.00  0.00     0.049 A 
ATOM     42  N   UNL     1      -5.160   6.065   8.112  1.00  0.00    -0.248 NA
ATOM     43  C   UNL     1      -6.299   5.614   6.125  1.00  0.00     0.031 C 
ATOM     44  C   UNL     1      -3.954   1.763   8.365  1.00  0.00     0.029 A 
ATOM     45  N   UNL     1      -3.838   3.763   9.359  1.00  0.00    -0.354 N 
ATOM     46  C   UNL     1      -5.715   7.240   7.621  1.00  0.00     0.074 A 
ATOM     47  C   UNL     1      -6.354   6.915   6.365  1.00  0.00     0.031 C 
ATOM     48  C   UNL     1      -3.246   1.611   9.497  1.00  0.00     0.029 A 
ATOM     49  C   UNL     1      -3.147   2.900  10.174  1.00  0.00     0.049 A 
ATOM     50  H   UNL     1      -3.936   4.724   9.551  1.00  0.00     0.167 HD
ATOM     51  C   UNL     1      -5.718   8.476   8.176  1.00  0.00     0.031 A 
ATOM     52  C   UNL     1      -2.515   3.123  11.341  1.00  0.00     0.031 A 
ATOM     53  C   UNL     1      -5.094   8.803   9.429  1.00  0.00     0.049 A 
ATOM     54  C   UNL     1      -2.532   4.505  11.933  1.00  0.00     0.074 A 
ATOM     55  C   UNL     1      -5.051  10.023  10.082  1.00  0.00     0.029 A 
ATOM     56  N   UNL     1      -4.412   7.897  10.226  1.00  0.00    -0.354 N 
ATOM     57  N   UNL     1      -3.092   5.597  11.473  1.00  0.00    -0.248 NA
ATOM     58  C   UNL     1      -1.844   4.677  13.221  1.00  0.00     0.031 C 
ATOM     59  C   UNL     1      -4.321   9.859  11.265  1.00  0.00     0.029 A 
ATOM     60  C   UNL     1      -3.946   8.529  11.366  1.00  0.00     0.049 A 
ATOM     61  H   UNL     1      -4.279   6.945  10.013  1.00  0.00     0.167 HD
ATOM     62  C   UNL     1      -2.857   6.575  12.430  1.00  0.00     0.074 A 
ATOM     63  C   UNL     1      -2.116   5.943  13.502  1.00  0.00     0.031 C 
ATOM     64  C   UNL     1      -3.221   7.880  12.425  1.00  0.00     0.031 A 
BRANCH  51  65
ATOM     65  C   UNL     1      -6.432   9.563   7.423  1.00  0.00    -0.014 A 
ATOM     66  C   UNL     1      -7.834   9.585   7.345  1.00  0.00     0.009 A 
ATOM     67  C   UNL     1      -5.701  10.589   6.804  1.00  0.00     0.009 A 
ATOM     68  C   UNL     1      -8.488  10.590   6.631  1.00  0.00     0.001 A 
ATOM     69  C   UNL     1      -6.359  11.608   6.113  1.00  0.00     0.001 A 
ATOM     70  C   UNL     1      -7.751  11.603   6.019  1.00  0.00     0.000 A 
ENDBRANCH  51  65
BRANCH  52  71
ATOM     71  C   UNL     1      -1.842   2.009  12.056  1.00  0.00    -0.014 A 
ATOM     72  C   UNL     1      -2.382   1.503  13.249  1.00  0.00     0.009 A 
ATOM     73  C   UNL     1      -0.641   1.469  11.571  1.00  0.00     0.009 A 
ATOM     74  C   UNL     1      -1.714   0.506  13.961  1.00  0.00     0.001 A 
ATOM     75  C   UNL     1       0.010   0.452  12.272  1.00  0.00     0.001 A 
ATOM     76  C   UNL     1      -0.519  -0.020  13.472  1.00  0.00     0.000 A 
ENDBRANCH  52  71
BRANCH  64  77
ATOM     77  C   UNL     1      -2.868   8.689  13.640  1.00  0.00    -0.014 A 
ATOM     78  C   UNL     1      -1.546   9.079  13.899  1.00  0.00     0.009 A 
ATOM     79  C   UNL     1      -3.881   9.075  14.532  1.00  0.00     0.009 A 
ATOM     80  C   UNL     1      -1.238   9.804  15.052  1.00  0.00     0.001 A 
ATOM     81  C   UNL     1      -3.575   9.822  15.669  1.00  0.00     0.001 A 
ATOM     82  C   UNL     1      -2.252  10.175  15.934  1.00  0.00     0.000 A 
ENDBRANCH  64  77
ENDBRANCH  38  39
ENDBRANCH  30  33
ENDBRANCH  28  29
ENDBRANCH  27  28
ENDBRANCH  26  27
ENDBRANCH   1  26
TORSDOF 15
