REMARK SMILES O=C(CCCN1C(=O)C(=O)/C(=C(/[O-])c2ccccc2)[C@@H]1/C=C/c1ccccc1)NCCCCCCNC(=O)c1ccc(-c2c3nc(c(-c4ccccc4)c4ccc([nH]4)c(-c4ccccc4)c4nc(c(-c5ccccc5)c5ccc2[nH]5)C=C4)C=C3)cc1
REMARK SMILES IDX 31 1 30 2 29 3 1 4 2 5 3 7 4 8 5 9 6 10 7 11 20 12 8 13 9 14
REMARK SMILES IDX 11 15 10 16 12 17 13 18 21 19 22 20 23 21 24 22 28 23 25 24
REMARK SMILES IDX 27 25 26 26 14 27 15 28 19 29 16 30 18 31 17 32 32 33 33 34
REMARK SMILES IDX 34 35 35 36 36 37 37 38 38 40 39 41 40 42 86 43 41 44 85 45
REMARK SMILES IDX 42 46 43 47 44 48 79 49 45 50 84 51 78 52 80 53 46 54 83 55
REMARK SMILES IDX 77 56 76 57 47 59 69 60 54 61 68 62 55 63 58 64 67 65 81 66
REMARK SMILES IDX 56 67 57 68 66 70 82 71 59 72 48 73 49 74 53 75 50 76 52 77
REMARK SMILES IDX 51 78 70 79 71 80 75 81 72 82 74 83 73 84 60 85 61 86 65 87
REMARK SMILES IDX 62 88 64 89 63 90
REMARK H PARENT 29 6 36 39 80 58 58 69
REMARK Flexibility Score: inf
ROOT
ATOM      1  C   UNL     1       2.529   1.889  -2.840  1.00  0.00     0.021 C 
ENDROOT
BRANCH   1   2
ATOM      2  C   UNL     1       1.912   0.646  -2.198  1.00  0.00     0.116 C 
BRANCH   2   3
ATOM      3  N   UNL     1       2.313   0.499  -0.818  1.00  0.00    -0.356 N 
ATOM      4  O   UNL     1       1.105  -1.397  -0.364  1.00  0.00    -0.275 OA
ATOM      5  C   UNL     1       1.875  -0.513  -0.003  1.00  0.00     0.220 C 
ATOM      6  H   UNL     1       2.936   1.162  -0.442  1.00  0.00     0.163 HD
BRANCH   5   7
ATOM      7  C   UNL     1       2.483  -0.480   1.387  1.00  0.00     0.102 C 
BRANCH   7   8
ATOM      8  C   UNL     1       3.777  -1.287   1.507  1.00  0.00     0.031 C 
BRANCH   8   9
ATOM      9  C   UNL     1       4.842  -1.157   0.409  1.00  0.00     0.121 C 
BRANCH   9  10
ATOM     10  N   UNL     1       5.734   0.007   0.435  1.00  0.00    -0.325 N 
ATOM     11  C   UNL     1       5.309   1.314   0.417  1.00  0.00     0.295 C 
ATOM     12  C   UNL     1       7.172  -0.110   0.193  1.00  0.00     0.143 C 
ATOM     13  O   UNL     1       4.191   1.771   0.544  1.00  0.00    -0.265 OA
ATOM     14  C   UNL     1       6.503   2.186   0.104  1.00  0.00     0.248 C 
ATOM     15  C   UNL     1       7.697   1.306   0.092  1.00  0.00     0.024 C 
ATOM     16  O   UNL     1       6.403   3.359  -0.182  1.00  0.00    -0.283 OA
ATOM     17  C   UNL     1       8.963   1.758   0.000  1.00  0.00    -0.092 C 
ATOM     18  O   UNL     1      10.066   0.930  -0.064  1.00  0.00    -0.872 OA
BRANCH  12  19
ATOM     19  C   UNL     1       7.432  -0.916  -1.058  1.00  0.00     0.003 C 
ATOM     20  C   UNL     1       7.708  -2.232  -1.033  1.00  0.00     0.006 C 
BRANCH  20  21
ATOM     21  C   UNL     1       7.979  -3.035  -2.225  1.00  0.00    -0.026 A 
ATOM     22  C   UNL     1       6.994  -3.880  -2.749  1.00  0.00     0.008 A 
ATOM     23  C   UNL     1       9.253  -3.023  -2.802  1.00  0.00     0.008 A 
ATOM     24  C   UNL     1       7.288  -4.719  -3.828  1.00  0.00     0.001 A 
ATOM     25  C   UNL     1       9.546  -3.866  -3.876  1.00  0.00     0.001 A 
ATOM     26  C   UNL     1       8.566  -4.717  -4.385  1.00  0.00     0.000 A 
ENDBRANCH  20  21
ENDBRANCH  12  19
BRANCH  17  27
ATOM     27  C   UNL     1       9.324   3.189  -0.072  1.00  0.00    -0.033 A 
ATOM     28  C   UNL     1       9.952   3.695  -1.218  1.00  0.00     0.007 A 
ATOM     29  C   UNL     1       9.025   4.072   0.977  1.00  0.00     0.007 A 
ATOM     30  C   UNL     1      10.234   5.060  -1.332  1.00  0.00     0.001 A 
ATOM     31  C   UNL     1       9.296   5.438   0.857  1.00  0.00     0.001 A 
ATOM     32  C   UNL     1       9.895   5.932  -0.299  1.00  0.00     0.000 A 
ENDBRANCH  17  27
ENDBRANCH   9  10
ENDBRANCH   8   9
ENDBRANCH   7   8
ENDBRANCH   5   7
ENDBRANCH   2   3
ENDBRANCH   1   2
BRANCH   1  33
ATOM     33  C   UNL     1       4.045   1.819  -3.074  1.00  0.00     0.002 C 
BRANCH  33  34
ATOM     34  C   UNL     1       4.524   0.759  -4.069  1.00  0.00     0.002 C 
BRANCH  34  35
ATOM     35  C   UNL     1       3.894   0.833  -5.460  1.00  0.00     0.021 C 
BRANCH  35  36
ATOM     36  C   UNL     1       4.034   2.177  -6.171  1.00  0.00     0.116 C 
BRANCH  36  37
ATOM     37  N   UNL     1       5.413   2.506  -6.496  1.00  0.00    -0.352 N 
ATOM     38  C   UNL     1       5.950   2.925  -7.690  1.00  0.00     0.251 C 
ATOM     39  H   UNL     1       6.054   2.416  -5.755  1.00  0.00     0.163 HD
ATOM     40  O   UNL     1       7.167   3.020  -7.821  1.00  0.00    -0.269 OA
BRANCH  38  41
ATOM     41  C   UNL     1       5.064   3.233  -8.836  1.00  0.00     0.039 A 
ATOM     42  C   UNL     1       5.399   2.736 -10.099  1.00  0.00     0.014 A 
ATOM     43  C   UNL     1       3.913   4.008  -8.672  1.00  0.00     0.014 A 
ATOM     44  C   UNL     1       4.541   2.952 -11.181  1.00  0.00     0.010 A 
ATOM     45  C   UNL     1       3.026   4.167  -9.736  1.00  0.00     0.010 A 
ATOM     46  C   UNL     1       3.328   3.637 -10.999  1.00  0.00    -0.014 A 
BRANCH  46  47
ATOM     47  C   UNL     1       2.357   3.793 -12.113  1.00  0.00     0.031 A 
ATOM     48  C   UNL     1       2.029   5.158 -12.652  1.00  0.00     0.074 A 
ATOM     49  C   UNL     1       1.720   2.710 -12.600  1.00  0.00     0.049 A 
ATOM     50  N   UNL     1       1.160   5.496 -13.572  1.00  0.00    -0.248 NA
ATOM     51  C   UNL     1       2.758   6.295 -12.067  1.00  0.00     0.031 C 
ATOM     52  C   UNL     1       1.923   1.332 -12.149  1.00  0.00     0.029 A 
ATOM     53  N   UNL     1       0.766   2.601 -13.582  1.00  0.00    -0.354 N 
ATOM     54  C   UNL     1       1.228   6.880 -13.665  1.00  0.00     0.074 A 
ATOM     55  C   UNL     1       2.189   7.324 -12.678  1.00  0.00     0.031 C 
ATOM     56  C   UNL     1       1.139   0.514 -12.871  1.00  0.00     0.029 A 
ATOM     57  C   UNL     1       0.350   1.311 -13.804  1.00  0.00     0.049 A 
ATOM     58  H   UNL     1       0.414   3.374 -14.079  1.00  0.00     0.167 HD
ATOM     59  C   UNL     1       0.564   7.708 -14.507  1.00  0.00     0.031 A 
ATOM     60  C   UNL     1      -0.570   0.822 -14.657  1.00  0.00     0.031 A 
ATOM     61  C   UNL     1      -0.388   7.272 -15.494  1.00  0.00     0.049 A 
ATOM     62  C   UNL     1      -1.314   1.765 -15.560  1.00  0.00     0.074 A 
ATOM     63  C   UNL     1      -1.078   8.034 -16.421  1.00  0.00     0.029 A 
ATOM     64  N   UNL     1      -0.785   5.958 -15.681  1.00  0.00    -0.354 N 
ATOM     65  N   UNL     1      -1.200   3.066 -15.671  1.00  0.00    -0.248 NA
ATOM     66  C   UNL     1      -2.309   1.168 -16.463  1.00  0.00     0.031 C 
ATOM     67  C   UNL     1      -1.927   7.186 -17.139  1.00  0.00     0.029 A 
ATOM     68  C   UNL     1      -1.726   5.890 -16.695  1.00  0.00     0.049 A 
ATOM     69  H   UNL     1      -0.449   5.188 -15.169  1.00  0.00     0.167 HD
ATOM     70  C   UNL     1      -2.087   3.439 -16.672  1.00  0.00     0.074 A 
ATOM     71  C   UNL     1      -2.721   2.227 -17.146  1.00  0.00     0.031 C 
ATOM     72  C   UNL     1      -2.349   4.677 -17.157  1.00  0.00     0.031 A 
BRANCH  59  73
ATOM     73  C   UNL     1       0.846   9.180 -14.392  1.00  0.00    -0.014 A 
ATOM     74  C   UNL     1       2.073   9.719 -14.811  1.00  0.00     0.009 A 
ATOM     75  C   UNL     1      -0.140  10.045 -13.893  1.00  0.00     0.009 A 
ATOM     76  C   UNL     1       2.320  11.088 -14.700  1.00  0.00     0.001 A 
ATOM     77  C   UNL     1       0.099  11.418 -13.809  1.00  0.00     0.001 A 
ATOM     78  C   UNL     1       1.331  11.937 -14.204  1.00  0.00     0.000 A 
ENDBRANCH  59  73
BRANCH  60  79
ATOM     79  C   UNL     1      -0.830  -0.639 -14.715  1.00  0.00    -0.014 A 
ATOM     80  C   UNL     1      -0.412  -1.390 -15.825  1.00  0.00     0.009 A 
ATOM     81  C   UNL     1      -1.502  -1.290 -13.669  1.00  0.00     0.009 A 
ATOM     82  C   UNL     1      -0.683  -2.758 -15.898  1.00  0.00     0.001 A 
ATOM     83  C   UNL     1      -1.748  -2.664 -13.733  1.00  0.00     0.001 A 
ATOM     84  C   UNL     1      -1.347  -3.394 -14.850  1.00  0.00     0.000 A 
ENDBRANCH  60  79
BRANCH  72  85
ATOM     85  C   UNL     1      -3.339   4.779 -18.283  1.00  0.00    -0.014 A 
ATOM     86  C   UNL     1      -4.714   4.608 -18.063  1.00  0.00     0.009 A 
ATOM     87  C   UNL     1      -2.889   5.092 -19.575  1.00  0.00     0.009 A 
ATOM     88  C   UNL     1      -5.617   4.717 -19.123  1.00  0.00     0.001 A 
ATOM     89  C   UNL     1      -3.796   5.227 -20.627  1.00  0.00     0.001 A 
ATOM     90  C   UNL     1      -5.158   5.032 -20.402  1.00  0.00     0.000 A 
ENDBRANCH  72  85
ENDBRANCH  46  47
ENDBRANCH  38  41
ENDBRANCH  36  37
ENDBRANCH  35  36
ENDBRANCH  34  35
ENDBRANCH  33  34
ENDBRANCH   1  33
TORSDOF 19
