REMARK SMILES O=C(NCCCCCCNC(=O)c1nn(-c2ccc([N+](=O)[O-])cc2)cc1CCO)c1ccc(-c2c3nc(c(-c4ccccc4)c4ccc([nH]4)c(-c4ccccc4)c4nc(c(-c5ccccc5)c5ccc2[nH]5)C=C4)C=C3)cc1
REMARK SMILES IDX 7 1 6 2 5 3 4 4 3 5 1 6 2 7 30 9 31 10 77 11 32 12 76 13
REMARK SMILES IDX 33 14 34 15 35 16 70 17 36 18 75 19 69 20 71 21 37 22 74 23
REMARK SMILES IDX 68 24 67 25 38 27 60 28 45 29 59 30 46 31 49 32 58 33 72 34
REMARK SMILES IDX 47 35 48 36 57 38 73 39 50 40 39 41 40 42 44 43 41 44 43 45
REMARK SMILES IDX 42 46 61 47 62 48 66 49 63 50 65 51 64 52 51 53 52 54 56 55
REMARK SMILES IDX 53 56 55 57 54 58 8 59 9 60 10 61 11 62 12 64 13 65 14 66
REMARK SMILES IDX 26 67 15 68 25 69 27 70 28 71 29 72 16 74 17 75 24 76 18 77
REMARK SMILES IDX 23 78 19 79 20 80 21 81 22 82
REMARK H PARENT 3 8 71 26 49 37 10 63 29 73
REMARK Flexibility Score: inf
ROOT
ATOM      1  C   UNL     1       4.945  -3.927   1.223  1.00  0.00     0.002 C 
ENDROOT
BRANCH   1   2
ATOM      2  C   UNL     1       4.339  -2.789   2.049  1.00  0.00     0.002 C 
BRANCH   2   3
ATOM      3  C   UNL     1       4.850  -1.384   1.717  1.00  0.00     0.021 C 
BRANCH   3   4
ATOM      4  C   UNL     1       4.715  -0.979   0.249  1.00  0.00     0.116 C 
BRANCH   4   5
ATOM      5  N   UNL     1       3.353  -0.941  -0.244  1.00  0.00    -0.352 N 
ATOM      6  O   UNL     1       1.278  -0.334  -0.726  1.00  0.00    -0.269 OA
ATOM      7  C   UNL     1       2.295  -0.092  -0.071  1.00  0.00     0.251 C 
ATOM      8  H   UNL     1       3.142  -1.698  -0.837  1.00  0.00     0.163 HD
BRANCH   7   9
ATOM      9  C   UNL     1       2.274   1.059   0.873  1.00  0.00     0.039 A 
ATOM     10  C   UNL     1       3.401   1.684   1.408  1.00  0.00     0.014 A 
ATOM     11  C   UNL     1       1.004   1.561   1.215  1.00  0.00     0.014 A 
ATOM     12  C   UNL     1       3.267   2.740   2.307  1.00  0.00     0.010 A 
ATOM     13  C   UNL     1       0.865   2.636   2.090  1.00  0.00     0.010 A 
ATOM     14  C   UNL     1       2.001   3.219   2.648  1.00  0.00    -0.014 A 
BRANCH  14  15
ATOM     15  C   UNL     1       1.932   4.440   3.450  1.00  0.00     0.031 A 
ATOM     16  C   UNL     1       2.458   5.676   2.799  1.00  0.00     0.074 A 
ATOM     17  C   UNL     1       1.281   4.551   4.624  1.00  0.00     0.049 A 
ATOM     18  N   UNL     1       3.360   6.497   3.235  1.00  0.00    -0.248 NA
ATOM     19  C   UNL     1       1.921   6.019   1.472  1.00  0.00     0.031 C 
ATOM     20  C   UNL     1       0.417   3.556   5.259  1.00  0.00     0.029 A 
ATOM     21  N   UNL     1       1.160   5.645   5.436  1.00  0.00    -0.354 N 
ATOM     22  C   UNL     1       3.389   7.551   2.324  1.00  0.00     0.074 A 
ATOM     23  C   UNL     1       2.563   7.157   1.210  1.00  0.00     0.031 C 
ATOM     24  C   UNL     1      -0.308   4.159   6.226  1.00  0.00     0.029 A 
ATOM     25  C   UNL     1       0.124   5.543   6.352  1.00  0.00     0.049 A 
ATOM     26  H   UNL     1       1.751   6.429   5.377  1.00  0.00     0.167 HD
ATOM     27  C   UNL     1       3.914   8.769   2.630  1.00  0.00     0.031 A 
ATOM     28  C   UNL     1      -0.396   6.533   7.115  1.00  0.00     0.031 A 
ATOM     29  C   UNL     1       4.809   8.726   3.753  1.00  0.00     0.049 A 
ATOM     30  C   UNL     1       0.567   7.654   7.163  1.00  0.00     0.074 A 
ATOM     31  C   UNL     1       5.963   8.037   4.069  1.00  0.00     0.029 A 
ATOM     32  N   UNL     1       4.392   9.302   4.927  1.00  0.00    -0.354 N 
ATOM     33  N   UNL     1       1.683   7.635   7.831  1.00  0.00    -0.248 NA
ATOM     34  C   UNL     1       0.435   8.737   6.201  1.00  0.00     0.031 C 
ATOM     35  C   UNL     1       5.913   7.849   5.482  1.00  0.00     0.029 A 
ATOM     36  C   UNL     1       4.738   8.448   5.938  1.00  0.00     0.049 A 
ATOM     37  H   UNL     1       3.932  10.167   5.023  1.00  0.00     0.167 HD
ATOM     38  C   UNL     1       2.550   8.423   7.092  1.00  0.00     0.074 A 
ATOM     39  C   UNL     1       1.691   9.188   6.196  1.00  0.00     0.031 C 
ATOM     40  C   UNL     1       3.892   8.168   7.076  1.00  0.00     0.031 A 
BRANCH  27  41
ATOM     41  C   UNL     1       3.303  10.067   2.151  1.00  0.00    -0.014 A 
ATOM     42  C   UNL     1       3.951  11.280   2.452  1.00  0.00     0.009 A 
ATOM     43  C   UNL     1       1.976  10.159   1.688  1.00  0.00     0.009 A 
ATOM     44  C   UNL     1       3.278  12.507   2.370  1.00  0.00     0.001 A 
ATOM     45  C   UNL     1       1.318  11.385   1.558  1.00  0.00     0.001 A 
ATOM     46  C   UNL     1       1.960  12.557   1.930  1.00  0.00     0.000 A 
ENDBRANCH  27  41
BRANCH  28  47
ATOM     47  C   UNL     1      -1.758   6.659   7.672  1.00  0.00    -0.014 A 
ATOM     48  C   UNL     1      -2.022   7.542   8.730  1.00  0.00     0.009 A 
ATOM     49  C   UNL     1      -2.857   6.083   7.009  1.00  0.00     0.009 A 
ATOM     50  C   UNL     1      -3.338   7.857   9.092  1.00  0.00     0.001 A 
ATOM     51  C   UNL     1      -4.170   6.387   7.378  1.00  0.00     0.001 A 
ATOM     52  C   UNL     1      -4.410   7.286   8.411  1.00  0.00     0.000 A 
ENDBRANCH  28  47
BRANCH  40  53
ATOM     53  C   UNL     1       4.457   7.258   8.136  1.00  0.00    -0.014 A 
ATOM     54  C   UNL     1       4.005   5.942   8.333  1.00  0.00     0.009 A 
ATOM     55  C   UNL     1       5.566   7.698   8.876  1.00  0.00     0.009 A 
ATOM     56  C   UNL     1       4.609   5.111   9.280  1.00  0.00     0.001 A 
ATOM     57  C   UNL     1       6.187   6.858   9.803  1.00  0.00     0.001 A 
ATOM     58  C   UNL     1       5.702   5.569  10.012  1.00  0.00     0.000 A 
ENDBRANCH  40  53
ENDBRANCH  14  15
ENDBRANCH   7   9
ENDBRANCH   4   5
ENDBRANCH   3   4
ENDBRANCH   2   3
ENDBRANCH   1   2
BRANCH   1  59
ATOM     59  C   UNL     1       6.476  -4.003   1.221  1.00  0.00     0.021 C 
BRANCH  59  60
ATOM     60  C   UNL     1       7.124  -4.133   2.601  1.00  0.00     0.116 C 
BRANCH  60  61
ATOM     61  N   UNL     1       6.738  -5.366   3.269  1.00  0.00    -0.351 N 
ATOM     62  C   UNL     1       7.537  -6.420   3.639  1.00  0.00     0.272 C 
ATOM     63  H   UNL     1       5.782  -5.457   3.483  1.00  0.00     0.163 HD
ATOM     64  O   UNL     1       7.020  -7.462   4.059  1.00  0.00    -0.267 OA
BRANCH  62  65
ATOM     65  C   UNL     1       8.985  -6.300   3.463  1.00  0.00     0.153 A 
ATOM     66  N   UNL     1       9.684  -5.319   4.061  1.00  0.00    -0.162 NA
ATOM     67  C   UNL     1       9.838  -7.153   2.707  1.00  0.00     0.006 A 
ATOM     68  N   UNL     1      10.928  -5.414   3.549  1.00  0.00    -0.240 N 
ATOM     69  C   UNL     1      11.059  -6.506   2.727  1.00  0.00     0.119 A 
BRANCH  67  70
ATOM     70  C   UNL     1       9.491  -8.421   1.989  1.00  0.00     0.068 C 
BRANCH  70  71
ATOM     71  C   UNL     1       9.303  -9.618   2.927  1.00  0.00     0.161 C 
BRANCH  71  72
ATOM     72  O   UNL     1       7.931  -9.841   3.227  1.00  0.00    -0.396 OA
ATOM     73  H   UNL     1       7.567  -9.061   3.675  1.00  0.00     0.210 HD
ENDBRANCH  71  72
ENDBRANCH  70  71
ENDBRANCH  67  70
BRANCH  68  74
ATOM     74  C   UNL     1      11.894  -4.420   3.840  1.00  0.00     0.065 A 
ATOM     75  C   UNL     1      11.829  -3.743   5.068  1.00  0.00     0.035 A 
ATOM     76  C   UNL     1      12.879  -4.088   2.900  1.00  0.00     0.035 A 
ATOM     77  C   UNL     1      12.760  -2.747   5.370  1.00  0.00     0.088 A 
ATOM     78  C   UNL     1      13.782  -3.057   3.179  1.00  0.00     0.088 A 
ATOM     79  C   UNL     1      13.725  -2.398   4.417  1.00  0.00     0.269 A 
BRANCH  79  80
ATOM     80  N   UNL     1      14.678  -1.321   4.711  1.00  0.00     0.062 N 
ATOM     81  O   UNL     1      14.737  -0.906   5.877  1.00  0.00    -0.258 OA
ATOM     82  O   UNL     1      15.366  -0.892   3.774  1.00  0.00    -0.258 OA
ENDBRANCH  79  80
ENDBRANCH  68  74
ENDBRANCH  62  65
ENDBRANCH  60  61
ENDBRANCH  59  60
ENDBRANCH   1  59
TORSDOF 18
