REMARK SMILES O=C(NCCCCCCNC(=O)c1cc(SCC(=O)N2CCOCC2)ccn1)c1ccc(-c2c3nc(c(-c4ccccc4)c4ccc([nH]4)c(-c4ccccc4)c4nc(c(-c5ccccc5)c5ccc2[nH]5)C=C4)C=C3)cc1
REMARK SMILES IDX 7 1 6 2 5 3 4 4 3 5 1 6 2 7 29 9 30 10 76 11 31 12 75 13
REMARK SMILES IDX 32 14 33 15 34 16 69 17 35 18 74 19 68 20 70 21 36 22 73 23
REMARK SMILES IDX 67 24 66 25 37 27 59 28 44 29 58 30 45 31 48 32 57 33 71 34
REMARK SMILES IDX 46 35 47 36 56 38 72 39 49 40 38 41 39 42 43 43 40 44 42 45
REMARK SMILES IDX 41 46 60 47 61 48 65 49 62 50 64 51 63 52 50 53 51 54 55 55
REMARK SMILES IDX 52 56 54 57 53 58 8 59 9 60 10 61 11 62 12 64 13 65 14 66
REMARK SMILES IDX 28 67 15 68 27 69 26 70 16 71 17 72 18 73 19 74 20 75 21 76
REMARK SMILES IDX 25 77 22 78 24 79 23 80
REMARK H PARENT 3 8 70 26 48 37 10 63
REMARK Flexibility Score: inf
ROOT
ATOM      1  C   UNL     1       4.780  -1.547   4.146  1.00  0.00     0.002 C 
ENDROOT
BRANCH   1   2
ATOM      2  C   UNL     1       4.260  -0.131   3.877  1.00  0.00     0.002 C 
BRANCH   2   3
ATOM      3  C   UNL     1       4.756   0.508   2.580  1.00  0.00     0.021 C 
BRANCH   3   4
ATOM      4  C   UNL     1       4.483  -0.312   1.326  1.00  0.00     0.116 C 
BRANCH   4   5
ATOM      5  N   UNL     1       3.061  -0.493   1.083  1.00  0.00    -0.352 N 
ATOM      6  O   UNL     1       1.095  -0.214   0.008  1.00  0.00    -0.269 OA
ATOM      7  C   UNL     1       2.322  -0.160  -0.022  1.00  0.00     0.251 C 
ATOM      8  H   UNL     1       2.557  -0.914   1.817  1.00  0.00     0.163 HD
BRANCH   7   9
ATOM      9  C   UNL     1       3.009   0.283  -1.252  1.00  0.00     0.039 A 
ATOM     10  C   UNL     1       4.125  -0.410  -1.729  1.00  0.00     0.014 A 
ATOM     11  C   UNL     1       2.521   1.395  -1.941  1.00  0.00     0.014 A 
ATOM     12  C   UNL     1       4.828   0.083  -2.821  1.00  0.00     0.010 A 
ATOM     13  C   UNL     1       3.178   1.838  -3.090  1.00  0.00     0.010 A 
ATOM     14  C   UNL     1       4.349   1.197  -3.527  1.00  0.00    -0.014 A 
BRANCH  14  15
ATOM     15  C   UNL     1       5.034   1.629  -4.768  1.00  0.00     0.031 A 
ATOM     16  C   UNL     1       5.686   2.977  -4.870  1.00  0.00     0.074 A 
ATOM     17  C   UNL     1       5.045   0.790  -5.822  1.00  0.00     0.049 A 
ATOM     18  N   UNL     1       6.297   3.520  -5.893  1.00  0.00    -0.248 NA
ATOM     19  C   UNL     1       5.639   3.831  -3.674  1.00  0.00     0.031 C 
ATOM     20  C   UNL     1       4.434  -0.541  -5.844  1.00  0.00     0.029 A 
ATOM     21  N   UNL     1       5.583   0.931  -7.074  1.00  0.00    -0.354 N 
ATOM     22  C   UNL     1       6.686   4.785  -5.474  1.00  0.00     0.074 A 
ATOM     23  C   UNL     1       6.220   4.939  -4.112  1.00  0.00     0.031 C 
ATOM     24  C   UNL     1       4.649  -1.103  -7.041  1.00  0.00     0.029 A 
ATOM     25  C   UNL     1       5.350  -0.148  -7.891  1.00  0.00     0.049 A 
ATOM     26  H   UNL     1       6.087   1.727  -7.360  1.00  0.00     0.167 HD
ATOM     27  C   UNL     1       7.368   5.731  -6.165  1.00  0.00     0.031 A 
ATOM     28  C   UNL     1       5.634  -0.340  -9.191  1.00  0.00     0.031 A 
ATOM     29  C   UNL     1       7.809   5.576  -7.528  1.00  0.00     0.049 A 
ATOM     30  C   UNL     1       6.347   0.739  -9.949  1.00  0.00     0.074 A 
ATOM     31  C   UNL     1       8.544   6.457  -8.302  1.00  0.00     0.029 A 
ATOM     32  N   UNL     1       7.538   4.474  -8.327  1.00  0.00    -0.354 N 
ATOM     33  N   UNL     1       6.761   1.908  -9.523  1.00  0.00    -0.248 NA
ATOM     34  C   UNL     1       6.636   0.474 -11.364  1.00  0.00     0.031 C 
ATOM     35  C   UNL     1       8.656   5.921  -9.589  1.00  0.00     0.029 A 
ATOM     36  C   UNL     1       8.057   4.671  -9.597  1.00  0.00     0.049 A 
ATOM     37  H   UNL     1       7.050   3.671  -8.035  1.00  0.00     0.167 HD
ATOM     38  C   UNL     1       7.378   2.510 -10.610  1.00  0.00     0.074 A 
ATOM     39  C   UNL     1       7.296   1.570 -11.710  1.00  0.00     0.031 C 
ATOM     40  C   UNL     1       7.961   3.731 -10.686  1.00  0.00     0.031 A 
BRANCH  27  41
ATOM     41  C   UNL     1       7.634   7.040  -5.470  1.00  0.00    -0.014 A 
ATOM     42  C   UNL     1       8.520   7.132  -4.384  1.00  0.00     0.009 A 
ATOM     43  C   UNL     1       7.001   8.208  -5.925  1.00  0.00     0.009 A 
ATOM     44  C   UNL     1       8.727   8.354  -3.739  1.00  0.00     0.001 A 
ATOM     45  C   UNL     1       7.235   9.434  -5.300  1.00  0.00     0.001 A 
ATOM     46  C   UNL     1       8.087   9.504  -4.200  1.00  0.00     0.000 A 
ENDBRANCH  27  41
BRANCH  28  47
ATOM     47  C   UNL     1       5.205  -1.601  -9.850  1.00  0.00    -0.014 A 
ATOM     48  C   UNL     1       6.144  -2.567 -10.235  1.00  0.00     0.009 A 
ATOM     49  C   UNL     1       3.838  -1.861 -10.053  1.00  0.00     0.009 A 
ATOM     50  C   UNL     1       5.724  -3.764 -10.822  1.00  0.00     0.001 A 
ATOM     51  C   UNL     1       3.420  -3.070 -10.609  1.00  0.00     0.001 A 
ATOM     52  C   UNL     1       4.364  -4.017 -11.000  1.00  0.00     0.000 A 
ENDBRANCH  28  47
BRANCH  40  53
ATOM     53  C   UNL     1       8.588   4.113 -11.998  1.00  0.00    -0.014 A 
ATOM     54  C   UNL     1       7.806   4.429 -13.120  1.00  0.00     0.009 A 
ATOM     55  C   UNL     1       9.985   4.209 -12.095  1.00  0.00     0.009 A 
ATOM     56  C   UNL     1       8.413   4.809 -14.319  1.00  0.00     0.001 A 
ATOM     57  C   UNL     1      10.588   4.619 -13.284  1.00  0.00     0.001 A 
ATOM     58  C   UNL     1       9.802   4.912 -14.397  1.00  0.00     0.000 A 
ENDBRANCH  40  53
ENDBRANCH  14  15
ENDBRANCH   7   9
ENDBRANCH   4   5
ENDBRANCH   3   4
ENDBRANCH   2   3
ENDBRANCH   1   2
BRANCH   1  59
ATOM     59  C   UNL     1       6.303  -1.700   4.125  1.00  0.00     0.021 C 
BRANCH  59  60
ATOM     60  C   UNL     1       7.041  -0.785   5.094  1.00  0.00     0.116 C 
BRANCH  60  61
ATOM     61  N   UNL     1       6.733  -1.083   6.481  1.00  0.00    -0.351 N 
ATOM     62  C   UNL     1       7.601  -1.304   7.527  1.00  0.00     0.269 C 
ATOM     63  H   UNL     1       5.776  -1.132   6.704  1.00  0.00     0.163 HD
ATOM     64  O   UNL     1       7.164  -1.606   8.634  1.00  0.00    -0.268 OA
BRANCH  62  65
ATOM     65  C   UNL     1       9.064  -1.162   7.296  1.00  0.00     0.129 A 
ATOM     66  C   UNL     1       9.570   0.045   6.822  1.00  0.00     0.049 A 
ATOM     67  N   UNL     1       9.811  -2.271   7.515  1.00  0.00    -0.251 NA
ATOM     68  C   UNL     1      10.915   0.097   6.485  1.00  0.00     0.012 A 
ATOM     69  C   UNL     1      11.123  -2.173   7.242  1.00  0.00     0.113 A 
ATOM     70  C   UNL     1      11.708  -1.032   6.722  1.00  0.00     0.035 A 
BRANCH  68  71
ATOM     71  S   UNL     1      11.740   1.500   5.764  1.00  0.00    -0.116 SA
BRANCH  71  72
ATOM     72  C   UNL     1      10.436   2.533   5.061  1.00  0.00     0.175 C 
BRANCH  72  73
ATOM     73  C   UNL     1       9.425   1.950   4.083  1.00  0.00     0.233 C 
ATOM     74  O   UNL     1       8.224   2.162   4.303  1.00  0.00    -0.274 OA
ATOM     75  N   UNL     1       9.810   1.420   2.870  1.00  0.00    -0.337 N 
ATOM     76  C   UNL     1      11.033   0.687   2.546  1.00  0.00     0.148 C 
ATOM     77  C   UNL     1       8.960   1.632   1.692  1.00  0.00     0.148 C 
ATOM     78  C   UNL     1      11.805   1.415   1.447  1.00  0.00     0.181 C 
ATOM     79  C   UNL     1       9.785   2.341   0.605  1.00  0.00     0.181 C 
ATOM     80  O   UNL     1      10.977   1.600   0.287  1.00  0.00    -0.378 OA
ENDBRANCH  72  73
ENDBRANCH  71  72
ENDBRANCH  68  71
ENDBRANCH  62  65
ENDBRANCH  60  61
ENDBRANCH  59  60
ENDBRANCH   1  59
TORSDOF 16
