REMARK SMILES Cc1ccc(C[C@@H](Cc2cc(F)cc(Br)c2)C(=O)NCCCCCCNC(=O)c2ccc(-c3c4nc(c(-c5ccccc5)c5ccc([nH]5)c(-c5ccccc5)c5nc(c(-c6ccccc6)c6ccc3[nH]6)C=C5)C=C4)cc2)cc1
REMARK SMILES IDX 22 1 21 2 20 3 19 4 17 5 18 6 7 8 6 9 5 10 1 11 2 12 3 13
REMARK SMILES IDX 78 14 4 15 77 16 8 17 9 18 10 19 16 20 11 21 14 22 12 23
REMARK SMILES IDX 13 24 15 25 23 26 24 27 25 28 26 29 27 30 28 32 29 33 30 34
REMARK SMILES IDX 76 35 31 36 75 37 32 38 33 39 34 40 69 41 35 42 74 43 68 44
REMARK SMILES IDX 70 45 36 46 73 47 67 48 66 49 37 51 59 52 44 53 58 54 45 55
REMARK SMILES IDX 48 56 57 57 71 58 46 59 47 60 56 62 72 63 49 64 38 65 39 66
REMARK SMILES IDX 43 67 40 68 42 69 41 70 60 71 61 72 65 73 62 74 64 75 63 76
REMARK SMILES IDX 50 77 51 78 55 79 52 80 54 81 53 82
REMARK H PARENT 19 7 26 31 70 50 48 61
REMARK Flexibility Score: inf
ROOT
ATOM      1  C   UNL     1      -7.713  -1.506   2.469  1.00  0.00     0.002 C 
ENDROOT
BRANCH   1   2
ATOM      2  C   UNL     1      -6.205  -1.258   2.351  1.00  0.00     0.021 C 
BRANCH   2   3
ATOM      3  C   UNL     1      -5.620  -1.625   0.993  1.00  0.00     0.116 C 
BRANCH   3   4
ATOM      4  N   UNL     1      -5.954  -0.644  -0.020  1.00  0.00    -0.356 N 
ATOM      5  C   UNL     1      -5.242  -0.222  -1.099  1.00  0.00     0.223 C 
ATOM      6  O   UNL     1      -5.803   0.538  -1.893  1.00  0.00    -0.275 OA
ATOM      7  H   UNL     1      -6.834  -0.217   0.090  1.00  0.00     0.163 HD
BRANCH   5   8
ATOM      8  C   UNL     1      -3.793  -0.636  -1.325  1.00  0.00     0.087 C 
BRANCH   8   9
ATOM      9  C   UNL     1      -2.957   0.087  -0.233  1.00  0.00     0.049 C 
BRANCH   9  10
ATOM     10  C   UNL     1      -1.446   0.060  -0.292  1.00  0.00    -0.047 A 
ATOM     11  C   UNL     1       2.872   0.140  -0.009  1.00  0.00     0.044 C 
ATOM     12  C   UNL     1       1.376   0.124  -0.110  1.00  0.00    -0.051 A 
ATOM     13  C   UNL     1       0.681  -1.077   0.045  1.00  0.00     0.004 A 
ATOM     14  C   UNL     1       0.655   1.293  -0.367  1.00  0.00     0.004 A 
ATOM     15  C   UNL     1      -0.714  -1.103  -0.026  1.00  0.00     0.004 A 
ATOM     16  C   UNL     1      -0.740   1.260  -0.460  1.00  0.00     0.004 A 
ENDBRANCH   9  10
ENDBRANCH   8   9
BRANCH   8  17
ATOM     17  C   UNL     1      -3.529  -2.154  -1.483  1.00  0.00     0.049 C 
BRANCH  17  18
ATOM     18  C   UNL     1      -4.611  -3.189  -1.741  1.00  0.00    -0.043 A 
ATOM     19  C   UNL     1      -4.348  -4.507  -1.319  1.00  0.00     0.043 A 
ATOM     20  C   UNL     1      -5.857  -2.930  -2.324  1.00  0.00     0.019 A 
ATOM     21  C   UNL     1      -5.336  -5.487  -1.375  1.00  0.00     0.124 A 
ATOM     22  C   UNL     1      -6.854  -3.916  -2.331  1.00  0.00     0.021 A 
ATOM     23  F   UNL     1      -5.064  -6.719  -0.924  1.00  0.00    -0.207 F 
ATOM     24  C   UNL     1      -6.603  -5.196  -1.849  1.00  0.00     0.055 A 
ATOM     25  Br  UNL     1      -8.593  -3.483  -2.940  1.00  0.00    -0.051 Br
ENDBRANCH  17  18
ENDBRANCH   8  17
ENDBRANCH   5   8
ENDBRANCH   3   4
ENDBRANCH   2   3
ENDBRANCH   1   2
BRANCH   1  26
ATOM     26  C   UNL     1      -8.196  -2.934   2.151  1.00  0.00     0.002 C 
BRANCH  26  27
ATOM     27  C   UNL     1      -7.391  -4.078   2.775  1.00  0.00     0.021 C 
BRANCH  27  28
ATOM     28  C   UNL     1      -7.402  -4.083   4.296  1.00  0.00     0.116 C 
BRANCH  28  29
ATOM     29  N   UNL     1      -8.486  -4.848   4.885  1.00  0.00    -0.352 N 
ATOM     30  C   UNL     1      -8.903  -4.946   6.204  1.00  0.00     0.251 C 
ATOM     31  H   UNL     1      -9.009  -5.384   4.246  1.00  0.00     0.163 HD
ATOM     32  O   UNL     1      -9.769  -5.743   6.498  1.00  0.00    -0.269 OA
BRANCH  30  33
ATOM     33  C   UNL     1      -8.404  -3.979   7.225  1.00  0.00     0.039 A 
ATOM     34  C   UNL     1      -9.325  -3.531   8.184  1.00  0.00     0.014 A 
ATOM     35  C   UNL     1      -7.155  -3.374   7.140  1.00  0.00     0.014 A 
ATOM     36  C   UNL     1      -9.098  -2.329   8.850  1.00  0.00     0.010 A 
ATOM     37  C   UNL     1      -6.969  -2.135   7.716  1.00  0.00     0.010 A 
ATOM     38  C   UNL     1      -7.973  -1.583   8.511  1.00  0.00    -0.014 A 
BRANCH  38  39
ATOM     39  C   UNL     1      -7.811  -0.176   8.841  1.00  0.00     0.031 A 
ATOM     40  C   UNL     1      -6.909   0.237   9.932  1.00  0.00     0.074 A 
ATOM     41  C   UNL     1      -8.450   0.759   8.105  1.00  0.00     0.049 A 
ATOM     42  N   UNL     1      -7.021   1.347  10.580  1.00  0.00    -0.248 NA
ATOM     43  C   UNL     1      -5.822  -0.606  10.416  1.00  0.00     0.031 C 
ATOM     44  C   UNL     1      -8.213   2.201   8.091  1.00  0.00     0.029 A 
ATOM     45  N   UNL     1      -9.574   0.624   7.315  1.00  0.00    -0.354 N 
ATOM     46  C   UNL     1      -5.879   1.502  11.329  1.00  0.00     0.074 A 
ATOM     47  C   UNL     1      -5.207   0.225  11.264  1.00  0.00     0.031 C 
ATOM     48  C   UNL     1      -9.290   2.813   7.568  1.00  0.00     0.029 A 
ATOM     49  C   UNL     1     -10.315   1.801   7.375  1.00  0.00     0.049 A 
ATOM     50  H   UNL     1      -9.813  -0.176   6.794  1.00  0.00     0.167 HD
ATOM     51  C   UNL     1      -5.548   2.736  11.800  1.00  0.00     0.031 A 
ATOM     52  C   UNL     1     -11.561   1.850   7.936  1.00  0.00     0.031 A 
ATOM     53  C   UNL     1      -6.562   3.735  11.471  1.00  0.00     0.049 A 
ATOM     54  C   UNL     1     -11.644   2.755   9.152  1.00  0.00     0.074 A 
ATOM     55  C   UNL     1      -6.650   4.695  10.475  1.00  0.00     0.029 A 
ATOM     56  N   UNL     1      -7.832   3.624  12.024  1.00  0.00    -0.354 N 
ATOM     57  N   UNL     1     -10.606   3.164   9.830  1.00  0.00    -0.248 NA
ATOM     58  C   UNL     1     -12.899   3.242   9.720  1.00  0.00     0.031 C 
ATOM     59  C   UNL     1      -8.002   5.117  10.390  1.00  0.00     0.029 A 
ATOM     60  C   UNL     1      -8.726   4.435  11.353  1.00  0.00     0.049 A 
ATOM     61  H   UNL     1      -8.062   3.048  12.788  1.00  0.00     0.167 HD
ATOM     62  C   UNL     1     -11.015   3.941  10.883  1.00  0.00     0.074 A 
ATOM     63  C   UNL     1     -12.461   3.969  10.765  1.00  0.00     0.031 C 
ATOM     64  C   UNL     1     -10.123   4.484  11.763  1.00  0.00     0.031 A 
BRANCH  51  65
ATOM     65  C   UNL     1      -4.165   3.083  12.293  1.00  0.00    -0.014 A 
ATOM     66  C   UNL     1      -3.673   4.390  12.120  1.00  0.00     0.009 A 
ATOM     67  C   UNL     1      -3.283   2.164  12.885  1.00  0.00     0.009 A 
ATOM     68  C   UNL     1      -2.348   4.731  12.422  1.00  0.00     0.001 A 
ATOM     69  C   UNL     1      -1.945   2.486  13.151  1.00  0.00     0.001 A 
ATOM     70  C   UNL     1      -1.474   3.769  12.909  1.00  0.00     0.000 A 
ENDBRANCH  51  65
BRANCH  52  71
ATOM     71  C   UNL     1     -12.348   0.597   7.763  1.00  0.00    -0.014 A 
ATOM     72  C   UNL     1     -12.784   0.262   6.466  1.00  0.00     0.009 A 
ATOM     73  C   UNL     1     -12.326  -0.406   8.743  1.00  0.00     0.009 A 
ATOM     74  C   UNL     1     -13.069  -1.064   6.127  1.00  0.00     0.001 A 
ATOM     75  C   UNL     1     -12.623  -1.732   8.400  1.00  0.00     0.001 A 
ATOM     76  C   UNL     1     -12.956  -2.066   7.087  1.00  0.00     0.000 A 
ENDBRANCH  52  71
BRANCH  64  77
ATOM     77  C   UNL     1     -10.447   5.170  13.071  1.00  0.00    -0.014 A 
ATOM     78  C   UNL     1     -11.651   5.023  13.771  1.00  0.00     0.009 A 
ATOM     79  C   UNL     1      -9.430   5.911  13.720  1.00  0.00     0.009 A 
ATOM     80  C   UNL     1     -11.841   5.614  15.030  1.00  0.00     0.001 A 
ATOM     81  C   UNL     1      -9.597   6.460  14.993  1.00  0.00     0.001 A 
ATOM     82  C   UNL     1     -10.812   6.320  15.645  1.00  0.00     0.000 A 
ENDBRANCH  64  77
ENDBRANCH  38  39
ENDBRANCH  30  33
ENDBRANCH  28  29
ENDBRANCH  27  28
ENDBRANCH  26  27
ENDBRANCH   1  26
TORSDOF 17
