REMARK SMILES C[C@@H](C(=O)NCCCCCCNC(=O)c1ccc(-c2c3nc(c(-c4ccccc4)c4ccc([nH]4)c(-c4ccccc4)c4nc(c(-c5ccccc5)c5ccc2[nH]5)C=C4)C=C3)cc1)c1ccc(-c2cccc(OC(=O)NCCC3CCCCC3)c2)c(F)c1
REMARK SMILES IDX 6 1 5 2 3 3 4 4 2 6 1 7 63 8 64 9 87 10 65 11 85 12 66 13
REMARK SMILES IDX 86 14 67 15 68 16 84 17 69 18 71 19 70 20 72 21 73 22 74 23
REMARK SMILES IDX 75 24 76 26 77 27 78 28 79 29 83 30 80 31 82 32 81 33 7 34
REMARK SMILES IDX 8 35 9 36 10 37 11 38 12 39 13 40 14 42 15 43 16 44 62 45
REMARK SMILES IDX 17 46 61 47 18 48 19 49 20 50 55 51 21 52 60 53 54 54 56 55
REMARK SMILES IDX 22 56 59 57 53 58 52 59 23 61 45 62 30 63 44 64 31 65 34 66
REMARK SMILES IDX 43 67 57 68 32 69 33 70 42 72 58 73 35 74 24 75 25 76 29 77
REMARK SMILES IDX 26 78 28 79 27 80 46 81 47 82 51 83 48 84 50 85 49 86 36 87
REMARK SMILES IDX 37 88 41 89 38 90 40 91 39 92
REMARK H PARENT 5 5 75 25 12 41 56 60 34 71
REMARK Flexibility Score: inf
ROOT
ATOM      1  C   UNL     1       3.351  -1.794  -0.565  1.00  0.00     0.116 C 
ENDROOT
BRANCH   1   2
ATOM      2  N   UNL     1       2.264  -2.645  -0.131  1.00  0.00    -0.356 N 
ATOM      3  C   UNL     1       0.972  -2.300   0.147  1.00  0.00     0.227 C 
ATOM      4  O   UNL     1       0.352  -3.045   0.906  1.00  0.00    -0.274 OA
ATOM      5  H   UNL     1       2.485  -3.598  -0.021  1.00  0.00     0.163 HD
BRANCH   3   6
ATOM      6  C   UNL     1       0.370  -1.043  -0.511  1.00  0.00     0.105 C 
ATOM      7  C   UNL     1       0.817   0.190   0.291  1.00  0.00     0.023 C 
BRANCH   6   8
ATOM      8  C   UNL     1      -1.152  -1.095  -0.691  1.00  0.00    -0.033 A 
ATOM      9  C   UNL     1      -1.924   0.079  -0.713  1.00  0.00     0.005 A 
ATOM     10  C   UNL     1      -1.832  -2.312  -0.858  1.00  0.00     0.044 A 
ATOM     11  C   UNL     1      -3.320   0.032  -0.756  1.00  0.00     0.012 A 
ATOM     12  C   UNL     1      -3.225  -2.355  -0.888  1.00  0.00     0.131 A 
ATOM     13  C   UNL     1      -3.997  -1.192  -0.799  1.00  0.00     0.018 A 
ATOM     14  F   UNL     1      -3.820  -3.556  -0.967  1.00  0.00    -0.206 F 
BRANCH  13  15
ATOM     15  C   UNL     1      -5.454  -1.236  -0.636  1.00  0.00    -0.012 A 
ATOM     16  C   UNL     1      -6.320  -0.540  -1.491  1.00  0.00     0.009 A 
ATOM     17  C   UNL     1      -6.001  -1.928   0.459  1.00  0.00     0.056 A 
ATOM     18  C   UNL     1      -7.697  -0.531  -1.255  1.00  0.00     0.004 A 
ATOM     19  C   UNL     1      -7.369  -1.893   0.712  1.00  0.00     0.133 A 
ATOM     20  C   UNL     1      -8.222  -1.203  -0.150  1.00  0.00     0.047 A 
BRANCH  19  21
ATOM     21  O   UNL     1      -7.989  -2.517   1.823  1.00  0.00    -0.410 OA
BRANCH  21  22
ATOM     22  C   UNL     1      -7.315  -2.987   2.948  1.00  0.00     0.412 C 
ATOM     23  O   UNL     1      -6.101  -2.993   3.128  1.00  0.00    -0.224 OA
ATOM     24  N   UNL     1      -8.137  -3.452   3.930  1.00  0.00    -0.321 N 
ATOM     25  H   UNL     1      -7.694  -3.787   4.743  1.00  0.00     0.167 HD
BRANCH  24  26
ATOM     26  C   UNL     1      -9.582  -3.514   3.926  1.00  0.00     0.119 C 
BRANCH  26  27
ATOM     27  C   UNL     1     -10.081  -4.959   3.946  1.00  0.00     0.025 C 
BRANCH  27  28
ATOM     28  C   UNL     1      -9.651  -5.769   5.190  1.00  0.00    -0.009 C 
ATOM     29  C   UNL     1     -10.300  -5.237   6.479  1.00  0.00     0.003 C 
ATOM     30  C   UNL     1      -9.989  -7.256   4.986  1.00  0.00     0.003 C 
ATOM     31  C   UNL     1      -9.951  -6.093   7.695  1.00  0.00     0.000 C 
ATOM     32  C   UNL     1      -9.618  -8.094   6.207  1.00  0.00     0.000 C 
ATOM     33  C   UNL     1     -10.285  -7.563   7.469  1.00  0.00     0.000 C 
ENDBRANCH  27  28
ENDBRANCH  26  27
ENDBRANCH  24  26
ENDBRANCH  21  22
ENDBRANCH  19  21
ENDBRANCH  13  15
ENDBRANCH   6   8
ENDBRANCH   3   6
ENDBRANCH   1   2
BRANCH   1  34
ATOM     34  C   UNL     1       4.180  -1.358   0.648  1.00  0.00     0.021 C 
BRANCH  34  35
ATOM     35  C   UNL     1       4.906  -2.514   1.349  1.00  0.00     0.002 C 
BRANCH  35  36
ATOM     36  C   UNL     1       5.857  -3.306   0.449  1.00  0.00     0.002 C 
BRANCH  36  37
ATOM     37  C   UNL     1       6.898  -2.450  -0.272  1.00  0.00     0.021 C 
BRANCH  37  38
ATOM     38  C   UNL     1       7.799  -1.660   0.667  1.00  0.00     0.116 C 
BRANCH  38  39
ATOM     39  N   UNL     1       8.647  -2.533   1.464  1.00  0.00    -0.352 N 
ATOM     40  C   UNL     1      10.014  -2.515   1.586  1.00  0.00     0.251 C 
ATOM     41  H   UNL     1       8.180  -3.227   1.983  1.00  0.00     0.163 HD
ATOM     42  O   UNL     1      10.613  -3.440   2.121  1.00  0.00    -0.269 OA
BRANCH  40  43
ATOM     43  C   UNL     1      10.758  -1.362   1.042  1.00  0.00     0.039 A 
ATOM     44  C   UNL     1      11.872  -1.584   0.231  1.00  0.00     0.014 A 
ATOM     45  C   UNL     1      10.321  -0.062   1.313  1.00  0.00     0.014 A 
ATOM     46  C   UNL     1      12.521  -0.497  -0.357  1.00  0.00     0.010 A 
ATOM     47  C   UNL     1      10.914   1.009   0.660  1.00  0.00     0.010 A 
ATOM     48  C   UNL     1      12.028   0.804  -0.170  1.00  0.00    -0.014 A 
BRANCH  48  49
ATOM     49  C   UNL     1      12.672   1.985  -0.793  1.00  0.00     0.031 A 
ATOM     50  C   UNL     1      13.257   3.055   0.086  1.00  0.00     0.074 A 
ATOM     51  C   UNL     1      12.645   2.146  -2.129  1.00  0.00     0.049 A 
ATOM     52  N   UNL     1      13.730   4.230  -0.242  1.00  0.00    -0.248 NA
ATOM     53  C   UNL     1      13.277   2.779   1.532  1.00  0.00     0.031 C 
ATOM     54  C   UNL     1      12.086   1.193  -3.089  1.00  0.00     0.029 A 
ATOM     55  N   UNL     1      13.082   3.188  -2.908  1.00  0.00    -0.354 N 
ATOM     56  C   UNL     1      14.073   4.842   0.957  1.00  0.00     0.074 A 
ATOM     57  C   UNL     1      13.703   3.933   2.019  1.00  0.00     0.031 C 
ATOM     58  C   UNL     1      12.227   1.688  -4.329  1.00  0.00     0.029 A 
ATOM     59  C   UNL     1      12.837   3.013  -4.248  1.00  0.00     0.049 A 
ATOM     60  H   UNL     1      13.528   3.985  -2.542  1.00  0.00     0.167 HD
ATOM     61  C   UNL     1      14.658   6.046   1.157  1.00  0.00     0.031 A 
ATOM     62  C   UNL     1      13.059   3.834  -5.292  1.00  0.00     0.031 A 
ATOM     63  C   UNL     1      15.028   6.944   0.097  1.00  0.00     0.049 A 
ATOM     64  C   UNL     1      13.684   5.180  -5.049  1.00  0.00     0.074 A 
ATOM     65  C   UNL     1      15.673   8.165   0.187  1.00  0.00     0.029 A 
ATOM     66  N   UNL     1      14.778   6.720  -1.249  1.00  0.00    -0.354 N 
ATOM     67  N   UNL     1      14.054   5.726  -3.915  1.00  0.00    -0.248 NA
ATOM     68  C   UNL     1      13.934   6.018  -6.230  1.00  0.00     0.031 C 
ATOM     69  C   UNL     1      15.755   8.709  -1.099  1.00  0.00     0.029 A 
ATOM     70  C   UNL     1      15.231   7.793  -1.997  1.00  0.00     0.049 A 
ATOM     71  H   UNL     1      14.342   5.918  -1.617  1.00  0.00     0.167 HD
ATOM     72  C   UNL     1      14.614   6.953  -4.249  1.00  0.00     0.074 A 
ATOM     73  C   UNL     1      14.536   7.069  -5.691  1.00  0.00     0.031 C 
ATOM     74  C   UNL     1      15.153   7.892  -3.433  1.00  0.00     0.031 A 
BRANCH  61  75
ATOM     75  C   UNL     1      14.903   6.464   2.582  1.00  0.00    -0.014 A 
ATOM     76  C   UNL     1      15.821   5.785   3.400  1.00  0.00     0.009 A 
ATOM     77  C   UNL     1      14.200   7.555   3.116  1.00  0.00     0.009 A 
ATOM     78  C   UNL     1      15.986   6.152   4.737  1.00  0.00     0.001 A 
ATOM     79  C   UNL     1      14.396   7.945   4.442  1.00  0.00     0.001 A 
ATOM     80  C   UNL     1      15.276   7.234   5.256  1.00  0.00     0.000 A 
ENDBRANCH  61  75
BRANCH  62  81
ATOM     81  C   UNL     1      12.693   3.395  -6.664  1.00  0.00    -0.014 A 
ATOM     82  C   UNL     1      13.689   3.073  -7.598  1.00  0.00     0.009 A 
ATOM     83  C   UNL     1      11.346   3.273  -7.041  1.00  0.00     0.009 A 
ATOM     84  C   UNL     1      13.344   2.656  -8.886  1.00  0.00     0.001 A 
ATOM     85  C   UNL     1      11.004   2.826  -8.319  1.00  0.00     0.001 A 
ATOM     86  C   UNL     1      12.003   2.525  -9.243  1.00  0.00     0.000 A 
ENDBRANCH  62  81
BRANCH  74  87
ATOM     87  C   UNL     1      15.758   9.110  -4.076  1.00  0.00    -0.014 A 
ATOM     88  C   UNL     1      14.965  10.110  -4.657  1.00  0.00     0.009 A 
ATOM     89  C   UNL     1      17.151   9.289  -4.028  1.00  0.00     0.009 A 
ATOM     90  C   UNL     1      15.557  11.254  -5.197  1.00  0.00     0.001 A 
ATOM     91  C   UNL     1      17.737  10.447  -4.539  1.00  0.00     0.001 A 
ATOM     92  C   UNL     1      16.940  11.425  -5.130  1.00  0.00     0.000 A 
ENDBRANCH  74  87
ENDBRANCH  48  49
ENDBRANCH  40  43
ENDBRANCH  38  39
ENDBRANCH  37  38
ENDBRANCH  36  37
ENDBRANCH  35  36
ENDBRANCH  34  35
ENDBRANCH   1  34
TORSDOF 20
