REMARK SMILES O=C(NCCCCCCNC(=O)[C@@H]1C=C[C@H](NC(=O)[C@@H]2Cc3ccccc3O2)C1)c1ccc(-c2c3nc(c(-c4ccccc4)c4ccc([nH]4)c(-c4ccccc4)c4nc(c(-c5ccccc5)c5ccc2[nH]5)C=C4)C=C3)cc1
REMARK SMILES IDX 6 1 5 2 4 3 3 4 1 5 2 6 30 8 31 9 77 10 32 11 76 12 33 13
REMARK SMILES IDX 34 14 35 15 70 16 36 17 75 18 69 19 71 20 37 21 74 22 68 23
REMARK SMILES IDX 67 24 38 26 60 27 45 28 59 29 46 30 49 31 58 32 72 33 47 34
REMARK SMILES IDX 48 35 57 37 73 38 50 39 39 40 40 41 44 42 41 43 43 44 42 45
REMARK SMILES IDX 61 46 62 47 66 48 63 49 65 50 64 51 51 52 52 53 56 54 53 55
REMARK SMILES IDX 55 56 54 57 7 58 8 59 9 60 10 61 11 62 12 64 13 65 14 66
REMARK SMILES IDX 29 67 15 68 16 69 17 70 18 71 19 73 20 74 21 75 28 76 22 77
REMARK SMILES IDX 27 78 23 79 26 80 24 81 25 82
REMARK H PARENT 3 7 71 25 49 36 10 63 17 72
REMARK Flexibility Score: inf
ROOT
ATOM      1  C   UNL     1      12.526  -3.140  -7.809  1.00  0.00     0.002 C 
ENDROOT
BRANCH   1   2
ATOM      2  C   UNL     1      11.297  -3.237  -6.903  1.00  0.00     0.021 C 
BRANCH   2   3
ATOM      3  C   UNL     1      10.600  -1.909  -6.638  1.00  0.00     0.116 C 
BRANCH   3   4
ATOM      4  N   UNL     1      10.012  -1.348  -7.843  1.00  0.00    -0.352 N 
ATOM      5  O   UNL     1       8.350  -0.730  -9.237  1.00  0.00    -0.269 OA
ATOM      6  C   UNL     1       8.704  -1.014  -8.102  1.00  0.00     0.251 C 
ATOM      7  H   UNL     1      10.642  -1.182  -8.581  1.00  0.00     0.163 HD
BRANCH   6   8
ATOM      8  C   UNL     1       7.718  -1.017  -6.999  1.00  0.00     0.039 A 
ATOM      9  C   UNL     1       8.031  -0.447  -5.763  1.00  0.00     0.014 A 
ATOM     10  C   UNL     1       6.460  -1.588  -7.210  1.00  0.00     0.014 A 
ATOM     11  C   UNL     1       7.146  -0.575  -4.700  1.00  0.00     0.010 A 
ATOM     12  C   UNL     1       5.535  -1.638  -6.163  1.00  0.00     0.010 A 
ATOM     13  C   UNL     1       5.883  -1.161  -4.890  1.00  0.00    -0.014 A 
BRANCH  13  14
ATOM     14  C   UNL     1       4.934  -1.213  -3.750  1.00  0.00     0.031 A 
ATOM     15  C   UNL     1       4.495  -2.524  -3.159  1.00  0.00     0.074 A 
ATOM     16  C   UNL     1       4.500  -0.053  -3.219  1.00  0.00     0.049 A 
ATOM     17  N   UNL     1       3.725  -2.739  -2.120  1.00  0.00    -0.248 NA
ATOM     18  C   UNL     1       4.970  -3.750  -3.817  1.00  0.00     0.031 C 
ATOM     19  C   UNL     1       4.851   1.282  -3.710  1.00  0.00     0.029 A 
ATOM     20  N   UNL     1       3.701   0.192  -2.132  1.00  0.00    -0.354 N 
ATOM     21  C   UNL     1       3.603  -4.119  -2.017  1.00  0.00     0.074 A 
ATOM     22  C   UNL     1       4.361  -4.692  -3.109  1.00  0.00     0.031 C 
ATOM     23  C   UNL     1       4.326   2.203  -2.889  1.00  0.00     0.029 A 
ATOM     24  C   UNL     1       3.553   1.529  -1.853  1.00  0.00     0.049 A 
ATOM     25  H   UNL     1       3.274  -0.521  -1.603  1.00  0.00     0.167 HD
ATOM     26  C   UNL     1       2.923  -4.843  -1.094  1.00  0.00     0.031 A 
ATOM     27  C   UNL     1       2.869   2.147  -0.875  1.00  0.00     0.031 A 
ATOM     28  C   UNL     1       2.176  -4.272  -0.003  1.00  0.00     0.049 A 
ATOM     29  C   UNL     1       2.113   1.321   0.122  1.00  0.00     0.074 A 
ATOM     30  C   UNL     1       1.490  -4.925   1.007  1.00  0.00     0.029 A 
ATOM     31  N   UNL     1       2.013  -2.913   0.217  1.00  0.00    -0.354 N 
ATOM     32  N   UNL     1       2.044   0.017   0.230  1.00  0.00    -0.248 NA
ATOM     33  C   UNL     1       1.341   2.055   1.133  1.00  0.00     0.031 C 
ATOM     34  C   UNL     1       0.870  -3.960   1.810  1.00  0.00     0.029 A 
ATOM     35  C   UNL     1       1.216  -2.707   1.331  1.00  0.00     0.049 A 
ATOM     36  H   UNL     1       2.405  -2.200  -0.337  1.00  0.00     0.167 HD
ATOM     37  C   UNL     1       1.237  -0.228   1.331  1.00  0.00     0.074 A 
ATOM     38  C   UNL     1       0.859   1.063   1.869  1.00  0.00     0.031 C 
ATOM     39  C   UNL     1       0.843  -1.416   1.850  1.00  0.00     0.031 A 
BRANCH  26  40
ATOM     40  C   UNL     1       2.926  -6.340  -1.245  1.00  0.00    -0.014 A 
ATOM     41  C   UNL     1       4.072  -7.102  -0.970  1.00  0.00     0.009 A 
ATOM     42  C   UNL     1       1.749  -7.000  -1.632  1.00  0.00     0.009 A 
ATOM     43  C   UNL     1       4.048  -8.492  -1.112  1.00  0.00     0.001 A 
ATOM     44  C   UNL     1       1.720  -8.391  -1.748  1.00  0.00     0.001 A 
ATOM     45  C   UNL     1       2.872  -9.135  -1.497  1.00  0.00     0.000 A 
ENDBRANCH  26  40
BRANCH  27  46
ATOM     46  C   UNL     1       2.876   3.630  -0.791  1.00  0.00    -0.014 A 
ATOM     47  C   UNL     1       3.555   4.281   0.250  1.00  0.00     0.009 A 
ATOM     48  C   UNL     1       2.216   4.402  -1.760  1.00  0.00     0.009 A 
ATOM     49  C   UNL     1       3.556   5.675   0.329  1.00  0.00     0.001 A 
ATOM     50  C   UNL     1       2.244   5.796  -1.695  1.00  0.00     0.001 A 
ATOM     51  C   UNL     1       2.906   6.431  -0.646  1.00  0.00     0.000 A 
ENDBRANCH  27  46
BRANCH  39  52
ATOM     52  C   UNL     1      -0.017  -1.367   3.080  1.00  0.00    -0.014 A 
ATOM     53  C   UNL     1      -1.359  -0.964   3.015  1.00  0.00     0.009 A 
ATOM     54  C   UNL     1       0.524  -1.741   4.320  1.00  0.00     0.009 A 
ATOM     55  C   UNL     1      -2.133  -0.900   4.176  1.00  0.00     0.001 A 
ATOM     56  C   UNL     1      -0.259  -1.702   5.474  1.00  0.00     0.001 A 
ATOM     57  C   UNL     1      -1.583  -1.272   5.402  1.00  0.00     0.000 A 
ENDBRANCH  39  52
ENDBRANCH  13  14
ENDBRANCH   6   8
ENDBRANCH   3   4
ENDBRANCH   2   3
ENDBRANCH   1   2
BRANCH   1  58
ATOM     58  C   UNL     1      13.644  -2.211  -7.314  1.00  0.00     0.002 C 
BRANCH  58  59
ATOM     59  C   UNL     1      14.060  -2.400  -5.852  1.00  0.00     0.021 C 
BRANCH  59  60
ATOM     60  C   UNL     1      14.488  -3.822  -5.512  1.00  0.00     0.116 C 
BRANCH  60  61
ATOM     61  N   UNL     1      15.865  -4.077  -5.848  1.00  0.00    -0.356 N 
ATOM     62  C   UNL     1      17.013  -4.094  -5.134  1.00  0.00     0.227 C 
ATOM     63  H   UNL     1      15.999  -4.282  -6.801  1.00  0.00     0.163 HD
ATOM     64  O   UNL     1      18.029  -4.363  -5.795  1.00  0.00    -0.274 OA
BRANCH  62  65
ATOM     65  C   UNL     1      17.166  -3.761  -3.638  1.00  0.00     0.103 C 
ATOM     66  C   UNL     1      17.888  -4.912  -2.992  1.00  0.00    -0.016 C 
ATOM     67  C   UNL     1      16.028  -3.579  -2.626  1.00  0.00     0.047 C 
ATOM     68  C   UNL     1      17.114  -5.554  -2.110  1.00  0.00    -0.006 C 
ATOM     69  C   UNL     1      15.764  -4.968  -1.996  1.00  0.00     0.106 C 
BRANCH  69  70
ATOM     70  N   UNL     1      14.699  -5.656  -2.712  1.00  0.00    -0.347 N 
ATOM     71  C   UNL     1      14.368  -6.902  -3.119  1.00  0.00     0.261 C 
ATOM     72  H   UNL     1      14.003  -5.014  -2.984  1.00  0.00     0.164 HD
ATOM     73  O   UNL     1      13.239  -6.992  -3.628  1.00  0.00    -0.271 OA
BRANCH  71  74
ATOM     74  C   UNL     1      15.213  -8.167  -2.950  1.00  0.00     0.266 C 
ATOM     75  C   UNL     1      15.247  -8.618  -1.485  1.00  0.00     0.095 C 
ATOM     76  O   UNL     1      16.535  -8.125  -3.506  1.00  0.00    -0.480 OA
ATOM     77  C   UNL     1      16.673  -8.986  -1.366  1.00  0.00    -0.002 A 
ATOM     78  C   UNL     1      17.331  -8.700  -2.552  1.00  0.00     0.123 A 
ATOM     79  C   UNL     1      17.366  -9.443  -0.260  1.00  0.00     0.008 A 
ATOM     80  C   UNL     1      18.697  -8.849  -2.683  1.00  0.00     0.047 A 
ATOM     81  C   UNL     1      18.751  -9.592  -0.368  1.00  0.00     0.001 A 
ATOM     82  C   UNL     1      19.413  -9.296  -1.571  1.00  0.00     0.004 A 
ENDBRANCH  71  74
ENDBRANCH  69  70
ENDBRANCH  62  65
ENDBRANCH  60  61
ENDBRANCH  59  60
ENDBRANCH  58  59
ENDBRANCH   1  58
TORSDOF 15
