REMARK SMILES Cc1c[nH]c(C[N@@H+](C)[C@@H](C(=O)NCCCCCCNC(=O)c2ccc(-c3c4nc(c(-c5ccccc5)c5ccc([nH]5)c(-c5ccccc5)c5nc(c(-c6ccccc6)c6ccc3[nH]6)C=C5)C=C4)cc2)c2ccc(NC(=O)N3CCCC3)cc2)n1
REMARK SMILES IDX 15 1 14 2 13 3 12 4 10 5 11 6 9 8 7 9 8 10 6 12 5 13 1 14
REMARK SMILES IDX 2 15 3 16 84 17 4 18 70 20 71 21 83 22 72 23 82 24 73 25
REMARK SMILES IDX 74 26 75 27 76 29 77 30 78 31 81 32 79 33 80 34 16 35 17 36
REMARK SMILES IDX 18 37 19 38 20 39 21 41 22 42 23 43 69 44 24 45 68 46 25 47
REMARK SMILES IDX 26 48 27 49 62 50 28 51 67 52 61 53 63 54 29 55 66 56 60 57
REMARK SMILES IDX 59 58 30 60 52 61 37 62 51 63 38 64 41 65 50 66 64 67 39 68
REMARK SMILES IDX 40 69 49 71 65 72 42 73 31 74 32 75 36 76 33 77 35 78 34 79
REMARK SMILES IDX 53 80 54 81 58 82 55 83 57 84 56 85 43 86 44 87 48 88 45 89
REMARK SMILES IDX 47 90 46 91
REMARK H PARENT 12 7 7 11 4 19 74 28 19 40 63 59 41 70
REMARK Flexibility Score: inf
ROOT
ATOM      1  C   UNL     1      -7.516   2.833   1.479  1.00  0.00     0.002 C 
ENDROOT
BRANCH   1   2
ATOM      2  C   UNL     1      -6.078   3.366   1.480  1.00  0.00     0.021 C 
BRANCH   2   3
ATOM      3  C   UNL     1      -5.272   2.960   2.717  1.00  0.00     0.116 C 
BRANCH   3   4
ATOM      4  N   UNL     1      -4.914   1.563   2.610  1.00  0.00    -0.351 N 
ATOM      5  C   UNL     1      -3.750   1.034   2.127  1.00  0.00     0.283 C 
ATOM      6  O   UNL     1      -3.823  -0.095   1.625  1.00  0.00    -0.268 OA
ATOM      7  H   UNL     1      -5.588   0.917   2.922  1.00  0.00     0.163 HD
BRANCH   5   8
ATOM      8  C   UNL     1      -2.405   1.824   2.270  1.00  0.00     0.305 C 
BRANCH   8   9
ATOM      9  N   UNL     1      -2.026   2.503   0.999  1.00  0.00    -0.317 N 
ATOM     10  C   UNL     1      -2.511   3.859   0.844  1.00  0.00     0.334 C 
ATOM     11  H   UNL     1      -1.020   2.571   1.152  1.00  0.00     0.349 HD
BRANCH   9  12
ATOM     12  C   UNL     1      -2.139   1.729  -0.248  1.00  0.00     0.339 C 
BRANCH  12  13
ATOM     13  C   UNL     1      -0.985   0.807  -0.480  1.00  0.00     0.161 A 
ATOM     14  C   UNL     1       2.453  -0.050  -0.724  1.00  0.00     0.068 C 
ATOM     15  C   UNL     1       0.975  -0.042  -0.730  1.00  0.00     0.056 A 
ATOM     16  C   UNL     1       0.096  -1.099  -0.793  1.00  0.00     0.107 A 
ATOM     17  N   UNL     1       0.286   1.140  -0.612  1.00  0.00    -0.233 NA
ATOM     18  N   UNL     1      -1.142  -0.552  -0.595  1.00  0.00    -0.344 N 
ATOM     19  H   UNL     1      -1.993  -1.044  -0.545  1.00  0.00     0.167 HD
ENDBRANCH  12  13
ENDBRANCH   9  12
ENDBRANCH   8   9
BRANCH   8  20
ATOM     20  C   UNL     1      -1.276   0.926   2.808  1.00  0.00     0.019 A 
ATOM     21  C   UNL     1      -1.539  -0.252   3.519  1.00  0.00     0.012 A 
ATOM     22  C   UNL     1       0.069   1.251   2.578  1.00  0.00     0.012 A 
ATOM     23  C   UNL     1      -0.531  -1.194   3.722  1.00  0.00     0.027 A 
ATOM     24  C   UNL     1       1.073   0.298   2.763  1.00  0.00     0.027 A 
ATOM     25  C   UNL     1       0.739  -0.981   3.197  1.00  0.00     0.042 A 
BRANCH  25  26
ATOM     26  N   UNL     1       1.690  -2.005   3.046  1.00  0.00    -0.308 N 
ATOM     27  C   UNL     1       1.554  -3.360   3.093  1.00  0.00     0.321 C 
ATOM     28  H   UNL     1       2.607  -1.690   2.878  1.00  0.00     0.171 HD
ATOM     29  O   UNL     1       2.544  -4.040   3.374  1.00  0.00    -0.248 OA
ATOM     30  N   UNL     1       0.347  -3.940   2.821  1.00  0.00    -0.325 N 
ATOM     31  C   UNL     1      -0.584  -3.593   1.763  1.00  0.00     0.121 C 
ATOM     32  C   UNL     1       0.017  -5.249   3.336  1.00  0.00     0.121 C 
ATOM     33  C   UNL     1      -1.892  -4.188   2.248  1.00  0.00     0.023 C 
ATOM     34  C   UNL     1      -1.464  -5.444   3.010  1.00  0.00     0.023 C 
ENDBRANCH  25  26
ENDBRANCH   8  20
ENDBRANCH   5   8
ENDBRANCH   3   4
ENDBRANCH   2   3
ENDBRANCH   1   2
BRANCH   1  35
ATOM     35  C   UNL     1      -8.396   3.366   2.613  1.00  0.00     0.002 C 
BRANCH  35  36
ATOM     36  C   UNL     1      -8.440   4.891   2.727  1.00  0.00     0.021 C 
BRANCH  36  37
ATOM     37  C   UNL     1      -8.872   5.606   1.450  1.00  0.00     0.116 C 
BRANCH  37  38
ATOM     38  N   UNL     1     -10.229   5.255   1.065  1.00  0.00    -0.352 N 
ATOM     39  C   UNL     1     -11.326   6.065   0.921  1.00  0.00     0.251 C 
ATOM     40  H   UNL     1     -10.381   4.299   0.882  1.00  0.00     0.163 HD
ATOM     41  O   UNL     1     -12.446   5.579   0.808  1.00  0.00    -0.269 OA
BRANCH  39  42
ATOM     42  C   UNL     1     -11.153   7.532   0.917  1.00  0.00     0.039 A 
ATOM     43  C   UNL     1     -12.012   8.317   1.689  1.00  0.00     0.014 A 
ATOM     44  C   UNL     1     -10.150   8.128   0.147  1.00  0.00     0.014 A 
ATOM     45  C   UNL     1     -11.829   9.700   1.732  1.00  0.00     0.010 A 
ATOM     46  C   UNL     1      -9.925   9.498   0.246  1.00  0.00     0.010 A 
ATOM     47  C   UNL     1     -10.766  10.297   1.034  1.00  0.00    -0.014 A 
BRANCH  47  48
ATOM     48  C   UNL     1     -10.521  11.759   1.116  1.00  0.00     0.031 A 
ATOM     49  C   UNL     1     -10.660  12.618  -0.110  1.00  0.00     0.074 A 
ATOM     50  C   UNL     1     -10.119  12.302   2.281  1.00  0.00     0.049 A 
ATOM     51  N   UNL     1     -10.443  13.902  -0.245  1.00  0.00    -0.248 NA
ATOM     52  C   UNL     1     -11.074  11.944  -1.351  1.00  0.00     0.031 C 
ATOM     53  C   UNL     1      -9.910  11.570   3.532  1.00  0.00     0.029 A 
ATOM     54  N   UNL     1      -9.808  13.600   2.600  1.00  0.00    -0.354 N 
ATOM     55  C   UNL     1     -10.680  14.185  -1.585  1.00  0.00     0.074 A 
ATOM     56  C   UNL     1     -11.007  12.933  -2.231  1.00  0.00     0.031 C 
ATOM     57  C   UNL     1      -9.533  12.434   4.489  1.00  0.00     0.029 A 
ATOM     58  C   UNL     1      -9.435  13.770   3.911  1.00  0.00     0.049 A 
ATOM     59  H   UNL     1      -9.849  14.339   1.951  1.00  0.00     0.167 HD
ATOM     60  C   UNL     1     -10.648  15.382  -2.217  1.00  0.00     0.031 A 
ATOM     61  C   UNL     1      -9.050  14.877   4.573  1.00  0.00     0.031 A 
ATOM     62  C   UNL     1     -10.332  16.629  -1.573  1.00  0.00     0.049 A 
ATOM     63  C   UNL     1      -9.002  16.190   3.843  1.00  0.00     0.074 A 
ATOM     64  C   UNL     1     -10.329  17.902  -2.115  1.00  0.00     0.029 A 
ATOM     65  N   UNL     1      -9.958  16.757  -0.245  1.00  0.00    -0.354 N 
ATOM     66  N   UNL     1      -9.299  16.452   2.593  1.00  0.00    -0.248 NA
ATOM     67  C   UNL     1      -8.574  17.363   4.619  1.00  0.00     0.031 C 
ATOM     68  C   UNL     1      -9.902  18.796  -1.128  1.00  0.00     0.029 A 
ATOM     69  C   UNL     1      -9.694  18.086   0.044  1.00  0.00     0.049 A 
ATOM     70  H   UNL     1      -9.890  16.015   0.398  1.00  0.00     0.167 HD
ATOM     71  C   UNL     1      -9.118  17.820   2.439  1.00  0.00     0.074 A 
ATOM     72  C   UNL     1      -8.704  18.336   3.728  1.00  0.00     0.031 C 
ATOM     73  C   UNL     1      -9.280  18.582   1.330  1.00  0.00     0.031 A 
BRANCH  60  74
ATOM     74  C   UNL     1     -10.958  15.397  -3.688  1.00  0.00    -0.014 A 
ATOM     75  C   UNL     1     -12.258  15.154  -4.160  1.00  0.00     0.009 A 
ATOM     76  C   UNL     1      -9.945  15.694  -4.613  1.00  0.00     0.009 A 
ATOM     77  C   UNL     1     -12.529  15.173  -5.530  1.00  0.00     0.001 A 
ATOM     78  C   UNL     1     -10.225  15.741  -5.980  1.00  0.00     0.001 A 
ATOM     79  C   UNL     1     -11.514  15.472  -6.438  1.00  0.00     0.000 A 
ENDBRANCH  60  74
BRANCH  61  80
ATOM     80  C   UNL     1      -8.688  14.798   6.013  1.00  0.00    -0.014 A 
ATOM     81  C   UNL     1      -9.516  15.374   6.988  1.00  0.00     0.009 A 
ATOM     82  C   UNL     1      -7.507  14.156   6.418  1.00  0.00     0.009 A 
ATOM     83  C   UNL     1      -9.155  15.333   8.337  1.00  0.00     0.001 A 
ATOM     84  C   UNL     1      -7.163  14.092   7.770  1.00  0.00     0.001 A 
ATOM     85  C   UNL     1      -7.982  14.689   8.727  1.00  0.00     0.000 A 
ENDBRANCH  61  80
BRANCH  73  86
ATOM     86  C   UNL     1      -9.035  20.058   1.469  1.00  0.00    -0.014 A 
ATOM     87  C   UNL     1      -7.737  20.570   1.614  1.00  0.00     0.009 A 
ATOM     88  C   UNL     1     -10.117  20.950   1.411  1.00  0.00     0.009 A 
ATOM     89  C   UNL     1      -7.531  21.946   1.730  1.00  0.00     0.001 A 
ATOM     90  C   UNL     1      -9.905  22.326   1.497  1.00  0.00     0.001 A 
ATOM     91  C   UNL     1      -8.614  22.823   1.665  1.00  0.00     0.000 A 
ENDBRANCH  73  86
ENDBRANCH  47  48
ENDBRANCH  39  42
ENDBRANCH  37  38
ENDBRANCH  36  37
ENDBRANCH  35  36
ENDBRANCH   1  35
TORSDOF 18
