REMARK SMILES CC[C@H](C)[C@@H](C)[C@](C)(O)C(=O)NCCCCCCNC(=O)c1ccc(-c2c3nc(c(-c4ccccc4)c4ccc([nH]4)c(-c4ccccc4)c4nc(c(-c5ccccc5)c5ccc2[nH]5)C=C4)C=C3)cc1
REMARK SMILES IDX 15 1 14 2 13 3 12 4 10 5 11 6 7 8 8 9 5 10 6 11 3 12 4 13
REMARK SMILES IDX 2 14 1 15 9 16 16 18 17 19 18 20 19 21 20 22 21 24 22 25
REMARK SMILES IDX 23 26 69 27 24 28 68 29 25 30 26 31 27 32 62 33 28 34 67 35
REMARK SMILES IDX 61 36 63 37 29 38 66 39 60 40 59 41 30 43 52 44 37 45 51 46
REMARK SMILES IDX 38 47 41 48 50 49 64 50 39 51 40 52 49 54 65 55 42 56 31 57
REMARK SMILES IDX 32 58 36 59 33 60 35 61 34 62 53 63 54 64 58 65 55 66 57 67
REMARK SMILES IDX 56 68 43 69 44 70 48 71 45 72 47 73 46 74
REMARK H PARENT 12 7 9 17 19 23 63 42 41 53
REMARK Flexibility Score: inf
ROOT
ATOM      1  C   UNL     1       4.542   8.758   0.273  1.00  0.00     0.002 C 
ENDROOT
BRANCH   1   2
ATOM      2  C   UNL     1       3.052   8.660   0.625  1.00  0.00     0.021 C 
BRANCH   2   3
ATOM      3  C   UNL     1       2.356   7.411   0.094  1.00  0.00     0.116 C 
BRANCH   3   4
ATOM      4  N   UNL     1       2.854   6.214   0.736  1.00  0.00    -0.354 N 
ATOM      5  C   UNL     1       2.247   5.007   0.916  1.00  0.00     0.251 C 
ATOM      6  O   UNL     1       2.943   4.108   1.401  1.00  0.00    -0.272 OA
ATOM      7  H   UNL     1       3.768   6.281   1.096  1.00  0.00     0.163 HD
BRANCH   5   8
ATOM      8  C   UNL     1       0.768   4.768   0.495  1.00  0.00     0.143 C 
ATOM      9  C   UNL     1       0.341   3.405   1.083  1.00  0.00     0.053 C 
BRANCH   8  10
ATOM     10  C   UNL     1       0.452   4.891  -1.041  1.00  0.00     0.030 C 
ATOM     11  C   UNL     1      -1.061   4.605  -1.248  1.00  0.00     0.011 C 
BRANCH  10  12
ATOM     12  C   UNL     1       1.310   4.030  -2.044  1.00  0.00    -0.008 C 
ATOM     13  C   UNL     1       0.713   4.107  -3.468  1.00  0.00     0.008 C 
BRANCH  12  14
ATOM     14  C   UNL     1       2.794   4.452  -2.155  1.00  0.00     0.000 C 
ATOM     15  C   UNL     1       3.690   3.367  -2.745  1.00  0.00     0.004 C 
ENDBRANCH  12  14
ENDBRANCH  10  12
ENDBRANCH   8  10
BRANCH   8  16
ATOM     16  O   UNL     1      -0.028   5.784   1.152  1.00  0.00    -0.380 OA
ATOM     17  H   UNL     1       0.131   5.751   2.108  1.00  0.00     0.212 HD
ENDBRANCH   8  16
ENDBRANCH   5   8
ENDBRANCH   3   4
ENDBRANCH   2   3
ENDBRANCH   1   2
BRANCH   1  18
ATOM     18  C   UNL     1       4.860   8.842  -1.223  1.00  0.00     0.002 C 
BRANCH  18  19
ATOM     19  C   UNL     1       4.159   9.972  -1.979  1.00  0.00     0.021 C 
BRANCH  19  20
ATOM     20  C   UNL     1       4.307  11.357  -1.358  1.00  0.00     0.116 C 
BRANCH  20  21
ATOM     21  N   UNL     1       5.692  11.788  -1.264  1.00  0.00    -0.352 N 
ATOM     22  C   UNL     1       6.254  12.991  -1.616  1.00  0.00     0.251 C 
ATOM     23  H   UNL     1       6.317  11.122  -0.895  1.00  0.00     0.163 HD
ATOM     24  O   UNL     1       7.468  13.138  -1.600  1.00  0.00    -0.269 OA
BRANCH  22  25
ATOM     25  C   UNL     1       5.381  14.102  -2.053  1.00  0.00     0.039 A 
ATOM     26  C   UNL     1       5.717  14.800  -3.215  1.00  0.00     0.014 A 
ATOM     27  C   UNL     1       4.229  14.437  -1.336  1.00  0.00     0.014 A 
ATOM     28  C   UNL     1       4.857  15.787  -3.699  1.00  0.00     0.010 A 
ATOM     29  C   UNL     1       3.337  15.368  -1.860  1.00  0.00     0.010 A 
ATOM     30  C   UNL     1       3.639  16.048  -3.049  1.00  0.00    -0.014 A 
BRANCH  30  31
ATOM     31  C   UNL     1       2.657  17.001  -3.623  1.00  0.00     0.031 A 
ATOM     32  C   UNL     1       2.280  18.252  -2.883  1.00  0.00     0.074 A 
ATOM     33  C   UNL     1       2.051  16.703  -4.789  1.00  0.00     0.049 A 
ATOM     34  N   UNL     1       1.413  19.177  -3.212  1.00  0.00    -0.248 NA
ATOM     35  C   UNL     1       2.947  18.483  -1.592  1.00  0.00     0.031 C 
ATOM     36  C   UNL     1       2.292  15.495  -5.583  1.00  0.00     0.029 A 
ATOM     37  N   UNL     1       1.102  17.388  -5.505  1.00  0.00    -0.354 N 
ATOM     38  C   UNL     1       1.426  20.093  -2.168  1.00  0.00     0.074 A 
ATOM     39  C   UNL     1       2.340  19.582  -1.170  1.00  0.00     0.031 C 
ATOM     40  C   UNL     1       1.530  15.537  -6.686  1.00  0.00     0.029 A 
ATOM     41  C   UNL     1       0.715  16.747  -6.657  1.00  0.00     0.049 A 
ATOM     42  H   UNL     1       0.734  18.255  -5.221  1.00  0.00     0.167 HD
ATOM     43  C   UNL     1       0.752  21.264  -2.058  1.00  0.00     0.031 A 
ATOM     44  C   UNL     1      -0.201  17.087  -7.583  1.00  0.00     0.031 A 
ATOM     45  C   UNL     1      -0.170  21.762  -3.045  1.00  0.00     0.049 A 
ATOM     46  C   UNL     1      -0.962  18.372  -7.426  1.00  0.00     0.074 A 
ATOM     47  C   UNL     1      -0.864  22.959  -3.051  1.00  0.00     0.029 A 
ATOM     48  N   UNL     1      -0.538  21.082  -4.197  1.00  0.00    -0.354 N 
ATOM     49  N   UNL     1      -0.881  19.268  -6.473  1.00  0.00    -0.248 NA
ATOM     50  C   UNL     1      -1.933  18.698  -8.480  1.00  0.00     0.031 C 
ATOM     51  C   UNL     1      -1.701  22.974  -4.172  1.00  0.00     0.029 A 
ATOM     52  C   UNL     1      -1.478  21.817  -4.901  1.00  0.00     0.049 A 
ATOM     53  H   UNL     1      -0.184  20.206  -4.473  1.00  0.00     0.167 HD
ATOM     54  C   UNL     1      -1.778  20.271  -6.817  1.00  0.00     0.074 A 
ATOM     55  C   UNL     1      -2.373  19.883  -8.080  1.00  0.00     0.031 C 
ATOM     56  C   UNL     1      -2.080  21.410  -6.146  1.00  0.00     0.031 A 
BRANCH  43  57
ATOM     57  C   UNL     1       0.981  22.071  -0.809  1.00  0.00    -0.014 A 
ATOM     58  C   UNL     1       2.224  22.672  -0.545  1.00  0.00     0.009 A 
ATOM     59  C   UNL     1      -0.061  22.241   0.116  1.00  0.00     0.009 A 
ATOM     60  C   UNL     1       2.433  23.378   0.642  1.00  0.00     0.001 A 
ATOM     61  C   UNL     1       0.140  22.978   1.285  1.00  0.00     0.001 A 
ATOM     62  C   UNL     1       1.390  23.533   1.554  1.00  0.00     0.000 A 
ENDBRANCH  43  57
BRANCH  44  63
ATOM     63  C   UNL     1      -0.443  16.186  -8.740  1.00  0.00    -0.014 A 
ATOM     64  C   UNL     1      -0.028  16.549 -10.030  1.00  0.00     0.009 A 
ATOM     65  C   UNL     1      -1.068  14.942  -8.553  1.00  0.00     0.009 A 
ATOM     66  C   UNL     1      -0.247  15.692 -11.111  1.00  0.00     0.001 A 
ATOM     67  C   UNL     1      -1.258  14.075  -9.630  1.00  0.00     0.001 A 
ATOM     68  C   UNL     1      -0.854  14.453 -10.909  1.00  0.00     0.000 A 
ENDBRANCH  44  63
BRANCH  56  69
ATOM     69  C   UNL     1      -3.096  22.325  -6.772  1.00  0.00    -0.014 A 
ATOM     70  C   UNL     1      -4.456  21.979  -6.822  1.00  0.00     0.009 A 
ATOM     71  C   UNL     1      -2.693  23.568  -7.286  1.00  0.00     0.009 A 
ATOM     72  C   UNL     1      -5.385  22.845  -7.403  1.00  0.00     0.001 A 
ATOM     73  C   UNL     1      -3.628  24.445  -7.838  1.00  0.00     0.001 A 
ATOM     74  C   UNL     1      -4.971  24.079  -7.905  1.00  0.00     0.000 A 
ENDBRANCH  56  69
ENDBRANCH  30  31
ENDBRANCH  22  25
ENDBRANCH  20  21
ENDBRANCH  19  20
ENDBRANCH  18  19
ENDBRANCH   1  18
TORSDOF 17
