REMARK SMILES O=C(NCCCCCCNC(=O)c1c(F)cccc1NS(=O)(=O)C(F)(F)F)c1ccc(-c2c3nc(c(-c4ccccc4)c4ccc([nH]4)c(-c4ccccc4)c4nc(c(-c5ccccc5)c5ccc2[nH]5)C=C4)C=C3)cc1
REMARK SMILES IDX 7 1 6 2 5 3 4 4 3 5 1 6 2 7 28 9 29 10 75 11 30 12 74 13
REMARK SMILES IDX 31 14 32 15 33 16 68 17 34 18 73 19 67 20 69 21 35 22 72 23
REMARK SMILES IDX 66 24 65 25 36 27 58 28 43 29 57 30 44 31 47 32 56 33 70 34
REMARK SMILES IDX 45 35 46 36 55 38 71 39 48 40 37 41 38 42 42 43 39 44 41 45
REMARK SMILES IDX 40 46 59 47 60 48 64 49 61 50 63 51 62 52 49 53 50 54 54 55
REMARK SMILES IDX 51 56 53 57 52 58 8 59 9 60 10 61 11 62 12 64 13 65 14 66
REMARK SMILES IDX 19 67 15 68 16 69 18 70 17 71 20 72 21 74 22 75 23 76 24 77
REMARK SMILES IDX 25 78 26 79 27 80
REMARK H PARENT 3 8 69 26 47 37 10 63 20 73
REMARK Flexibility Score: inf
ROOT
ATOM      1  C   UNL     1       4.689   2.652  -3.543  1.00  0.00     0.002 C 
ENDROOT
BRANCH   1   2
ATOM      2  C   UNL     1       4.085   1.264  -3.780  1.00  0.00     0.002 C 
BRANCH   2   3
ATOM      3  C   UNL     1       4.527   0.176  -2.803  1.00  0.00     0.021 C 
BRANCH   3   4
ATOM      4  C   UNL     1       4.309   0.499  -1.331  1.00  0.00     0.116 C 
BRANCH   4   5
ATOM      5  N   UNL     1       2.905   0.584  -0.965  1.00  0.00    -0.352 N 
ATOM      6  O   UNL     1       1.033   0.075   0.195  1.00  0.00    -0.269 OA
ATOM      7  C   UNL     1       2.255  -0.000   0.097  1.00  0.00     0.251 C 
ATOM      8  H   UNL     1       2.344   1.134  -1.557  1.00  0.00     0.163 HD
BRANCH   7   9
ATOM      9  C   UNL     1       3.031  -0.751   1.109  1.00  0.00     0.039 A 
ATOM     10  C   UNL     1       4.220  -0.230   1.621  1.00  0.00     0.014 A 
ATOM     11  C   UNL     1       2.567  -1.996   1.545  1.00  0.00     0.014 A 
ATOM     12  C   UNL     1       5.018  -1.015   2.444  1.00  0.00     0.010 A 
ATOM     13  C   UNL     1       3.328  -2.746   2.449  1.00  0.00     0.010 A 
ATOM     14  C   UNL     1       4.576  -2.276   2.881  1.00  0.00    -0.014 A 
BRANCH  14  15
ATOM     15  C   UNL     1       5.420  -3.030   3.844  1.00  0.00     0.031 A 
ATOM     16  C   UNL     1       6.062  -4.338   3.476  1.00  0.00     0.074 A 
ATOM     17  C   UNL     1       5.661  -2.476   5.048  1.00  0.00     0.049 A 
ATOM     18  N   UNL     1       6.907  -5.060   4.170  1.00  0.00    -0.248 NA
ATOM     19  C   UNL     1       5.713  -4.918   2.170  1.00  0.00     0.031 C 
ATOM     20  C   UNL     1       5.078  -1.220   5.528  1.00  0.00     0.029 A 
ATOM     21  N   UNL     1       6.486  -2.870   6.069  1.00  0.00    -0.354 N 
ATOM     22  C   UNL     1       7.183  -6.179   3.395  1.00  0.00     0.074 A 
ATOM     23  C   UNL     1       6.394  -6.057   2.187  1.00  0.00     0.031 C 
ATOM     24  C   UNL     1       5.616  -0.911   6.716  1.00  0.00     0.029 A 
ATOM     25  C   UNL     1       6.534  -1.973   7.109  1.00  0.00     0.049 A 
ATOM     26  H   UNL     1       6.995  -3.713   6.059  1.00  0.00     0.167 HD
ATOM     27  C   UNL     1       8.021  -7.210   3.662  1.00  0.00     0.031 A 
ATOM     28  C   UNL     1       7.235  -1.999   8.256  1.00  0.00     0.031 A 
ATOM     29  C   UNL     1       8.800  -7.336   4.867  1.00  0.00     0.049 A 
ATOM     30  C   UNL     1       8.153  -3.153   8.524  1.00  0.00     0.074 A 
ATOM     31  C   UNL     1       9.681  -8.344   5.224  1.00  0.00     0.029 A 
ATOM     32  N   UNL     1       8.793  -6.425   5.912  1.00  0.00    -0.354 N 
ATOM     33  N   UNL     1       8.418  -4.188   7.765  1.00  0.00    -0.248 NA
ATOM     34  C   UNL     1       8.871  -3.139   9.805  1.00  0.00     0.031 C 
ATOM     35  C   UNL     1      10.177  -8.061   6.502  1.00  0.00     0.029 A 
ATOM     36  C   UNL     1       9.643  -6.853   6.919  1.00  0.00     0.049 A 
ATOM     37  H   UNL     1       8.262  -5.596   5.934  1.00  0.00     0.167 HD
ATOM     38  C   UNL     1       9.333  -4.950   8.476  1.00  0.00     0.074 A 
ATOM     39  C   UNL     1       9.606  -4.238   9.708  1.00  0.00     0.031 C 
ATOM     40  C   UNL     1       9.889  -6.140   8.145  1.00  0.00     0.031 A 
BRANCH  27  41
ATOM     41  C   UNL     1       8.131  -8.302   2.633  1.00  0.00    -0.014 A 
ATOM     42  C   UNL     1       8.831  -8.099   1.433  1.00  0.00     0.009 A 
ATOM     43  C   UNL     1       7.582  -9.567   2.893  1.00  0.00     0.009 A 
ATOM     44  C   UNL     1       8.957  -9.134   0.504  1.00  0.00     0.001 A 
ATOM     45  C   UNL     1       7.729 -10.607   1.972  1.00  0.00     0.001 A 
ATOM     46  C   UNL     1       8.411 -10.388   0.776  1.00  0.00     0.000 A 
ENDBRANCH  27  41
BRANCH  28  47
ATOM     47  C   UNL     1       7.079  -0.897   9.240  1.00  0.00    -0.014 A 
ATOM     48  C   UNL     1       8.122   0.011   9.473  1.00  0.00     0.009 A 
ATOM     49  C   UNL     1       5.873  -0.744   9.943  1.00  0.00     0.009 A 
ATOM     50  C   UNL     1       7.967   1.038  10.407  1.00  0.00     0.001 A 
ATOM     51  C   UNL     1       5.710   0.302  10.852  1.00  0.00     0.001 A 
ATOM     52  C   UNL     1       6.760   1.186  11.090  1.00  0.00     0.000 A 
ENDBRANCH  28  47
BRANCH  40  53
ATOM     53  C   UNL     1      10.851  -6.732   9.134  1.00  0.00    -0.014 A 
ATOM     54  C   UNL     1      10.397  -7.286  10.341  1.00  0.00     0.009 A 
ATOM     55  C   UNL     1      12.226  -6.735   8.856  1.00  0.00     0.009 A 
ATOM     56  C   UNL     1      11.307  -7.794  11.270  1.00  0.00     0.001 A 
ATOM     57  C   UNL     1      13.131  -7.268   9.775  1.00  0.00     0.001 A 
ATOM     58  C   UNL     1      12.672  -7.786  10.985  1.00  0.00     0.000 A 
ENDBRANCH  40  53
ENDBRANCH  14  15
ENDBRANCH   7   9
ENDBRANCH   4   5
ENDBRANCH   3   4
ENDBRANCH   2   3
ENDBRANCH   1   2
BRANCH   1  59
ATOM     59  C   UNL     1       6.217   2.705  -3.425  1.00  0.00     0.021 C 
BRANCH  59  60
ATOM     60  C   UNL     1       6.979   2.125  -4.615  1.00  0.00     0.116 C 
BRANCH  60  61
ATOM     61  N   UNL     1       6.747   2.901  -5.820  1.00  0.00    -0.352 N 
ATOM     62  C   UNL     1       7.665   3.478  -6.657  1.00  0.00     0.256 C 
ATOM     63  H   UNL     1       5.803   3.031  -6.068  1.00  0.00     0.163 HD
ATOM     64  O   UNL     1       7.306   4.306  -7.487  1.00  0.00    -0.269 OA
BRANCH  62  65
ATOM     65  C   UNL     1       9.095   3.179  -6.507  1.00  0.00     0.099 A 
ATOM     66  C   UNL     1       9.525   1.853  -6.618  1.00  0.00     0.138 A 
ATOM     67  C   UNL     1      10.023   4.203  -6.254  1.00  0.00     0.065 A 
ATOM     68  F   UNL     1       8.654   0.866  -6.873  1.00  0.00    -0.206 F 
ATOM     69  C   UNL     1      10.860   1.518  -6.425  1.00  0.00     0.040 A 
ATOM     70  C   UNL     1      11.359   3.849  -6.030  1.00  0.00     0.028 A 
ATOM     71  C   UNL     1      11.778   2.518  -6.122  1.00  0.00     0.005 A 
BRANCH  67  72
ATOM     72  N   UNL     1       9.609   5.575  -6.076  1.00  0.00    -0.275 N 
ATOM     73  H   UNL     1       8.993   5.824  -5.350  1.00  0.00     0.180 HD
BRANCH  72  74
ATOM     74  S   UNL     1      10.214   6.761  -7.156  1.00  0.00     0.333 S 
ATOM     75  O   UNL     1      10.222   6.172  -8.483  1.00  0.00    -0.197 OA
ATOM     76  O   UNL     1       9.371   7.917  -6.891  1.00  0.00    -0.197 OA
BRANCH  74  77
ATOM     77  C   UNL     1      11.950   7.132  -6.588  1.00  0.00     0.516 C 
ATOM     78  F   UNL     1      12.093   6.991  -5.238  1.00  0.00    -0.155 F 
ATOM     79  F   UNL     1      12.864   6.293  -7.159  1.00  0.00    -0.155 F 
ATOM     80  F   UNL     1      12.343   8.399  -6.896  1.00  0.00    -0.155 F 
ENDBRANCH  74  77
ENDBRANCH  72  74
ENDBRANCH  67  72
ENDBRANCH  62  65
ENDBRANCH  60  61
ENDBRANCH  59  60
ENDBRANCH   1  59
TORSDOF 16
