REMARK SMILES CO[C@@H]1C[C@H](C(=O)NCCCCCCNC(=O)c2ccc(-c3c4nc(c(-c5ccccc5)c5ccc([nH]5)c(-c5ccccc5)c5nc(c(-c6ccccc6)c6ccc3[nH]6)C=C5)C=C4)cc2)N(C(=O)c2ccc([N+](=O)[O-])s2)C1
REMARK SMILES IDX 11 1 10 2 9 3 8 4 6 5 7 6 5 8 3 9 4 10 77 11 66 12 2 13 1 14
REMARK SMILES IDX 67 15 68 16 69 17 70 18 76 19 71 20 72 21 73 22 74 23 75 24
REMARK SMILES IDX 12 25 13 26 14 27 15 28 16 29 17 31 18 32 19 33 65 34 20 35
REMARK SMILES IDX 64 36 21 37 22 38 23 39 58 40 24 41 63 42 57 43 59 44 25 45
REMARK SMILES IDX 62 46 56 47 55 48 26 50 48 51 33 52 47 53 34 54 37 55 46 56
REMARK SMILES IDX 60 57 35 58 36 59 45 61 61 62 38 63 27 64 28 65 32 66 29 67
REMARK SMILES IDX 31 68 30 69 49 70 50 71 54 72 51 73 53 74 52 75 39 76 40 77
REMARK SMILES IDX 44 78 41 79 43 80 42 81
REMARK H PARENT 8 7 15 30 59 49 37 60
REMARK Flexibility Score: inf
ROOT
ATOM      1  C   UNL     1       0.362   1.230  -3.022  1.00  0.00     0.002 C 
ENDROOT
BRANCH   1   2
ATOM      2  C   UNL     1       0.693   1.286  -1.528  1.00  0.00     0.021 C 
BRANCH   2   3
ATOM      3  C   UNL     1       1.932   2.107  -1.169  1.00  0.00     0.116 C 
BRANCH   3   4
ATOM      4  N   UNL     1       1.610   3.510  -0.993  1.00  0.00    -0.354 N 
ATOM      5  C   UNL     1       1.403   4.246   0.131  1.00  0.00     0.242 C 
ATOM      6  O   UNL     1       0.991   5.402  -0.029  1.00  0.00    -0.273 OA
ATOM      7  H   UNL     1       1.527   4.016  -1.833  1.00  0.00     0.163 HD
BRANCH   5   8
ATOM      8  C   UNL     1       1.547   3.693   1.568  1.00  0.00     0.177 C 
ATOM      9  C   UNL     1       1.036   1.417   2.365  1.00  0.00     0.139 C 
ATOM     10  C   UNL     1       0.405   2.751   1.957  1.00  0.00     0.069 C 
ATOM     11  C   UNL     1       2.542   1.666   2.425  1.00  0.00     0.152 C 
ATOM     12  N   UNL     1       2.783   2.983   1.872  1.00  0.00    -0.323 N 
BRANCH   9  13
ATOM     13  O   UNL     1       0.685   0.430   1.394  1.00  0.00    -0.380 OA
ATOM     14  C   UNL     1       0.914  -0.901   1.845  1.00  0.00     0.195 C 
ENDBRANCH   9  13
BRANCH  12  15
ATOM     15  C   UNL     1       4.075   3.494   1.876  1.00  0.00     0.264 C 
ATOM     16  O   UNL     1       5.032   2.746   2.078  1.00  0.00    -0.268 OA
BRANCH  15  17
ATOM     17  C   UNL     1       4.251   4.922   1.677  1.00  0.00     0.099 A 
ATOM     18  C   UNL     1       3.755   5.976   2.424  1.00  0.00     0.033 A 
ATOM     19  S   UNL     1       5.296   5.472   0.434  1.00  0.00    -0.058 S 
ATOM     20  C   UNL     1       4.214   7.241   1.951  1.00  0.00     0.099 A 
ATOM     21  C   UNL     1       5.063   7.097   0.876  1.00  0.00     0.324 A 
BRANCH  21  22
ATOM     22  N   UNL     1       5.737   8.157   0.171  1.00  0.00     0.074 N 
ATOM     23  O   UNL     1       5.575   9.301   0.619  1.00  0.00    -0.258 OA
ATOM     24  O   UNL     1       6.424   7.865  -0.815  1.00  0.00    -0.258 OA
ENDBRANCH  21  22
ENDBRANCH  15  17
ENDBRANCH  12  15
ENDBRANCH   5   8
ENDBRANCH   3   4
ENDBRANCH   2   3
ENDBRANCH   1   2
BRANCH   1  25
ATOM     25  C   UNL     1       1.362   0.460  -3.894  1.00  0.00     0.002 C 
BRANCH  25  26
ATOM     26  C   UNL     1       1.756  -0.942  -3.410  1.00  0.00     0.021 C 
BRANCH  26  27
ATOM     27  C   UNL     1       0.606  -1.915  -3.141  1.00  0.00     0.116 C 
BRANCH  27  28
ATOM     28  N   UNL     1      -0.147  -2.234  -4.339  1.00  0.00    -0.352 N 
ATOM     29  C   UNL     1      -0.604  -3.444  -4.795  1.00  0.00     0.251 C 
ATOM     30  H   UNL     1      -0.363  -1.464  -4.913  1.00  0.00     0.163 HD
ATOM     31  O   UNL     1      -1.119  -3.517  -5.908  1.00  0.00    -0.269 OA
BRANCH  29  32
ATOM     32  C   UNL     1      -0.474  -4.675  -3.979  1.00  0.00     0.039 A 
ATOM     33  C   UNL     1      -0.046  -5.846  -4.617  1.00  0.00     0.014 A 
ATOM     34  C   UNL     1      -0.851  -4.715  -2.633  1.00  0.00     0.014 A 
ATOM     35  C   UNL     1       0.041  -7.045  -3.903  1.00  0.00     0.010 A 
ATOM     36  C   UNL     1      -0.749  -5.912  -1.914  1.00  0.00     0.010 A 
ATOM     37  C   UNL     1      -0.305  -7.084  -2.545  1.00  0.00    -0.014 A 
BRANCH  37  38
ATOM     38  C   UNL     1      -0.224  -8.356  -1.786  1.00  0.00     0.031 A 
ATOM     39  C   UNL     1      -1.464  -9.153  -1.502  1.00  0.00     0.074 A 
ATOM     40  C   UNL     1       0.966  -8.796  -1.340  1.00  0.00     0.049 A 
ATOM     41  N   UNL     1      -1.595 -10.247  -0.795  1.00  0.00    -0.248 NA
ATOM     42  C   UNL     1      -2.720  -8.651  -2.081  1.00  0.00     0.031 C 
ATOM     43  C   UNL     1       2.251  -8.126  -1.542  1.00  0.00     0.029 A 
ATOM     44  N   UNL     1       1.283  -9.921  -0.619  1.00  0.00    -0.354 N 
ATOM     45  C   UNL     1      -2.949 -10.551  -0.819  1.00  0.00     0.074 A 
ATOM     46  C   UNL     1      -3.597  -9.533  -1.621  1.00  0.00     0.031 C 
ATOM     47  C   UNL     1       3.220  -8.859  -0.969  1.00  0.00     0.029 A 
ATOM     48  C   UNL     1       2.623 -10.039  -0.349  1.00  0.00     0.049 A 
ATOM     49  H   UNL     1       0.613 -10.579  -0.325  1.00  0.00     0.167 HD
ATOM     50  C   UNL     1      -3.599 -11.579  -0.224  1.00  0.00     0.031 A 
ATOM     51  C   UNL     1       3.295 -10.989   0.325  1.00  0.00     0.031 A 
ATOM     52  C   UNL     1      -2.972 -12.615   0.551  1.00  0.00     0.049 A 
ATOM     53  C   UNL     1       2.560 -12.147   0.930  1.00  0.00     0.074 A 
ATOM     54  C   UNL     1      -3.562 -13.687   1.199  1.00  0.00     0.029 A 
ATOM     55  N   UNL     1      -1.609 -12.717   0.767  1.00  0.00    -0.354 N 
ATOM     56  N   UNL     1       1.275 -12.397   0.928  1.00  0.00    -0.248 NA
ATOM     57  C   UNL     1       3.372 -13.150   1.635  1.00  0.00     0.031 C 
ATOM     58  C   UNL     1      -2.550 -14.444   1.804  1.00  0.00     0.029 A 
ATOM     59  C   UNL     1      -1.335 -13.839   1.529  1.00  0.00     0.049 A 
ATOM     60  H   UNL     1      -0.934 -12.085   0.429  1.00  0.00     0.167 HD
ATOM     61  C   UNL     1       1.122 -13.582   1.634  1.00  0.00     0.074 A 
ATOM     62  C   UNL     1       2.445 -14.007   2.043  1.00  0.00     0.031 C 
ATOM     63  C   UNL     1      -0.018 -14.252   1.924  1.00  0.00     0.031 A 
BRANCH  50  64
ATOM     64  C   UNL     1      -5.087 -11.619  -0.380  1.00  0.00    -0.014 A 
ATOM     65  C   UNL     1      -5.673 -12.274  -1.472  1.00  0.00     0.009 A 
ATOM     66  C   UNL     1      -5.908 -11.016   0.584  1.00  0.00     0.009 A 
ATOM     67  C   UNL     1      -7.062 -12.311  -1.604  1.00  0.00     0.001 A 
ATOM     68  C   UNL     1      -7.296 -11.058   0.451  1.00  0.00     0.001 A 
ATOM     69  C   UNL     1      -7.872 -11.703  -0.643  1.00  0.00     0.000 A 
ENDBRANCH  50  64
BRANCH  51  70
ATOM     70  C   UNL     1       4.764 -10.883   0.469  1.00  0.00    -0.014 A 
ATOM     71  C   UNL     1       5.612 -11.503  -0.459  1.00  0.00     0.009 A 
ATOM     72  C   UNL     1       5.319 -10.164   1.537  1.00  0.00     0.009 A 
ATOM     73  C   UNL     1       6.997 -11.412  -0.315  1.00  0.00     0.001 A 
ATOM     74  C   UNL     1       6.705 -10.073   1.676  1.00  0.00     0.001 A 
ATOM     75  C   UNL     1       7.542 -10.698   0.751  1.00  0.00     0.000 A 
ENDBRANCH  51  70
BRANCH  63  76
ATOM     76  C   UNL     1       0.123 -15.512   2.720  1.00  0.00    -0.014 A 
ATOM     77  C   UNL     1       0.099 -15.469   4.121  1.00  0.00     0.009 A 
ATOM     78  C   UNL     1       0.263 -16.747   2.070  1.00  0.00     0.009 A 
ATOM     79  C   UNL     1       0.227 -16.645   4.862  1.00  0.00     0.001 A 
ATOM     80  C   UNL     1       0.390 -17.921   2.815  1.00  0.00     0.001 A 
ATOM     81  C   UNL     1       0.374 -17.869   4.209  1.00  0.00     0.000 A 
ENDBRANCH  63  76
ENDBRANCH  37  38
ENDBRANCH  29  32
ENDBRANCH  27  28
ENDBRANCH  26  27
ENDBRANCH  25  26
ENDBRANCH   1  25
TORSDOF 17
