REMARK SMILES CCOc1cc(C[NH+]2CCC3(CC2)[C@H](C(=O)NCCCCCCNC(=O)c2ccc(-c4c5nc(c(-c6ccccc6)c6ccc([nH]6)c(-c6ccccc6)c6nc(c(-c7ccccc7)c7ccc4[nH]7)C=C6)C=C5)cc2)CC(=O)N3C)ccc1OC
REMARK SMILES IDX 19 1 18 2 17 3 15 4 16 5 14 7 8 8 9 9 13 10 10 12 12 13
REMARK SMILES IDX 11 14 78 15 75 16 76 17 79 18 77 19 7 20 6 21 4 22 5 23
REMARK SMILES IDX 82 24 81 25 80 26 3 27 2 28 1 29 83 30 84 31 20 32 21 33
REMARK SMILES IDX 22 34 23 35 24 36 25 37 26 39 27 40 28 41 74 42 29 43 73 44
REMARK SMILES IDX 30 45 31 46 32 47 67 48 33 49 72 50 66 51 68 52 34 53 71 54
REMARK SMILES IDX 65 55 64 56 35 58 57 59 42 60 56 61 43 62 46 63 55 64 69 65
REMARK SMILES IDX 44 66 45 67 54 69 70 70 47 71 36 72 37 73 41 74 38 75 40 76
REMARK SMILES IDX 39 77 58 78 59 79 63 80 60 81 62 82 61 83 48 84 49 85 53 86
REMARK SMILES IDX 50 87 52 88 51 89
REMARK H PARENT 17 6 8 11 24 38 68 57 46 68
REMARK Flexibility Score: inf
ROOT
ATOM      1  C   UNL     1       4.077   0.349   6.813  1.00  0.00     0.021 C 
ENDROOT
BRANCH   1   2
ATOM      2  C   UNL     1       2.672   0.554   6.246  1.00  0.00     0.116 C 
BRANCH   2   3
ATOM      3  N   UNL     1       2.716   0.807   4.831  1.00  0.00    -0.356 N 
ATOM      4  C   UNL     1       2.177   0.205   3.756  1.00  0.00     0.226 C 
ATOM      5  O   UNL     1       2.363   0.819   2.701  1.00  0.00    -0.275 OA
ATOM      6  H   UNL     1       3.259   1.594   4.598  1.00  0.00     0.163 HD
BRANCH   4   7
ATOM      7  C   UNL     1       1.295  -1.046   3.760  1.00  0.00     0.114 C 
ATOM      8  N   UNL     1       3.474  -4.736   3.965  1.00  0.00    -0.331 N 
ATOM      9  C   UNL     1       3.885  -3.748   4.938  1.00  0.00     0.265 C 
ATOM     10  C   UNL     1       2.030  -4.888   3.914  1.00  0.00     0.265 C 
ATOM     11  H   UNL     1       3.787  -5.637   4.325  1.00  0.00     0.348 HD
ATOM     12  C   UNL     1       3.207  -2.398   4.770  1.00  0.00     0.091 C 
ATOM     13  C   UNL     1       1.201  -3.608   3.728  1.00  0.00     0.091 C 
ATOM     14  C   UNL     1       1.690  -2.359   4.512  1.00  0.00     0.065 C 
ATOM     15  N   UNL     1       0.863  -2.228   5.727  1.00  0.00    -0.339 N 
ATOM     16  C   UNL     1      -0.100  -0.675   4.245  1.00  0.00     0.116 C 
ATOM     17  C   UNL     1      -0.179  -1.310   5.600  1.00  0.00     0.223 C 
ATOM     18  C   UNL     1       0.896  -3.120   6.863  1.00  0.00     0.147 C 
ATOM     19  O   UNL     1      -1.037  -1.077   6.427  1.00  0.00    -0.275 OA
BRANCH   8  20
ATOM     20  C   UNL     1       4.247  -4.807   2.717  1.00  0.00     0.299 C 
BRANCH  20  21
ATOM     21  C   UNL     1       4.183  -3.607   1.796  1.00  0.00     0.010 A 
ATOM     22  C   UNL     1       2.836  -2.063   0.483  1.00  0.00     0.161 A 
ATOM     23  C   UNL     1       3.027  -3.329   1.050  1.00  0.00     0.060 A 
ATOM     24  C   UNL     1       3.882  -1.132   0.478  1.00  0.00     0.160 A 
ATOM     25  C   UNL     1       5.102  -1.486   1.062  1.00  0.00     0.051 A 
ATOM     26  C   UNL     1       5.243  -2.692   1.750  1.00  0.00     0.013 A 
BRANCH  22  27
ATOM     27  O   UNL     1       1.572  -1.614   0.245  1.00  0.00    -0.490 OA
BRANCH  27  28
ATOM     28  C   UNL     1       0.734  -2.305  -0.663  1.00  0.00     0.226 C 
ATOM     29  C   UNL     1      -0.258  -1.249  -1.138  1.00  0.00     0.049 C 
ENDBRANCH  27  28
ENDBRANCH  22  27
BRANCH  24  30
ATOM     30  O   UNL     1       3.877   0.148  -0.009  1.00  0.00    -0.493 OA
ATOM     31  C   UNL     1       2.638   0.769  -0.323  1.00  0.00     0.278 C 
ENDBRANCH  24  30
ENDBRANCH  20  21
ENDBRANCH   8  20
ENDBRANCH   4   7
ENDBRANCH   2   3
ENDBRANCH   1   2
BRANCH   1  32
ATOM     32  C   UNL     1       5.017   1.544   6.662  1.00  0.00     0.002 C 
BRANCH  32  33
ATOM     33  C   UNL     1       4.470   2.868   7.187  1.00  0.00     0.002 C 
BRANCH  33  34
ATOM     34  C   UNL     1       3.874   2.801   8.592  1.00  0.00     0.021 C 
BRANCH  34  35
ATOM     35  C   UNL     1       4.757   2.117   9.622  1.00  0.00     0.116 C 
BRANCH  35  36
ATOM     36  N   UNL     1       6.021   2.801   9.803  1.00  0.00    -0.352 N 
ATOM     37  C   UNL     1       6.612   3.158  10.985  1.00  0.00     0.251 C 
ATOM     38  H   UNL     1       6.511   3.036   8.982  1.00  0.00     0.163 HD
ATOM     39  O   UNL     1       7.597   3.886  11.006  1.00  0.00    -0.269 OA
BRANCH  37  40
ATOM     40  C   UNL     1       6.017   2.665  12.241  1.00  0.00     0.039 A 
ATOM     41  C   UNL     1       5.729   3.581  13.250  1.00  0.00     0.014 A 
ATOM     42  C   UNL     1       5.707   1.308  12.393  1.00  0.00     0.014 A 
ATOM     43  C   UNL     1       5.114   3.135  14.418  1.00  0.00     0.010 A 
ATOM     44  C   UNL     1       5.014   0.883  13.519  1.00  0.00     0.010 A 
ATOM     45  C   UNL     1       4.742   1.787  14.556  1.00  0.00    -0.014 A 
BRANCH  45  46
ATOM     46  C   UNL     1       4.122   1.305  15.813  1.00  0.00     0.031 A 
ATOM     47  C   UNL     1       4.857   0.318  16.678  1.00  0.00     0.074 A 
ATOM     48  C   UNL     1       2.904   1.751  16.172  1.00  0.00     0.049 A 
ATOM     49  N   UNL     1       4.504  -0.194  17.829  1.00  0.00    -0.248 NA
ATOM     50  C   UNL     1       6.149  -0.180  16.174  1.00  0.00     0.031 C 
ATOM     51  C   UNL     1       2.076   2.677  15.396  1.00  0.00     0.029 A 
ATOM     52  N   UNL     1       2.155   1.492  17.292  1.00  0.00    -0.354 N 
ATOM     53  C   UNL     1       5.521  -1.075  18.177  1.00  0.00     0.074 A 
ATOM     54  C   UNL     1       6.470  -1.081  17.088  1.00  0.00     0.031 C 
ATOM     55  C   UNL     1       0.955   2.944  16.085  1.00  0.00     0.029 A 
ATOM     56  C   UNL     1       0.969   2.183  17.330  1.00  0.00     0.049 A 
ATOM     57  H   UNL     1       2.441   0.871  18.000  1.00  0.00     0.167 HD
ATOM     58  C   UNL     1       5.668  -1.794  19.315  1.00  0.00     0.031 A 
ATOM     59  C   UNL     1       0.005   2.205  18.269  1.00  0.00     0.031 A 
ATOM     60  C   UNL     1       4.725  -1.780  20.401  1.00  0.00     0.049 A 
ATOM     61  C   UNL     1       0.186   1.388  19.519  1.00  0.00     0.074 A 
ATOM     62  C   UNL     1       4.801  -2.435  21.617  1.00  0.00     0.029 A 
ATOM     63  N   UNL     1       3.532  -1.074  20.397  1.00  0.00    -0.354 N 
ATOM     64  N   UNL     1       1.188   0.616  19.866  1.00  0.00    -0.248 NA
ATOM     65  C   UNL     1      -0.891   1.463  20.515  1.00  0.00     0.031 C 
ATOM     66  C   UNL     1       3.626  -2.170  22.327  1.00  0.00     0.029 A 
ATOM     67  C   UNL     1       2.850  -1.296  21.581  1.00  0.00     0.049 A 
ATOM     68  H   UNL     1       3.216  -0.500  19.662  1.00  0.00     0.167 HD
ATOM     69  C   UNL     1       0.877   0.140  21.134  1.00  0.00     0.074 A 
ATOM     70  C   UNL     1      -0.396   0.727  21.499  1.00  0.00     0.031 C 
ATOM     71  C   UNL     1       1.582  -0.705  21.926  1.00  0.00     0.031 A 
BRANCH  58  72
ATOM     72  C   UNL     1       6.893  -2.659  19.432  1.00  0.00    -0.014 A 
ATOM     73  C   UNL     1       8.175  -2.098  19.553  1.00  0.00     0.009 A 
ATOM     74  C   UNL     1       6.762  -4.057  19.441  1.00  0.00     0.009 A 
ATOM     75  C   UNL     1       9.302  -2.918  19.639  1.00  0.00     0.001 A 
ATOM     76  C   UNL     1       7.888  -4.874  19.561  1.00  0.00     0.001 A 
ATOM     77  C   UNL     1       9.157  -4.304  19.649  1.00  0.00     0.000 A 
ENDBRANCH  58  72
BRANCH  59  78
ATOM     78  C   UNL     1      -1.205   3.048  18.079  1.00  0.00    -0.014 A 
ATOM     79  C   UNL     1      -1.423   4.178  18.883  1.00  0.00     0.009 A 
ATOM     80  C   UNL     1      -2.156   2.720  17.100  1.00  0.00     0.009 A 
ATOM     81  C   UNL     1      -2.583   4.941  18.732  1.00  0.00     0.001 A 
ATOM     82  C   UNL     1      -3.299   3.504  16.930  1.00  0.00     0.001 A 
ATOM     83  C   UNL     1      -3.517   4.607  17.754  1.00  0.00     0.000 A 
ENDBRANCH  59  78
BRANCH  71  84
ATOM     84  C   UNL     1       1.010  -1.009  23.282  1.00  0.00    -0.014 A 
ATOM     85  C   UNL     1      -0.146  -1.791  23.433  1.00  0.00     0.009 A 
ATOM     86  C   UNL     1       1.657  -0.523  24.430  1.00  0.00     0.009 A 
ATOM     87  C   UNL     1      -0.667  -2.041  24.704  1.00  0.00     0.001 A 
ATOM     88  C   UNL     1       1.154  -0.804  25.700  1.00  0.00     0.001 A 
ATOM     89  C   UNL     1      -0.015  -1.551  25.836  1.00  0.00     0.000 A 
ENDBRANCH  71  84
ENDBRANCH  45  46
ENDBRANCH  37  40
ENDBRANCH  35  36
ENDBRANCH  34  35
ENDBRANCH  33  34
ENDBRANCH  32  33
ENDBRANCH   1  32
TORSDOF 18
