REMARK SMILES Cc1nccnc1N1CCC2(CCC(=O)N([C@@H](C)C(=O)NCCCCCCNC(=O)c3ccc(-c4c5nc(c(-c6ccccc6)c6ccc([nH]6)c(-c6ccccc6)c6nc(c(-c7ccccc7)c7ccc4[nH]7)C=C6)C=C5)cc3)C2)CC1
REMARK SMILES IDX 24 1 23 2 22 3 21 4 19 5 20 6 17 8 18 9 16 10 8 11 9 12
REMARK SMILES IDX 81 13 10 14 80 15 11 16 12 17 79 18 13 19 14 20 15 21 7 22
REMARK SMILES IDX 1 23 2 24 3 25 4 26 6 27 5 28 25 29 26 30 27 31 28 32 29 33
REMARK SMILES IDX 30 35 31 36 32 37 78 38 33 39 77 40 34 41 35 42 36 43 71 44
REMARK SMILES IDX 37 45 76 46 70 47 72 48 38 49 75 50 69 51 68 52 39 54 61 55
REMARK SMILES IDX 46 56 60 57 47 58 50 59 59 60 73 61 48 62 49 63 58 65 74 66
REMARK SMILES IDX 51 67 40 68 41 69 45 70 42 71 44 72 43 73 62 74 63 75 67 76
REMARK SMILES IDX 64 77 66 78 65 79 52 80 53 81 57 82 54 83 56 84 55 85
REMARK H PARENT 21 7 28 34 72 53 50 64
REMARK Flexibility Score: inf
ROOT
ATOM      1  C   UNL     1       0.471   9.662   3.250  1.00  0.00     0.002 C 
ENDROOT
BRANCH   1   2
ATOM      2  C   UNL     1       1.635   8.943   2.567  1.00  0.00     0.021 C 
BRANCH   2   3
ATOM      3  C   UNL     1       2.869   8.755   3.452  1.00  0.00     0.116 C 
BRANCH   3   4
ATOM      4  N   UNL     1       2.824   7.473   4.126  1.00  0.00    -0.354 N 
ATOM      5  C   UNL     1       3.481   6.306   3.890  1.00  0.00     0.242 C 
ATOM      6  O   UNL     1       3.070   5.317   4.512  1.00  0.00    -0.273 OA
ATOM      7  H   UNL     1       2.207   7.441   4.892  1.00  0.00     0.163 HD
BRANCH   5   8
ATOM      8  C   UNL     1       4.634   6.141   2.862  1.00  0.00     0.171 C 
ATOM      9  C   UNL     1       5.832   7.054   3.083  1.00  0.00     0.042 C 
BRANCH   8  10
ATOM     10  N   UNL     1       4.136   6.001   1.478  1.00  0.00    -0.330 N 
ATOM     11  N   UNL     1       1.008   2.179  -0.087  1.00  0.00    -0.355 N 
ATOM     12  C   UNL     1       0.566   3.330   0.678  1.00  0.00     0.119 C 
ATOM     13  C   UNL     1       1.821   2.450  -1.258  1.00  0.00     0.119 C 
ATOM     14  C   UNL     1       1.824   4.023   1.206  1.00  0.00     0.030 C 
ATOM     15  C   UNL     1       3.132   3.063  -0.765  1.00  0.00     0.030 C 
ATOM     16  C   UNL     1       2.894   4.321   0.113  1.00  0.00    -0.008 C 
ATOM     17  C   UNL     1       2.507   5.484  -0.826  1.00  0.00     0.019 C 
ATOM     18  C   UNL     1       4.207   4.696   0.827  1.00  0.00     0.127 C 
ATOM     19  C   UNL     1       2.527   6.831  -0.140  1.00  0.00     0.101 C 
ATOM     20  C   UNL     1       3.764   7.080   0.698  1.00  0.00     0.223 C 
ATOM     21  O   UNL     1       4.262   8.198   0.768  1.00  0.00    -0.275 OA
BRANCH  11  22
ATOM     22  C   UNL     1       0.273   1.012  -0.035  1.00  0.00     0.150 A 
ATOM     23  C   UNL     1       2.389  -0.382   0.190  1.00  0.00     0.071 C 
ATOM     24  C   UNL     1       0.899  -0.252   0.059  1.00  0.00     0.080 A 
ATOM     25  N   UNL     1       0.200  -1.420   0.088  1.00  0.00    -0.256 NA
ATOM     26  C   UNL     1      -1.140  -1.293   0.064  1.00  0.00     0.131 A 
ATOM     27  N   UNL     1      -1.077   1.104  -0.033  1.00  0.00    -0.236 NA
ATOM     28  C   UNL     1      -1.762  -0.061   0.015  1.00  0.00     0.133 A 
ENDBRANCH  11  22
ENDBRANCH   8  10
ENDBRANCH   5   8
ENDBRANCH   3   4
ENDBRANCH   2   3
ENDBRANCH   1   2
BRANCH   1  29
ATOM     29  C   UNL     1       0.761  11.107   3.667  1.00  0.00     0.002 C 
BRANCH  29  30
ATOM     30  C   UNL     1       1.294  12.009   2.552  1.00  0.00     0.021 C 
BRANCH  30  31
ATOM     31  C   UNL     1       0.401  12.085   1.319  1.00  0.00     0.116 C 
BRANCH  31  32
ATOM     32  N   UNL     1      -0.914  12.628   1.633  1.00  0.00    -0.352 N 
ATOM     33  C   UNL     1      -1.498  13.787   1.186  1.00  0.00     0.251 C 
ATOM     34  H   UNL     1      -1.459  12.089   2.251  1.00  0.00     0.163 HD
ATOM     35  O   UNL     1      -2.516  14.224   1.712  1.00  0.00    -0.269 OA
BRANCH  33  36
ATOM     36  C   UNL     1      -0.875  14.511   0.063  1.00  0.00     0.039 A 
ATOM     37  C   UNL     1      -0.630  15.881   0.179  1.00  0.00     0.014 A 
ATOM     38  C   UNL     1      -0.509  13.818  -1.093  1.00  0.00     0.014 A 
ATOM     39  C   UNL     1       0.049  16.546  -0.844  1.00  0.00     0.010 A 
ATOM     40  C   UNL     1       0.232  14.464  -2.074  1.00  0.00     0.010 A 
ATOM     41  C   UNL     1       0.517  15.834  -1.960  1.00  0.00    -0.014 A 
BRANCH  41  42
ATOM     42  C   UNL     1       1.300  16.490  -3.036  1.00  0.00     0.031 A 
ATOM     43  C   UNL     1       0.749  16.534  -4.434  1.00  0.00     0.074 A 
ATOM     44  C   UNL     1       2.538  16.955  -2.779  1.00  0.00     0.049 A 
ATOM     45  N   UNL     1       1.328  16.930  -5.539  1.00  0.00    -0.248 NA
ATOM     46  C   UNL     1      -0.625  16.038  -4.619  1.00  0.00     0.031 C 
ATOM     47  C   UNL     1       3.196  16.947  -1.471  1.00  0.00     0.029 A 
ATOM     48  N   UNL     1       3.473  17.510  -3.618  1.00  0.00    -0.354 N 
ATOM     49  C   UNL     1       0.401  16.707  -6.548  1.00  0.00     0.074 A 
ATOM     50  C   UNL     1      -0.759  16.098  -5.935  1.00  0.00     0.031 C 
ATOM     51  C   UNL     1       4.420  17.486  -1.592  1.00  0.00     0.029 A 
ATOM     52  C   UNL     1       4.654  17.828  -2.991  1.00  0.00     0.049 A 
ATOM     53  H   UNL     1       3.313  17.664  -4.577  1.00  0.00     0.167 HD
ATOM     54  C   UNL     1       0.499  16.998  -7.867  1.00  0.00     0.031 A 
ATOM     55  C   UNL     1       5.803  18.321  -3.492  1.00  0.00     0.031 A 
ATOM     56  C   UNL     1       1.649  17.613  -8.472  1.00  0.00     0.049 A 
ATOM     57  C   UNL     1       5.899  18.605  -4.966  1.00  0.00     0.074 A 
ATOM     58  C   UNL     1       1.826  17.997  -9.790  1.00  0.00     0.029 A 
ATOM     59  N   UNL     1       2.818  17.932  -7.799  1.00  0.00    -0.354 N 
ATOM     60  N   UNL     1       4.992  18.444  -5.899  1.00  0.00    -0.248 NA
ATOM     61  C   UNL     1       7.176  19.145  -5.455  1.00  0.00     0.031 C 
ATOM     62  C   UNL     1       3.125  18.496  -9.927  1.00  0.00     0.029 A 
ATOM     63  C   UNL     1       3.732  18.484  -8.681  1.00  0.00     0.049 A 
ATOM     64  H   UNL     1       2.976  17.787  -6.838  1.00  0.00     0.167 HD
ATOM     65  C   UNL     1       5.575  18.897  -7.076  1.00  0.00     0.074 A 
ATOM     66  C   UNL     1       6.910  19.346  -6.738  1.00  0.00     0.031 C 
ATOM     67  C   UNL     1       5.051  18.939  -8.325  1.00  0.00     0.031 A 
BRANCH  54  68
ATOM     68  C   UNL     1      -0.667  16.640  -8.746  1.00  0.00    -0.014 A 
ATOM     69  C   UNL     1      -1.892  17.320  -8.647  1.00  0.00     0.009 A 
ATOM     70  C   UNL     1      -0.527  15.633  -9.714  1.00  0.00     0.009 A 
ATOM     71  C   UNL     1      -2.963  16.972  -9.472  1.00  0.00     0.001 A 
ATOM     72  C   UNL     1      -1.590  15.310 -10.560  1.00  0.00     0.001 A 
ATOM     73  C   UNL     1      -2.809  15.972 -10.431  1.00  0.00     0.000 A 
ENDBRANCH  54  68
BRANCH  55  74
ATOM     74  C   UNL     1       6.960  18.579  -2.594  1.00  0.00    -0.014 A 
ATOM     75  C   UNL     1       7.377  19.893  -2.329  1.00  0.00     0.009 A 
ATOM     76  C   UNL     1       7.666  17.516  -2.009  1.00  0.00     0.009 A 
ATOM     77  C   UNL     1       8.493  20.136  -1.525  1.00  0.00     0.001 A 
ATOM     78  C   UNL     1       8.762  17.762  -1.179  1.00  0.00     0.001 A 
ATOM     79  C   UNL     1       9.181  19.070  -0.947  1.00  0.00     0.000 A 
ENDBRANCH  55  74
BRANCH  67  80
ATOM     80  C   UNL     1       5.895  19.539  -9.414  1.00  0.00    -0.014 A 
ATOM     81  C   UNL     1       7.006  18.862  -9.938  1.00  0.00     0.009 A 
ATOM     82  C   UNL     1       5.524  20.774  -9.970  1.00  0.00     0.009 A 
ATOM     83  C   UNL     1       7.744  19.424 -10.983  1.00  0.00     0.001 A 
ATOM     84  C   UNL     1       6.245  21.318 -11.034  1.00  0.00     0.001 A 
ATOM     85  C   UNL     1       7.358  20.645 -11.535  1.00  0.00     0.000 A 
ENDBRANCH  67  80
ENDBRANCH  41  42
ENDBRANCH  33  36
ENDBRANCH  31  32
ENDBRANCH  30  31
ENDBRANCH  29  30
ENDBRANCH   1  29
TORSDOF 15
