REMARK SMILES C[C@@](NC(=O)NCC(N)=O)(C(=O)NCCCCCCNC(=O)c1ccc(-c2c3nc(c(-c4ccccc4)c4ccc([nH]4)c(-c4ccccc4)c4nc(c(-c5ccccc5)c5ccc2[nH]5)C=C4)C=C3)cc1)C(F)(F)F
REMARK SMILES IDX 16 1 15 2 14 3 13 4 11 5 12 6 2 8 1 9 3 10 4 11 5 13 6 14
REMARK SMILES IDX 7 16 8 17 9 18 10 19 71 22 72 23 73 24 74 25 17 26 18 27
REMARK SMILES IDX 19 28 20 29 21 30 22 32 23 33 24 34 70 35 25 36 69 37 26 38
REMARK SMILES IDX 27 39 28 40 63 41 29 42 68 43 62 44 64 45 30 46 67 47 61 48
REMARK SMILES IDX 60 49 31 51 53 52 38 53 52 54 39 55 42 56 51 57 65 58 40 59
REMARK SMILES IDX 41 60 50 62 66 63 43 64 32 65 33 66 37 67 34 68 36 69 35 70
REMARK SMILES IDX 54 71 55 72 59 73 56 74 58 75 57 76 44 77 45 78 49 79 46 80
REMARK SMILES IDX 48 81 47 82
REMARK H PARENT 13 7 3 12 6 15 9 20 9 21 20 31 64 50 42 61
REMARK Flexibility Score: inf
ROOT
ATOM      1  C   UNL     1      -3.060  -3.068   0.367  1.00  0.00     0.002 C 
ENDROOT
BRANCH   1   2
ATOM      2  C   UNL     1      -1.553  -2.904   0.589  1.00  0.00     0.021 C 
BRANCH   2   3
ATOM      3  C   UNL     1      -0.916  -1.907  -0.369  1.00  0.00     0.116 C 
BRANCH   3   4
ATOM      4  N   UNL     1      -1.230  -0.552   0.048  1.00  0.00    -0.354 N 
ATOM      5  C   UNL     1      -0.589   0.625  -0.210  1.00  0.00     0.255 C 
ATOM      6  O   UNL     1      -1.077   1.622   0.328  1.00  0.00    -0.272 OA
ATOM      7  H   UNL     1      -2.035  -0.469   0.609  1.00  0.00     0.163 HD
BRANCH   5   8
ATOM      8  C   UNL     1       0.729   0.664  -0.998  1.00  0.00     0.213 C 
ATOM      9  C   UNL     1       1.812   0.219   0.018  1.00  0.00     0.056 C 
BRANCH   8  10
ATOM     10  N   UNL     1       0.778  -0.280  -2.161  1.00  0.00    -0.316 N 
ATOM     11  C   UNL     1       0.160  -0.341  -3.348  1.00  0.00     0.316 C 
ATOM     12  H   UNL     1       1.406  -1.025  -2.020  1.00  0.00     0.166 HD
ATOM     13  O   UNL     1       0.723  -0.993  -4.229  1.00  0.00    -0.249 OA
ATOM     14  N   UNL     1      -1.021   0.214  -3.624  1.00  0.00    -0.329 N 
ATOM     15  H   UNL     1      -1.213   0.268  -4.588  1.00  0.00     0.165 HD
BRANCH  14  16
ATOM     16  C   UNL     1      -2.079   0.753  -2.797  1.00  0.00     0.217 C 
BRANCH  16  17
ATOM     17  C   UNL     1      -3.191   1.476  -3.545  1.00  0.00     0.236 C 
ATOM     18  N   UNL     1      -4.293   1.738  -2.775  1.00  0.00    -0.368 N 
ATOM     19  O   UNL     1      -3.117   1.849  -4.709  1.00  0.00    -0.273 OA
ATOM     20  H   UNL     1      -4.327   1.427  -1.841  1.00  0.00     0.159 HD
ATOM     21  H   UNL     1      -5.052   2.238  -3.154  1.00  0.00     0.159 HD
ENDBRANCH  16  17
ENDBRANCH  14  16
ENDBRANCH   8  10
BRANCH   8  22
ATOM     22  C   UNL     1       1.062   2.124  -1.385  1.00  0.00     0.420 C 
ATOM     23  F   UNL     1       1.148   2.944  -0.314  1.00  0.00    -0.168 F 
ATOM     24  F   UNL     1       2.280   2.170  -1.991  1.00  0.00    -0.168 F 
ATOM     25  F   UNL     1       0.182   2.666  -2.252  1.00  0.00    -0.168 F 
ENDBRANCH   8  22
ENDBRANCH   5   8
ENDBRANCH   3   4
ENDBRANCH   2   3
ENDBRANCH   1   2
BRANCH   1  26
ATOM     26  C   UNL     1      -3.440  -3.761  -0.946  1.00  0.00     0.002 C 
BRANCH  26  27
ATOM     27  C   UNL     1      -2.769  -5.116  -1.178  1.00  0.00     0.021 C 
BRANCH  27  28
ATOM     28  C   UNL     1      -2.878  -6.087  -0.009  1.00  0.00     0.116 C 
BRANCH  28  29
ATOM     29  N   UNL     1      -4.257  -6.404   0.322  1.00  0.00    -0.352 N 
ATOM     30  C   UNL     1      -4.804  -7.630   0.604  1.00  0.00     0.251 C 
ATOM     31  H   UNL     1      -4.879  -5.641   0.347  1.00  0.00     0.163 HD
ATOM     32  O   UNL     1      -6.019  -7.765   0.712  1.00  0.00    -0.269 OA
BRANCH  30  33
ATOM     33  C   UNL     1      -3.909  -8.794   0.747  1.00  0.00     0.039 A 
ATOM     34  C   UNL     1      -4.200  -9.960   0.037  1.00  0.00     0.014 A 
ATOM     35  C   UNL     1      -2.766  -8.714   1.548  1.00  0.00     0.014 A 
ATOM     36  C   UNL     1      -3.310 -11.032   0.089  1.00  0.00     0.010 A 
ATOM     37  C   UNL     1      -1.843  -9.753   1.534  1.00  0.00     0.010 A 
ATOM     38  C   UNL     1      -2.110 -10.925   0.810  1.00  0.00    -0.014 A 
BRANCH  38  39
ATOM     39  C   UNL     1      -1.122 -12.032   0.821  1.00  0.00     0.031 A 
ATOM     40  C   UNL     1      -0.792 -12.736   2.108  1.00  0.00     0.074 A 
ATOM     41  C   UNL     1      -0.482 -12.365  -0.316  1.00  0.00     0.049 A 
ATOM     42  N   UNL     1       0.069 -13.697   2.325  1.00  0.00    -0.248 NA
ATOM     43  C   UNL     1      -1.504 -12.283   3.314  1.00  0.00     0.031 C 
ATOM     44  C   UNL     1      -0.684 -11.730  -1.621  1.00  0.00     0.029 A 
ATOM     45  N   UNL     1       0.472 -13.321  -0.556  1.00  0.00    -0.354 N 
ATOM     46  C   UNL     1       0.012 -13.953   3.689  1.00  0.00     0.074 A 
ATOM     47  C   UNL     1      -0.923 -13.007   4.258  1.00  0.00     0.031 C 
ATOM     48  C   UNL     1       0.096 -12.337  -2.529  1.00  0.00     0.029 A 
ATOM     49  C   UNL     1       0.884 -13.370  -1.866  1.00  0.00     0.049 A 
ATOM     50  H   UNL     1       0.827 -13.916   0.143  1.00  0.00     0.167 HD
ATOM     51  C   UNL     1       0.662 -14.903   4.402  1.00  0.00     0.031 A 
ATOM     52  C   UNL     1       1.800 -14.155  -2.465  1.00  0.00     0.031 A 
ATOM     53  C   UNL     1       1.590 -15.843   3.833  1.00  0.00     0.049 A 
ATOM     54  C   UNL     1       2.529 -15.185  -1.647  1.00  0.00     0.074 A 
ATOM     55  C   UNL     1       2.261 -16.878   4.460  1.00  0.00     0.029 A 
ATOM     56  N   UNL     1       1.984 -15.856   2.503  1.00  0.00    -0.354 N 
ATOM     57  N   UNL     1       2.410 -15.463  -0.371  1.00  0.00    -0.248 NA
ATOM     58  C   UNL     1       3.510 -16.017  -2.357  1.00  0.00     0.031 C 
ATOM     59  C   UNL     1       3.109 -17.478   3.523  1.00  0.00     0.029 A 
ATOM     60  C   UNL     1       2.914 -16.862   2.297  1.00  0.00     0.049 A 
ATOM     61  H   UNL     1       1.653 -15.242   1.809  1.00  0.00     0.167 HD
ATOM     62  C   UNL     1       3.277 -16.521  -0.132  1.00  0.00     0.074 A 
ATOM     63  C   UNL     1       3.902 -16.844  -1.398  1.00  0.00     0.031 C 
ATOM     64  C   UNL     1       3.531 -17.169   1.032  1.00  0.00     0.031 A 
BRANCH  51  65
ATOM     65  C   UNL     1       0.399 -14.957   5.882  1.00  0.00    -0.014 A 
ATOM     66  C   UNL     1      -0.853 -15.347   6.389  1.00  0.00     0.009 A 
ATOM     67  C   UNL     1       1.424 -14.636   6.786  1.00  0.00     0.009 A 
ATOM     68  C   UNL     1      -1.084 -15.370   7.766  1.00  0.00     0.001 A 
ATOM     69  C   UNL     1       1.200 -14.694   8.163  1.00  0.00     0.001 A 
ATOM     70  C   UNL     1      -0.056 -15.048   8.651  1.00  0.00     0.000 A 
ENDBRANCH  51  65
BRANCH  52  71
ATOM     71  C   UNL     1       2.069 -14.007  -3.920  1.00  0.00    -0.014 A 
ATOM     72  C   UNL     1       1.684 -15.011  -4.822  1.00  0.00     0.009 A 
ATOM     73  C   UNL     1       2.711 -12.861  -4.415  1.00  0.00     0.009 A 
ATOM     74  C   UNL     1       1.962 -14.882  -6.185  1.00  0.00     0.001 A 
ATOM     75  C   UNL     1       2.958 -12.720  -5.782  1.00  0.00     0.001 A 
ATOM     76  C   UNL     1       2.593 -13.735  -6.664  1.00  0.00     0.000 A 
ENDBRANCH  52  71
BRANCH  64  77
ATOM     77  C   UNL     1       4.499 -18.318   0.984  1.00  0.00    -0.014 A 
ATOM     78  C   UNL     1       5.874 -18.112   0.789  1.00  0.00     0.009 A 
ATOM     79  C   UNL     1       4.030 -19.627   1.179  1.00  0.00     0.009 A 
ATOM     80  C   UNL     1       6.752 -19.197   0.756  1.00  0.00     0.001 A 
ATOM     81  C   UNL     1       4.914 -20.706   1.180  1.00  0.00     0.001 A 
ATOM     82  C   UNL     1       6.273 -20.491   0.957  1.00  0.00     0.000 A 
ENDBRANCH  64  77
ENDBRANCH  38  39
ENDBRANCH  30  33
ENDBRANCH  28  29
ENDBRANCH  27  28
ENDBRANCH  26  27
ENDBRANCH   1  26
TORSDOF 17
