REMARK SMILES O=C(NCCCCCCNC(=O)c1ccc(-c2c3nc(c(-c4ccccc4)c4ccc([nH]4)c(-c4ccccc4)c4nc(c(-c5ccccc5)c5ccc2[nH]5)C=C4)C=C3)cc1)C1=Cc2c(Cl)ccc(Cl)c2O[C@@H]1C(F)(F)F
REMARK SMILES IDX 7 1 6 2 5 3 4 4 3 5 1 6 2 7 61 9 62 10 72 11 63 12 71 13
REMARK SMILES IDX 64 14 70 15 65 16 66 17 68 18 67 19 69 20 73 21 74 22 75 23
REMARK SMILES IDX 76 24 8 25 9 26 10 27 11 28 12 30 13 31 14 32 60 33 15 34
REMARK SMILES IDX 59 35 16 36 17 37 18 38 53 39 19 40 58 41 52 42 54 43 20 44
REMARK SMILES IDX 57 45 51 46 50 47 21 49 43 50 28 51 42 52 29 53 32 54 41 55
REMARK SMILES IDX 55 56 30 57 31 58 40 60 56 61 33 62 22 63 23 64 27 65 24 66
REMARK SMILES IDX 26 67 25 68 44 69 45 70 49 71 46 72 48 73 47 74 34 75 35 76
REMARK SMILES IDX 39 77 36 78 38 79 37 80
REMARK H PARENT 3 8 10 29 54 48 32 59
REMARK Flexibility Score: inf
ROOT
ATOM      1  C   UNL     1       4.465  -3.898   2.665  1.00  0.00     0.002 C 
ENDROOT
BRANCH   1   2
ATOM      2  C   UNL     1       3.828  -2.799   3.525  1.00  0.00     0.002 C 
BRANCH   2   3
ATOM      3  C   UNL     1       4.185  -1.358   3.169  1.00  0.00     0.021 C 
BRANCH   3   4
ATOM      4  C   UNL     1       3.903  -0.933   1.733  1.00  0.00     0.116 C 
BRANCH   4   5
ATOM      5  N   UNL     1       2.607  -0.319   1.508  1.00  0.00    -0.352 N 
ATOM      6  O   UNL     1       1.015   0.820   0.406  1.00  0.00    -0.270 OA
ATOM      7  C   UNL     1       2.208   0.544   0.523  1.00  0.00     0.251 C 
ATOM      8  H   UNL     1       1.911  -0.559   2.162  1.00  0.00     0.163 HD
BRANCH   7   9
ATOM      9  C   UNL     1       3.159   1.094  -0.486  1.00  0.00     0.067 C 
ATOM     10  C   UNL     1       4.357   1.593  -0.136  1.00  0.00     0.027 C 
ATOM     11  C   UNL     1       3.001   0.466  -1.847  1.00  0.00     0.314 C 
ATOM     12  C   UNL     1       5.487   0.715  -0.556  1.00  0.00     0.037 A 
ATOM     13  O   UNL     1       4.030  -0.531  -2.078  1.00  0.00    -0.474 OA
ATOM     14  C   UNL     1       6.724   0.787   0.115  1.00  0.00     0.052 A 
ATOM     15  C   UNL     1       5.225  -0.376  -1.412  1.00  0.00     0.148 A 
ATOM     16  Cl  UNL     1       7.098   2.075   1.207  1.00  0.00    -0.084 Cl
ATOM     17  C   UNL     1       7.644  -0.257   0.006  1.00  0.00     0.023 A 
ATOM     18  C   UNL     1       6.159  -1.416  -1.510  1.00  0.00     0.083 A 
ATOM     19  C   UNL     1       7.352  -1.367  -0.787  1.00  0.00     0.026 A 
ATOM     20  Cl  UNL     1       5.820  -2.841  -2.425  1.00  0.00    -0.080 Cl
BRANCH  11  21
ATOM     21  C   UNL     1       2.963   1.512  -2.974  1.00  0.00     0.429 C 
ATOM     22  F   UNL     1       2.658   0.944  -4.164  1.00  0.00    -0.167 F 
ATOM     23  F   UNL     1       2.031   2.467  -2.741  1.00  0.00    -0.167 F 
ATOM     24  F   UNL     1       4.152   2.145  -3.124  1.00  0.00    -0.167 F 
ENDBRANCH  11  21
ENDBRANCH   7   9
ENDBRANCH   4   5
ENDBRANCH   3   4
ENDBRANCH   2   3
ENDBRANCH   1   2
BRANCH   1  25
ATOM     25  C   UNL     1       5.981  -3.825   2.453  1.00  0.00     0.021 C 
BRANCH  25  26
ATOM     26  C   UNL     1       6.838  -3.764   3.715  1.00  0.00     0.116 C 
BRANCH  26  27
ATOM     27  N   UNL     1       6.626  -4.894   4.601  1.00  0.00    -0.352 N 
ATOM     28  C   UNL     1       7.529  -5.742   5.192  1.00  0.00     0.251 C 
ATOM     29  H   UNL     1       5.683  -5.082   4.813  1.00  0.00     0.163 HD
ATOM     30  O   UNL     1       7.126  -6.724   5.808  1.00  0.00    -0.269 OA
BRANCH  28  31
ATOM     31  C   UNL     1       8.986  -5.502   5.078  1.00  0.00     0.039 A 
ATOM     32  C   UNL     1       9.827  -6.599   4.862  1.00  0.00     0.014 A 
ATOM     33  C   UNL     1       9.535  -4.226   5.225  1.00  0.00     0.014 A 
ATOM     34  C   UNL     1      11.206  -6.411   4.741  1.00  0.00     0.010 A 
ATOM     35  C   UNL     1      10.903  -4.029   5.034  1.00  0.00     0.010 A 
ATOM     36  C   UNL     1      11.753  -5.120   4.797  1.00  0.00    -0.014 A 
BRANCH  36  37
ATOM     37  C   UNL     1      13.211  -4.898   4.615  1.00  0.00     0.031 A 
ATOM     38  C   UNL     1      14.045  -4.349   5.741  1.00  0.00     0.074 A 
ATOM     39  C   UNL     1      13.779  -5.143   3.418  1.00  0.00     0.049 A 
ATOM     40  N   UNL     1      15.320  -4.050   5.755  1.00  0.00    -0.248 NA
ATOM     41  C   UNL     1      13.350  -4.079   7.009  1.00  0.00     0.031 C 
ATOM     42  C   UNL     1      13.078  -5.644   2.235  1.00  0.00     0.029 A 
ATOM     43  N   UNL     1      15.078  -4.998   2.998  1.00  0.00    -0.354 N 
ATOM     44  C   UNL     1      15.576  -3.547   7.024  1.00  0.00     0.074 A 
ATOM     45  C   UNL     1      14.314  -3.529   7.732  1.00  0.00     0.031 C 
ATOM     46  C   UNL     1      13.958  -5.787   1.231  1.00  0.00     0.029 A 
ATOM     47  C   UNL     1      15.275  -5.353   1.686  1.00  0.00     0.049 A 
ATOM     48  H   UNL     1      15.800  -4.670   3.582  1.00  0.00     0.167 HD
ATOM     49  C   UNL     1      16.756  -3.153   7.561  1.00  0.00     0.031 A 
ATOM     50  C   UNL     1      16.388  -5.326   0.929  1.00  0.00     0.031 A 
ATOM     51  C   UNL     1      18.012  -3.170   6.858  1.00  0.00     0.049 A 
ATOM     52  C   UNL     1      17.682  -4.865   1.538  1.00  0.00     0.074 A 
ATOM     53  C   UNL     1      19.269  -2.835   7.330  1.00  0.00     0.029 A 
ATOM     54  N   UNL     1      18.167  -3.537   5.530  1.00  0.00    -0.354 N 
ATOM     55  N   UNL     1      17.918  -4.451   2.760  1.00  0.00    -0.248 NA
ATOM     56  C   UNL     1      18.865  -4.879   0.667  1.00  0.00     0.031 C 
ATOM     57  C   UNL     1      20.177  -2.947   6.271  1.00  0.00     0.029 A 
ATOM     58  C   UNL     1      19.495  -3.412   5.158  1.00  0.00     0.049 A 
ATOM     59  H   UNL     1      17.441  -3.842   4.940  1.00  0.00     0.167 HD
ATOM     60  C   UNL     1      19.279  -4.181   2.812  1.00  0.00     0.074 A 
ATOM     61  C   UNL     1      19.818  -4.493   1.503  1.00  0.00     0.031 C 
ATOM     62  C   UNL     1      20.017  -3.717   3.850  1.00  0.00     0.031 A 
BRANCH  49  63
ATOM     63  C   UNL     1      16.734  -2.656   8.982  1.00  0.00    -0.014 A 
ATOM     64  C   UNL     1      16.476  -3.525  10.055  1.00  0.00     0.009 A 
ATOM     65  C   UNL     1      16.994  -1.304   9.255  1.00  0.00     0.009 A 
ATOM     66  C   UNL     1      16.432  -3.042  11.364  1.00  0.00     0.001 A 
ATOM     67  C   UNL     1      16.982  -0.830  10.568  1.00  0.00     0.001 A 
ATOM     68  C   UNL     1      16.688  -1.696  11.620  1.00  0.00     0.000 A 
ENDBRANCH  49  63
BRANCH  50  69
ATOM     69  C   UNL     1      16.327  -5.763  -0.490  1.00  0.00    -0.014 A 
ATOM     70  C   UNL     1      16.925  -6.966  -0.894  1.00  0.00     0.009 A 
ATOM     71  C   UNL     1      15.659  -4.983  -1.448  1.00  0.00     0.009 A 
ATOM     72  C   UNL     1      16.875  -7.368  -2.231  1.00  0.00     0.001 A 
ATOM     73  C   UNL     1      15.585  -5.402  -2.778  1.00  0.00     0.001 A 
ATOM     74  C   UNL     1      16.201  -6.589  -3.170  1.00  0.00     0.000 A 
ENDBRANCH  50  69
BRANCH  62  75
ATOM     75  C   UNL     1      21.493  -3.546   3.623  1.00  0.00    -0.014 A 
ATOM     76  C   UNL     1      21.994  -2.515   2.813  1.00  0.00     0.009 A 
ATOM     77  C   UNL     1      22.398  -4.408   4.263  1.00  0.00     0.009 A 
ATOM     78  C   UNL     1      23.370  -2.372   2.622  1.00  0.00     0.001 A 
ATOM     79  C   UNL     1      23.774  -4.244   4.094  1.00  0.00     0.001 A 
ATOM     80  C   UNL     1      24.258  -3.233   3.266  1.00  0.00     0.000 A 
ENDBRANCH  62  75
ENDBRANCH  36  37
ENDBRANCH  28  31
ENDBRANCH  26  27
ENDBRANCH  25  26
ENDBRANCH   1  25
TORSDOF 14
