REMARK SMILES C[C@]12CCC[C@](C)(C(=O)NCCCCCCNC(=O)c3ccc(-c4c5nc(c(-c6ccccc6)c6ccc([nH]6)c(-c6ccccc6)c6nc(c(-c7ccccc7)c7ccc4[nH]7)C=C6)C=C5)cc3)[C@@H]1CC[C@]13C=C(CO)[C@H](CC[C@H]12)C3
REMARK SMILES IDX 13 1 12 2 11 3 10 4 8 5 9 6 6 8 1 9 2 10 3 11 68 12 79 13
REMARK SMILES IDX 4 14 69 15 71 16 78 17 5 18 7 19 70 20 72 21 80 22 77 23
REMARK SMILES IDX 73 24 76 25 74 26 75 27 14 29 15 30 16 31 17 32 18 33 19 35
REMARK SMILES IDX 20 36 21 37 67 38 22 39 66 40 23 41 24 42 25 43 60 44 26 45
REMARK SMILES IDX 65 46 59 47 61 48 27 49 64 50 58 51 57 52 28 54 50 55 35 56
REMARK SMILES IDX 49 57 36 58 39 59 48 60 62 61 37 62 38 63 47 65 63 66 40 67
REMARK SMILES IDX 29 68 30 69 34 70 31 71 33 72 32 73 51 74 52 75 56 76 53 77
REMARK SMILES IDX 55 78 54 79 41 80 42 81 46 82 43 83 45 84 44 85
REMARK H PARENT 10 7 75 28 17 34 61 53 39 64
REMARK Flexibility Score: inf
ROOT
ATOM      1  C   UNL     1       6.554  -2.449   0.912  1.00  0.00     0.002 C 
ENDROOT
BRANCH   1   2
ATOM      2  C   UNL     1       5.436  -3.428   1.310  1.00  0.00     0.021 C 
BRANCH   2   3
ATOM      3  C   UNL     1       4.082  -2.774   1.566  1.00  0.00     0.116 C 
BRANCH   3   4
ATOM      4  N   UNL     1       3.557  -2.277   0.314  1.00  0.00    -0.356 N 
ATOM      5  C   UNL     1       2.346  -2.203  -0.266  1.00  0.00     0.226 C 
ATOM      6  O   UNL     1       2.416  -2.042  -1.494  1.00  0.00    -0.274 OA
ATOM      7  H   UNL     1       4.263  -1.897  -0.258  1.00  0.00     0.163 HD
BRANCH   5   8
ATOM      8  C   UNL     1       0.958  -2.218   0.433  1.00  0.00     0.050 C 
ATOM      9  C   UNL     1       2.429   0.389   1.045  1.00  0.00     0.012 C 
ATOM     10  C   UNL     1       0.871   0.268   1.239  1.00  0.00    -0.025 C 
ATOM     11  C   UNL     1       0.604  -0.197   2.685  1.00  0.00     0.007 C 
ATOM     12  C   UNL     1       0.242  -0.794   0.270  1.00  0.00     0.010 C 
ATOM     13  C   UNL     1       0.349   1.713   1.008  1.00  0.00     0.005 C 
ATOM     14  C   UNL     1       1.178  -1.579   2.986  1.00  0.00     0.002 C 
ATOM     15  C   UNL     1       0.081  -0.274  -1.185  1.00  0.00     0.006 C 
ATOM     16  C   UNL     1       0.148   2.168  -0.490  1.00  0.00    -0.008 C 
ATOM     17  C   UNL     1      -0.545   2.542   1.922  1.00  0.00     0.006 C 
ATOM     18  C   UNL     1       0.846  -2.630   1.927  1.00  0.00     0.017 C 
ATOM     19  C   UNL     1       0.223  -3.343  -0.357  1.00  0.00     0.022 C 
ATOM     20  C   UNL     1      -0.574   1.108  -1.301  1.00  0.00     0.012 C 
ATOM     21  C   UNL     1       1.517   2.595  -0.935  1.00  0.00    -0.018 C 
ATOM     22  C   UNL     1      -0.485   3.579  -0.588  1.00  0.00     0.019 C 
ATOM     23  C   UNL     1       0.034   4.009   1.780  1.00  0.00     0.008 C 
ATOM     24  C   UNL     1       1.806   3.740  -0.278  1.00  0.00    -0.045 C 
ATOM     25  C   UNL     1       0.499   4.351   0.308  1.00  0.00     0.018 C 
BRANCH  24  26
ATOM     26  C   UNL     1       3.179   4.283  -0.056  1.00  0.00     0.187 C 
BRANCH  26  27
ATOM     27  O   UNL     1       4.173   3.430  -0.629  1.00  0.00    -0.392 OA
ATOM     28  H   UNL     1       4.128   2.555  -0.212  1.00  0.00     0.211 HD
ENDBRANCH  26  27
ENDBRANCH  24  26
ENDBRANCH   5   8
ENDBRANCH   3   4
ENDBRANCH   2   3
ENDBRANCH   1   2
BRANCH   1  29
ATOM     29  C   UNL     1       6.924  -1.394   1.959  1.00  0.00     0.002 C 
BRANCH  29  30
ATOM     30  C   UNL     1       7.213  -1.940   3.356  1.00  0.00     0.021 C 
BRANCH  30  31
ATOM     31  C   UNL     1       8.189  -3.108   3.394  1.00  0.00     0.116 C 
BRANCH  31  32
ATOM     32  N   UNL     1       9.511  -2.761   2.904  1.00  0.00    -0.352 N 
ATOM     33  C   UNL     1      10.724  -3.146   3.416  1.00  0.00     0.251 C 
ATOM     34  H   UNL     1       9.540  -2.181   2.109  1.00  0.00     0.163 HD
ATOM     35  O   UNL     1      11.773  -2.679   2.977  1.00  0.00    -0.269 OA
BRANCH  33  36
ATOM     36  C   UNL     1      10.751  -4.108   4.534  1.00  0.00     0.039 A 
ATOM     37  C   UNL     1      11.480  -3.791   5.681  1.00  0.00     0.014 A 
ATOM     38  C   UNL     1      10.010  -5.293   4.467  1.00  0.00     0.014 A 
ATOM     39  C   UNL     1      11.424  -4.639   6.786  1.00  0.00     0.010 A 
ATOM     40  C   UNL     1       9.891  -6.094   5.596  1.00  0.00     0.010 A 
ATOM     41  C   UNL     1      10.604  -5.780   6.764  1.00  0.00    -0.014 A 
BRANCH  41  42
ATOM     42  C   UNL     1      10.489  -6.668   7.946  1.00  0.00     0.031 A 
ATOM     43  C   UNL     1      10.958  -8.094   7.860  1.00  0.00     0.074 A 
ATOM     44  C   UNL     1       9.910  -6.213   9.074  1.00  0.00     0.049 A 
ATOM     45  N   UNL     1      10.884  -9.044   8.758  1.00  0.00    -0.248 NA
ATOM     46  C   UNL     1      11.567  -8.516   6.587  1.00  0.00     0.031 C 
ATOM     47  C   UNL     1       9.385  -4.860   9.273  1.00  0.00     0.029 A 
ATOM     48  N   UNL     1       9.660  -6.844  10.267  1.00  0.00    -0.354 N 
ATOM     49  C   UNL     1      11.419 -10.175   8.153  1.00  0.00     0.074 A 
ATOM     50  C   UNL     1      11.762  -9.809   6.797  1.00  0.00     0.031 C 
ATOM     51  C   UNL     1       8.902  -4.755  10.521  1.00  0.00     0.029 A 
ATOM     52  C   UNL     1       9.040  -6.043  11.195  1.00  0.00     0.049 A 
ATOM     53  H   UNL     1       9.903  -7.782  10.441  1.00  0.00     0.167 HD
ATOM     54  C   UNL     1      11.626 -11.402   8.685  1.00  0.00     0.031 A 
ATOM     55  C   UNL     1       8.622  -6.317  12.445  1.00  0.00     0.031 A 
ATOM     56  C   UNL     1      11.290 -11.762  10.036  1.00  0.00     0.049 A 
ATOM     57  C   UNL     1       8.838  -7.696  13.004  1.00  0.00     0.074 A 
ATOM     58  C   UNL     1      11.505 -12.964  10.686  1.00  0.00     0.029 A 
ATOM     59  N   UNL     1      10.665 -10.921  10.944  1.00  0.00    -0.354 N 
ATOM     60  N   UNL     1       9.403  -8.737  12.441  1.00  0.00    -0.248 NA
ATOM     61  C   UNL     1       8.369  -7.934  14.376  1.00  0.00     0.031 C 
ATOM     62  C   UNL     1      10.957 -12.870  11.969  1.00  0.00     0.029 A 
ATOM     63  C   UNL     1      10.462 -11.587  12.140  1.00  0.00     0.049 A 
ATOM     64  H   UNL     1      10.404  -9.989  10.764  1.00  0.00     0.167 HD
ATOM     65  C   UNL     1       9.388  -9.742  13.400  1.00  0.00     0.074 A 
ATOM     66  C   UNL     1       8.770  -9.180  14.584  1.00  0.00     0.031 C 
ATOM     67  C   UNL     1       9.848 -11.014  13.310  1.00  0.00     0.031 A 
BRANCH  54  68
ATOM     68  C   UNL     1      12.233 -12.450   7.793  1.00  0.00    -0.014 A 
ATOM     69  C   UNL     1      13.567 -12.359   7.362  1.00  0.00     0.009 A 
ATOM     70  C   UNL     1      11.470 -13.561   7.402  1.00  0.00     0.009 A 
ATOM     71  C   UNL     1      14.110 -13.337   6.525  1.00  0.00     0.001 A 
ATOM     72  C   UNL     1      12.025 -14.555   6.593  1.00  0.00     0.001 A 
ATOM     73  C   UNL     1      13.340 -14.436   6.146  1.00  0.00     0.000 A 
ENDBRANCH  54  68
BRANCH  55  74
ATOM     74  C   UNL     1       7.964  -5.261  13.260  1.00  0.00    -0.014 A 
ATOM     75  C   UNL     1       8.610  -4.721  14.383  1.00  0.00     0.009 A 
ATOM     76  C   UNL     1       6.683  -4.795  12.927  1.00  0.00     0.009 A 
ATOM     77  C   UNL     1       7.976  -3.758  15.171  1.00  0.00     0.001 A 
ATOM     78  C   UNL     1       6.064  -3.808  13.698  1.00  0.00     0.001 A 
ATOM     79  C   UNL     1       6.706  -3.299  14.825  1.00  0.00     0.000 A 
ENDBRANCH  55  74
BRANCH  67  80
ATOM     80  C   UNL     1       9.743 -11.873  14.539  1.00  0.00    -0.014 A 
ATOM     81  C   UNL     1       8.507 -12.355  14.995  1.00  0.00     0.009 A 
ATOM     82  C   UNL     1      10.912 -12.244  15.223  1.00  0.00     0.009 A 
ATOM     83  C   UNL     1       8.441 -13.164  16.131  1.00  0.00     0.001 A 
ATOM     84  C   UNL     1      10.846 -13.079  16.339  1.00  0.00     0.001 A 
ATOM     85  C   UNL     1       9.610 -13.530  16.798  1.00  0.00     0.000 A 
ENDBRANCH  67  80
ENDBRANCH  41  42
ENDBRANCH  33  36
ENDBRANCH  31  32
ENDBRANCH  30  31
ENDBRANCH  29  30
ENDBRANCH   1  29
TORSDOF 15
