REMARK SMILES Cc1ccc(C(=O)NCCCCCCNC(=O)c2ccc(-c3c4nc(c(-c5ccccc5)c5ccc([nH]5)c(-c5ccccc5)c5nc(c(-c6ccccc6)c6ccc3[nH]6)C=C5)C=C4)cc2)c(Oc2cccc(F)c2C(N)=O)c1
REMARK SMILES IDX 11 1 10 2 9 3 8 4 6 5 7 6 5 8 1 9 2 10 3 11 78 12 4 13 66 14
REMARK SMILES IDX 67 15 68 16 69 17 74 18 70 19 72 20 71 21 73 22 75 23 76 24
REMARK SMILES IDX 77 25 12 28 13 29 14 30 15 31 16 32 17 34 18 35 19 36 65 37
REMARK SMILES IDX 20 38 64 39 21 40 22 41 23 42 58 43 24 44 63 45 57 46 59 47
REMARK SMILES IDX 25 48 62 49 56 50 55 51 26 53 48 54 33 55 47 56 34 57 37 58
REMARK SMILES IDX 46 59 60 60 35 61 36 62 45 64 61 65 38 66 27 67 28 68 32 69
REMARK SMILES IDX 29 70 31 71 30 72 49 73 50 74 54 75 51 76 53 77 52 78 39 79
REMARK SMILES IDX 40 80 44 81 41 82 43 83 42 84
REMARK H PARENT 8 7 76 26 76 27 15 33 59 52 37 63
REMARK Flexibility Score: inf
ROOT
ATOM      1  C   UNL     1      -6.000   3.480  -1.063  1.00  0.00     0.002 C 
ENDROOT
BRANCH   1   2
ATOM      2  C   UNL     1      -4.566   3.178  -1.503  1.00  0.00     0.021 C 
BRANCH   2   3
ATOM      3  C   UNL     1      -3.637   2.491  -0.508  1.00  0.00     0.116 C 
BRANCH   3   4
ATOM      4  N   UNL     1      -3.900   1.106  -0.226  1.00  0.00    -0.352 N 
ATOM      5  C   UNL     1      -3.060   0.081   0.150  1.00  0.00     0.255 C 
ATOM      6  O   UNL     1      -3.618  -0.965   0.497  1.00  0.00    -0.269 OA
ATOM      7  H   UNL     1      -4.845   0.845  -0.319  1.00  0.00     0.163 HD
BRANCH   5   8
ATOM      8  C   UNL     1      -1.555   0.089   0.106  1.00  0.00     0.082 A 
ATOM      9  C   UNL     1       2.752  -0.512   0.054  1.00  0.00     0.044 C 
ATOM     10  C   UNL     1       1.265  -0.314   0.077  1.00  0.00    -0.047 A 
ATOM     11  C   UNL     1       0.401  -1.364  -0.223  1.00  0.00     0.004 A 
ATOM     12  C   UNL     1       0.718   0.919   0.439  1.00  0.00     0.051 A 
ATOM     13  C   UNL     1      -0.984  -1.166  -0.196  1.00  0.00     0.018 A 
ATOM     14  C   UNL     1      -0.673   1.142   0.406  1.00  0.00     0.140 A 
BRANCH  14  15
ATOM     15  O   UNL     1      -1.164   2.358   0.792  1.00  0.00    -0.456 OA
BRANCH  15  16
ATOM     16  C   UNL     1      -0.589   3.548   0.386  1.00  0.00     0.143 A 
ATOM     17  C   UNL     1      -0.822   4.566   1.333  1.00  0.00     0.048 A 
ATOM     18  C   UNL     1       0.066   3.869  -0.818  1.00  0.00     0.117 A 
ATOM     19  C   UNL     1      -0.402   5.876   1.115  1.00  0.00     0.007 A 
ATOM     20  C   UNL     1       0.468   5.199  -1.023  1.00  0.00     0.139 A 
ATOM     21  C   UNL     1       0.239   6.194  -0.074  1.00  0.00     0.040 A 
ATOM     22  F   UNL     1       1.060   5.569  -2.170  1.00  0.00    -0.206 F 
BRANCH  18  23
ATOM     23  C   UNL     1       0.481   2.937  -1.889  1.00  0.00     0.255 C 
ATOM     24  N   UNL     1      -0.456   2.168  -2.513  1.00  0.00    -0.365 N 
ATOM     25  O   UNL     1       1.658   2.869  -2.225  1.00  0.00    -0.269 OA
ATOM     26  H   UNL     1      -1.400   2.224  -2.241  1.00  0.00     0.159 HD
ATOM     27  H   UNL     1      -0.188   1.556  -3.237  1.00  0.00     0.159 HD
ENDBRANCH  18  23
ENDBRANCH  15  16
ENDBRANCH  14  15
ENDBRANCH   5   8
ENDBRANCH   3   4
ENDBRANCH   2   3
ENDBRANCH   1   2
BRANCH   1  28
ATOM     28  C   UNL     1      -6.223   4.096   0.326  1.00  0.00     0.002 C 
BRANCH  28  29
ATOM     29  C   UNL     1      -5.316   5.249   0.755  1.00  0.00     0.021 C 
BRANCH  29  30
ATOM     30  C   UNL     1      -5.389   6.508  -0.094  1.00  0.00     0.116 C 
BRANCH  30  31
ATOM     31  N   UNL     1      -6.343   7.502   0.381  1.00  0.00    -0.352 N 
ATOM     32  C   UNL     1      -6.662   8.733  -0.177  1.00  0.00     0.251 C 
ATOM     33  H   UNL     1      -6.825   7.270   1.208  1.00  0.00     0.163 HD
ATOM     34  O   UNL     1      -7.503   9.448   0.328  1.00  0.00    -0.269 OA
BRANCH  32  35
ATOM     35  C   UNL     1      -6.045   9.100  -1.477  1.00  0.00     0.039 A 
ATOM     36  C   UNL     1      -6.900   9.460  -2.523  1.00  0.00     0.014 A 
ATOM     37  C   UNL     1      -4.691   8.877  -1.717  1.00  0.00     0.014 A 
ATOM     38  C   UNL     1      -6.451   9.340  -3.836  1.00  0.00     0.010 A 
ATOM     39  C   UNL     1      -4.270   8.668  -3.017  1.00  0.00     0.010 A 
ATOM     40  C   UNL     1      -5.174   8.825  -4.070  1.00  0.00    -0.014 A 
BRANCH  40  41
ATOM     41  C   UNL     1      -4.779   8.279  -5.363  1.00  0.00     0.031 A 
ATOM     42  C   UNL     1      -3.880   9.033  -6.263  1.00  0.00     0.074 A 
ATOM     43  C   UNL     1      -5.253   7.079  -5.772  1.00  0.00     0.049 A 
ATOM     44  N   UNL     1      -3.953   8.981  -7.553  1.00  0.00    -0.248 NA
ATOM     45  C   UNL     1      -2.836   9.929  -5.775  1.00  0.00     0.031 C 
ATOM     46  C   UNL     1      -4.825   6.318  -6.946  1.00  0.00     0.029 A 
ATOM     47  N   UNL     1      -6.327   6.332  -5.312  1.00  0.00    -0.354 N 
ATOM     48  C   UNL     1      -2.809   9.560  -8.042  1.00  0.00     0.074 A 
ATOM     49  C   UNL     1      -2.195  10.221  -6.912  1.00  0.00     0.031 C 
ATOM     50  C   UNL     1      -5.800   5.455  -7.278  1.00  0.00     0.029 A 
ATOM     51  C   UNL     1      -6.935   5.744  -6.421  1.00  0.00     0.049 A 
ATOM     52  H   UNL     1      -6.608   6.234  -4.374  1.00  0.00     0.167 HD
ATOM     53  C   UNL     1      -2.384   9.290  -9.307  1.00  0.00     0.031 A 
ATOM     54  C   UNL     1      -8.198   6.019  -6.864  1.00  0.00     0.031 A 
ATOM     55  C   UNL     1      -3.258   8.361 -10.014  1.00  0.00     0.049 A 
ATOM     56  C   UNL     1      -8.249   6.468  -8.316  1.00  0.00     0.074 A 
ATOM     57  C   UNL     1      -3.169   7.004 -10.280  1.00  0.00     0.029 A 
ATOM     58  N   UNL     1      -4.562   8.734 -10.314  1.00  0.00    -0.354 N 
ATOM     59  N   UNL     1      -7.213   6.893  -8.984  1.00  0.00    -0.248 NA
ATOM     60  C   UNL     1      -9.476   6.535  -9.108  1.00  0.00     0.031 C 
ATOM     61  C   UNL     1      -4.439   6.554 -10.719  1.00  0.00     0.029 A 
ATOM     62  C   UNL     1      -5.293   7.640 -10.735  1.00  0.00     0.049 A 
ATOM     63  H   UNL     1      -4.915   9.650 -10.237  1.00  0.00     0.167 HD
ATOM     64  C   UNL     1      -7.593   7.282 -10.244  1.00  0.00     0.074 A 
ATOM     65  C   UNL     1      -9.021   7.026 -10.276  1.00  0.00     0.031 C 
ATOM     66  C   UNL     1      -6.688   7.791 -11.133  1.00  0.00     0.031 A 
BRANCH  53  67
ATOM     67  C   UNL     1      -0.985   9.631  -9.738  1.00  0.00    -0.014 A 
ATOM     68  C   UNL     1      -0.229   8.707 -10.481  1.00  0.00     0.009 A 
ATOM     69  C   UNL     1      -0.343  10.830  -9.383  1.00  0.00     0.009 A 
ATOM     70  C   UNL     1       1.126   8.917 -10.758  1.00  0.00     0.001 A 
ATOM     71  C   UNL     1       1.023  11.028  -9.622  1.00  0.00     0.001 A 
ATOM     72  C   UNL     1       1.761  10.063 -10.298  1.00  0.00     0.000 A 
ENDBRANCH  53  67
BRANCH  54  73
ATOM     73  C   UNL     1      -9.139   6.499  -5.819  1.00  0.00    -0.014 A 
ATOM     74  C   UNL     1      -9.508   5.615  -4.788  1.00  0.00     0.009 A 
ATOM     75  C   UNL     1      -9.394   7.867  -5.654  1.00  0.00     0.009 A 
ATOM     76  C   UNL     1     -10.007   6.099  -3.575  1.00  0.00     0.001 A 
ATOM     77  C   UNL     1      -9.908   8.347  -4.443  1.00  0.00     0.001 A 
ATOM     78  C   UNL     1     -10.179   7.468  -3.394  1.00  0.00     0.000 A 
ENDBRANCH  54  73
BRANCH  66  79
ATOM     79  C   UNL     1      -6.964   8.418 -12.485  1.00  0.00    -0.014 A 
ATOM     80  C   UNL     1      -8.222   8.812 -12.954  1.00  0.00     0.009 A 
ATOM     81  C   UNL     1      -5.865   8.727 -13.325  1.00  0.00     0.009 A 
ATOM     82  C   UNL     1      -8.377   9.447 -14.198  1.00  0.00     0.001 A 
ATOM     83  C   UNL     1      -6.008   9.395 -14.544  1.00  0.00     0.001 A 
ATOM     84  C   UNL     1      -7.271   9.748 -14.987  1.00  0.00     0.000 A 
ENDBRANCH  66  79
ENDBRANCH  40  41
ENDBRANCH  32  35
ENDBRANCH  30  31
ENDBRANCH  29  30
ENDBRANCH  28  29
ENDBRANCH   1  28
TORSDOF 16
