REMARK SMILES O=C(N[C@]1(C(=O)NCCCCCCNC(=O)c2ccc(-c3c4nc(c(-c5ccccc5)c5ccc([nH]5)c(-c5ccccc5)c5nc(c(-c6ccccc6)c6ccc3[nH]6)C=C5)C=C4)cc2)CC[C@H](c2ccccc2)CC1)OCC1c2ccccc2-c2ccccc21
REMARK SMILES IDX 9 1 8 2 7 3 5 4 6 5 4 7 65 8 75 9 66 10 74 11 67 12 3 13
REMARK SMILES IDX 1 14 2 15 76 17 77 18 78 19 79 20 90 21 80 22 84 23 85 24
REMARK SMILES IDX 89 25 81 26 83 27 86 28 88 29 82 30 87 31 68 32 69 33 73 34
REMARK SMILES IDX 70 35 72 36 71 37 10 38 11 39 12 40 13 41 14 42 15 43 16 45
REMARK SMILES IDX 17 46 18 47 64 48 19 49 63 50 20 51 21 52 22 53 57 54 23 55
REMARK SMILES IDX 62 56 56 57 58 58 24 59 61 60 55 61 54 62 25 64 47 65 32 66
REMARK SMILES IDX 46 67 33 68 36 69 45 70 59 71 34 72 35 73 44 75 60 76 37 77
REMARK SMILES IDX 26 78 27 79 31 80 28 81 30 82 29 83 48 84 49 85 53 86 50 87
REMARK SMILES IDX 52 88 51 89 38 90 39 91 43 92 40 93 42 94 41 95
REMARK H PARENT 7 6 3 16 14 44 58 63 36 74
REMARK Flexibility Score: inf
ROOT
ATOM      1  C   UNL     1       8.367  -0.461   3.555  1.00  0.00     0.021 C 
ENDROOT
BRANCH   1   2
ATOM      2  C   UNL     1       7.338  -0.333   2.446  1.00  0.00     0.116 C 
BRANCH   2   3
ATOM      3  N   UNL     1       6.039  -0.847   2.756  1.00  0.00    -0.354 N 
ATOM      4  C   UNL     1       4.816  -0.342   2.443  1.00  0.00     0.245 C 
ATOM      5  O   UNL     1       3.864  -0.985   2.917  1.00  0.00    -0.272 OA
ATOM      6  H   UNL     1       6.029  -1.686   3.271  1.00  0.00     0.163 HD
BRANCH   4   7
ATOM      7  C   UNL     1       4.547   1.011   1.649  1.00  0.00     0.122 C 
ATOM      8  C   UNL     1       5.452   1.347   0.450  1.00  0.00     0.039 C 
ATOM      9  C   UNL     1       4.480   2.219   2.596  1.00  0.00     0.039 C 
ATOM     10  C   UNL     1       6.718   2.176   0.574  1.00  0.00     0.011 C 
ATOM     11  C   UNL     1       5.823   2.884   2.897  1.00  0.00     0.011 C 
ATOM     12  C   UNL     1       6.698   3.233   1.677  1.00  0.00     0.019 C 
BRANCH   7  13
ATOM     13  N   UNL     1       3.126   0.721   1.193  1.00  0.00    -0.307 N 
ATOM     14  O   UNL     1       1.732  -0.530  -0.114  1.00  0.00    -0.225 OA
ATOM     15  C   UNL     1       2.727   0.164   0.007  1.00  0.00     0.408 C 
ATOM     16  H   UNL     1       2.409   0.960   1.825  1.00  0.00     0.168 HD
BRANCH  15  17
ATOM     17  O   UNL     1       3.567   0.480  -0.989  1.00  0.00    -0.449 OA
BRANCH  17  18
ATOM     18  C   UNL     1       3.573  -0.260  -2.204  1.00  0.00     0.248 C 
BRANCH  18  19
ATOM     19  C   UNL     1       4.634   0.338  -3.150  1.00  0.00     0.088 C 
ATOM     20  C   UNL     1       6.115   0.158  -2.787  1.00  0.00    -0.029 A 
ATOM     21  C   UNL     1       4.570   1.852  -3.376  1.00  0.00    -0.029 A 
ATOM     22  C   UNL     1       6.779  -0.949  -2.278  1.00  0.00     0.005 A 
ATOM     23  C   UNL     1       6.822   1.355  -3.055  1.00  0.00    -0.014 A 
ATOM     24  C   UNL     1       5.879   2.385  -3.433  1.00  0.00    -0.014 A 
ATOM     25  C   UNL     1       3.467   2.681  -3.499  1.00  0.00     0.005 A 
ATOM     26  C   UNL     1       8.155  -0.846  -2.029  1.00  0.00     0.000 A 
ATOM     27  C   UNL     1       8.189   1.448  -2.831  1.00  0.00     0.009 A 
ATOM     28  C   UNL     1       6.093   3.726  -3.714  1.00  0.00     0.009 A 
ATOM     29  C   UNL     1       3.683   4.042  -3.741  1.00  0.00     0.000 A 
ATOM     30  C   UNL     1       8.855   0.338  -2.311  1.00  0.00     0.001 A 
ATOM     31  C   UNL     1       4.983   4.554  -3.881  1.00  0.00     0.001 A 
ENDBRANCH  18  19
ENDBRANCH  17  18
ENDBRANCH  15  17
ENDBRANCH   7  13
BRANCH  12  32
ATOM     32  C   UNL     1       6.470   4.640   1.144  1.00  0.00    -0.045 A 
ATOM     33  C   UNL     1       5.699   4.923   0.006  1.00  0.00     0.004 A 
ATOM     34  C   UNL     1       7.144   5.701   1.769  1.00  0.00     0.004 A 
ATOM     35  C   UNL     1       5.658   6.214  -0.523  1.00  0.00     0.000 A 
ATOM     36  C   UNL     1       7.095   6.992   1.245  1.00  0.00     0.000 A 
ATOM     37  C   UNL     1       6.363   7.246   0.089  1.00  0.00     0.000 A 
ENDBRANCH  12  32
ENDBRANCH   4   7
ENDBRANCH   2   3
ENDBRANCH   1   2
BRANCH   1  38
ATOM     38  C   UNL     1       9.288  -1.671   3.463  1.00  0.00     0.002 C 
BRANCH  38  39
ATOM     39  C   UNL     1      10.026  -1.868   2.134  1.00  0.00     0.002 C 
BRANCH  39  40
ATOM     40  C   UNL     1      10.755  -0.651   1.556  1.00  0.00     0.021 C 
BRANCH  40  41
ATOM     41  C   UNL     1      11.732   0.059   2.489  1.00  0.00     0.116 C 
BRANCH  41  42
ATOM     42  N   UNL     1      12.704  -0.838   3.085  1.00  0.00    -0.352 N 
ATOM     43  C   UNL     1      14.069  -0.730   3.170  1.00  0.00     0.251 C 
ATOM     44  H   UNL     1      12.326  -1.651   3.492  1.00  0.00     0.163 HD
ATOM     45  O   UNL     1      14.730  -1.662   3.616  1.00  0.00    -0.269 OA
BRANCH  43  46
ATOM     46  C   UNL     1      14.753   0.496   2.706  1.00  0.00     0.039 A 
ATOM     47  C   UNL     1      15.916   0.364   1.941  1.00  0.00     0.014 A 
ATOM     48  C   UNL     1      14.278   1.764   3.048  1.00  0.00     0.014 A 
ATOM     49  C   UNL     1      16.577   1.504   1.477  1.00  0.00     0.010 A 
ATOM     50  C   UNL     1      14.899   2.898   2.531  1.00  0.00     0.010 A 
ATOM     51  C   UNL     1      16.060   2.778   1.750  1.00  0.00    -0.014 A 
BRANCH  51  52
ATOM     52  C   UNL     1      16.730   4.008   1.262  1.00  0.00     0.031 A 
ATOM     53  C   UNL     1      17.319   4.978   2.249  1.00  0.00     0.074 A 
ATOM     54  C   UNL     1      16.738   4.294  -0.053  1.00  0.00     0.049 A 
ATOM     55  N   UNL     1      17.832   6.163   2.040  1.00  0.00    -0.248 NA
ATOM     56  C   UNL     1      17.298   4.571   3.663  1.00  0.00     0.031 C 
ATOM     57  C   UNL     1      16.180   3.448  -1.109  1.00  0.00     0.029 A 
ATOM     58  N   UNL     1      17.221   5.390  -0.723  1.00  0.00    -0.354 N 
ATOM     59  C   UNL     1      18.165   6.655   3.296  1.00  0.00     0.074 A 
ATOM     60  C   UNL     1      17.759   5.658   4.262  1.00  0.00     0.031 C 
ATOM     61  C   UNL     1      16.363   4.051  -2.295  1.00  0.00     0.029 A 
ATOM     62  C   UNL     1      17.012   5.340  -2.079  1.00  0.00     0.049 A 
ATOM     63  H   UNL     1      17.674   6.140  -0.274  1.00  0.00     0.167 HD
ATOM     64  C   UNL     1      18.765   7.826   3.616  1.00  0.00     0.031 A 
ATOM     65  C   UNL     1      17.299   6.239  -3.040  1.00  0.00     0.031 A 
ATOM     66  C   UNL     1      19.185   8.807   2.652  1.00  0.00     0.049 A 
ATOM     67  C   UNL     1      17.966   7.532  -2.663  1.00  0.00     0.074 A 
ATOM     68  C   UNL     1      19.852  10.000   2.869  1.00  0.00     0.029 A 
ATOM     69  N   UNL     1      18.979   8.706   1.285  1.00  0.00    -0.354 N 
ATOM     70  N   UNL     1      18.317   7.963  -1.476  1.00  0.00    -0.248 NA
ATOM     71  C   UNL     1      18.285   8.456  -3.760  1.00  0.00     0.031 C 
ATOM     72  C   UNL     1      20.011  10.641   1.636  1.00  0.00     0.029 A 
ATOM     73  C   UNL     1      19.490   9.822   0.646  1.00  0.00     0.049 A 
ATOM     74  H   UNL     1      18.535   7.951   0.835  1.00  0.00     0.167 HD
ATOM     75  C   UNL     1      18.926   9.194  -1.686  1.00  0.00     0.074 A 
ATOM     76  C   UNL     1      18.901   9.436  -3.114  1.00  0.00     0.031 C 
ATOM     77  C   UNL     1      19.462  10.044  -0.776  1.00  0.00     0.031 A 
BRANCH  64  78
ATOM     78  C   UNL     1      18.985   8.109   5.076  1.00  0.00    -0.014 A 
ATOM     79  C   UNL     1      19.920   7.381   5.829  1.00  0.00     0.009 A 
ATOM     80  C   UNL     1      18.249   9.125   5.707  1.00  0.00     0.009 A 
ATOM     81  C   UNL     1      20.079   7.632   7.194  1.00  0.00     0.001 A 
ATOM     82  C   UNL     1      18.433   9.394   7.064  1.00  0.00     0.001 A 
ATOM     83  C   UNL     1      19.337   8.639   7.809  1.00  0.00     0.000 A 
ENDBRANCH  64  78
BRANCH  65  84
ATOM     84  C   UNL     1      16.970   5.934  -4.456  1.00  0.00    -0.014 A 
ATOM     85  C   UNL     1      17.989   5.618  -5.368  1.00  0.00     0.009 A 
ATOM     86  C   UNL     1      15.639   5.940  -4.900  1.00  0.00     0.009 A 
ATOM     87  C   UNL     1      17.682   5.332  -6.700  1.00  0.00     0.001 A 
ATOM     88  C   UNL     1      15.333   5.628  -6.226  1.00  0.00     0.001 A 
ATOM     89  C   UNL     1      16.355   5.331  -7.127  1.00  0.00     0.000 A 
ENDBRANCH  65  84
BRANCH  77  90
ATOM     90  C   UNL     1      20.106  11.296  -1.299  1.00  0.00    -0.014 A 
ATOM     91  C   UNL     1      19.338  12.370  -1.774  1.00  0.00     0.009 A 
ATOM     92  C   UNL     1      21.504  11.421  -1.262  1.00  0.00     0.009 A 
ATOM     93  C   UNL     1      19.961  13.535  -2.225  1.00  0.00     0.001 A 
ATOM     94  C   UNL     1      22.122  12.596  -1.690  1.00  0.00     0.001 A 
ATOM     95  C   UNL     1      21.350  13.649  -2.178  1.00  0.00     0.000 A 
ENDBRANCH  77  90
ENDBRANCH  51  52
ENDBRANCH  43  46
ENDBRANCH  41  42
ENDBRANCH  40  41
ENDBRANCH  39  40
ENDBRANCH  38  39
ENDBRANCH   1  38
TORSDOF 18
