REMARK SMILES CN(CC(N)=O)C(=O)c1csc(/C=C/C(=O)NCCCCCCNC(=O)c2ccc(-c3c4nc(c(-c5ccccc5)c5ccc([nH]5)c(-c5ccccc5)c5nc(c(-c6ccccc6)c6ccc3[nH]6)C=C5)C=C4)cc2)c1
REMARK SMILES IDX 19 1 18 2 17 3 15 4 16 5 14 7 13 8 12 9 9 10 10 11 75 12
REMARK SMILES IDX 11 13 7 14 8 15 2 16 1 17 3 18 4 19 5 20 6 21 20 24 21 25
REMARK SMILES IDX 22 26 23 27 24 28 25 29 26 31 27 32 28 33 74 34 29 35 73 36
REMARK SMILES IDX 30 37 31 38 32 39 67 40 33 41 72 42 66 43 68 44 34 45 71 46
REMARK SMILES IDX 65 47 64 48 35 50 57 51 42 52 56 53 43 54 46 55 55 56 69 57
REMARK SMILES IDX 44 58 45 59 54 61 70 62 47 63 36 64 37 65 41 66 38 67 40 68
REMARK SMILES IDX 39 69 58 70 59 71 63 72 60 73 62 74 61 75 48 76 49 77 53 78
REMARK SMILES IDX 50 79 52 80 51 81
REMARK H PARENT 17 6 5 22 5 23 24 30 68 49 46 60
REMARK Flexibility Score: inf
ROOT
ATOM      1  C   UNL     1       4.125   6.867   6.035  1.00  0.00     0.021 C 
ENDROOT
BRANCH   1   2
ATOM      2  C   UNL     1       2.953   6.381   6.888  1.00  0.00     0.116 C 
BRANCH   2   3
ATOM      3  N   UNL     1       1.875   7.356   6.887  1.00  0.00    -0.353 N 
ATOM      4  C   UNL     1       0.584   7.242   6.472  1.00  0.00     0.244 C 
ATOM      5  O   UNL     1      -0.206   8.164   6.649  1.00  0.00    -0.270 OA
ATOM      6  H   UNL     1       2.117   8.241   7.244  1.00  0.00     0.163 HD
BRANCH   4   7
ATOM      7  C   UNL     1       0.108   5.976   5.882  1.00  0.00     0.072 C 
ATOM      8  C   UNL     1       0.672   5.439   4.790  1.00  0.00     0.024 C 
BRANCH   8   9
ATOM      9  C   UNL     1       0.244   4.206   4.212  1.00  0.00     0.028 A 
ATOM     10  C   UNL     1       0.281   2.192   2.983  1.00  0.00     0.051 A 
ATOM     11  C   UNL     1      -1.005   2.187   3.482  1.00  0.00     0.079 A 
ATOM     12  C   UNL     1       0.999   3.349   3.426  1.00  0.00     0.033 A 
ATOM     13  S   UNL     1      -1.352   3.582   4.396  1.00  0.00    -0.144 S 
BRANCH  10  14
ATOM     14  C   UNL     1       0.814   1.115   2.158  1.00  0.00     0.254 C 
ATOM     15  O   UNL     1       1.538   0.258   2.654  1.00  0.00    -0.269 OA
BRANCH  14  16
ATOM     16  N   UNL     1       0.464   1.131   0.811  1.00  0.00    -0.332 N 
ATOM     17  C   UNL     1       0.808  -0.015  -0.010  1.00  0.00     0.147 C 
BRANCH  16  18
ATOM     18  C   UNL     1      -0.198   2.255   0.147  1.00  0.00     0.219 C 
BRANCH  18  19
ATOM     19  C   UNL     1      -1.724   2.163   0.240  1.00  0.00     0.237 C 
ATOM     20  N   UNL     1      -2.366   3.332   0.538  1.00  0.00    -0.368 N 
ATOM     21  O   UNL     1      -2.362   1.133   0.052  1.00  0.00    -0.273 OA
ATOM     22  H   UNL     1      -1.847   4.155   0.688  1.00  0.00     0.159 HD
ATOM     23  H   UNL     1      -3.349   3.350   0.603  1.00  0.00     0.159 HD
ENDBRANCH  18  19
ENDBRANCH  16  18
ENDBRANCH  14  16
ENDBRANCH  10  14
ENDBRANCH   8   9
ENDBRANCH   4   7
ENDBRANCH   2   3
ENDBRANCH   1   2
BRANCH   1  24
ATOM     24  C   UNL     1       4.992   7.932   6.720  1.00  0.00     0.002 C 
BRANCH  24  25
ATOM     25  C   UNL     1       5.764   7.451   7.956  1.00  0.00     0.002 C 
BRANCH  25  26
ATOM     26  C   UNL     1       6.668   6.233   7.740  1.00  0.00     0.021 C 
BRANCH  26  27
ATOM     27  C   UNL     1       7.745   6.405   6.670  1.00  0.00     0.116 C 
BRANCH  27  28
ATOM     28  N   UNL     1       8.732   7.408   7.038  1.00  0.00    -0.352 N 
ATOM     29  C   UNL     1      10.100   7.303   7.104  1.00  0.00     0.251 C 
ATOM     30  H   UNL     1       8.366   8.291   7.274  1.00  0.00     0.163 HD
ATOM     31  O   UNL     1      10.765   8.206   7.603  1.00  0.00    -0.269 OA
BRANCH  29  32
ATOM     32  C   UNL     1      10.778   6.092   6.595  1.00  0.00     0.039 A 
ATOM     33  C   UNL     1      11.742   5.473   7.395  1.00  0.00     0.014 A 
ATOM     34  C   UNL     1      10.480   5.578   5.329  1.00  0.00     0.014 A 
ATOM     35  C   UNL     1      12.358   4.297   6.957  1.00  0.00     0.010 A 
ATOM     36  C   UNL     1      11.064   4.383   4.910  1.00  0.00     0.010 A 
ATOM     37  C   UNL     1      11.999   3.727   5.726  1.00  0.00    -0.014 A 
BRANCH  37  38
ATOM     38  C   UNL     1      12.558   2.422   5.293  1.00  0.00     0.031 A 
ATOM     39  C   UNL     1      13.498   2.341   4.125  1.00  0.00     0.074 A 
ATOM     40  C   UNL     1      12.149   1.295   5.907  1.00  0.00     0.049 A 
ATOM     41  N   UNL     1      14.013   1.280   3.557  1.00  0.00    -0.248 NA
ATOM     42  C   UNL     1      13.895   3.613   3.503  1.00  0.00     0.031 C 
ATOM     43  C   UNL     1      11.207   1.232   7.027  1.00  0.00     0.029 A 
ATOM     44  N   UNL     1      12.460  -0.018   5.660  1.00  0.00    -0.354 N 
ATOM     45  C   UNL     1      14.778   1.754   2.499  1.00  0.00     0.074 A 
ATOM     46  C   UNL     1      14.642   3.195   2.490  1.00  0.00     0.031 C 
ATOM     47  C   UNL     1      11.020  -0.052   7.371  1.00  0.00     0.029 A 
ATOM     48  C   UNL     1      11.804  -0.902   6.480  1.00  0.00     0.049 A 
ATOM     49  H   UNL     1      13.094  -0.300   4.961  1.00  0.00     0.167 HD
ATOM     50  C   UNL     1      15.532   1.052   1.619  1.00  0.00     0.031 A 
ATOM     51  C   UNL     1      11.817  -2.247   6.505  1.00  0.00     0.031 A 
ATOM     52  C   UNL     1      15.690  -0.377   1.637  1.00  0.00     0.049 A 
ATOM     53  C   UNL     1      12.661  -3.000   5.518  1.00  0.00     0.074 A 
ATOM     54  C   UNL     1      16.501  -1.164   0.836  1.00  0.00     0.029 A 
ATOM     55  N   UNL     1      15.020  -1.234   2.493  1.00  0.00    -0.354 N 
ATOM     56  N   UNL     1      13.434  -2.531   4.570  1.00  0.00    -0.248 NA
ATOM     57  C   UNL     1      12.636  -4.467   5.609  1.00  0.00     0.031 C 
ATOM     58  C   UNL     1      16.294  -2.503   1.185  1.00  0.00     0.029 A 
ATOM     59  C   UNL     1      15.377  -2.545   2.223  1.00  0.00     0.049 A 
ATOM     60  H   UNL     1      14.384  -0.954   3.191  1.00  0.00     0.167 HD
ATOM     61  C   UNL     1      13.996  -3.643   3.959  1.00  0.00     0.074 A 
ATOM     62  C   UNL     1      13.488  -4.809   4.652  1.00  0.00     0.031 C 
ATOM     63  C   UNL     1      14.856  -3.693   2.914  1.00  0.00     0.031 A 
BRANCH  50  64
ATOM     64  C   UNL     1      16.246   1.825   0.550  1.00  0.00    -0.014 A 
ATOM     65  C   UNL     1      17.409   2.555   0.840  1.00  0.00     0.009 A 
ATOM     66  C   UNL     1      15.779   1.780  -0.772  1.00  0.00     0.009 A 
ATOM     67  C   UNL     1      18.078   3.245  -0.172  1.00  0.00     0.001 A 
ATOM     68  C   UNL     1      16.460   2.456  -1.785  1.00  0.00     0.001 A 
ATOM     69  C   UNL     1      17.606   3.192  -1.484  1.00  0.00     0.000 A 
ENDBRANCH  50  64
BRANCH  51  70
ATOM     70  C   UNL     1      10.992  -2.977   7.498  1.00  0.00    -0.014 A 
ATOM     71  C   UNL     1      11.591  -3.573   8.617  1.00  0.00     0.009 A 
ATOM     72  C   UNL     1       9.603  -3.085   7.327  1.00  0.00     0.009 A 
ATOM     73  C   UNL     1      10.816  -4.282   9.537  1.00  0.00     0.001 A 
ATOM     74  C   UNL     1       8.829  -3.777   8.260  1.00  0.00     0.001 A 
ATOM     75  C   UNL     1       9.437  -4.381   9.360  1.00  0.00     0.000 A 
ENDBRANCH  51  70
BRANCH  63  76
ATOM     76  C   UNL     1      15.305  -5.052   2.466  1.00  0.00    -0.014 A 
ATOM     77  C   UNL     1      14.466  -5.867   1.693  1.00  0.00     0.009 A 
ATOM     78  C   UNL     1      16.590  -5.508   2.797  1.00  0.00     0.009 A 
ATOM     79  C   UNL     1      14.898  -7.128   1.277  1.00  0.00     0.001 A 
ATOM     80  C   UNL     1      17.026  -6.761   2.364  1.00  0.00     0.001 A 
ATOM     81  C   UNL     1      16.177  -7.572   1.611  1.00  0.00     0.000 A 
ENDBRANCH  63  76
ENDBRANCH  37  38
ENDBRANCH  29  32
ENDBRANCH  27  28
ENDBRANCH  26  27
ENDBRANCH  25  26
ENDBRANCH  24  25
ENDBRANCH   1  24
TORSDOF 18
