REMARK SMILES CCNC(=O)c1ccc(N[C@@H]2COC[C@@]2(C)C(=O)NCCCCCCNC(=O)c2ccc(-c3c4nc(c(-c5ccccc5)c5ccc([nH]5)c(-c5ccccc5)c5nc(c(-c6ccccc6)c6ccc3[nH]6)C=C5)C=C4)cc2)nn1
REMARK SMILES IDX 21 1 20 2 19 3 17 4 18 5 15 7 11 8 12 9 13 10 14 11 16 12
REMARK SMILES IDX 10 13 9 15 6 16 7 17 78 18 8 19 77 20 4 21 3 22 5 24 2 25
REMARK SMILES IDX 1 26 22 27 23 28 24 29 25 30 26 31 27 32 28 34 29 35 30 36
REMARK SMILES IDX 76 37 31 38 75 39 32 40 33 41 34 42 69 43 35 44 74 45 68 46
REMARK SMILES IDX 70 47 36 48 73 49 67 50 66 51 37 53 59 54 44 55 58 56 45 57
REMARK SMILES IDX 48 58 57 59 71 60 46 61 47 62 56 64 72 65 49 66 38 67 39 68
REMARK SMILES IDX 43 69 40 70 42 71 41 72 60 73 61 74 65 75 62 76 64 77 63 78
REMARK SMILES IDX 50 79 51 80 55 81 52 82 54 83 53 84
REMARK H PARENT 19 6 10 14 3 23 26 33 70 52 48 63
REMARK Flexibility Score: inf
ROOT
ATOM      1  C   UNL     1      -7.617   6.924   4.786  1.00  0.00     0.021 C 
ENDROOT
BRANCH   1   2
ATOM      2  C   UNL     1      -6.485   5.949   4.500  1.00  0.00     0.116 C 
BRANCH   2   3
ATOM      3  N   UNL     1      -6.934   4.571   4.543  1.00  0.00    -0.355 N 
ATOM      4  C   UNL     1      -6.769   3.547   3.658  1.00  0.00     0.230 C 
ATOM      5  O   UNL     1      -7.252   2.458   3.981  1.00  0.00    -0.274 OA
ATOM      6  H   UNL     1      -7.445   4.334   5.350  1.00  0.00     0.163 HD
BRANCH   4   7
ATOM      7  C   UNL     1      -5.995   3.738   2.350  1.00  0.00     0.092 C 
ATOM      8  C   UNL     1      -6.167   2.498   1.445  1.00  0.00     0.124 C 
ATOM      9  C   UNL     1      -6.044   3.055   0.039  1.00  0.00     0.186 C 
ATOM     10  O   UNL     1      -6.638   4.361   0.089  1.00  0.00    -0.378 OA
ATOM     11  C   UNL     1      -6.668   4.794   1.459  1.00  0.00     0.179 C 
ATOM     12  C   UNL     1      -4.540   4.128   2.659  1.00  0.00     0.026 C 
BRANCH   8  13
ATOM     13  N   UNL     1      -5.379   1.306   1.750  1.00  0.00    -0.362 N 
ATOM     14  H   UNL     1      -5.870   0.483   1.976  1.00  0.00     0.162 HD
BRANCH  13  15
ATOM     15  C   UNL     1      -4.003   1.241   1.748  1.00  0.00     0.149 A 
ATOM     16  C   UNL     1      -1.337   1.571   2.178  1.00  0.00     0.150 A 
ATOM     17  C   UNL     1      -2.012   0.660   2.967  1.00  0.00     0.040 A 
ATOM     18  N   UNL     1      -1.926   2.232   1.165  1.00  0.00    -0.143 NA
ATOM     19  C   UNL     1      -3.372   0.486   2.732  1.00  0.00     0.051 A 
ATOM     20  N   UNL     1      -3.269   2.048   0.953  1.00  0.00    -0.132 NA
BRANCH  16  21
ATOM     21  C   UNL     1       0.086   1.864   2.424  1.00  0.00     0.271 C 
ATOM     22  N   UNL     1       1.030   0.976   1.967  1.00  0.00    -0.351 N 
ATOM     23  H   UNL     1       1.963   1.165   2.217  1.00  0.00     0.163 HD
ATOM     24  O   UNL     1       0.414   2.858   3.064  1.00  0.00    -0.267 OA
BRANCH  22  25
ATOM     25  C   UNL     1       0.810  -0.208   1.159  1.00  0.00     0.113 C 
ATOM     26  C   UNL     1       1.276   0.011  -0.267  1.00  0.00     0.027 C 
ENDBRANCH  22  25
ENDBRANCH  16  21
ENDBRANCH  13  15
ENDBRANCH   8  13
ENDBRANCH   4   7
ENDBRANCH   2   3
ENDBRANCH   1   2
BRANCH   1  27
ATOM     27  C   UNL     1      -8.085   6.931   6.242  1.00  0.00     0.002 C 
BRANCH  27  28
ATOM     28  C   UNL     1      -6.987   7.211   7.274  1.00  0.00     0.002 C 
BRANCH  28  29
ATOM     29  C   UNL     1      -6.157   8.472   7.018  1.00  0.00     0.021 C 
BRANCH  29  30
ATOM     30  C   UNL     1      -6.973   9.752   6.880  1.00  0.00     0.116 C 
BRANCH  30  31
ATOM     31  N   UNL     1      -7.732  10.047   8.083  1.00  0.00    -0.352 N 
ATOM     32  C   UNL     1      -7.774  11.204   8.820  1.00  0.00     0.251 C 
ATOM     33  H   UNL     1      -8.298   9.314   8.416  1.00  0.00     0.163 HD
ATOM     34  O   UNL     1      -8.319  11.220   9.916  1.00  0.00    -0.269 OA
BRANCH  32  35
ATOM     35  C   UNL     1      -7.139  12.429   8.290  1.00  0.00     0.039 A 
ATOM     36  C   UNL     1      -6.350  13.202   9.143  1.00  0.00     0.014 A 
ATOM     37  C   UNL     1      -7.326  12.814   6.959  1.00  0.00     0.014 A 
ATOM     38  C   UNL     1      -5.705  14.336   8.647  1.00  0.00     0.010 A 
ATOM     39  C   UNL     1      -6.621  13.899   6.447  1.00  0.00     0.010 A 
ATOM     40  C   UNL     1      -5.810  14.676   7.288  1.00  0.00    -0.014 A 
BRANCH  40  41
ATOM     41  C   UNL     1      -5.092  15.851   6.732  1.00  0.00     0.031 A 
ATOM     42  C   UNL     1      -5.868  17.010   6.167  1.00  0.00     0.074 A 
ATOM     43  C   UNL     1      -3.745  15.857   6.696  1.00  0.00     0.049 A 
ATOM     44  N   UNL     1      -5.424  18.094   5.583  1.00  0.00    -0.248 NA
ATOM     45  C   UNL     1      -7.337  16.933   6.250  1.00  0.00     0.031 C 
ATOM     46  C   UNL     1      -2.876  14.785   7.189  1.00  0.00     0.029 A 
ATOM     47  N   UNL     1      -2.868  16.800   6.220  1.00  0.00    -0.354 N 
ATOM     48  C   UNL     1      -6.553  18.822   5.230  1.00  0.00     0.074 A 
ATOM     49  C   UNL     1      -7.704  18.032   5.607  1.00  0.00     0.031 C 
ATOM     50  C   UNL     1      -1.593  15.143   7.015  1.00  0.00     0.029 A 
ATOM     51  C   UNL     1      -1.547  16.445   6.357  1.00  0.00     0.049 A 
ATOM     52  H   UNL     1      -3.158  17.650   5.817  1.00  0.00     0.167 HD
ATOM     53  C   UNL     1      -6.629  20.051   4.666  1.00  0.00     0.031 A 
ATOM     54  C   UNL     1      -0.426  17.091   5.984  1.00  0.00     0.031 A 
ATOM     55  C   UNL     1      -5.487  20.841   4.293  1.00  0.00     0.049 A 
ATOM     56  C   UNL     1      -0.545  18.433   5.311  1.00  0.00     0.074 A 
ATOM     57  C   UNL     1      -5.461  22.108   3.736  1.00  0.00     0.029 A 
ATOM     58  N   UNL     1      -4.168  20.442   4.443  1.00  0.00    -0.354 N 
ATOM     59  N   UNL     1      -1.620  19.129   5.033  1.00  0.00    -0.248 NA
ATOM     60  C   UNL     1       0.712  19.084   4.912  1.00  0.00     0.031 C 
ATOM     61  C   UNL     1      -4.127  22.456   3.504  1.00  0.00     0.029 A 
ATOM     62  C   UNL     1      -3.322  21.432   3.975  1.00  0.00     0.049 A 
ATOM     63  H   UNL     1      -3.877  19.583   4.826  1.00  0.00     0.167 HD
ATOM     64  C   UNL     1      -1.168  20.313   4.466  1.00  0.00     0.074 A 
ATOM     65  C   UNL     1       0.278  20.250   4.457  1.00  0.00     0.031 C 
ATOM     66  C   UNL     1      -1.885  21.361   3.992  1.00  0.00     0.031 A 
BRANCH  53  67
ATOM     67  C   UNL     1      -7.997  20.627   4.429  1.00  0.00    -0.014 A 
ATOM     68  C   UNL     1      -8.798  21.048   5.503  1.00  0.00     0.009 A 
ATOM     69  C   UNL     1      -8.466  20.811   3.119  1.00  0.00     0.009 A 
ATOM     70  C   UNL     1     -10.051  21.618   5.270  1.00  0.00     0.001 A 
ATOM     71  C   UNL     1      -9.706  21.409   2.888  1.00  0.00     0.001 A 
ATOM     72  C   UNL     1     -10.500  21.806   3.963  1.00  0.00     0.000 A 
ENDBRANCH  53  67
BRANCH  54  73
ATOM     73  C   UNL     1       0.914  16.491   6.226  1.00  0.00    -0.014 A 
ATOM     74  C   UNL     1       1.819  17.096   7.113  1.00  0.00     0.009 A 
ATOM     75  C   UNL     1       1.319  15.344   5.526  1.00  0.00     0.009 A 
ATOM     76  C   UNL     1       3.116  16.597   7.254  1.00  0.00     0.001 A 
ATOM     77  C   UNL     1       2.605  14.824   5.698  1.00  0.00     0.001 A 
ATOM     78  C   UNL     1       3.507  15.461   6.548  1.00  0.00     0.000 A 
ENDBRANCH  54  73
BRANCH  66  79
ATOM     79  C   UNL     1      -1.116  22.549   3.483  1.00  0.00    -0.014 A 
ATOM     80  C   UNL     1      -0.390  22.495   2.284  1.00  0.00     0.009 A 
ATOM     81  C   UNL     1      -1.155  23.755   4.202  1.00  0.00     0.009 A 
ATOM     82  C   UNL     1       0.316  23.614   1.836  1.00  0.00     0.001 A 
ATOM     83  C   UNL     1      -0.478  24.881   3.734  1.00  0.00     0.001 A 
ATOM     84  C   UNL     1       0.266  24.806   2.558  1.00  0.00     0.000 A 
ENDBRANCH  66  79
ENDBRANCH  40  41
ENDBRANCH  32  35
ENDBRANCH  30  31
ENDBRANCH  29  30
ENDBRANCH  28  29
ENDBRANCH  27  28
ENDBRANCH   1  27
TORSDOF 17
