REMARK SMILES CC1=C(C)C[C@@H](C(=O)NCCCCCCNC(=O)c2ccc(-c3c4nc(c(-c5ccccc5)c5ccc([nH]5)c(-c5ccccc5)c5nc(c(-c6ccccc6)c6ccc3[nH]6)C=C5)C=C4)cc2)[C@@H](C(=O)NCC[NH+]2CCOCC2)C1
REMARK SMILES IDX 11 1 10 2 9 3 7 4 8 5 6 7 1 8 2 9 3 10 79 11 4 12 5 13 67 14
REMARK SMILES IDX 68 15 69 16 70 17 71 19 72 20 73 21 74 22 78 23 75 25 77 26
REMARK SMILES IDX 76 27 12 28 13 29 14 30 15 31 16 32 17 33 18 35 19 36 20 37
REMARK SMILES IDX 66 38 21 39 65 40 22 41 23 42 24 43 59 44 25 45 64 46 58 47
REMARK SMILES IDX 60 48 26 49 63 50 57 51 56 52 27 54 49 55 34 56 48 57 35 58
REMARK SMILES IDX 38 59 47 60 61 61 36 62 37 63 46 65 62 66 39 67 28 68 29 69
REMARK SMILES IDX 33 70 30 71 32 72 31 73 50 74 51 75 55 76 52 77 54 78 53 79
REMARK SMILES IDX 40 80 41 81 45 82 42 83 44 84 43 85
REMARK H PARENT 9 6 70 18 73 24 16 34 60 53 38 64
REMARK Flexibility Score: inf
ROOT
ATOM      1  C   UNL     1       3.393   0.871   3.627  1.00  0.00     0.021 C 
ENDROOT
BRANCH   1   2
ATOM      2  C   UNL     1       2.825  -0.538   3.635  1.00  0.00     0.116 C 
BRANCH   2   3
ATOM      3  N   UNL     1       2.149  -0.833   4.872  1.00  0.00    -0.356 N 
ATOM      4  C   UNL     1       0.836  -1.020   5.149  1.00  0.00     0.224 C 
ATOM      5  O   UNL     1       0.568  -1.431   6.284  1.00  0.00    -0.275 OA
ATOM      6  H   UNL     1       2.745  -0.911   5.652  1.00  0.00     0.163 HD
BRANCH   4   7
ATOM      7  C   UNL     1      -0.282  -0.850   4.108  1.00  0.00     0.095 C 
ATOM      8  C   UNL     1       0.740  -0.220  -0.180  1.00  0.00     0.039 C 
ATOM      9  C   UNL     1       0.267  -0.532   1.218  1.00  0.00    -0.074 C 
ATOM     10  C   UNL     1       0.177  -1.779   1.723  1.00  0.00    -0.074 C 
ATOM     11  C   UNL     1       0.005   0.701   2.049  1.00  0.00     0.045 C 
ATOM     12  C   UNL     1       0.613  -3.026   0.993  1.00  0.00     0.039 C 
ATOM     13  C   UNL     1      -0.287  -2.039   3.136  1.00  0.00     0.045 C 
ATOM     14  C   UNL     1      -0.522   0.546   3.476  1.00  0.00     0.095 C 
BRANCH  14  15
ATOM     15  C   UNL     1      -0.168   1.680   4.458  1.00  0.00     0.224 C 
ATOM     16  O   UNL     1      -0.233   1.496   5.678  1.00  0.00    -0.275 OA
ATOM     17  N   UNL     1       0.118   2.959   4.109  1.00  0.00    -0.350 N 
ATOM     18  H   UNL     1       0.257   3.543   4.890  1.00  0.00     0.163 HD
BRANCH  17  19
ATOM     19  C   UNL     1       0.266   3.665   2.845  1.00  0.00     0.177 C 
BRANCH  19  20
ATOM     20  C   UNL     1       0.190   5.203   2.987  1.00  0.00     0.283 C 
BRANCH  20  21
ATOM     21  N   UNL     1       1.334   5.998   3.446  1.00  0.00    -0.330 N 
ATOM     22  C   UNL     1       2.317   6.370   2.418  1.00  0.00     0.291 C 
ATOM     23  C   UNL     1       2.013   5.597   4.682  1.00  0.00     0.291 C 
ATOM     24  H   UNL     1       0.810   6.837   3.698  1.00  0.00     0.348 HD
ATOM     25  C   UNL     1       3.474   5.375   2.253  1.00  0.00     0.221 C 
ATOM     26  C   UNL     1       3.180   4.621   4.467  1.00  0.00     0.221 C 
ATOM     27  O   UNL     1       4.120   5.107   3.502  1.00  0.00    -0.370 OA
ENDBRANCH  20  21
ENDBRANCH  19  20
ENDBRANCH  17  19
ENDBRANCH  14  15
ENDBRANCH   4   7
ENDBRANCH   2   3
ENDBRANCH   1   2
BRANCH   1  28
ATOM     28  C   UNL     1       4.694   1.015   4.415  1.00  0.00     0.002 C 
BRANCH  28  29
ATOM     29  C   UNL     1       5.839   0.126   3.919  1.00  0.00     0.002 C 
BRANCH  29  30
ATOM     30  C   UNL     1       6.166   0.271   2.431  1.00  0.00     0.021 C 
BRANCH  30  31
ATOM     31  C   UNL     1       6.564   1.684   2.015  1.00  0.00     0.116 C 
BRANCH  31  32
ATOM     32  N   UNL     1       7.776   2.119   2.693  1.00  0.00    -0.352 N 
ATOM     33  C   UNL     1       8.998   2.447   2.165  1.00  0.00     0.251 C 
ATOM     34  H   UNL     1       7.708   2.188   3.673  1.00  0.00     0.163 HD
ATOM     35  O   UNL     1       9.982   2.550   2.888  1.00  0.00    -0.269 OA
BRANCH  33  36
ATOM     36  C   UNL     1       9.126   2.668   0.711  1.00  0.00     0.039 A 
ATOM     37  C   UNL     1      10.201   2.097   0.028  1.00  0.00     0.014 A 
ATOM     38  C   UNL     1       8.186   3.445   0.028  1.00  0.00     0.014 A 
ATOM     39  C   UNL     1      10.301   2.255  -1.356  1.00  0.00     0.010 A 
ATOM     40  C   UNL     1       8.245   3.538  -1.359  1.00  0.00     0.010 A 
ATOM     41  C   UNL     1       9.305   2.948  -2.064  1.00  0.00    -0.014 A 
BRANCH  41  42
ATOM     42  C   UNL     1       9.349   3.063  -3.542  1.00  0.00     0.031 A 
ATOM     43  C   UNL     1       9.488   4.412  -4.192  1.00  0.00     0.074 A 
ATOM     44  C   UNL     1       9.196   1.960  -4.301  1.00  0.00     0.049 A 
ATOM     45  N   UNL     1       9.474   4.721  -5.464  1.00  0.00    -0.248 NA
ATOM     46  C   UNL     1       9.638   5.569  -3.294  1.00  0.00     0.031 C 
ATOM     47  C   UNL     1       9.020   0.598  -3.793  1.00  0.00     0.029 A 
ATOM     48  N   UNL     1       9.157   1.813  -5.665  1.00  0.00    -0.354 N 
ATOM     49  C   UNL     1       9.597   6.104  -5.517  1.00  0.00     0.074 A 
ATOM     50  C   UNL     1       9.631   6.579  -4.151  1.00  0.00     0.031 C 
ATOM     51  C   UNL     1       8.922  -0.248  -4.831  1.00  0.00     0.029 A 
ATOM     52  C   UNL     1       8.980   0.513  -6.074  1.00  0.00     0.049 A 
ATOM     53  H   UNL     1       9.247   2.567  -6.291  1.00  0.00     0.167 HD
ATOM     54  C   UNL     1       9.692   6.905  -6.605  1.00  0.00     0.031 A 
ATOM     55  C   UNL     1       8.868  -0.006  -7.311  1.00  0.00     0.031 A 
ATOM     56  C   UNL     1       9.664   6.431  -7.963  1.00  0.00     0.049 A 
ATOM     57  C   UNL     1       8.947   0.909  -8.501  1.00  0.00     0.074 A 
ATOM     58  C   UNL     1       9.805   7.158  -9.132  1.00  0.00     0.029 A 
ATOM     59  N   UNL     1       9.482   5.108  -8.333  1.00  0.00    -0.354 N 
ATOM     60  N   UNL     1       9.124   2.207  -8.535  1.00  0.00    -0.248 NA
ATOM     61  C   UNL     1       8.819   0.283  -9.825  1.00  0.00     0.031 C 
ATOM     62  C   UNL     1       9.649   6.283 -10.211  1.00  0.00     0.029 A 
ATOM     63  C   UNL     1       9.477   5.001  -9.714  1.00  0.00     0.049 A 
ATOM     64  H   UNL     1       9.372   4.355  -7.708  1.00  0.00     0.167 HD
ATOM     65  C   UNL     1       9.163   2.549  -9.881  1.00  0.00     0.074 A 
ATOM     66  C   UNL     1       9.004   1.319 -10.630  1.00  0.00     0.031 C 
ATOM     67  C   UNL     1       9.319   3.771 -10.446  1.00  0.00     0.031 A 
BRANCH  54  68
ATOM     68  C   UNL     1       9.824   8.384  -6.367  1.00  0.00    -0.014 A 
ATOM     69  C   UNL     1      10.992   8.933  -5.814  1.00  0.00     0.009 A 
ATOM     70  C   UNL     1       8.780   9.247  -6.737  1.00  0.00     0.009 A 
ATOM     71  C   UNL     1      11.097  10.309  -5.601  1.00  0.00     0.001 A 
ATOM     72  C   UNL     1       8.900  10.626  -6.553  1.00  0.00     0.001 A 
ATOM     73  C   UNL     1      10.053  11.154  -5.976  1.00  0.00     0.000 A 
ENDBRANCH  54  68
BRANCH  55  74
ATOM     74  C   UNL     1       8.680  -1.470  -7.491  1.00  0.00    -0.014 A 
ATOM     75  C   UNL     1       9.701  -2.256  -8.046  1.00  0.00     0.009 A 
ATOM     76  C   UNL     1       7.475  -2.088  -7.120  1.00  0.00     0.009 A 
ATOM     77  C   UNL     1       9.510  -3.624  -8.253  1.00  0.00     0.001 A 
ATOM     78  C   UNL     1       7.298  -3.462  -7.299  1.00  0.00     0.001 A 
ATOM     79  C   UNL     1       8.311  -4.226  -7.876  1.00  0.00     0.000 A 
ENDBRANCH  55  74
BRANCH  67  80
ATOM     80  C   UNL     1       9.368   3.836 -11.947  1.00  0.00    -0.014 A 
ATOM     81  C   UNL     1       8.220   3.628 -12.727  1.00  0.00     0.009 A 
ATOM     82  C   UNL     1      10.576   4.155 -12.586  1.00  0.00     0.009 A 
ATOM     83  C   UNL     1       8.290   3.706 -14.119  1.00  0.00     0.001 A 
ATOM     84  C   UNL     1      10.636   4.264 -13.976  1.00  0.00     0.001 A 
ATOM     85  C   UNL     1       9.495   4.030 -14.742  1.00  0.00     0.000 A 
ENDBRANCH  67  80
ENDBRANCH  41  42
ENDBRANCH  33  36
ENDBRANCH  31  32
ENDBRANCH  30  31
ENDBRANCH  29  30
ENDBRANCH  28  29
ENDBRANCH   1  28
TORSDOF 17
