REMARK SMILES O=C(NCCCCCCNC(=O)[C@H]1CC[C@H](CNC(=O)c2ccccc2O)O1)c1ccc(-c2c3nc(c(-c4ccccc4)c4ccc([nH]4)c(-c4ccccc4)c4nc(c(-c5ccccc5)c5ccc2[nH]5)C=C4)C=C3)cc1
REMARK SMILES IDX 7 1 6 2 5 3 4 4 3 5 1 6 2 7 29 9 30 10 76 11 31 12 75 13
REMARK SMILES IDX 32 14 33 15 34 16 69 17 35 18 74 19 68 20 70 21 36 22 73 23
REMARK SMILES IDX 67 24 66 25 37 27 59 28 44 29 58 30 45 31 48 32 57 33 71 34
REMARK SMILES IDX 46 35 47 36 56 38 72 39 49 40 38 41 39 42 43 43 40 44 42 45
REMARK SMILES IDX 41 46 60 47 61 48 65 49 62 50 64 51 63 52 50 53 51 54 55 55
REMARK SMILES IDX 52 56 54 57 53 58 8 59 9 60 10 61 11 62 12 64 13 65 14 66
REMARK SMILES IDX 28 67 15 68 16 69 17 70 18 71 19 72 20 74 21 75 22 76 26 77
REMARK SMILES IDX 23 78 25 79 24 80 27 81
REMARK H PARENT 3 8 70 26 48 37 10 63 18 73 27 82
REMARK Flexibility Score: inf
ROOT
ATOM      1  C   UNL     1      11.030  10.151   6.467  1.00  0.00     0.002 C 
ENDROOT
BRANCH   1   2
ATOM      2  C   UNL     1      12.550  10.299   6.317  1.00  0.00     0.002 C 
BRANCH   2   3
ATOM      3  C   UNL     1      13.001  10.980   5.023  1.00  0.00     0.021 C 
BRANCH   3   4
ATOM      4  C   UNL     1      12.437  12.382   4.847  1.00  0.00     0.116 C 
BRANCH   4   5
ATOM      5  N   UNL     1      12.932  13.278   5.877  1.00  0.00    -0.352 N 
ATOM      6  O   UNL     1      14.235  14.939   6.678  1.00  0.00    -0.269 OA
ATOM      7  C   UNL     1      13.664  14.427   5.724  1.00  0.00     0.251 C 
ATOM      8  H   UNL     1      12.713  13.029   6.804  1.00  0.00     0.163 HD
BRANCH   7   9
ATOM      9  C   UNL     1      13.746  15.043   4.386  1.00  0.00     0.039 A 
ATOM     10  C   UNL     1      12.590  15.178   3.610  1.00  0.00     0.014 A 
ATOM     11  C   UNL     1      14.974  15.518   3.922  1.00  0.00     0.014 A 
ATOM     12  C   UNL     1      12.675  15.712   2.333  1.00  0.00     0.010 A 
ATOM     13  C   UNL     1      15.043  16.135   2.672  1.00  0.00     0.010 A 
ATOM     14  C   UNL     1      13.892  16.241   1.875  1.00  0.00    -0.014 A 
BRANCH  14  15
ATOM     15  C   UNL     1      13.899  17.050   0.635  1.00  0.00     0.031 A 
ATOM     16  C   UNL     1      14.656  16.616  -0.582  1.00  0.00     0.074 A 
ATOM     17  C   UNL     1      13.213  18.211   0.646  1.00  0.00     0.049 A 
ATOM     18  N   UNL     1      14.783  17.236  -1.726  1.00  0.00    -0.248 NA
ATOM     19  C   UNL     1      15.365  15.329  -0.512  1.00  0.00     0.031 C 
ATOM     20  C   UNL     1      12.452  18.732   1.788  1.00  0.00     0.029 A 
ATOM     21  N   UNL     1      13.038  19.161  -0.326  1.00  0.00    -0.354 N 
ATOM     22  C   UNL     1      15.604  16.432  -2.505  1.00  0.00     0.074 A 
ATOM     23  C   UNL     1      15.953  15.280  -1.701  1.00  0.00     0.031 C 
ATOM     24  C   UNL     1      11.873  19.889   1.443  1.00  0.00     0.029 A 
ATOM     25  C   UNL     1      12.282  20.231   0.088  1.00  0.00     0.049 A 
ATOM     26  H   UNL     1      13.417  19.085  -1.231  1.00  0.00     0.167 HD
ATOM     27  C   UNL     1      16.027  16.648  -3.773  1.00  0.00     0.031 A 
ATOM     28  C   UNL     1      11.985  21.385  -0.536  1.00  0.00     0.031 A 
ATOM     29  C   UNL     1      15.668  17.800  -4.559  1.00  0.00     0.049 A 
ATOM     30  C   UNL     1      12.516  21.609  -1.920  1.00  0.00     0.074 A 
ATOM     31  C   UNL     1      15.993  18.075  -5.877  1.00  0.00     0.029 A 
ATOM     32  N   UNL     1      14.926  18.875  -4.097  1.00  0.00    -0.354 N 
ATOM     33  N   UNL     1      13.223  20.801  -2.672  1.00  0.00    -0.248 NA
ATOM     34  C   UNL     1      12.216  22.906  -2.540  1.00  0.00     0.031 C 
ATOM     35  C   UNL     1      15.510  19.349  -6.188  1.00  0.00     0.029 A 
ATOM     36  C   UNL     1      14.828  19.839  -5.087  1.00  0.00     0.049 A 
ATOM     37  H   UNL     1      14.527  18.944  -3.199  1.00  0.00     0.167 HD
ATOM     38  C   UNL     1      13.444  21.488  -3.857  1.00  0.00     0.074 A 
ATOM     39  C   UNL     1      12.766  22.763  -3.736  1.00  0.00     0.031 C 
ATOM     40  C   UNL     1      14.155  21.104  -4.944  1.00  0.00     0.031 A 
BRANCH  27  41
ATOM     41  C   UNL     1      16.955  15.643  -4.396  1.00  0.00    -0.014 A 
ATOM     42  C   UNL     1      16.497  14.390  -4.828  1.00  0.00     0.009 A 
ATOM     43  C   UNL     1      18.289  16.003  -4.650  1.00  0.00     0.009 A 
ATOM     44  C   UNL     1      17.359  13.514  -5.493  1.00  0.00     0.001 A 
ATOM     45  C   UNL     1      19.141  15.137  -5.336  1.00  0.00     0.001 A 
ATOM     46  C   UNL     1      18.677  13.892  -5.754  1.00  0.00     0.000 A 
ENDBRANCH  27  41
BRANCH  28  47
ATOM     47  C   UNL     1      11.207  22.438   0.167  1.00  0.00    -0.014 A 
ATOM     48  C   UNL     1       9.933  22.814  -0.282  1.00  0.00     0.009 A 
ATOM     49  C   UNL     1      11.751  23.091   1.286  1.00  0.00     0.009 A 
ATOM     50  C   UNL     1       9.238  23.848   0.350  1.00  0.00     0.001 A 
ATOM     51  C   UNL     1      11.038  24.097   1.939  1.00  0.00     0.001 A 
ATOM     52  C   UNL     1       9.789  24.485   1.461  1.00  0.00     0.000 A 
ENDBRANCH  28  47
BRANCH  40  53
ATOM     53  C   UNL     1      14.222  22.072  -6.089  1.00  0.00    -0.014 A 
ATOM     54  C   UNL     1      14.989  23.244  -6.000  1.00  0.00     0.009 A 
ATOM     55  C   UNL     1      13.543  21.788  -7.284  1.00  0.00     0.009 A 
ATOM     56  C   UNL     1      15.049  24.129  -7.077  1.00  0.00     0.001 A 
ATOM     57  C   UNL     1      13.632  22.659  -8.370  1.00  0.00     0.001 A 
ATOM     58  C   UNL     1      14.377  23.832  -8.263  1.00  0.00     0.000 A 
ENDBRANCH  40  53
ENDBRANCH  14  15
ENDBRANCH   7   9
ENDBRANCH   4   5
ENDBRANCH   3   4
ENDBRANCH   2   3
ENDBRANCH   1   2
BRANCH   1  59
ATOM     59  C   UNL     1      10.329   9.538   5.253  1.00  0.00     0.021 C 
BRANCH  59  60
ATOM     60  C   UNL     1      10.904   8.184   4.856  1.00  0.00     0.116 C 
BRANCH  60  61
ATOM     61  N   UNL     1      10.412   7.137   5.721  1.00  0.00    -0.354 N 
ATOM     62  C   UNL     1       9.488   6.156   5.587  1.00  0.00     0.249 C 
ATOM     63  H   UNL     1      10.845   7.137   6.605  1.00  0.00     0.163 HD
ATOM     64  O   UNL     1       9.214   5.552   6.635  1.00  0.00    -0.272 OA
BRANCH  62  65
ATOM     65  C   UNL     1       8.834   5.707   4.263  1.00  0.00     0.207 C 
ATOM     66  C   UNL     1       8.989   6.487   2.979  1.00  0.00     0.045 C 
ATOM     67  O   UNL     1       9.339   4.388   3.958  1.00  0.00    -0.363 OA
ATOM     68  C   UNL     1      10.267   5.914   2.405  1.00  0.00     0.037 C 
ATOM     69  C   UNL     1      10.149   4.446   2.769  1.00  0.00     0.138 C 
BRANCH  69  70
ATOM     70  C   UNL     1       9.468   3.625   1.676  1.00  0.00     0.148 C 
BRANCH  70  71
ATOM     71  N   UNL     1      10.265   3.519   0.464  1.00  0.00    -0.349 N 
ATOM     72  C   UNL     1      10.424   2.421  -0.341  1.00  0.00     0.255 C 
ATOM     73  H   UNL     1      10.748   4.332   0.190  1.00  0.00     0.163 HD
ATOM     74  O   UNL     1      11.184   2.469  -1.305  1.00  0.00    -0.269 OA
BRANCH  72  75
ATOM     75  C   UNL     1       9.755   1.153   0.015  1.00  0.00     0.081 A 
ATOM     76  C   UNL     1      10.578   0.042   0.230  1.00  0.00     0.018 A 
ATOM     77  C   UNL     1       8.369   1.042   0.179  1.00  0.00     0.128 A 
ATOM     78  C   UNL     1      10.020  -1.163   0.655  1.00  0.00     0.001 A 
ATOM     79  C   UNL     1       7.814  -0.161   0.613  1.00  0.00     0.047 A 
ATOM     80  C   UNL     1       8.643  -1.259   0.858  1.00  0.00     0.004 A 
BRANCH  77  81
ATOM     81  O   UNL     1       7.551   2.110  -0.067  1.00  0.00    -0.507 OA
ATOM     82  H   UNL     1       7.916   2.922  -0.359  1.00  0.00     0.293 HD
ENDBRANCH  77  81
ENDBRANCH  72  75
ENDBRANCH  70  71
ENDBRANCH  69  70
ENDBRANCH  62  65
ENDBRANCH  60  61
ENDBRANCH  59  60
ENDBRANCH   1  59
TORSDOF 17
