REMARK SMILES Cc1cccc(N2C(=O)/C(=C/c3ccc(C(=O)NCCCCCCNC(=O)c4ccc(-c5c6nc(c(-c7ccccc7)c7ccc([nH]7)c(-c7ccccc7)c7nc(c(-c8ccccc8)c8ccc5[nH]8)C=C7)C=C6)cc4)cc3)c3ccccc3C2=O)c1
REMARK SMILES IDX 21 1 20 2 19 3 18 4 16 5 17 6 15 8 12 9 13 10 77 11 14 12
REMARK SMILES IDX 76 13 11 14 7 15 8 16 84 17 9 18 10 19 83 20 85 21 78 22
REMARK SMILES IDX 82 23 79 24 81 25 80 26 6 27 1 28 2 29 3 30 86 31 4 32 5 33
REMARK SMILES IDX 22 34 23 35 24 36 25 37 26 38 27 40 28 41 29 42 75 43 30 44
REMARK SMILES IDX 74 45 31 46 32 47 33 48 68 49 34 50 73 51 67 52 69 53 35 54
REMARK SMILES IDX 72 55 66 56 65 57 36 59 58 60 43 61 57 62 44 63 47 64 56 65
REMARK SMILES IDX 70 66 45 67 46 68 55 70 71 71 48 72 37 73 38 74 42 75 39 76
REMARK SMILES IDX 41 77 40 78 59 79 60 80 64 81 61 82 63 83 62 84 49 85 50 86
REMARK SMILES IDX 54 87 51 88 53 89 52 90
REMARK H PARENT 18 7 25 39 69 58 47 69
REMARK Flexibility Score: inf
ROOT
ATOM      1  C   UNL     1      -6.933  12.354   2.113  1.00  0.00     0.002 C 
ENDROOT
BRANCH   1   2
ATOM      2  C   UNL     1      -5.976  11.156   2.119  1.00  0.00     0.021 C 
BRANCH   2   3
ATOM      3  C   UNL     1      -5.663  10.504   0.772  1.00  0.00     0.116 C 
BRANCH   3   4
ATOM      4  N   UNL     1      -5.073  11.407  -0.198  1.00  0.00    -0.352 N 
ATOM      5  C   UNL     1      -4.098  11.163  -1.137  1.00  0.00     0.251 C 
ATOM      6  O   UNL     1      -3.693  12.074  -1.853  1.00  0.00    -0.269 OA
ATOM      7  H   UNL     1      -5.421  12.328  -0.182  1.00  0.00     0.163 HD
BRANCH   5   8
ATOM      8  C   UNL     1      -3.484   9.819  -1.249  1.00  0.00     0.039 A 
ATOM      9  C   UNL     1      -2.243   7.312  -1.171  1.00  0.00    -0.025 A 
ATOM     10  C   UNL     1      -1.470   8.478  -1.204  1.00  0.00     0.009 A 
ATOM     11  C   UNL     1      -3.635   7.407  -1.313  1.00  0.00     0.009 A 
ATOM     12  C   UNL     1      -2.089   9.730  -1.244  1.00  0.00     0.014 A 
ATOM     13  C   UNL     1      -4.256   8.658  -1.349  1.00  0.00     0.014 A 
BRANCH   9  14
ATOM     14  C   UNL     1      -1.573   6.020  -0.966  1.00  0.00     0.022 C 
ATOM     15  N   UNL     1      -1.732   2.655   0.312  1.00  0.00    -0.242 N 
ATOM     16  C   UNL     1      -1.054   3.814  -0.123  1.00  0.00     0.265 C 
ATOM     17  C   UNL     1      -3.065   2.720   0.772  1.00  0.00     0.265 C 
ATOM     18  O   UNL     1       0.060   3.861  -0.646  1.00  0.00    -0.268 OA
ATOM     19  C   UNL     1      -1.835   5.098  -0.011  1.00  0.00     0.049 C 
ATOM     20  C   UNL     1      -3.520   4.005   1.353  1.00  0.00     0.048 A 
ATOM     21  O   UNL     1      -3.902   1.820   0.776  1.00  0.00    -0.268 OA
ATOM     22  C   UNL     1      -2.862   5.185   1.030  1.00  0.00    -0.000 A 
ATOM     23  C   UNL     1      -4.600   4.015   2.252  1.00  0.00     0.014 A 
ATOM     24  C   UNL     1      -3.218   6.362   1.707  1.00  0.00     0.010 A 
ATOM     25  C   UNL     1      -4.990   5.203   2.867  1.00  0.00     0.001 A 
ATOM     26  C   UNL     1      -4.285   6.373   2.609  1.00  0.00     0.001 A 
BRANCH  15  27
ATOM     27  C   UNL     1      -1.072   1.354   0.178  1.00  0.00     0.053 A 
ATOM     28  C   UNL     1       2.493  -0.078   0.014  1.00  0.00     0.044 C 
ATOM     29  C   UNL     1       0.994  -0.000   0.040  1.00  0.00    -0.049 A 
ATOM     30  C   UNL     1       0.240  -1.167  -0.061  1.00  0.00     0.003 A 
ATOM     31  C   UNL     1       0.335   1.237   0.178  1.00  0.00     0.030 A 
ATOM     32  C   UNL     1      -1.145  -1.093  -0.038  1.00  0.00     0.002 A 
ATOM     33  C   UNL     1      -1.786   0.148   0.075  1.00  0.00     0.027 A 
ENDBRANCH  15  27
ENDBRANCH   9  14
ENDBRANCH   5   8
ENDBRANCH   3   4
ENDBRANCH   2   3
ENDBRANCH   1   2
BRANCH   1  34
ATOM     34  C   UNL     1      -8.267  12.195   1.370  1.00  0.00     0.002 C 
BRANCH  34  35
ATOM     35  C   UNL     1      -9.092  10.949   1.690  1.00  0.00     0.021 C 
BRANCH  35  36
ATOM     36  C   UNL     1      -9.587  10.846   3.126  1.00  0.00     0.116 C 
BRANCH  36  37
ATOM     37  N   UNL     1     -10.879  11.468   3.379  1.00  0.00    -0.352 N 
ATOM     38  C   UNL     1     -11.587  11.594   4.570  1.00  0.00     0.251 C 
ATOM     39  H   UNL     1     -11.318  11.857   2.588  1.00  0.00     0.163 HD
ATOM     40  O   UNL     1     -12.687  12.102   4.574  1.00  0.00    -0.269 OA
BRANCH  38  41
ATOM     41  C   UNL     1     -10.925  11.241   5.858  1.00  0.00     0.039 A 
ATOM     42  C   UNL     1     -11.075  12.133   6.928  1.00  0.00     0.014 A 
ATOM     43  C   UNL     1     -10.007  10.202   5.947  1.00  0.00     0.014 A 
ATOM     44  C   UNL     1     -10.118  12.152   7.941  1.00  0.00     0.010 A 
ATOM     45  C   UNL     1      -8.995  10.290   6.879  1.00  0.00     0.010 A 
ATOM     46  C   UNL     1      -9.011  11.314   7.827  1.00  0.00    -0.014 A 
BRANCH  46  47
ATOM     47  C   UNL     1      -7.772  11.515   8.562  1.00  0.00     0.031 A 
ATOM     48  C   UNL     1      -7.392  10.597   9.656  1.00  0.00     0.074 A 
ATOM     49  C   UNL     1      -6.917  12.499   8.198  1.00  0.00     0.049 A 
ATOM     50  N   UNL     1      -6.594  10.923  10.617  1.00  0.00    -0.248 NA
ATOM     51  C   UNL     1      -7.913   9.240   9.778  1.00  0.00     0.031 C 
ATOM     52  C   UNL     1      -5.526  12.657   8.622  1.00  0.00     0.029 A 
ATOM     53  N   UNL     1      -7.128  13.651   7.456  1.00  0.00    -0.354 N 
ATOM     54  C   UNL     1      -6.242   9.766  11.265  1.00  0.00     0.074 A 
ATOM     55  C   UNL     1      -7.167   8.765  10.781  1.00  0.00     0.031 C 
ATOM     56  C   UNL     1      -5.152  13.931   8.414  1.00  0.00     0.029 A 
ATOM     57  C   UNL     1      -6.340  14.660   8.013  1.00  0.00     0.049 A 
ATOM     58  H   UNL     1      -7.725  13.741   6.678  1.00  0.00     0.167 HD
ATOM     59  C   UNL     1      -5.109   9.740  12.022  1.00  0.00     0.031 A 
ATOM     60  C   UNL     1      -6.829  15.762   8.659  1.00  0.00     0.031 A 
ATOM     61  C   UNL     1      -4.437  11.039  12.062  1.00  0.00     0.049 A 
ATOM     62  C   UNL     1      -6.333  15.915  10.093  1.00  0.00     0.074 A 
ATOM     63  C   UNL     1      -3.294  11.545  11.461  1.00  0.00     0.029 A 
ATOM     64  N   UNL     1      -5.103  12.133  12.595  1.00  0.00    -0.354 N 
ATOM     65  N   UNL     1      -5.677  14.996  10.746  1.00  0.00    -0.248 NA
ATOM     66  C   UNL     1      -6.624  17.073  10.935  1.00  0.00     0.031 C 
ATOM     67  C   UNL     1      -3.265  12.951  11.667  1.00  0.00     0.029 A 
ATOM     68  C   UNL     1      -4.384  13.296  12.400  1.00  0.00     0.049 A 
ATOM     69  H   UNL     1      -5.973  12.086  13.053  1.00  0.00     0.167 HD
ATOM     70  C   UNL     1      -5.492  15.379  12.052  1.00  0.00     0.074 A 
ATOM     71  C   UNL     1      -6.109  16.692  12.118  1.00  0.00     0.031 C 
ATOM     72  C   UNL     1      -4.884  14.549  12.955  1.00  0.00     0.031 A 
BRANCH  59  73
ATOM     73  C   UNL     1      -4.463   8.461  12.499  1.00  0.00    -0.014 A 
ATOM     74  C   UNL     1      -3.073   8.423  12.719  1.00  0.00     0.009 A 
ATOM     75  C   UNL     1      -5.150   7.255  12.715  1.00  0.00     0.009 A 
ATOM     76  C   UNL     1      -2.399   7.234  13.025  1.00  0.00     0.001 A 
ATOM     77  C   UNL     1      -4.480   6.053  12.981  1.00  0.00     0.001 A 
ATOM     78  C   UNL     1      -3.100   6.040  13.123  1.00  0.00     0.000 A 
ENDBRANCH  59  73
BRANCH  60  79
ATOM     79  C   UNL     1      -8.177  16.189   8.198  1.00  0.00    -0.014 A 
ATOM     80  C   UNL     1      -8.306  16.704   6.893  1.00  0.00     0.009 A 
ATOM     81  C   UNL     1      -9.331  15.755   8.866  1.00  0.00     0.009 A 
ATOM     82  C   UNL     1      -9.534  16.659   6.227  1.00  0.00     0.001 A 
ATOM     83  C   UNL     1     -10.562  15.727   8.199  1.00  0.00     0.001 A 
ATOM     84  C   UNL     1     -10.654  16.140   6.870  1.00  0.00     0.000 A 
ENDBRANCH  60  79
BRANCH  72  85
ATOM     85  C   UNL     1      -4.697  14.772  14.446  1.00  0.00    -0.014 A 
ATOM     86  C   UNL     1      -4.798  16.002  15.104  1.00  0.00     0.009 A 
ATOM     87  C   UNL     1      -4.348  13.667  15.264  1.00  0.00     0.009 A 
ATOM     88  C   UNL     1      -4.636  16.107  16.497  1.00  0.00     0.001 A 
ATOM     89  C   UNL     1      -4.176  13.764  16.647  1.00  0.00     0.001 A 
ATOM     90  C   UNL     1      -4.336  14.989  17.268  1.00  0.00     0.000 A 
ENDBRANCH  72  85
ENDBRANCH  46  47
ENDBRANCH  38  41
ENDBRANCH  36  37
ENDBRANCH  35  36
ENDBRANCH  34  35
ENDBRANCH   1  34
TORSDOF 15
