REMARK SMILES CCc1cc(OC(F)(F)F)cc2c1O[C@@H](C(F)(F)F)C(C(=O)NCCCCCCNC(=O)c1ccc(-c3c4nc(c(-c5ccccc5)c5ccc([nH]5)c(-c5ccccc5)c5nc(c(-c6ccccc6)c6ccc3[nH]6)C=C5)C=C4)cc1)=C2
REMARK SMILES IDX 26 1 25 2 24 3 23 4 21 5 22 6 20 8 3 9 4 10 13 11 5 12 12 13
REMARK SMILES IDX 14 14 11 15 81 16 15 17 2 18 1 19 6 20 7 21 8 22 9 23 10 24
REMARK SMILES IDX 16 25 17 26 18 27 19 28 27 29 28 30 29 31 30 32 31 33 32 35
REMARK SMILES IDX 33 36 34 37 80 38 35 39 79 40 36 41 37 42 38 43 73 44 39 45
REMARK SMILES IDX 78 46 72 47 74 48 40 49 77 50 71 51 70 52 41 54 63 55 48 56
REMARK SMILES IDX 62 57 49 58 52 59 61 60 75 61 50 62 51 63 60 65 76 66 53 67
REMARK SMILES IDX 42 68 43 69 47 70 44 71 46 72 45 73 64 74 65 75 69 76 66 77
REMARK SMILES IDX 68 78 67 79 54 80 55 81 59 82 56 83 58 84 57 85
REMARK H PARENT 23 7 30 34 74 53 52 64
REMARK Flexibility Score: inf
ROOT
ATOM      1  C   UNL     1       0.542  10.533  -3.457  1.00  0.00     0.002 C 
ENDROOT
BRANCH   1   2
ATOM      2  C   UNL     1       0.748   9.017  -3.328  1.00  0.00     0.021 C 
BRANCH   2   3
ATOM      3  C   UNL     1       1.460   8.623  -2.028  1.00  0.00     0.116 C 
BRANCH   3   4
ATOM      4  N   UNL     1       0.499   8.627  -0.938  1.00  0.00    -0.352 N 
ATOM      5  C   UNL     1      -0.300   7.668  -0.405  1.00  0.00     0.251 C 
ATOM      6  O   UNL     1      -1.203   8.032   0.345  1.00  0.00    -0.270 OA
ATOM      7  H   UNL     1       0.410   9.503  -0.497  1.00  0.00     0.163 HD
BRANCH   5   8
ATOM      8  C   UNL     1      -0.075   6.213  -0.615  1.00  0.00     0.067 C 
ATOM      9  C   UNL     1       0.855   2.104  -0.786  1.00  0.00    -0.002 A 
ATOM     10  C   UNL     1       1.453   1.603  -1.958  1.00  0.00     0.054 A 
ATOM     11  C   UNL     1       0.503   3.467  -0.739  1.00  0.00     0.131 A 
ATOM     12  C   UNL     1       1.689   2.432  -3.058  1.00  0.00     0.130 A 
ATOM     13  C   UNL     1       0.710   4.291  -1.841  1.00  0.00     0.021 A 
ATOM     14  O   UNL     1       0.019   3.944   0.445  1.00  0.00    -0.475 OA
ATOM     15  C   UNL     1       1.306   3.772  -2.994  1.00  0.00     0.058 A 
ATOM     16  C   UNL     1       0.391   5.707  -1.764  1.00  0.00     0.025 C 
ATOM     17  C   UNL     1      -0.544   5.286   0.504  1.00  0.00     0.314 C 
BRANCH   9  18
ATOM     18  C   UNL     1       0.560   1.230   0.419  1.00  0.00     0.036 C 
ATOM     19  C   UNL     1       0.988  -0.230   0.343  1.00  0.00     0.009 C 
ENDBRANCH   9  18
BRANCH  12  20
ATOM     20  O   UNL     1       2.287   2.078  -4.233  1.00  0.00    -0.406 OA
BRANCH  20  21
ATOM     21  C   UNL     1       2.656   0.722  -4.412  1.00  0.00     0.573 C 
ATOM     22  F   UNL     1       3.575   0.342  -3.500  1.00  0.00    -0.132 F 
ATOM     23  F   UNL     1       1.578  -0.087  -4.335  1.00  0.00    -0.132 F 
ATOM     24  F   UNL     1       3.201   0.582  -5.641  1.00  0.00    -0.132 F 
ENDBRANCH  20  21
ENDBRANCH  12  20
BRANCH  17  25
ATOM     25  C   UNL     1      -0.369   5.788   1.957  1.00  0.00     0.429 C 
ATOM     26  F   UNL     1      -1.381   6.585   2.365  1.00  0.00    -0.167 F 
ATOM     27  F   UNL     1      -0.364   4.744   2.831  1.00  0.00    -0.167 F 
ATOM     28  F   UNL     1       0.796   6.451   2.139  1.00  0.00    -0.167 F 
ENDBRANCH  17  25
ENDBRANCH   5   8
ENDBRANCH   3   4
ENDBRANCH   2   3
ENDBRANCH   1   2
BRANCH   1  29
ATOM     29  C   UNL     1       1.840  11.345  -3.542  1.00  0.00     0.002 C 
BRANCH  29  30
ATOM     30  C   UNL     1       2.787  10.917  -4.666  1.00  0.00     0.021 C 
BRANCH  30  31
ATOM     31  C   UNL     1       2.192  11.066  -6.062  1.00  0.00     0.116 C 
BRANCH  31  32
ATOM     32  N   UNL     1       1.939  12.462  -6.387  1.00  0.00    -0.352 N 
ATOM     33  C   UNL     1       2.489  13.235  -7.380  1.00  0.00     0.251 C 
ATOM     34  H   UNL     1       1.281  12.916  -5.813  1.00  0.00     0.163 HD
ATOM     35  O   UNL     1       2.370  14.453  -7.361  1.00  0.00    -0.269 OA
BRANCH  33  36
ATOM     36  C   UNL     1       3.244  12.580  -8.467  1.00  0.00     0.039 A 
ATOM     37  C   UNL     1       4.488  13.094  -8.836  1.00  0.00     0.014 A 
ATOM     38  C   UNL     1       2.726  11.449  -9.104  1.00  0.00     0.014 A 
ATOM     39  C   UNL     1       5.251  12.424  -9.793  1.00  0.00     0.010 A 
ATOM     40  C   UNL     1       3.516  10.744 -10.005  1.00  0.00     0.010 A 
ATOM     41  C   UNL     1       4.791  11.218 -10.349  1.00  0.00    -0.014 A 
BRANCH  41  42
ATOM     42  C   UNL     1       5.646  10.411 -11.253  1.00  0.00     0.031 A 
ATOM     43  C   UNL     1       5.233  10.168 -12.677  1.00  0.00     0.074 A 
ATOM     44  C   UNL     1       6.758   9.829 -10.762  1.00  0.00     0.049 A 
ATOM     45  N   UNL     1       5.811   9.426 -13.586  1.00  0.00    -0.248 NA
ATOM     46  C   UNL     1       3.999  10.828 -13.132  1.00  0.00     0.031 C 
ATOM     47  C   UNL     1       7.247   9.961  -9.387  1.00  0.00     0.029 A 
ATOM     48  N   UNL     1       7.674   9.001 -11.361  1.00  0.00    -0.354 N 
ATOM     49  C   UNL     1       5.009   9.521 -14.716  1.00  0.00     0.074 A 
ATOM     50  C   UNL     1       3.878  10.353 -14.363  1.00  0.00     0.031 C 
ATOM     51  C   UNL     1       8.385   9.261  -9.256  1.00  0.00     0.029 A 
ATOM     52  C   UNL     1       8.678   8.589 -10.517  1.00  0.00     0.049 A 
ATOM     53  H   UNL     1       7.618   8.728 -12.305  1.00  0.00     0.167 HD
ATOM     54  C   UNL     1       5.204   8.977 -15.941  1.00  0.00     0.031 A 
ATOM     55  C   UNL     1       9.709   7.750 -10.728  1.00  0.00     0.031 A 
ATOM     56  C   UNL     1       6.328   8.147 -16.286  1.00  0.00     0.049 A 
ATOM     57  C   UNL     1       9.872   7.118 -12.082  1.00  0.00     0.074 A 
ATOM     58  C   UNL     1       6.643   7.593 -17.515  1.00  0.00     0.029 A 
ATOM     59  N   UNL     1       7.313   7.740 -15.400  1.00  0.00    -0.354 N 
ATOM     60  N   UNL     1       9.147   7.279 -13.162  1.00  0.00    -0.248 NA
ATOM     61  C   UNL     1      10.999   6.188 -12.247  1.00  0.00     0.031 C 
ATOM     62  C   UNL     1       7.781   6.798 -17.356  1.00  0.00     0.029 A 
ATOM     63  C   UNL     1       8.213   6.909 -16.045  1.00  0.00     0.049 A 
ATOM     64  H   UNL     1       7.365   8.004 -14.453  1.00  0.00     0.167 HD
ATOM     65  C   UNL     1       9.739   6.489 -14.138  1.00  0.00     0.074 A 
ATOM     66  C   UNL     1      10.898   5.869 -13.529  1.00  0.00     0.031 C 
ATOM     67  C   UNL     1       9.357   6.292 -15.423  1.00  0.00     0.031 A 
BRANCH  54  68
ATOM     68  C   UNL     1       4.171   9.253 -16.998  1.00  0.00    -0.014 A 
ATOM     69  C   UNL     1       4.021  10.533 -17.555  1.00  0.00     0.009 A 
ATOM     70  C   UNL     1       3.369   8.206 -17.480  1.00  0.00     0.009 A 
ATOM     71  C   UNL     1       3.067  10.766 -18.548  1.00  0.00     0.001 A 
ATOM     72  C   UNL     1       2.438   8.435 -18.495  1.00  0.00     0.001 A 
ATOM     73  C   UNL     1       2.281   9.716 -19.021  1.00  0.00     0.000 A 
ENDBRANCH  54  68
BRANCH  55  74
ATOM     74  C   UNL     1      10.663   7.446  -9.628  1.00  0.00    -0.014 A 
ATOM     75  C   UNL     1      11.993   7.887  -9.695  1.00  0.00     0.009 A 
ATOM     76  C   UNL     1      10.252   6.701  -8.511  1.00  0.00     0.009 A 
ATOM     77  C   UNL     1      12.898   7.564  -8.681  1.00  0.00     0.001 A 
ATOM     78  C   UNL     1      11.150   6.408  -7.483  1.00  0.00     0.001 A 
ATOM     79  C   UNL     1      12.475   6.830  -7.574  1.00  0.00     0.000 A 
ENDBRANCH  55  74
BRANCH  67  80
ATOM     80  C   UNL     1      10.207   5.380 -16.263  1.00  0.00    -0.014 A 
ATOM     81  C   UNL     1      10.210   3.992 -16.052  1.00  0.00     0.009 A 
ATOM     82  C   UNL     1      10.974   5.911 -17.311  1.00  0.00     0.009 A 
ATOM     83  C   UNL     1      10.989   3.158 -16.857  1.00  0.00     0.001 A 
ATOM     84  C   UNL     1      11.725   5.072 -18.135  1.00  0.00     0.001 A 
ATOM     85  C   UNL     1      11.739   3.698 -17.902  1.00  0.00     0.000 A 
ENDBRANCH  67  80
ENDBRANCH  41  42
ENDBRANCH  33  36
ENDBRANCH  31  32
ENDBRANCH  30  31
ENDBRANCH  29  30
ENDBRANCH   1  29
TORSDOF 17
