REMARK SMILES CC(C)C[C@H](NC(=O)CNC(=O)[C@@H](NC(=O)OCc1ccccc1)C(C)C)C(=O)N[C@@H](C)C(=O)NCCCCCCNC(=O)c1ccc(-c2c3nc(c(-c4ccccc4)c4ccc([nH]4)c(-c4ccccc4)c4nc(c(-c5ccccc5)c5ccc2[nH]5)C=C4)C=C3)cc1
REMARK SMILES IDX 31 1 32 2 30 3 28 4 29 5 5 7 4 8 2 9 1 10 3 11 6 12 7 13
REMARK SMILES IDX 8 15 9 16 10 17 11 18 12 20 13 21 14 22 15 23 16 25 17 26
REMARK SMILES IDX 18 27 19 28 20 29 24 30 21 31 23 32 22 33 25 34 26 35 27 36
REMARK SMILES IDX 33 37 34 38 35 39 36 41 37 42 38 43 39 44 40 45 41 46 42 47
REMARK SMILES IDX 43 48 44 50 45 51 46 52 92 53 47 54 91 55 48 56 49 57 50 58
REMARK SMILES IDX 85 59 51 60 90 61 84 62 86 63 52 64 89 65 83 66 82 67 53 69
REMARK SMILES IDX 75 70 60 71 74 72 61 73 64 74 73 75 87 76 62 77 63 78 72 80
REMARK SMILES IDX 88 81 65 82 54 83 55 84 59 85 56 86 58 87 57 88 76 89 77 90
REMARK SMILES IDX 81 91 78 92 80 93 79 94 66 95 67 96 71 97 68 98 70 99 69 100
REMARK H PARENT 30 6 6 14 10 19 14 24 35 40 42 49 86 68 64 79
REMARK Flexibility Score: inf
ROOT
ATOM      1  C   UNL     1      -3.350  -0.891   3.604  1.00  0.00     0.168 C 
ATOM      2  C   UNL     1      -3.707   0.222   4.580  1.00  0.00     0.041 C 
ENDROOT
BRANCH   1   3
ATOM      3  N   UNL     1      -3.945  -0.641   2.286  1.00  0.00    -0.343 N 
ATOM      4  C   UNL     1      -3.461  -0.918   1.040  1.00  0.00     0.243 C 
ATOM      5  O   UNL     1      -4.227  -0.774   0.086  1.00  0.00    -0.273 OA
ATOM      6  H   UNL     1      -4.828  -0.207   2.303  1.00  0.00     0.164 HD
BRANCH   4   7
ATOM      7  C   UNL     1      -2.021  -1.438   0.852  1.00  0.00     0.171 C 
BRANCH   7   8
ATOM      8  C   UNL     1      -1.901  -2.876   1.338  1.00  0.00     0.038 C 
BRANCH   8   9
ATOM      9  C   UNL     1      -2.990  -3.889   0.941  1.00  0.00    -0.015 C 
ATOM     10  C   UNL     1      -3.146  -4.022  -0.575  1.00  0.00     0.007 C 
ATOM     11  C   UNL     1      -2.620  -5.257   1.531  1.00  0.00     0.007 C 
ENDBRANCH   8   9
ENDBRANCH   7   8
BRANCH   7  12
ATOM     12  N   UNL     1      -1.156  -0.418   1.488  1.00  0.00    -0.343 N 
ATOM     13  C   UNL     1       0.081  -0.256   1.993  1.00  0.00     0.240 C 
ATOM     14  H   UNL     1      -1.655   0.427   1.570  1.00  0.00     0.164 HD
ATOM     15  O   UNL     1       0.363   0.920   2.273  1.00  0.00    -0.273 OA
BRANCH  13  16
ATOM     16  C   UNL     1       1.184  -1.309   2.155  1.00  0.00     0.216 C 
BRANCH  16  17
ATOM     17  N   UNL     1       0.873  -2.682   2.459  1.00  0.00    -0.345 N 
ATOM     18  C   UNL     1       1.109  -3.832   1.777  1.00  0.00     0.243 C 
ATOM     19  H   UNL     1       0.404  -2.810   3.316  1.00  0.00     0.164 HD
ATOM     20  O   UNL     1       0.919  -4.883   2.402  1.00  0.00    -0.273 OA
BRANCH  18  21
ATOM     21  C   UNL     1       1.631  -3.891   0.311  1.00  0.00     0.177 C 
BRANCH  21  22
ATOM     22  N   UNL     1       1.005  -2.888  -0.567  1.00  0.00    -0.309 N 
ATOM     23  C   UNL     1       1.404  -1.684  -1.042  1.00  0.00     0.408 C 
ATOM     24  H   UNL     1       0.106  -3.148  -0.874  1.00  0.00     0.167 HD
ATOM     25  O   UNL     1       0.579  -0.904  -1.501  1.00  0.00    -0.225 OA
BRANCH  23  26
ATOM     26  O   UNL     1       2.736  -1.484  -0.994  1.00  0.00    -0.445 OA
BRANCH  26  27
ATOM     27  C   UNL     1       3.205  -0.283  -1.625  1.00  0.00     0.270 C 
BRANCH  27  28
ATOM     28  C   UNL     1       3.184  -0.297  -3.141  1.00  0.00    -0.011 A 
ATOM     29  C   UNL     1       3.654   0.833  -3.829  1.00  0.00     0.007 A 
ATOM     30  C   UNL     1       2.680  -1.368  -3.896  1.00  0.00     0.007 A 
ATOM     31  C   UNL     1       3.595   0.897  -5.223  1.00  0.00     0.000 A 
ATOM     32  C   UNL     1       2.608  -1.298  -5.287  1.00  0.00     0.000 A 
ATOM     33  C   UNL     1       3.063  -0.165  -5.951  1.00  0.00     0.000 A 
ENDBRANCH  27  28
ENDBRANCH  26  27
ENDBRANCH  23  26
ENDBRANCH  21  22
BRANCH  21  34
ATOM     34  C   UNL     1       3.160  -4.080   0.221  1.00  0.00     0.015 C 
ATOM     35  C   UNL     1       3.652  -5.194   1.158  1.00  0.00     0.010 C 
ATOM     36  C   UNL     1       3.586  -4.463  -1.204  1.00  0.00     0.010 C 
ENDBRANCH  21  34
ENDBRANCH  18  21
ENDBRANCH  16  17
ENDBRANCH  13  16
ENDBRANCH   7  12
ENDBRANCH   4   7
ENDBRANCH   1   3
BRANCH   1  37
ATOM     37  C   UNL     1      -3.682  -2.270   4.211  1.00  0.00     0.242 C 
ATOM     38  O   UNL     1      -2.799  -2.935   4.763  1.00  0.00    -0.273 OA
ATOM     39  N   UNL     1      -4.952  -2.749   4.277  1.00  0.00    -0.354 N 
ATOM     40  H   UNL     1      -5.029  -3.675   4.603  1.00  0.00     0.163 HD
BRANCH  39  41
ATOM     41  C   UNL     1      -6.207  -2.117   3.944  1.00  0.00     0.116 C 
BRANCH  41  42
ATOM     42  C   UNL     1      -7.049  -2.978   3.009  1.00  0.00     0.021 C 
BRANCH  42  43
ATOM     43  C   UNL     1      -7.606  -4.253   3.652  1.00  0.00     0.002 C 
BRANCH  43  44
ATOM     44  C   UNL     1      -8.356  -4.050   4.974  1.00  0.00     0.002 C 
BRANCH  44  45
ATOM     45  C   UNL     1      -9.441  -2.970   4.956  1.00  0.00     0.021 C 
BRANCH  45  46
ATOM     46  C   UNL     1     -10.532  -3.176   3.912  1.00  0.00     0.116 C 
BRANCH  46  47
ATOM     47  N   UNL     1     -11.310  -4.375   4.167  1.00  0.00    -0.352 N 
ATOM     48  C   UNL     1     -12.668  -4.514   4.303  1.00  0.00     0.251 C 
ATOM     49  H   UNL     1     -10.789  -5.206   4.254  1.00  0.00     0.163 HD
ATOM     50  O   UNL     1     -13.143  -5.570   4.710  1.00  0.00    -0.269 OA
BRANCH  48  51
ATOM     51  C   UNL     1     -13.561  -3.381   3.979  1.00  0.00     0.039 A 
ATOM     52  C   UNL     1     -14.595  -3.066   4.864  1.00  0.00     0.014 A 
ATOM     53  C   UNL     1     -13.387  -2.639   2.807  1.00  0.00     0.014 A 
ATOM     54  C   UNL     1     -15.420  -1.971   4.602  1.00  0.00     0.010 A 
ATOM     55  C   UNL     1     -14.169  -1.509   2.580  1.00  0.00     0.010 A 
ATOM     56  C   UNL     1     -15.194  -1.165   3.474  1.00  0.00    -0.014 A 
BRANCH  56  57
ATOM     57  C   UNL     1     -16.011   0.049   3.224  1.00  0.00     0.031 A 
ATOM     58  C   UNL     1     -16.908   0.127   2.019  1.00  0.00     0.074 A 
ATOM     59  C   UNL     1     -15.899   1.107   4.052  1.00  0.00     0.049 A 
ATOM     60  N   UNL     1     -17.653   1.123   1.610  1.00  0.00    -0.248 NA
ATOM     61  C   UNL     1     -16.958  -1.058   1.147  1.00  0.00     0.031 C 
ATOM     62  C   UNL     1     -15.031   1.174   5.231  1.00  0.00     0.029 A 
ATOM     63  N   UNL     1     -16.511   2.335   4.020  1.00  0.00    -0.354 N 
ATOM     64  C   UNL     1     -18.242   0.693   0.428  1.00  0.00     0.074 A 
ATOM     65  C   UNL     1     -17.741  -0.638   0.164  1.00  0.00     0.031 C 
ATOM     66  C   UNL     1     -15.181   2.372   5.819  1.00  0.00     0.029 A 
ATOM     67  C   UNL     1     -16.123   3.169   5.041  1.00  0.00     0.049 A 
ATOM     68  H   UNL     1     -17.165   2.593   3.332  1.00  0.00     0.167 HD
ATOM     69  C   UNL     1     -19.132   1.343  -0.359  1.00  0.00     0.031 A 
ATOM     70  C   UNL     1     -16.479   4.439   5.315  1.00  0.00     0.031 A 
ATOM     71  C   UNL     1     -19.649   2.657  -0.086  1.00  0.00     0.049 A 
ATOM     72  C   UNL     1     -17.470   5.133   4.424  1.00  0.00     0.074 A 
ATOM     73  C   UNL     1     -20.610   3.366  -0.786  1.00  0.00     0.029 A 
ATOM     74  N   UNL     1     -19.246   3.460   0.968  1.00  0.00    -0.354 N 
ATOM     75  N   UNL     1     -18.081   4.680   3.356  1.00  0.00    -0.248 NA
ATOM     76  C   UNL     1     -17.830   6.513   4.783  1.00  0.00     0.031 C 
ATOM     77  C   UNL     1     -20.753   4.620  -0.184  1.00  0.00     0.029 A 
ATOM     78  C   UNL     1     -19.919   4.669   0.922  1.00  0.00     0.049 A 
ATOM     79  H   UNL     1     -18.581   3.209   1.649  1.00  0.00     0.167 HD
ATOM     80  C   UNL     1     -18.914   5.707   2.933  1.00  0.00     0.074 A 
ATOM     81  C   UNL     1     -18.746   6.798   3.869  1.00  0.00     0.031 C 
ATOM     82  C   UNL     1     -19.744   5.743   1.862  1.00  0.00     0.031 A 
BRANCH  69  83
ATOM     83  C   UNL     1     -19.611   0.644  -1.600  1.00  0.00    -0.014 A 
ATOM     84  C   UNL     1     -20.502  -0.438  -1.527  1.00  0.00     0.009 A 
ATOM     85  C   UNL     1     -19.221   1.120  -2.862  1.00  0.00     0.009 A 
ATOM     86  C   UNL     1     -20.975  -1.043  -2.693  1.00  0.00     0.001 A 
ATOM     87  C   UNL     1     -19.715   0.529  -4.026  1.00  0.00     0.001 A 
ATOM     88  C   UNL     1     -20.587  -0.555  -3.941  1.00  0.00     0.000 A 
ENDBRANCH  69  83
BRANCH  70  89
ATOM     89  C   UNL     1     -15.896   5.145   6.486  1.00  0.00    -0.014 A 
ATOM     90  C   UNL     1     -16.691   5.457   7.600  1.00  0.00     0.009 A 
ATOM     91  C   UNL     1     -14.550   5.539   6.482  1.00  0.00     0.009 A 
ATOM     92  C   UNL     1     -16.157   6.180   8.670  1.00  0.00     0.001 A 
ATOM     93  C   UNL     1     -14.011   6.236   7.566  1.00  0.00     0.001 A 
ATOM     94  C   UNL     1     -14.818   6.566   8.652  1.00  0.00     0.000 A 
ENDBRANCH  70  89
BRANCH  82  95
ATOM     95  C   UNL     1     -20.556   6.991   1.666  1.00  0.00    -0.014 A 
ATOM     96  C   UNL     1     -19.964   8.183   1.222  1.00  0.00     0.009 A 
ATOM     97  C   UNL     1     -21.941   6.960   1.894  1.00  0.00     0.009 A 
ATOM     98  C   UNL     1     -20.739   9.330   1.041  1.00  0.00     0.001 A 
ATOM     99  C   UNL     1     -22.717   8.101   1.686  1.00  0.00     0.001 A 
ATOM    100  C   UNL     1     -22.114   9.287   1.269  1.00  0.00     0.000 A 
ENDBRANCH  82  95
ENDBRANCH  56  57
ENDBRANCH  48  51
ENDBRANCH  46  47
ENDBRANCH  45  46
ENDBRANCH  44  45
ENDBRANCH  43  44
ENDBRANCH  42  43
ENDBRANCH  41  42
ENDBRANCH  39  41
ENDBRANCH   1  37
TORSDOF 26
