REMARK SMILES CC(C)CN(C)c1cc2c(cc1Cl)C=C(C(=O)NCCCCCCNC(=O)c1ccc(-c3c4nc(c(-c5ccccc5)c5ccc([nH]5)c(-c5ccccc5)c5nc(c(-c6ccccc6)c6ccc3[nH]6)C=C5)C=C4)cc1)[C@@H](C(F)(F)F)O2
REMARK SMILES IDX 21 1 20 2 19 3 18 4 16 5 17 6 15 8 7 9 8 10 12 11 9 12 11 13
REMARK SMILES IDX 13 14 10 15 81 16 14 17 76 18 5 19 6 20 4 21 2 22 1 23 3 24
REMARK SMILES IDX 77 25 78 26 79 27 80 28 22 29 23 30 24 31 25 32 26 33 27 35
REMARK SMILES IDX 28 36 29 37 75 38 30 39 74 40 31 41 32 42 33 43 68 44 34 45
REMARK SMILES IDX 73 46 67 47 69 48 35 49 72 50 66 51 65 52 36 54 58 55 43 56
REMARK SMILES IDX 57 57 44 58 47 59 56 60 70 61 45 62 46 63 55 65 71 66 48 67
REMARK SMILES IDX 37 68 38 69 42 70 39 71 41 72 40 73 59 74 60 75 64 76 61 77
REMARK SMILES IDX 63 78 62 79 49 80 50 81 54 82 51 83 53 84 52 85
REMARK H PARENT 18 7 25 34 69 53 47 64
REMARK Flexibility Score: inf
ROOT
ATOM      1  C   UNL     1      -3.590   0.138  10.625  1.00  0.00     0.002 C 
ENDROOT
BRANCH   1   2
ATOM      2  C   UNL     1      -3.725   0.179   9.100  1.00  0.00     0.021 C 
BRANCH   2   3
ATOM      3  C   UNL     1      -2.950   1.316   8.442  1.00  0.00     0.116 C 
BRANCH   3   4
ATOM      4  N   UNL     1      -1.551   0.969   8.275  1.00  0.00    -0.352 N 
ATOM      5  C   UNL     1      -0.664   0.899   7.259  1.00  0.00     0.251 C 
ATOM      6  O   UNL     1       0.481   0.568   7.584  1.00  0.00    -0.270 OA
ATOM      7  H   UNL     1      -1.138   0.717   9.133  1.00  0.00     0.163 HD
BRANCH   5   8
ATOM      8  C   UNL     1      -0.969   1.183   5.829  1.00  0.00     0.067 C 
ATOM      9  C   UNL     1      -0.681   1.754   0.820  1.00  0.00     0.059 A 
ATOM     10  C   UNL     1      -1.707   1.412   1.715  1.00  0.00     0.074 A 
ATOM     11  C   UNL     1       0.593   2.036   1.364  1.00  0.00     0.065 A 
ATOM     12  C   UNL     1      -1.452   1.310   3.080  1.00  0.00     0.130 A 
ATOM     13  C   UNL     1       0.864   1.834   2.723  1.00  0.00     0.034 A 
ATOM     14  Cl  UNL     1       1.884   2.671   0.402  1.00  0.00    -0.082 Cl
ATOM     15  C   UNL     1      -0.159   1.450   3.582  1.00  0.00     0.019 A 
ATOM     16  O   UNL     1      -2.517   1.050   3.899  1.00  0.00    -0.475 OA
ATOM     17  C   UNL     1       0.085   1.173   4.991  1.00  0.00     0.025 C 
ATOM     18  C   UNL     1      -2.332   1.492   5.277  1.00  0.00     0.314 C 
BRANCH   9  19
ATOM     19  N   UNL     1      -0.926   1.764  -0.563  1.00  0.00    -0.373 N 
ATOM     20  C   UNL     1      -1.999   2.656  -0.999  1.00  0.00     0.143 C 
BRANCH  19  21
ATOM     21  C   UNL     1      -0.845   0.454  -1.247  1.00  0.00     0.119 C 
BRANCH  21  22
ATOM     22  C   UNL     1       0.608  -0.011  -1.477  1.00  0.00     0.002 C 
ATOM     23  C   UNL     1       1.110  -0.932  -0.359  1.00  0.00     0.009 C 
ATOM     24  C   UNL     1       0.752  -0.739  -2.816  1.00  0.00     0.009 C 
ENDBRANCH  21  22
ENDBRANCH  19  21
ENDBRANCH   9  19
BRANCH  18  25
ATOM     25  C   UNL     1      -2.684   2.988   5.426  1.00  0.00     0.429 C 
ATOM     26  F   UNL     1      -4.013   3.188   5.244  1.00  0.00    -0.167 F 
ATOM     27  F   UNL     1      -2.395   3.461   6.664  1.00  0.00    -0.167 F 
ATOM     28  F   UNL     1      -2.032   3.780   4.547  1.00  0.00    -0.167 F 
ENDBRANCH  18  25
ENDBRANCH   5   8
ENDBRANCH   3   4
ENDBRANCH   2   3
ENDBRANCH   1   2
BRANCH   1  29
ATOM     29  C   UNL     1      -4.009   1.421  11.354  1.00  0.00     0.002 C 
BRANCH  29  30
ATOM     30  C   UNL     1      -5.369   1.992  10.947  1.00  0.00     0.021 C 
BRANCH  30  31
ATOM     31  C   UNL     1      -6.535   1.026  11.110  1.00  0.00     0.116 C 
BRANCH  31  32
ATOM     32  N   UNL     1      -6.755   0.650  12.496  1.00  0.00    -0.352 N 
ATOM     33  C   UNL     1      -7.912   0.711  13.234  1.00  0.00     0.251 C 
ATOM     34  H   UNL     1      -5.966   0.303  12.972  1.00  0.00     0.163 HD
ATOM     35  O   UNL     1      -7.894   0.507  14.444  1.00  0.00    -0.269 OA
BRANCH  33  36
ATOM     36  C   UNL     1      -9.178   1.059  12.560  1.00  0.00     0.039 A 
ATOM     37  C   UNL     1      -9.529   0.443  11.356  1.00  0.00     0.014 A 
ATOM     38  C   UNL     1     -10.001   2.040  13.118  1.00  0.00     0.014 A 
ATOM     39  C   UNL     1     -10.613   0.923  10.631  1.00  0.00     0.010 A 
ATOM     40  C   UNL     1     -11.140   2.459  12.428  1.00  0.00     0.010 A 
ATOM     41  C   UNL     1     -11.430   1.936  11.158  1.00  0.00    -0.014 A 
BRANCH  41  42
ATOM     42  C   UNL     1     -12.587   2.427  10.368  1.00  0.00     0.031 A 
ATOM     43  C   UNL     1     -12.630   3.844   9.865  1.00  0.00     0.074 A 
ATOM     44  C   UNL     1     -13.581   1.571  10.064  1.00  0.00     0.049 A 
ATOM     45  N   UNL     1     -13.559   4.434   9.154  1.00  0.00    -0.248 NA
ATOM     46  C   UNL     1     -11.490   4.713  10.198  1.00  0.00     0.031 C 
ATOM     47  C   UNL     1     -13.633   0.165  10.472  1.00  0.00     0.029 A 
ATOM     48  N   UNL     1     -14.720   1.744   9.320  1.00  0.00    -0.354 N 
ATOM     49  C   UNL     1     -13.124   5.741   8.970  1.00  0.00     0.074 A 
ATOM     50  C   UNL     1     -11.863   5.870   9.666  1.00  0.00     0.031 C 
ATOM     51  C   UNL     1     -14.714  -0.410   9.926  1.00  0.00     0.029 A 
ATOM     52  C   UNL     1     -15.472   0.601   9.195  1.00  0.00     0.049 A 
ATOM     53  H   UNL     1     -14.975   2.604   8.915  1.00  0.00     0.167 HD
ATOM     54  C   UNL     1     -13.720   6.737   8.274  1.00  0.00     0.031 A 
ATOM     55  C   UNL     1     -16.649   0.386   8.578  1.00  0.00     0.031 A 
ATOM     56  C   UNL     1     -14.971   6.599   7.576  1.00  0.00     0.049 A 
ATOM     57  C   UNL     1     -17.321   1.527   7.872  1.00  0.00     0.074 A 
ATOM     58  C   UNL     1     -15.643   7.550   6.826  1.00  0.00     0.029 A 
ATOM     59  N   UNL     1     -15.737   5.445   7.540  1.00  0.00    -0.354 N 
ATOM     60  N   UNL     1     -16.893   2.754   7.702  1.00  0.00    -0.248 NA
ATOM     61  C   UNL     1     -18.639   1.259   7.279  1.00  0.00     0.031 C 
ATOM     62  C   UNL     1     -16.846   6.991   6.392  1.00  0.00     0.029 A 
ATOM     63  C   UNL     1     -16.891   5.670   6.808  1.00  0.00     0.049 A 
ATOM     64  H   UNL     1     -15.497   4.593   7.970  1.00  0.00     0.167 HD
ATOM     65  C   UNL     1     -17.881   3.403   6.974  1.00  0.00     0.074 A 
ATOM     66  C   UNL     1     -18.921   2.427   6.715  1.00  0.00     0.031 C 
ATOM     67  C   UNL     1     -17.921   4.693   6.562  1.00  0.00     0.031 A 
BRANCH  54  68
ATOM     68  C   UNL     1     -13.043   8.080   8.233  1.00  0.00    -0.014 A 
ATOM     69  C   UNL     1     -13.638   9.179   8.875  1.00  0.00     0.009 A 
ATOM     70  C   UNL     1     -11.880   8.287   7.476  1.00  0.00     0.009 A 
ATOM     71  C   UNL     1     -13.092  10.458   8.747  1.00  0.00     0.001 A 
ATOM     72  C   UNL     1     -11.320   9.562   7.373  1.00  0.00     0.001 A 
ATOM     73  C   UNL     1     -11.932  10.648   7.999  1.00  0.00     0.000 A 
ENDBRANCH  54  68
BRANCH  55  74
ATOM     74  C   UNL     1     -17.250  -0.973   8.612  1.00  0.00    -0.014 A 
ATOM     75  C   UNL     1     -17.702  -1.524   9.823  1.00  0.00     0.009 A 
ATOM     76  C   UNL     1     -17.316  -1.753   7.448  1.00  0.00     0.009 A 
ATOM     77  C   UNL     1     -18.172  -2.837   9.876  1.00  0.00     0.001 A 
ATOM     78  C   UNL     1     -17.817  -3.056   7.498  1.00  0.00     0.001 A 
ATOM     79  C   UNL     1     -18.232  -3.601   8.713  1.00  0.00     0.000 A 
ENDBRANCH  55  74
BRANCH  67  80
ATOM     80  C   UNL     1     -19.121   5.143   5.778  1.00  0.00    -0.014 A 
ATOM     81  C   UNL     1     -18.983   5.474   4.420  1.00  0.00     0.009 A 
ATOM     82  C   UNL     1     -20.358   5.350   6.406  1.00  0.00     0.009 A 
ATOM     83  C   UNL     1     -20.052   6.025   3.712  1.00  0.00     0.001 A 
ATOM     84  C   UNL     1     -21.435   5.873   5.688  1.00  0.00     0.001 A 
ATOM     85  C   UNL     1     -21.278   6.221   4.346  1.00  0.00     0.000 A 
ENDBRANCH  67  80
ENDBRANCH  41  42
ENDBRANCH  33  36
ENDBRANCH  31  32
ENDBRANCH  30  31
ENDBRANCH  29  30
ENDBRANCH   1  29
TORSDOF 17
