REMARK SMILES CCc1ccsc1-c1nnnn1C[C@H](CC(C)C)C(=O)NCCCCCCNC(=O)c1ccc(-c2c3nc(c(-c4ccccc4)c4ccc([nH]4)c(-c4ccccc4)c4nc(c(-c5ccccc5)c5ccc2[nH]5)C=C4)C=C3)cc1
REMARK SMILES IDX 23 1 22 2 21 3 19 4 20 5 14 7 13 8 12 9 8 10 9 11 10 12
REMARK SMILES IDX 11 13 7 14 3 15 4 16 5 17 6 18 2 19 1 20 15 21 16 22 17 23
REMARK SMILES IDX 18 24 24 25 25 26 26 27 27 28 28 29 29 30 30 32 31 33 32 34
REMARK SMILES IDX 78 35 33 36 77 37 34 38 35 39 36 40 71 41 37 42 76 43 70 44
REMARK SMILES IDX 72 45 38 46 75 47 69 48 68 49 39 51 61 52 46 53 60 54 47 55
REMARK SMILES IDX 50 56 59 57 73 58 48 59 49 60 58 62 74 63 51 64 40 65 41 66
REMARK SMILES IDX 45 67 42 68 44 69 43 70 62 71 63 72 67 73 64 74 66 75 65 76
REMARK SMILES IDX 52 77 53 78 57 79 54 80 56 81 55 82
REMARK H PARENT 21 6 28 31 72 50 50 61
REMARK Flexibility Score: inf
ROOT
ATOM      1  C   UNL     1      -3.478   2.450   0.931  1.00  0.00     0.021 C 
ENDROOT
BRANCH   1   2
ATOM      2  C   UNL     1      -2.869   2.641   2.322  1.00  0.00     0.116 C 
BRANCH   2   3
ATOM      3  N   UNL     1      -2.992   1.458   3.136  1.00  0.00    -0.356 N 
ATOM      4  C   UNL     1      -2.052   0.650   3.675  1.00  0.00     0.224 C 
ATOM      5  O   UNL     1      -2.460  -0.260   4.405  1.00  0.00    -0.275 OA
ATOM      6  H   UNL     1      -3.920   1.192   3.332  1.00  0.00     0.163 HD
BRANCH   4   7
ATOM      7  C   UNL     1      -0.548   0.839   3.474  1.00  0.00     0.100 C 
BRANCH   7   8
ATOM      8  C   UNL     1       0.033   2.046   4.247  1.00  0.00     0.162 C 
BRANCH   8   9
ATOM      9  N   UNL     1       0.376   3.247   3.536  1.00  0.00    -0.224 N 
ATOM     10  C   UNL     1       0.250   4.560   3.908  1.00  0.00     0.192 A 
ATOM     11  N   UNL     1       0.655   5.305   2.899  1.00  0.00    -0.108 NA
ATOM     12  N   UNL     1       1.241   4.443   2.014  1.00  0.00    -0.023 NA
ATOM     13  N   UNL     1       1.175   3.198   2.460  1.00  0.00    -0.045 NA
BRANCH  10  14
ATOM     14  C   UNL     1       0.013   5.072   5.215  1.00  0.00     0.077 A 
ATOM     15  C   UNL     1       0.890   5.096   6.294  1.00  0.00    -0.026 A 
ATOM     16  C   UNL     1       0.305   5.844   7.381  1.00  0.00     0.016 A 
ATOM     17  C   UNL     1      -0.944   6.343   7.094  1.00  0.00     0.066 A 
ATOM     18  S   UNL     1      -1.456   5.894   5.533  1.00  0.00    -0.140 S 
BRANCH  15  19
ATOM     19  C   UNL     1       2.285   4.519   6.441  1.00  0.00     0.034 C 
ATOM     20  C   UNL     1       3.055   4.101   5.202  1.00  0.00     0.009 C 
ENDBRANCH  15  19
ENDBRANCH  10  14
ENDBRANCH   8   9
ENDBRANCH   7   8
BRANCH   7  21
ATOM     21  C   UNL     1       0.081   0.352   2.140  1.00  0.00     0.018 C 
BRANCH  21  22
ATOM     22  C   UNL     1      -0.503   0.702   0.749  1.00  0.00    -0.017 C 
ATOM     23  C   UNL     1      -0.091   2.052   0.159  1.00  0.00     0.007 C 
ATOM     24  C   UNL     1      -0.056  -0.349  -0.282  1.00  0.00     0.007 C 
ENDBRANCH  21  22
ENDBRANCH   7  21
ENDBRANCH   4   7
ENDBRANCH   2   3
ENDBRANCH   1   2
BRANCH   1  25
ATOM     25  C   UNL     1      -4.779   3.208   0.684  1.00  0.00     0.002 C 
BRANCH  25  26
ATOM     26  C   UNL     1      -4.752   4.707   1.015  1.00  0.00     0.002 C 
BRANCH  26  27
ATOM     27  C   UNL     1      -3.615   5.531   0.394  1.00  0.00     0.021 C 
BRANCH  27  28
ATOM     28  C   UNL     1      -3.638   5.552  -1.124  1.00  0.00     0.116 C 
BRANCH  28  29
ATOM     29  N   UNL     1      -4.897   6.068  -1.666  1.00  0.00    -0.352 N 
ATOM     30  C   UNL     1      -5.266   6.268  -2.984  1.00  0.00     0.251 C 
ATOM     31  H   UNL     1      -5.578   6.306  -0.996  1.00  0.00     0.163 HD
ATOM     32  O   UNL     1      -6.219   6.969  -3.273  1.00  0.00    -0.269 OA
BRANCH  30  33
ATOM     33  C   UNL     1      -4.485   5.598  -4.038  1.00  0.00     0.039 A 
ATOM     34  C   UNL     1      -4.209   6.214  -5.261  1.00  0.00     0.014 A 
ATOM     35  C   UNL     1      -4.008   4.322  -3.761  1.00  0.00     0.014 A 
ATOM     36  C   UNL     1      -3.403   5.540  -6.174  1.00  0.00     0.010 A 
ATOM     37  C   UNL     1      -3.035   3.777  -4.543  1.00  0.00     0.010 A 
ATOM     38  C   UNL     1      -2.816   4.322  -5.795  1.00  0.00    -0.014 A 
BRANCH  38  39
ATOM     39  C   UNL     1      -1.880   3.616  -6.652  1.00  0.00     0.031 A 
ATOM     40  C   UNL     1      -0.681   4.417  -6.978  1.00  0.00     0.074 A 
ATOM     41  C   UNL     1      -1.978   2.293  -6.910  1.00  0.00     0.049 A 
ATOM     42  N   UNL     1      -0.430   5.021  -8.089  1.00  0.00    -0.248 NA
ATOM     43  C   UNL     1       0.256   4.750  -5.890  1.00  0.00     0.031 C 
ATOM     44  C   UNL     1      -2.918   1.322  -6.324  1.00  0.00     0.029 A 
ATOM     45  N   UNL     1      -1.180   1.501  -7.676  1.00  0.00    -0.354 N 
ATOM     46  C   UNL     1       0.829   5.588  -7.924  1.00  0.00     0.074 A 
ATOM     47  C   UNL     1       1.082   5.598  -6.507  1.00  0.00     0.031 C 
ATOM     48  C   UNL     1      -2.486   0.063  -6.568  1.00  0.00     0.029 A 
ATOM     49  C   UNL     1      -1.365   0.136  -7.484  1.00  0.00     0.049 A 
ATOM     50  H   UNL     1      -0.525   1.865  -8.314  1.00  0.00     0.167 HD
ATOM     51  C   UNL     1       1.687   5.663  -8.979  1.00  0.00     0.031 A 
ATOM     52  C   UNL     1      -0.643  -0.863  -8.046  1.00  0.00     0.031 A 
ATOM     53  C   UNL     1       1.009   5.330 -10.208  1.00  0.00     0.049 A 
ATOM     54  C   UNL     1       0.002  -0.304  -9.252  1.00  0.00     0.074 A 
ATOM     55  C   UNL     1       0.102   5.929 -11.053  1.00  0.00     0.029 A 
ATOM     56  N   UNL     1       0.964   3.979 -10.446  1.00  0.00    -0.354 N 
ATOM     57  N   UNL     1      -0.670   0.110 -10.289  1.00  0.00    -0.248 NA
ATOM     58  C   UNL     1       1.381   0.159  -9.175  1.00  0.00     0.031 C 
ATOM     59  C   UNL     1      -0.626   4.863 -11.666  1.00  0.00     0.029 A 
ATOM     60  C   UNL     1      -0.105   3.645 -11.230  1.00  0.00     0.049 A 
ATOM     61  H   UNL     1       1.619   3.332 -10.095  1.00  0.00     0.167 HD
ATOM     62  C   UNL     1       0.036   1.212 -10.734  1.00  0.00     0.074 A 
ATOM     63  C   UNL     1       1.362   1.083 -10.139  1.00  0.00     0.031 C 
ATOM     64  C   UNL     1      -0.610   2.288 -11.271  1.00  0.00     0.031 A 
BRANCH  51  65
ATOM     65  C   UNL     1       3.186   5.479  -8.868  1.00  0.00    -0.014 A 
ATOM     66  C   UNL     1       3.953   5.554 -10.047  1.00  0.00     0.009 A 
ATOM     67  C   UNL     1       3.832   4.951  -7.734  1.00  0.00     0.009 A 
ATOM     68  C   UNL     1       5.266   5.069 -10.100  1.00  0.00     0.001 A 
ATOM     69  C   UNL     1       5.153   4.496  -7.774  1.00  0.00     0.001 A 
ATOM     70  C   UNL     1       5.863   4.533  -8.965  1.00  0.00     0.000 A 
ENDBRANCH  51  65
BRANCH  52  71
ATOM     71  C   UNL     1      -0.273  -2.187  -7.505  1.00  0.00    -0.014 A 
ATOM     72  C   UNL     1       0.112  -3.234  -8.359  1.00  0.00     0.009 A 
ATOM     73  C   UNL     1       0.003  -2.323  -6.133  1.00  0.00     0.009 A 
ATOM     74  C   UNL     1       0.796  -4.353  -7.863  1.00  0.00     0.001 A 
ATOM     75  C   UNL     1       0.690  -3.438  -5.639  1.00  0.00     0.001 A 
ATOM     76  C   UNL     1       1.102  -4.445  -6.507  1.00  0.00     0.000 A 
ENDBRANCH  52  71
BRANCH  64  77
ATOM     77  C   UNL     1      -2.002   2.074 -11.797  1.00  0.00    -0.014 A 
ATOM     78  C   UNL     1      -3.108   1.752 -10.994  1.00  0.00     0.009 A 
ATOM     79  C   UNL     1      -2.210   2.290 -13.167  1.00  0.00     0.009 A 
ATOM     80  C   UNL     1      -4.385   1.631 -11.557  1.00  0.00     0.001 A 
ATOM     81  C   UNL     1      -3.484   2.189 -13.725  1.00  0.00     0.001 A 
ATOM     82  C   UNL     1      -4.571   1.854 -12.921  1.00  0.00     0.000 A 
ENDBRANCH  64  77
ENDBRANCH  38  39
ENDBRANCH  30  33
ENDBRANCH  28  29
ENDBRANCH  27  28
ENDBRANCH  26  27
ENDBRANCH  25  26
ENDBRANCH   1  25
TORSDOF 19
