REMARK SMILES [NH3+][C@@H](CCCCC(=O)NCCCCCCNC(=O)c1ccc(-c2c3nc(c(-c4ccccc4)c4ccc([nH]4)c(-c4ccccc4)c4nc(c(-c5ccccc5)c5ccc2[nH]5)C=C4)C=C3)cc1)c1ccc2[nH]c(=O)[nH]c2c1
REMARK SMILES IDX 11 1 10 2 9 3 7 4 8 5 6 7 5 8 4 9 3 10 2 11 1 12 67 16 68 17
REMARK SMILES IDX 76 18 69 19 75 20 70 21 74 22 71 23 72 24 73 27 12 28 13 29
REMARK SMILES IDX 14 30 15 31 16 32 17 33 18 35 19 36 20 37 66 38 21 39 65 40
REMARK SMILES IDX 22 41 23 42 24 43 59 44 25 45 64 46 58 47 60 48 26 49 63 50
REMARK SMILES IDX 57 51 56 52 27 54 49 55 34 56 48 57 35 58 38 59 47 60 61 61
REMARK SMILES IDX 36 62 37 63 46 65 62 66 39 67 28 68 29 69 33 70 30 71 32 72
REMARK SMILES IDX 31 73 50 74 51 75 55 76 52 77 54 78 53 79 40 80 41 81 45 82
REMARK SMILES IDX 42 83 44 84 43 85
REMARK H PARENT 9 6 1 13 1 14 1 15 74 25 71 26 16 34 60 53 38 64
REMARK Flexibility Score: inf
ROOT
ATOM      1  C   UNL     1       2.286   0.007  -5.133  1.00  0.00     0.021 C 
ENDROOT
BRANCH   1   2
ATOM      2  C   UNL     1       1.387   1.240  -5.181  1.00  0.00     0.116 C 
BRANCH   2   3
ATOM      3  N   UNL     1       0.172   0.962  -5.906  1.00  0.00    -0.356 N 
ATOM      4  C   UNL     1      -1.088   0.790  -5.423  1.00  0.00     0.219 C 
ATOM      5  O   UNL     1      -1.985   0.505  -6.217  1.00  0.00    -0.275 OA
ATOM      6  H   UNL     1       0.267   0.887  -6.883  1.00  0.00     0.163 HD
BRANCH   4   7
ATOM      7  C   UNL     1      -1.372   0.980  -3.944  1.00  0.00     0.100 C 
BRANCH   7   8
ATOM      8  C   UNL     1      -1.132  -0.261  -3.081  1.00  0.00     0.010 C 
BRANCH   8   9
ATOM      9  C   UNL     1       0.208  -0.422  -2.335  1.00  0.00     0.007 C 
BRANCH   9  10
ATOM     10  C   UNL     1       0.845   0.792  -1.625  1.00  0.00     0.070 C 
BRANCH  10  11
ATOM     11  C   UNL     1       0.410   1.085  -0.172  1.00  0.00     0.212 C 
BRANCH  11  12
ATOM     12  N   UNL     1       0.887   0.045   0.741  1.00  0.00    -0.351 N 
ATOM     13  H   UNL     1       1.896  -0.063   0.636  1.00  0.00     0.345 HD
ATOM     14  H   UNL     1       0.426  -0.838   0.523  1.00  0.00     0.345 HD
ATOM     15  H   UNL     1       0.672   0.313   1.702  1.00  0.00     0.345 HD
ENDBRANCH  11  12
BRANCH  11  16
ATOM     16  C   UNL     1      -1.083   1.343  -0.113  1.00  0.00     0.011 A 
ATOM     17  C   UNL     1      -1.583   2.526  -0.737  1.00  0.00     0.012 A 
ATOM     18  C   UNL     1      -1.984   0.398   0.408  1.00  0.00     0.038 A 
ATOM     19  C   UNL     1      -2.950   2.734  -0.940  1.00  0.00     0.029 A 
ATOM     20  C   UNL     1      -3.322   0.629   0.198  1.00  0.00     0.067 A 
ATOM     21  C   UNL     1      -3.790   1.753  -0.479  1.00  0.00     0.066 A 
ATOM     22  N   UNL     1      -4.416  -0.163   0.520  1.00  0.00    -0.306 N 
ATOM     23  N   UNL     1      -5.170   1.641  -0.591  1.00  0.00    -0.306 N 
ATOM     24  C   UNL     1      -5.575   0.452   0.030  1.00  0.00     0.323 A 
ATOM     25  H   UNL     1      -4.383  -1.016   1.012  1.00  0.00     0.171 HD
ATOM     26  H   UNL     1      -5.764   2.290  -1.033  1.00  0.00     0.171 HD
ATOM     27  O   UNL     1      -6.716   0.029   0.118  1.00  0.00    -0.248 OA
ENDBRANCH  11  16
ENDBRANCH  10  11
ENDBRANCH   9  10
ENDBRANCH   8   9
ENDBRANCH   7   8
ENDBRANCH   4   7
ENDBRANCH   2   3
ENDBRANCH   1   2
BRANCH   1  28
ATOM     28  C   UNL     1       3.268  -0.064  -6.299  1.00  0.00     0.002 C 
BRANCH  28  29
ATOM     29  C   UNL     1       4.291   1.076  -6.322  1.00  0.00     0.002 C 
BRANCH  29  30
ATOM     30  C   UNL     1       5.133   1.212  -5.049  1.00  0.00     0.021 C 
BRANCH  30  31
ATOM     31  C   UNL     1       5.899  -0.052  -4.670  1.00  0.00     0.116 C 
BRANCH  31  32
ATOM     32  N   UNL     1       6.758  -0.497  -5.757  1.00  0.00    -0.352 N 
ATOM     33  C   UNL     1       8.125  -0.567  -5.815  1.00  0.00     0.251 C 
ATOM     34  H   UNL     1       6.288  -0.793  -6.569  1.00  0.00     0.163 HD
ATOM     35  O   UNL     1       8.694  -0.686  -6.895  1.00  0.00    -0.269 OA
BRANCH  33  36
ATOM     36  C   UNL     1       8.911  -0.500  -4.569  1.00  0.00     0.039 A 
ATOM     37  C   UNL     1      10.074   0.271  -4.539  1.00  0.00     0.014 A 
ATOM     38  C   UNL     1       8.509  -1.220  -3.440  1.00  0.00     0.014 A 
ATOM     39  C   UNL     1      10.810   0.358  -3.357  1.00  0.00     0.010 A 
ATOM     40  C   UNL     1       9.198  -1.068  -2.243  1.00  0.00     0.010 A 
ATOM     41  C   UNL     1      10.361  -0.287  -2.192  1.00  0.00    -0.014 A 
BRANCH  41  42
ATOM     42  C   UNL     1      11.098  -0.155  -0.912  1.00  0.00     0.031 A 
ATOM     43  C   UNL     1      11.715  -1.365  -0.267  1.00  0.00     0.074 A 
ATOM     44  C   UNL     1      11.158   1.044  -0.303  1.00  0.00     0.049 A 
ATOM     45  N   UNL     1      12.356  -1.455   0.871  1.00  0.00    -0.248 NA
ATOM     46  C   UNL     1      11.573  -2.646  -0.979  1.00  0.00     0.031 C 
ATOM     47  C   UNL     1      10.564   2.283  -0.810  1.00  0.00     0.029 A 
ATOM     48  N   UNL     1      11.746   1.417   0.879  1.00  0.00    -0.354 N 
ATOM     49  C   UNL     1      12.677  -2.799   1.017  1.00  0.00     0.074 A 
ATOM     50  C   UNL     1      12.116  -3.495  -0.119  1.00  0.00     0.031 C 
ATOM     51  C   UNL     1      10.844   3.284   0.040  1.00  0.00     0.029 A 
ATOM     52  C   UNL     1      11.595   2.750   1.172  1.00  0.00     0.049 A 
ATOM     53  H   UNL     1      12.230   0.788   1.462  1.00  0.00     0.167 HD
ATOM     54  C   UNL     1      13.391  -3.396   2.001  1.00  0.00     0.031 A 
ATOM     55  C   UNL     1      12.008   3.463   2.236  1.00  0.00     0.031 A 
ATOM     56  C   UNL     1      13.953  -2.699   3.127  1.00  0.00     0.049 A 
ATOM     57  C   UNL     1      12.783   2.772   3.323  1.00  0.00     0.074 A 
ATOM     58  C   UNL     1      14.742  -3.204   4.145  1.00  0.00     0.029 A 
ATOM     59  N   UNL     1      13.778  -1.348   3.386  1.00  0.00    -0.354 N 
ATOM     60  N   UNL     1      13.141   1.514   3.410  1.00  0.00    -0.248 NA
ATOM     61  C   UNL     1      13.220   3.604   4.453  1.00  0.00     0.031 C 
ATOM     62  C   UNL     1      14.991  -2.172   5.056  1.00  0.00     0.029 A 
ATOM     63  C   UNL     1      14.418  -1.009   4.567  1.00  0.00     0.049 A 
ATOM     64  H   UNL     1      13.275  -0.723   2.816  1.00  0.00     0.167 HD
ATOM     65  C   UNL     1      13.871   1.409   4.588  1.00  0.00     0.074 A 
ATOM     66  C   UNL     1      13.918   2.735   5.170  1.00  0.00     0.031 C 
ATOM     67  C   UNL     1      14.451   0.314   5.137  1.00  0.00     0.031 A 
BRANCH  54  68
ATOM     68  C   UNL     1      13.592  -4.885   1.909  1.00  0.00    -0.014 A 
ATOM     69  C   UNL     1      14.402  -5.454   0.913  1.00  0.00     0.009 A 
ATOM     70  C   UNL     1      12.994  -5.728   2.859  1.00  0.00     0.009 A 
ATOM     71  C   UNL     1      14.578  -6.838   0.849  1.00  0.00     0.001 A 
ATOM     72  C   UNL     1      13.199  -7.108   2.812  1.00  0.00     0.001 A 
ATOM     73  C   UNL     1      13.982  -7.663   1.802  1.00  0.00     0.000 A 
ENDBRANCH  54  68
BRANCH  55  74
ATOM     74  C   UNL     1      11.703   4.916   2.322  1.00  0.00    -0.014 A 
ATOM     75  C   UNL     1      12.727   5.869   2.213  1.00  0.00     0.009 A 
ATOM     76  C   UNL     1      10.384   5.357   2.514  1.00  0.00     0.009 A 
ATOM     77  C   UNL     1      12.440   7.232   2.324  1.00  0.00     0.001 A 
ATOM     78  C   UNL     1      10.096   6.721   2.591  1.00  0.00     0.001 A 
ATOM     79  C   UNL     1      11.125   7.657   2.507  1.00  0.00     0.000 A 
ENDBRANCH  55  74
BRANCH  67  80
ATOM     80  C   UNL     1      15.219   0.508   6.415  1.00  0.00    -0.014 A 
ATOM     81  C   UNL     1      14.567   0.788   7.627  1.00  0.00     0.009 A 
ATOM     82  C   UNL     1      16.616   0.367   6.412  1.00  0.00     0.009 A 
ATOM     83  C   UNL     1      15.304   0.958   8.801  1.00  0.00     0.001 A 
ATOM     84  C   UNL     1      17.346   0.504   7.593  1.00  0.00     0.001 A 
ATOM     85  C   UNL     1      16.690   0.810   8.784  1.00  0.00     0.000 A 
ENDBRANCH  67  80
ENDBRANCH  41  42
ENDBRANCH  33  36
ENDBRANCH  31  32
ENDBRANCH  30  31
ENDBRANCH  29  30
ENDBRANCH  28  29
ENDBRANCH   1  28
TORSDOF 19
