REMARK SMILES CC(C)(O)C#Cc1ccc(C(=O)N[C@@H](CC2=c3ccccc3=NC2)C(=O)NCCCCCCNC(=O)c2ccc(-c3c4nc(c(-c5ccccc5)c5ccc([nH]5)c(-c5ccccc5)c5nc(c(-c6ccccc6)c6ccc3[nH]6)C=C5)C=C4)cc2)s1
REMARK SMILES IDX 29 1 28 2 27 3 25 4 26 5 14 7 13 8 11 9 12 10 10 12 7 13
REMARK SMILES IDX 8 14 85 15 9 16 6 17 5 18 2 19 1 20 3 21 4 22 15 24 16 25
REMARK SMILES IDX 17 26 24 27 18 28 22 29 23 30 19 31 21 32 20 33 30 34 31 35
REMARK SMILES IDX 32 36 33 37 34 38 35 39 36 41 37 42 38 43 84 44 39 45 83 46
REMARK SMILES IDX 40 47 41 48 42 49 77 50 43 51 82 52 76 53 78 54 44 55 81 56
REMARK SMILES IDX 75 57 74 58 45 60 67 61 52 62 66 63 53 64 56 65 65 66 79 67
REMARK SMILES IDX 54 68 55 69 64 71 80 72 57 73 46 74 47 75 51 76 48 77 50 78
REMARK SMILES IDX 49 79 68 80 69 81 73 82 70 83 72 84 71 85 58 86 59 87 63 88
REMARK SMILES IDX 60 89 62 90 61 91
REMARK H PARENT 27 6 13 11 4 23 34 40 78 59 56 70
REMARK Flexibility Score: inf
ROOT
ATOM      1  C   UNL     1       1.694 -12.123   1.014  1.00  0.00     0.021 C 
ENDROOT
BRANCH   1   2
ATOM      2  C   UNL     1       0.805 -10.956   1.434  1.00  0.00     0.116 C 
BRANCH   2   3
ATOM      3  N   UNL     1       1.484  -9.684   1.334  1.00  0.00    -0.354 N 
ATOM      4  C   UNL     1       1.236  -8.529   0.674  1.00  0.00     0.242 C 
ATOM      5  O   UNL     1       1.738  -7.542   1.229  1.00  0.00    -0.273 OA
ATOM      6  H   UNL     1       2.313  -9.650   1.865  1.00  0.00     0.163 HD
BRANCH   4   7
ATOM      7  C   UNL     1       0.466  -8.359  -0.679  1.00  0.00     0.175 C 
BRANCH   7   8
ATOM      8  N   UNL     1       1.187  -8.705  -1.914  1.00  0.00    -0.339 N 
ATOM      9  C   UNL     1       2.142  -8.130  -2.710  1.00  0.00     0.262 C 
ATOM     10  O   UNL     1       2.502  -8.805  -3.681  1.00  0.00    -0.268 OA
ATOM     11  H   UNL     1       0.909  -9.584  -2.260  1.00  0.00     0.164 HD
BRANCH   9  12
ATOM     12  C   UNL     1       2.498  -6.748  -2.569  1.00  0.00     0.093 A 
ATOM     13  C   UNL     1       2.132  -4.536  -1.785  1.00  0.00     0.078 A 
ATOM     14  C   UNL     1       2.458  -4.507  -3.122  1.00  0.00     0.030 A 
ATOM     15  S   UNL     1       2.694  -5.969  -1.078  1.00  0.00    -0.121 S 
ATOM     16  C   UNL     1       2.727  -5.833  -3.586  1.00  0.00     0.027 A 
BRANCH  13  17
ATOM     17  C   UNL     1       1.487  -3.537  -1.033  1.00  0.00    -0.053 C 
ATOM     18  C   UNL     1       1.052  -2.548  -0.303  1.00  0.00    -0.063 C 
BRANCH  18  19
ATOM     19  C   UNL     1       0.545  -1.394   0.547  1.00  0.00     0.120 C 
ATOM     20  C   UNL     1       1.028  -0.069  -0.039  1.00  0.00     0.056 C 
ATOM     21  C   UNL     1       1.016  -1.569   1.988  1.00  0.00     0.056 C 
BRANCH  19  22
ATOM     22  O   UNL     1      -0.879  -1.418   0.517  1.00  0.00    -0.378 OA
ATOM     23  H   UNL     1      -1.226  -0.688   1.055  1.00  0.00     0.212 HD
ENDBRANCH  19  22
ENDBRANCH  18  19
ENDBRANCH  13  17
ENDBRANCH   9  12
ENDBRANCH   7   8
BRANCH   7  24
ATOM     24  C   UNL     1      -0.970  -8.917  -0.676  1.00  0.00     0.068 C 
BRANCH  24  25
ATOM     25  C   UNL     1      -1.344 -10.330  -1.078  1.00  0.00    -0.037 C 
ATOM     26  C   UNL     1      -0.737 -11.375  -1.659  1.00  0.00     0.001 A 
ATOM     27  C   UNL     1      -2.750 -10.715  -0.669  1.00  0.00     0.174 C 
ATOM     28  C   UNL     1       0.550 -11.709  -2.202  1.00  0.00     0.010 A 
ATOM     29  C   UNL     1      -1.782 -12.424  -1.593  1.00  0.00     0.065 A 
ATOM     30  N   UNL     1      -2.916 -12.127  -1.042  1.00  0.00    -0.280 NA
ATOM     31  C   UNL     1       0.776 -12.929  -2.711  1.00  0.00     0.001 A 
ATOM     32  C   UNL     1      -1.446 -13.756  -2.139  1.00  0.00     0.028 A 
ATOM     33  C   UNL     1      -0.234 -13.960  -2.676  1.00  0.00     0.002 A 
ENDBRANCH  24  25
ENDBRANCH   7  24
ENDBRANCH   4   7
ENDBRANCH   2   3
ENDBRANCH   1   2
BRANCH   1  34
ATOM     34  C   UNL     1       1.936 -13.155   2.118  1.00  0.00     0.002 C 
BRANCH  34  35
ATOM     35  C   UNL     1       0.685 -13.859   2.660  1.00  0.00     0.002 C 
BRANCH  35  36
ATOM     36  C   UNL     1      -0.214 -14.551   1.630  1.00  0.00     0.021 C 
BRANCH  36  37
ATOM     37  C   UNL     1       0.483 -15.552   0.710  1.00  0.00     0.116 C 
BRANCH  37  38
ATOM     38  N   UNL     1       1.221 -16.592   1.398  1.00  0.00    -0.352 N 
ATOM     39  C   UNL     1       0.900 -17.758   2.037  1.00  0.00     0.251 C 
ATOM     40  H   UNL     1       2.190 -16.417   1.408  1.00  0.00     0.163 HD
ATOM     41  O   UNL     1       1.851 -18.431   2.445  1.00  0.00    -0.269 OA
BRANCH  39  42
ATOM     42  C   UNL     1      -0.482 -18.253   2.300  1.00  0.00     0.039 A 
ATOM     43  C   UNL     1      -1.649 -17.747   1.734  1.00  0.00     0.014 A 
ATOM     44  C   UNL     1      -0.596 -19.343   3.188  1.00  0.00     0.014 A 
ATOM     45  C   UNL     1      -2.892 -18.279   2.080  1.00  0.00     0.010 A 
ATOM     46  C   UNL     1      -1.837 -19.896   3.518  1.00  0.00     0.010 A 
ATOM     47  C   UNL     1      -2.996 -19.352   2.976  1.00  0.00    -0.014 A 
BRANCH  47  48
ATOM     48  C   UNL     1      -4.332 -19.918   3.195  1.00  0.00     0.031 A 
ATOM     49  C   UNL     1      -5.038 -20.404   1.976  1.00  0.00     0.074 A 
ATOM     50  C   UNL     1      -4.934 -20.139   4.382  1.00  0.00     0.049 A 
ATOM     51  N   UNL     1      -6.147 -19.967   1.474  1.00  0.00    -0.248 NA
ATOM     52  C   UNL     1      -4.411 -21.489   1.208  1.00  0.00     0.031 C 
ATOM     53  C   UNL     1      -4.336 -20.084   5.715  1.00  0.00     0.029 A 
ATOM     54  N   UNL     1      -6.221 -20.551   4.626  1.00  0.00    -0.354 N 
ATOM     55  C   UNL     1      -6.449 -20.817   0.413  1.00  0.00     0.074 A 
ATOM     56  C   UNL     1      -5.303 -21.673   0.233  1.00  0.00     0.031 C 
ATOM     57  C   UNL     1      -5.186 -20.649   6.603  1.00  0.00     0.029 A 
ATOM     58  C   UNL     1      -6.441 -20.955   5.931  1.00  0.00     0.049 A 
ATOM     59  H   UNL     1      -6.923 -20.559   3.936  1.00  0.00     0.167 HD
ATOM     60  C   UNL     1      -7.701 -20.890  -0.113  1.00  0.00     0.031 A 
ATOM     61  C   UNL     1      -7.558 -21.520   6.444  1.00  0.00     0.031 A 
ATOM     62  C   UNL     1      -8.539 -19.799   0.303  1.00  0.00     0.049 A 
ATOM     63  C   UNL     1      -8.724 -21.169   5.608  1.00  0.00     0.074 A 
ATOM     64  C   UNL     1      -8.695 -18.468  -0.007  1.00  0.00     0.029 A 
ATOM     65  N   UNL     1      -9.259 -20.039   1.440  1.00  0.00    -0.354 N 
ATOM     66  N   UNL     1      -9.212 -19.966   5.516  1.00  0.00    -0.248 NA
ATOM     67  C   UNL     1      -9.294 -22.144   4.685  1.00  0.00     0.031 C 
ATOM     68  C   UNL     1      -9.356 -17.875   1.110  1.00  0.00     0.029 A 
ATOM     69  C   UNL     1      -9.576 -18.863   2.068  1.00  0.00     0.049 A 
ATOM     70  H   UNL     1      -9.514 -20.934   1.763  1.00  0.00     0.167 HD
ATOM     71  C   UNL     1      -9.816 -19.934   4.277  1.00  0.00     0.074 A 
ATOM     72  C   UNL     1     -10.017 -21.328   3.914  1.00  0.00     0.031 C 
ATOM     73  C   UNL     1      -9.770 -18.811   3.504  1.00  0.00     0.031 A 
BRANCH  60  74
ATOM     74  C   UNL     1      -8.321 -22.154  -0.666  1.00  0.00    -0.014 A 
ATOM     75  C   UNL     1      -7.823 -23.442  -0.397  1.00  0.00     0.009 A 
ATOM     76  C   UNL     1      -9.614 -22.082  -1.223  1.00  0.00     0.009 A 
ATOM     77  C   UNL     1      -8.575 -24.594  -0.654  1.00  0.00     0.001 A 
ATOM     78  C   UNL     1     -10.384 -23.231  -1.445  1.00  0.00     0.001 A 
ATOM     79  C   UNL     1      -9.865 -24.487  -1.156  1.00  0.00     0.000 A 
ENDBRANCH  60  74
BRANCH  61  80
ATOM     80  C   UNL     1      -7.683 -22.462   7.574  1.00  0.00    -0.014 A 
ATOM     81  C   UNL     1      -6.657 -23.386   7.840  1.00  0.00     0.009 A 
ATOM     82  C   UNL     1      -8.914 -22.639   8.227  1.00  0.00     0.009 A 
ATOM     83  C   UNL     1      -6.864 -24.470   8.697  1.00  0.00     0.001 A 
ATOM     84  C   UNL     1      -9.124 -23.730   9.078  1.00  0.00     0.001 A 
ATOM     85  C   UNL     1      -8.104 -24.652   9.302  1.00  0.00     0.000 A 
ENDBRANCH  61  80
BRANCH  73  86
ATOM     86  C   UNL     1      -9.624 -17.483   4.195  1.00  0.00    -0.014 A 
ATOM     87  C   UNL     1     -10.579 -16.487   3.932  1.00  0.00     0.009 A 
ATOM     88  C   UNL     1      -8.547 -17.164   5.038  1.00  0.00     0.009 A 
ATOM     89  C   UNL     1     -10.467 -15.216   4.500  1.00  0.00     0.001 A 
ATOM     90  C   UNL     1      -8.452 -15.902   5.632  1.00  0.00     0.001 A 
ATOM     91  C   UNL     1      -9.409 -14.928   5.358  1.00  0.00     0.000 A 
ENDBRANCH  73  86
ENDBRANCH  47  48
ENDBRANCH  39  42
ENDBRANCH  37  38
ENDBRANCH  36  37
ENDBRANCH  35  36
ENDBRANCH  34  35
ENDBRANCH   1  34
TORSDOF 20
