REMARK SMILES Cc1ccc(-c2cc(Cl)ccc2Cl)c(C(=O)NCCCCCCNC(=O)c2ccc(-c3c4nc(c(-c5ccccc5)c5ccc([nH]5)c(-c5ccccc5)c5nc(c(-c6ccccc6)c6ccc3[nH]6)C=C5)C=C4)cc2)c1
REMARK SMILES IDX 21 1 20 2 19 3 18 4 17 5 15 6 16 7 14 9 1 10 2 11 3 12 75 13
REMARK SMILES IDX 4 14 5 15 6 16 7 17 12 18 8 19 11 20 13 21 9 22 10 23 22 24
REMARK SMILES IDX 23 25 24 26 25 27 26 29 27 30 28 31 74 32 29 33 73 34 30 35
REMARK SMILES IDX 31 36 32 37 67 38 33 39 72 40 66 41 68 42 34 43 71 44 65 45
REMARK SMILES IDX 64 46 35 48 57 49 42 50 56 51 43 52 46 53 55 54 69 55 44 56
REMARK SMILES IDX 45 57 54 59 70 60 47 61 36 62 37 63 41 64 38 65 40 66 39 67
REMARK SMILES IDX 58 68 59 69 63 70 60 71 62 72 61 73 48 74 49 75 53 76 50 77
REMARK SMILES IDX 52 78 51 79
REMARK H PARENT 17 8 24 28 68 47 46 58
REMARK Flexibility Score: inf
ROOT
ATOM      1  C   UNL     1       0.444   7.064   0.256  1.00  0.00     0.002 C 
ENDROOT
BRANCH   1   2
ATOM      2  C   UNL     1       0.314   6.111  -0.945  1.00  0.00     0.002 C 
BRANCH   2   3
ATOM      3  C   UNL     1       0.797   4.665  -0.728  1.00  0.00     0.021 C 
BRANCH   3   4
ATOM      4  C   UNL     1       0.186   3.965   0.490  1.00  0.00     0.116 C 
BRANCH   4   5
ATOM      5  N   UNL     1      -1.175   3.555   0.218  1.00  0.00    -0.352 N 
ATOM      6  C   UNL     1      -1.812   2.373  -0.057  1.00  0.00     0.251 C 
ATOM      7  O   UNL     1      -3.030   2.496  -0.192  1.00  0.00    -0.269 OA
ATOM      8  H   UNL     1      -1.799   4.316   0.234  1.00  0.00     0.163 HD
BRANCH   6   9
ATOM      9  C   UNL     1      -1.146   1.020  -0.155  1.00  0.00     0.047 A 
ATOM     10  C   UNL     1       2.398  -0.427  -0.358  1.00  0.00     0.044 C 
ATOM     11  C   UNL     1       0.902  -0.341  -0.270  1.00  0.00    -0.050 A 
ATOM     12  C   UNL     1       0.149  -1.500  -0.116  1.00  0.00     0.004 A 
ATOM     13  C   UNL     1       0.242   0.897  -0.346  1.00  0.00     0.018 A 
ATOM     14  C   UNL     1      -1.239  -1.419  -0.046  1.00  0.00     0.010 A 
ATOM     15  C   UNL     1      -1.914  -0.176  -0.059  1.00  0.00    -0.004 A 
BRANCH  15  16
ATOM     16  C   UNL     1      -3.394  -0.220  -0.030  1.00  0.00     0.003 A 
ATOM     17  C   UNL     1      -4.107   0.120  -1.201  1.00  0.00     0.030 A 
ATOM     18  C   UNL     1      -4.138  -0.594   1.105  1.00  0.00     0.049 A 
ATOM     19  C   UNL     1      -5.500   0.149  -1.212  1.00  0.00     0.041 A 
ATOM     20  C   UNL     1      -5.539  -0.597   1.076  1.00  0.00     0.023 A 
ATOM     21  Cl  UNL     1      -3.377  -1.057   2.590  1.00  0.00    -0.084 Cl
ATOM     22  Cl  UNL     1      -6.334   0.652  -2.631  1.00  0.00    -0.084 Cl
ATOM     23  C   UNL     1      -6.220  -0.213  -0.079  1.00  0.00     0.022 A 
ENDBRANCH  15  16
ENDBRANCH   6   9
ENDBRANCH   4   5
ENDBRANCH   3   4
ENDBRANCH   2   3
ENDBRANCH   1   2
BRANCH   1  24
ATOM     24  C   UNL     1       1.779   7.025   1.006  1.00  0.00     0.021 C 
BRANCH  24  25
ATOM     25  C   UNL     1       2.945   7.610   0.220  1.00  0.00     0.116 C 
BRANCH  25  26
ATOM     26  N   UNL     1       3.385   8.913   0.710  1.00  0.00    -0.352 N 
ATOM     27  C   UNL     1       4.313   9.784   0.162  1.00  0.00     0.251 C 
ATOM     28  H   UNL     1       2.964   9.214   1.548  1.00  0.00     0.163 HD
ATOM     29  O   UNL     1       4.558  10.850   0.692  1.00  0.00    -0.269 OA
BRANCH  27  30
ATOM     30  C   UNL     1       4.899   9.450  -1.159  1.00  0.00     0.039 A 
ATOM     31  C   UNL     1       4.784  10.405  -2.173  1.00  0.00     0.014 A 
ATOM     32  C   UNL     1       5.319   8.154  -1.450  1.00  0.00     0.014 A 
ATOM     33  C   UNL     1       4.831   9.990  -3.500  1.00  0.00     0.010 A 
ATOM     34  C   UNL     1       5.287   7.724  -2.763  1.00  0.00     0.010 A 
ATOM     35  C   UNL     1       4.956   8.626  -3.777  1.00  0.00    -0.014 A 
BRANCH  35  36
ATOM     36  C   UNL     1       4.595   8.065  -5.073  1.00  0.00     0.031 A 
ATOM     37  C   UNL     1       5.643   7.690  -6.047  1.00  0.00     0.074 A 
ATOM     38  C   UNL     1       3.293   7.914  -5.418  1.00  0.00     0.049 A 
ATOM     39  N   UNL     1       5.489   7.786  -7.327  1.00  0.00    -0.248 NA
ATOM     40  C   UNL     1       6.962   7.200  -5.657  1.00  0.00     0.031 C 
ATOM     41  C   UNL     1       2.785   7.250  -6.620  1.00  0.00     0.029 A 
ATOM     42  N   UNL     1       2.138   8.466  -4.864  1.00  0.00    -0.354 N 
ATOM     43  C   UNL     1       6.526   7.104  -7.912  1.00  0.00     0.074 A 
ATOM     44  C   UNL     1       7.465   6.840  -6.844  1.00  0.00     0.031 C 
ATOM     45  C   UNL     1       1.554   7.721  -6.878  1.00  0.00     0.029 A 
ATOM     46  C   UNL     1       1.303   8.798  -5.940  1.00  0.00     0.049 A 
ATOM     47  H   UNL     1       1.947   8.597  -3.907  1.00  0.00     0.167 HD
ATOM     48  C   UNL     1       6.430   6.693  -9.206  1.00  0.00     0.031 A 
ATOM     49  C   UNL     1       0.927  10.066  -6.282  1.00  0.00     0.031 A 
ATOM     50  C   UNL     1       5.161   7.056  -9.830  1.00  0.00     0.049 A 
ATOM     51  C   UNL     1       1.268  10.455  -7.718  1.00  0.00     0.074 A 
ATOM     52  C   UNL     1       4.012   6.351 -10.153  1.00  0.00     0.029 A 
ATOM     53  N   UNL     1       4.835   8.396  -9.966  1.00  0.00    -0.354 N 
ATOM     54  N   UNL     1       1.945   9.708  -8.546  1.00  0.00    -0.248 NA
ATOM     55  C   UNL     1       0.984  11.774  -8.286  1.00  0.00     0.031 C 
ATOM     56  C   UNL     1       3.000   7.284 -10.513  1.00  0.00     0.029 A 
ATOM     57  C   UNL     1       3.538   8.552 -10.416  1.00  0.00     0.049 A 
ATOM     58  H   UNL     1       5.448   9.140  -9.767  1.00  0.00     0.167 HD
ATOM     59  C   UNL     1       2.245  10.418  -9.684  1.00  0.00     0.074 A 
ATOM     60  C   UNL     1       1.614  11.708  -9.473  1.00  0.00     0.031 C 
ATOM     61  C   UNL     1       3.036   9.896 -10.670  1.00  0.00     0.031 A 
BRANCH  48  62
ATOM     62  C   UNL     1       7.409   5.715  -9.797  1.00  0.00    -0.014 A 
ATOM     63  C   UNL     1       6.962   4.716 -10.679  1.00  0.00     0.009 A 
ATOM     64  C   UNL     1       8.780   5.714  -9.489  1.00  0.00     0.009 A 
ATOM     65  C   UNL     1       7.813   3.704 -11.140  1.00  0.00     0.001 A 
ATOM     66  C   UNL     1       9.628   4.682  -9.913  1.00  0.00     0.001 A 
ATOM     67  C   UNL     1       9.139   3.668 -10.729  1.00  0.00     0.000 A 
ENDBRANCH  48  62
BRANCH  49  68
ATOM     68  C   UNL     1       0.887  11.031  -5.152  1.00  0.00    -0.014 A 
ATOM     69  C   UNL     1      -0.090  10.861  -4.154  1.00  0.00     0.009 A 
ATOM     70  C   UNL     1       1.967  11.886  -4.896  1.00  0.00     0.009 A 
ATOM     71  C   UNL     1       0.072  11.438  -2.891  1.00  0.00     0.001 A 
ATOM     72  C   UNL     1       2.119  12.471  -3.634  1.00  0.00     0.001 A 
ATOM     73  C   UNL     1       1.193  12.218  -2.623  1.00  0.00     0.000 A 
ENDBRANCH  49  68
BRANCH  61  74
ATOM     74  C   UNL     1       3.474  10.583 -11.950  1.00  0.00    -0.014 A 
ATOM     75  C   UNL     1       2.815  11.663 -12.546  1.00  0.00     0.009 A 
ATOM     76  C   UNL     1       4.589  10.072 -12.660  1.00  0.00     0.009 A 
ATOM     77  C   UNL     1       3.294  12.254 -13.728  1.00  0.00     0.001 A 
ATOM     78  C   UNL     1       5.060  10.642 -13.845  1.00  0.00     0.001 A 
ATOM     79  C   UNL     1       4.420  11.751 -14.371  1.00  0.00     0.000 A 
ENDBRANCH  61  74
ENDBRANCH  35  36
ENDBRANCH  27  30
ENDBRANCH  25  26
ENDBRANCH  24  25
ENDBRANCH   1  24
TORSDOF 14
