REMARK SMILES COc1cccc(N2/C(=[NH+]/C(=O)CCC(=O)NCCCCCCNC(=O)c3ccc(-c4c5nc(c(-c6ccccc6)c6ccc([nH]6)c(-c6ccccc6)c6nc(c(-c7ccccc7)c7ccc4[nH]7)C=C6)C=C5)cc3)S[C@@H]3CS(=O)(=O)C[C@H]32)c1
REMARK SMILES IDX 19 1 18 2 17 3 15 4 16 5 14 7 13 8 11 9 8 10 9 11 82 12
REMARK SMILES IDX 10 13 75 14 76 15 81 16 77 18 78 19 12 20 79 21 80 22 7 23
REMARK SMILES IDX 3 24 4 25 83 26 5 27 6 28 2 29 1 30 20 31 21 32 22 33 23 34
REMARK SMILES IDX 24 35 25 36 26 38 27 39 28 40 74 41 29 42 73 43 30 44 31 45
REMARK SMILES IDX 32 46 67 47 33 48 72 49 66 50 68 51 34 52 71 53 65 54 64 55
REMARK SMILES IDX 35 57 57 58 42 59 56 60 43 61 46 62 55 63 69 64 44 65 45 66
REMARK SMILES IDX 54 68 70 69 47 70 36 71 37 72 41 73 38 74 40 75 39 76 58 77
REMARK SMILES IDX 59 78 63 79 60 80 62 81 61 82 48 83 49 84 53 85 50 86 52 87
REMARK SMILES IDX 51 88
REMARK H PARENT 17 6 10 17 24 37 68 56 46 67
REMARK Flexibility Score: inf
ROOT
ATOM      1  C   UNL     1       5.652  -1.076  -2.062  1.00  0.00     0.021 C 
ENDROOT
BRANCH   1   2
ATOM      2  C   UNL     1       5.771  -0.930  -0.524  1.00  0.00     0.116 C 
BRANCH   2   3
ATOM      3  N   UNL     1       4.681  -1.516   0.253  1.00  0.00    -0.356 N 
ATOM      4  C   UNL     1       4.570  -2.632   1.025  1.00  0.00     0.220 C 
ATOM      5  O   UNL     1       3.504  -2.811   1.619  1.00  0.00    -0.275 OA
ATOM      6  H   UNL     1       3.849  -0.991   0.209  1.00  0.00     0.163 HD
BRANCH   4   7
ATOM      7  C   UNL     1       5.684  -3.645   1.150  1.00  0.00     0.112 C 
BRANCH   7   8
ATOM      8  C   UNL     1       5.265  -4.950   0.478  1.00  0.00     0.138 C 
BRANCH   8   9
ATOM      9  C   UNL     1       5.436  -4.728  -0.993  1.00  0.00     0.308 C 
ATOM     10  N   UNL     1       3.278  -4.080  -3.856  1.00  0.00    -0.216 N 
ATOM     11  C   UNL     1       4.229  -4.574  -2.950  1.00  0.00     0.319 C 
ATOM     12  C   UNL     1       3.976  -3.666  -5.084  1.00  0.00     0.212 C 
ATOM     13  N   UNL     1       4.272  -4.440  -1.669  1.00  0.00    -0.204 N 
ATOM     14  S   UNL     1       5.523  -5.409  -3.881  1.00  0.00    -0.029 SA
ATOM     15  C   UNL     1       4.870  -4.862  -5.439  1.00  0.00     0.120 C 
ATOM     16  C   UNL     1       3.341  -3.296  -6.402  1.00  0.00     0.188 C 
ATOM     17  H   UNL     1       3.476  -4.134  -1.176  1.00  0.00     0.316 HD
ATOM     18  C   UNL     1       5.869  -4.328  -6.416  1.00  0.00     0.156 C 
ATOM     19  S   UNL     1       4.798  -3.447  -7.510  1.00  0.00     0.155 S 
ATOM     20  O   UNL     1       6.580  -4.586  -1.427  1.00  0.00    -0.247 OA
ATOM     21  O   UNL     1       4.460  -4.292  -8.627  1.00  0.00    -0.229 OA
ATOM     22  O   UNL     1       5.460  -2.170  -7.669  1.00  0.00    -0.229 OA
BRANCH  10  23
ATOM     23  C   UNL     1       1.990  -3.609  -3.549  1.00  0.00     0.132 A 
ATOM     24  C   UNL     1       0.369  -2.404  -2.143  1.00  0.00     0.123 A 
ATOM     25  C   UNL     1      -0.674  -2.849  -2.950  1.00  0.00     0.047 A 
ATOM     26  C   UNL     1       1.684  -2.815  -2.422  1.00  0.00     0.098 A 
ATOM     27  C   UNL     1      -0.409  -3.661  -4.046  1.00  0.00     0.008 A 
ATOM     28  C   UNL     1       0.908  -4.022  -4.346  1.00  0.00     0.052 A 
BRANCH  24  29
ATOM     29  O   UNL     1      -0.037  -1.670  -1.062  1.00  0.00    -0.497 OA
ATOM     30  C   UNL     1       0.811  -0.611  -0.640  1.00  0.00     0.278 C 
ENDBRANCH  24  29
ENDBRANCH  10  23
ENDBRANCH   8   9
ENDBRANCH   7   8
ENDBRANCH   4   7
ENDBRANCH   2   3
ENDBRANCH   1   2
BRANCH   1  31
ATOM     31  C   UNL     1       4.324  -0.634  -2.714  1.00  0.00     0.002 C 
BRANCH  31  32
ATOM     32  C   UNL     1       4.213   0.606  -3.635  1.00  0.00     0.002 C 
BRANCH  32  33
ATOM     33  C   UNL     1       5.180   0.834  -4.820  1.00  0.00     0.021 C 
BRANCH  33  34
ATOM     34  C   UNL     1       4.860   0.224  -6.210  1.00  0.00     0.116 C 
BRANCH  34  35
ATOM     35  N   UNL     1       3.660   0.664  -6.926  1.00  0.00    -0.352 N 
ATOM     36  C   UNL     1       3.314   0.494  -8.271  1.00  0.00     0.251 C 
ATOM     37  H   UNL     1       3.000   1.152  -6.381  1.00  0.00     0.163 HD
ATOM     38  O   UNL     1       2.128   0.550  -8.591  1.00  0.00    -0.269 OA
BRANCH  36  39
ATOM     39  C   UNL     1       4.312   0.211  -9.343  1.00  0.00     0.039 A 
ATOM     40  C   UNL     1       5.078   1.210  -9.929  1.00  0.00     0.014 A 
ATOM     41  C   UNL     1       4.432  -1.070  -9.873  1.00  0.00     0.014 A 
ATOM     42  C   UNL     1       6.088   0.871 -10.859  1.00  0.00     0.010 A 
ATOM     43  C   UNL     1       5.577  -1.428 -10.617  1.00  0.00     0.010 A 
ATOM     44  C   UNL     1       6.478  -0.469 -11.088  1.00  0.00    -0.014 A 
BRANCH  44  45
ATOM     45  C   UNL     1       7.839  -0.796 -11.693  1.00  0.00     0.031 A 
ATOM     46  C   UNL     1       8.096  -1.906 -12.712  1.00  0.00     0.074 A 
ATOM     47  C   UNL     1       8.933  -0.118 -11.255  1.00  0.00     0.049 A 
ATOM     48  N   UNL     1       9.213  -2.199 -13.352  1.00  0.00    -0.248 NA
ATOM     49  C   UNL     1       7.002  -2.837 -13.021  1.00  0.00     0.031 C 
ATOM     50  C   UNL     1       8.948   0.848 -10.151  1.00  0.00     0.029 A 
ATOM     51  N   UNL     1      10.245  -0.108 -11.690  1.00  0.00    -0.354 N 
ATOM     52  C   UNL     1       8.952  -3.345 -14.104  1.00  0.00     0.074 A 
ATOM     53  C   UNL     1       7.603  -3.744 -13.778  1.00  0.00     0.031 C 
ATOM     54  C   UNL     1      10.144   1.448 -10.088  1.00  0.00     0.029 A 
ATOM     55  C   UNL     1      11.025   0.857 -11.085  1.00  0.00     0.049 A 
ATOM     56  H   UNL     1      10.591  -0.731 -12.370  1.00  0.00     0.167 HD
ATOM     57  C   UNL     1       9.727  -3.992 -15.015  1.00  0.00     0.031 A 
ATOM     58  C   UNL     1      12.298   1.252 -11.296  1.00  0.00     0.031 A 
ATOM     59  C   UNL     1      11.067  -3.603 -15.377  1.00  0.00     0.049 A 
ATOM     60  C   UNL     1      13.119   0.576 -12.356  1.00  0.00     0.074 A 
ATOM     61  C   UNL     1      11.885  -4.131 -16.365  1.00  0.00     0.029 A 
ATOM     62  N   UNL     1      11.791  -2.596 -14.762  1.00  0.00    -0.354 N 
ATOM     63  N   UNL     1      12.784  -0.401 -13.161  1.00  0.00    -0.248 NA
ATOM     64  C   UNL     1      14.494   1.065 -12.544  1.00  0.00     0.031 C 
ATOM     65  C   UNL     1      13.122  -3.482 -16.308  1.00  0.00     0.029 A 
ATOM     66  C   UNL     1      13.052  -2.504 -15.331  1.00  0.00     0.049 A 
ATOM     67  H   UNL     1      11.459  -2.029 -14.029  1.00  0.00     0.167 HD
ATOM     68  C   UNL     1      13.894  -0.627 -13.964  1.00  0.00     0.074 A 
ATOM     69  C   UNL     1      14.903   0.332 -13.570  1.00  0.00     0.031 C 
ATOM     70  C   UNL     1      14.059  -1.553 -14.939  1.00  0.00     0.031 A 
BRANCH  57  71
ATOM     71  C   UNL     1       9.130  -5.187 -15.729  1.00  0.00    -0.014 A 
ATOM     72  C   UNL     1       8.047  -5.037 -16.612  1.00  0.00     0.009 A 
ATOM     73  C   UNL     1       9.689  -6.466 -15.569  1.00  0.00     0.009 A 
ATOM     74  C   UNL     1       7.499  -6.143 -17.268  1.00  0.00     0.001 A 
ATOM     75  C   UNL     1       9.164  -7.566 -16.256  1.00  0.00     0.001 A 
ATOM     76  C   UNL     1       8.060  -7.406 -17.092  1.00  0.00     0.000 A 
ENDBRANCH  57  71
BRANCH  58  77
ATOM     77  C   UNL     1      12.873   2.385 -10.513  1.00  0.00    -0.014 A 
ATOM     78  C   UNL     1      13.170   3.607 -11.141  1.00  0.00     0.009 A 
ATOM     79  C   UNL     1      13.136   2.255  -9.140  1.00  0.00     0.009 A 
ATOM     80  C   UNL     1      13.743   4.659 -10.419  1.00  0.00     0.001 A 
ATOM     81  C   UNL     1      13.674   3.321  -8.413  1.00  0.00     0.001 A 
ATOM     82  C   UNL     1      13.988   4.517  -9.055  1.00  0.00     0.000 A 
ENDBRANCH  58  77
BRANCH  70  83
ATOM     83  C   UNL     1      15.369  -1.560 -15.676  1.00  0.00    -0.014 A 
ATOM     84  C   UNL     1      16.556  -1.980 -15.056  1.00  0.00     0.009 A 
ATOM     85  C   UNL     1      15.408  -1.180 -17.027  1.00  0.00     0.009 A 
ATOM     86  C   UNL     1      17.760  -1.986 -15.764  1.00  0.00     0.001 A 
ATOM     87  C   UNL     1      16.606  -1.219 -17.742  1.00  0.00     0.001 A 
ATOM     88  C   UNL     1      17.783  -1.613 -17.108  1.00  0.00     0.000 A 
ENDBRANCH  70  83
ENDBRANCH  44  45
ENDBRANCH  36  39
ENDBRANCH  34  35
ENDBRANCH  33  34
ENDBRANCH  32  33
ENDBRANCH  31  32
ENDBRANCH   1  31
TORSDOF 17
