REMARK SMILES O=C(NCCCCCCNC(=O)[C@@H]1CSc2ccccc21)c1ccc(-c2c3nc(c(-c4ccccc4)c4ccc([nH]4)c(-c4ccccc4)c4nc(c(-c5ccccc5)c5ccc2[nH]5)C=C4)C=C3)cc1
REMARK SMILES IDX 5 1 4 2 3 3 1 4 2 5 22 7 23 8 69 9 24 10 68 11 25 12 26 13
REMARK SMILES IDX 27 14 62 15 28 16 67 17 61 18 63 19 29 20 66 21 60 22 59 23
REMARK SMILES IDX 30 25 52 26 37 27 51 28 38 29 41 30 50 31 64 32 39 33 40 34
REMARK SMILES IDX 49 36 65 37 42 38 31 39 32 40 36 41 33 42 35 43 34 44 53 45
REMARK SMILES IDX 54 46 58 47 55 48 57 49 56 50 43 51 44 52 48 53 45 54 47 55
REMARK SMILES IDX 46 56 6 57 7 58 8 59 9 60 10 61 11 62 12 64 13 65 14 66
REMARK SMILES IDX 21 67 15 68 16 69 20 70 17 71 19 72 18 73
REMARK H PARENT 3 6 63 24 41 35 10 63
REMARK Flexibility Score: inf
ROOT
ATOM      1  C   UNL     1       7.165  10.251  -1.813  1.00  0.00     0.021 C 
ENDROOT
BRANCH   1   2
ATOM      2  C   UNL     1       7.686  11.662  -2.070  1.00  0.00     0.116 C 
BRANCH   2   3
ATOM      3  N   UNL     1       8.150  11.831  -3.436  1.00  0.00    -0.352 N 
ATOM      4  O   UNL     1       8.227  12.734  -5.497  1.00  0.00    -0.269 OA
ATOM      5  C   UNL     1       7.899  12.849  -4.317  1.00  0.00     0.251 C 
ATOM      6  H   UNL     1       8.728  11.111  -3.777  1.00  0.00     0.163 HD
BRANCH   5   7
ATOM      7  C   UNL     1       7.230  14.087  -3.864  1.00  0.00     0.039 A 
ATOM      8  C   UNL     1       6.248  14.656  -4.681  1.00  0.00     0.014 A 
ATOM      9  C   UNL     1       7.614  14.724  -2.679  1.00  0.00     0.014 A 
ATOM     10  C   UNL     1       5.639  15.854  -4.306  1.00  0.00     0.010 A 
ATOM     11  C   UNL     1       6.970  15.893  -2.280  1.00  0.00     0.010 A 
ATOM     12  C   UNL     1       5.995  16.479  -3.101  1.00  0.00    -0.014 A 
BRANCH  12  13
ATOM     13  C   UNL     1       5.401  17.780  -2.713  1.00  0.00     0.031 A 
ATOM     14  C   UNL     1       6.252  19.019  -2.715  1.00  0.00     0.074 A 
ATOM     15  C   UNL     1       4.116  17.845  -2.321  1.00  0.00     0.049 A 
ATOM     16  N   UNL     1       5.935  20.237  -2.357  1.00  0.00    -0.248 NA
ATOM     17  C   UNL     1       7.646  18.865  -3.161  1.00  0.00     0.031 C 
ATOM     18  C   UNL     1       3.191  16.712  -2.267  1.00  0.00     0.029 A 
ATOM     19  N   UNL     1       3.368  18.912  -1.891  1.00  0.00    -0.354 N 
ATOM     20  C   UNL     1       7.093  20.987  -2.513  1.00  0.00     0.074 A 
ATOM     21  C   UNL     1       8.129  20.084  -2.963  1.00  0.00     0.031 C 
ATOM     22  C   UNL     1       1.992  17.149  -1.850  1.00  0.00     0.029 A 
ATOM     23  C   UNL     1       2.074  18.581  -1.573  1.00  0.00     0.049 A 
ATOM     24  H   UNL     1       3.725  19.826  -1.817  1.00  0.00     0.167 HD
ATOM     25  C   UNL     1       7.272  22.314  -2.316  1.00  0.00     0.031 A 
ATOM     26  C   UNL     1       1.066  19.343  -1.105  1.00  0.00     0.031 A 
ATOM     27  C   UNL     1       6.235  23.216  -1.897  1.00  0.00     0.049 A 
ATOM     28  C   UNL     1       1.295  20.807  -0.862  1.00  0.00     0.074 A 
ATOM     29  C   UNL     1       6.300  24.590  -1.754  1.00  0.00     0.029 A 
ATOM     30  N   UNL     1       4.949  22.834  -1.550  1.00  0.00    -0.354 N 
ATOM     31  N   UNL     1       2.381  21.513  -1.064  1.00  0.00    -0.248 NA
ATOM     32  C   UNL     1       0.165  21.579  -0.324  1.00  0.00     0.031 C 
ATOM     33  C   UNL     1       5.068  25.035  -1.266  1.00  0.00     0.029 A 
ATOM     34  C   UNL     1       4.221  23.942  -1.155  1.00  0.00     0.049 A 
ATOM     35  H   UNL     1       4.605  21.912  -1.580  1.00  0.00     0.167 HD
ATOM     36  C   UNL     1       2.065  22.812  -0.689  1.00  0.00     0.074 A 
ATOM     37  C   UNL     1       0.682  22.800  -0.257  1.00  0.00     0.031 C 
ATOM     38  C   UNL     1       2.853  23.914  -0.707  1.00  0.00     0.031 A 
BRANCH  25  39
ATOM     39  C   UNL     1       8.648  22.873  -2.543  1.00  0.00    -0.014 A 
ATOM     40  C   UNL     1       9.406  23.320  -1.450  1.00  0.00     0.009 A 
ATOM     41  C   UNL     1       9.174  23.010  -3.837  1.00  0.00     0.009 A 
ATOM     42  C   UNL     1      10.665  23.890  -1.646  1.00  0.00     0.001 A 
ATOM     43  C   UNL     1      10.444  23.556  -4.029  1.00  0.00     0.001 A 
ATOM     44  C   UNL     1      11.185  24.001  -2.934  1.00  0.00     0.000 A 
ENDBRANCH  25  39
BRANCH  26  45
ATOM     45  C   UNL     1      -0.257  18.716  -0.861  1.00  0.00    -0.014 A 
ATOM     46  C   UNL     1      -0.451  17.859   0.234  1.00  0.00     0.009 A 
ATOM     47  C   UNL     1      -1.308  18.914  -1.767  1.00  0.00     0.009 A 
ATOM     48  C   UNL     1      -1.666  17.192   0.402  1.00  0.00     0.001 A 
ATOM     49  C   UNL     1      -2.529  18.259  -1.585  1.00  0.00     0.001 A 
ATOM     50  C   UNL     1      -2.704  17.392  -0.507  1.00  0.00     0.000 A 
ENDBRANCH  26  45
BRANCH  38  51
ATOM     51  C   UNL     1       2.259  25.209  -0.236  1.00  0.00    -0.014 A 
ATOM     52  C   UNL     1       1.965  26.222  -1.163  1.00  0.00     0.009 A 
ATOM     53  C   UNL     1       2.101  25.469   1.133  1.00  0.00     0.009 A 
ATOM     54  C   UNL     1       1.542  27.479  -0.726  1.00  0.00     0.001 A 
ATOM     55  C   UNL     1       1.656  26.720   1.566  1.00  0.00     0.001 A 
ATOM     56  C   UNL     1       1.388  27.726   0.637  1.00  0.00     0.000 A 
ENDBRANCH  38  51
ENDBRANCH  12  13
ENDBRANCH   5   7
ENDBRANCH   2   3
ENDBRANCH   1   2
BRANCH   1  57
ATOM     57  C   UNL     1       8.210   9.142  -1.958  1.00  0.00     0.002 C 
BRANCH  57  58
ATOM     58  C   UNL     1       9.436   9.277  -1.050  1.00  0.00     0.002 C 
BRANCH  58  59
ATOM     59  C   UNL     1       9.131   9.376   0.452  1.00  0.00     0.021 C 
BRANCH  59  60
ATOM     60  C   UNL     1       8.302   8.217   1.008  1.00  0.00     0.116 C 
BRANCH  60  61
ATOM     61  N   UNL     1       8.995   6.955   0.839  1.00  0.00    -0.356 N 
ATOM     62  C   UNL     1       9.486   6.085   1.768  1.00  0.00     0.228 C 
ATOM     63  H   UNL     1       9.134   6.683  -0.096  1.00  0.00     0.163 HD
ATOM     64  O   UNL     1      10.123   5.120   1.347  1.00  0.00    -0.274 OA
BRANCH  62  65
ATOM     65  C   UNL     1       9.187   6.322   3.247  1.00  0.00     0.120 C 
ATOM     66  C   UNL     1      10.003   7.512   3.783  1.00  0.00     0.093 C 
ATOM     67  C   UNL     1       9.478   5.121   4.115  1.00  0.00    -0.021 A 
ATOM     68  S   UNL     1      11.056   6.968   5.160  1.00  0.00    -0.125 SA
ATOM     69  C   UNL     1      10.421   5.324   5.120  1.00  0.00     0.011 A 
ATOM     70  C   UNL     1       8.886   3.867   3.960  1.00  0.00     0.006 A 
ATOM     71  C   UNL     1      10.796   4.295   5.971  1.00  0.00     0.015 A 
ATOM     72  C   UNL     1       9.262   2.824   4.807  1.00  0.00     0.000 A 
ATOM     73  C   UNL     1      10.214   3.036   5.809  1.00  0.00     0.001 A 
ENDBRANCH  62  65
ENDBRANCH  60  61
ENDBRANCH  59  60
ENDBRANCH  58  59
ENDBRANCH  57  58
ENDBRANCH   1  57
TORSDOF 13
