REMARK SMILES Cc1ccc(C(=O)N2CCCC[C@@H]2C(=O)NCCCCCCNC(=O)c2ccc(-c3c4nc(c(-c5ccccc5)c5ccc([nH]5)c(-c5ccccc5)c5nc(c(-c6ccccc6)c6ccc3[nH]6)C=C5)C=C4)cc2)cc1S(=O)(=O)N1CCCCC1
REMARK SMILES IDX 18 1 17 2 16 3 14 4 15 5 13 7 8 8 9 9 10 10 12 11 11 12 6 13
REMARK SMILES IDX 7 14 5 15 1 16 2 17 3 18 75 19 4 20 74 21 76 22 77 23 78 24
REMARK SMILES IDX 79 25 80 26 84 27 81 28 83 29 82 30 19 31 20 32 21 33 22 34
REMARK SMILES IDX 23 35 24 36 25 38 26 39 27 40 73 41 28 42 72 43 29 44 30 45
REMARK SMILES IDX 31 46 66 47 32 48 71 49 65 50 67 51 33 52 70 53 64 54 63 55
REMARK SMILES IDX 34 57 56 58 41 59 55 60 42 61 45 62 54 63 68 64 43 65 44 66
REMARK SMILES IDX 53 68 69 69 46 70 35 71 36 72 40 73 37 74 39 75 38 76 57 77
REMARK SMILES IDX 58 78 62 79 59 80 61 81 60 82 47 83 48 84 52 85 49 86 51 87
REMARK SMILES IDX 50 88
REMARK H PARENT 16 6 23 37 67 56 45 67
REMARK Flexibility Score: inf
ROOT
ATOM      1  C   UNL     1      -5.603  -0.502  -3.756  1.00  0.00     0.021 C 
ENDROOT
BRANCH   1   2
ATOM      2  C   UNL     1      -4.799  -0.339  -2.466  1.00  0.00     0.116 C 
BRANCH   2   3
ATOM      3  N   UNL     1      -3.515   0.263  -2.757  1.00  0.00    -0.354 N 
ATOM      4  C   UNL     1      -2.995   1.444  -2.327  1.00  0.00     0.242 C 
ATOM      5  O   UNL     1      -2.010   1.881  -2.928  1.00  0.00    -0.273 OA
ATOM      6  H   UNL     1      -2.932  -0.260  -3.353  1.00  0.00     0.163 HD
BRANCH   4   7
ATOM      7  C   UNL     1      -3.672   2.263  -1.204  1.00  0.00     0.174 C 
ATOM      8  N   UNL     1      -4.072   1.458  -0.017  1.00  0.00    -0.327 N 
ATOM      9  C   UNL     1      -4.983   2.095   0.925  1.00  0.00     0.120 C 
ATOM     10  C   UNL     1      -6.216   2.658   0.252  1.00  0.00     0.022 C 
ATOM     11  C   UNL     1      -4.879   2.991  -1.845  1.00  0.00     0.035 C 
ATOM     12  C   UNL     1      -5.815   3.643  -0.836  1.00  0.00     0.004 C 
BRANCH   8  13
ATOM     13  C   UNL     1      -3.389   0.353   0.501  1.00  0.00     0.254 C 
ATOM     14  O   UNL     1      -3.947  -0.468   1.231  1.00  0.00    -0.269 OA
BRANCH  13  15
ATOM     15  C   UNL     1      -1.952   0.133   0.225  1.00  0.00     0.041 A 
ATOM     16  C   UNL     1       2.230  -0.852  -0.082  1.00  0.00     0.046 C 
ATOM     17  C   UNL     1       0.824  -0.353  -0.014  1.00  0.00    -0.031 A 
ATOM     18  C   UNL     1      -0.125  -1.405  -0.023  1.00  0.00     0.005 A 
ATOM     19  C   UNL     1       0.354   0.969   0.092  1.00  0.00     0.086 A 
ATOM     20  C   UNL     1      -1.491  -1.171   0.093  1.00  0.00     0.014 A 
ATOM     21  C   UNL     1      -1.036   1.183   0.247  1.00  0.00     0.035 A 
BRANCH  19  22
ATOM     22  S   UNL     1       1.241   2.538   0.082  1.00  0.00     0.243 S 
ATOM     23  O   UNL     1       0.865   3.184  -1.165  1.00  0.00    -0.207 OA
ATOM     24  O   UNL     1       0.921   3.157   1.349  1.00  0.00    -0.207 OA
BRANCH  22  25
ATOM     25  N   UNL     1       2.918   2.329   0.044  1.00  0.00    -0.198 NA
ATOM     26  C   UNL     1       3.559   1.973   1.324  1.00  0.00     0.102 C 
ATOM     27  C   UNL     1       3.521   2.024  -1.269  1.00  0.00     0.102 C 
ATOM     28  C   UNL     1       5.060   1.751   1.236  1.00  0.00     0.017 C 
ATOM     29  C   UNL     1       5.019   1.761  -1.236  1.00  0.00     0.017 C 
ATOM     30  C   UNL     1       5.478   0.993  -0.010  1.00  0.00     0.003 C 
ENDBRANCH  22  25
ENDBRANCH  19  22
ENDBRANCH  13  15
ENDBRANCH   8  13
ENDBRANCH   4   7
ENDBRANCH   2   3
ENDBRANCH   1   2
BRANCH   1  31
ATOM     31  C   UNL     1      -5.005  -1.515  -4.741  1.00  0.00     0.002 C 
BRANCH  31  32
ATOM     32  C   UNL     1      -4.688  -2.896  -4.150  1.00  0.00     0.002 C 
BRANCH  32  33
ATOM     33  C   UNL     1      -5.814  -3.528  -3.336  1.00  0.00     0.021 C 
BRANCH  33  34
ATOM     34  C   UNL     1      -7.033  -3.889  -4.161  1.00  0.00     0.116 C 
BRANCH  34  35
ATOM     35  N   UNL     1      -6.900  -5.172  -4.833  1.00  0.00    -0.352 N 
ATOM     36  C   UNL     1      -7.835  -5.947  -5.487  1.00  0.00     0.251 C 
ATOM     37  H   UNL     1      -5.991  -5.551  -4.818  1.00  0.00     0.163 HD
ATOM     38  O   UNL     1      -7.525  -7.080  -5.847  1.00  0.00    -0.269 OA
BRANCH  36  39
ATOM     39  C   UNL     1      -9.114  -5.351  -5.957  1.00  0.00     0.039 A 
ATOM     40  C   UNL     1      -9.482  -5.696  -7.267  1.00  0.00     0.014 A 
ATOM     41  C   UNL     1      -9.612  -4.195  -5.376  1.00  0.00     0.014 A 
ATOM     42  C   UNL     1     -10.005  -4.718  -8.093  1.00  0.00     0.010 A 
ATOM     43  C   UNL     1      -9.966  -3.175  -6.215  1.00  0.00     0.010 A 
ATOM     44  C   UNL     1     -10.086  -3.433  -7.580  1.00  0.00    -0.014 A 
BRANCH  44  45
ATOM     45  C   UNL     1     -10.377  -2.261  -8.363  1.00  0.00     0.031 A 
ATOM     46  C   UNL     1     -11.783  -1.860  -8.422  1.00  0.00     0.074 A 
ATOM     47  C   UNL     1      -9.343  -1.522  -8.816  1.00  0.00     0.049 A 
ATOM     48  N   UNL     1     -12.275  -1.110  -9.334  1.00  0.00    -0.248 NA
ATOM     49  C   UNL     1     -12.783  -2.341  -7.466  1.00  0.00     0.031 C 
ATOM     50  C   UNL     1      -9.337  -0.157  -9.322  1.00  0.00     0.029 A 
ATOM     51  N   UNL     1      -8.059  -1.990  -9.090  1.00  0.00    -0.354 N 
ATOM     52  C   UNL     1     -13.515  -0.716  -8.888  1.00  0.00     0.074 A 
ATOM     53  C   UNL     1     -13.846  -1.612  -7.811  1.00  0.00     0.031 C 
ATOM     54  C   UNL     1      -8.237   0.020 -10.079  1.00  0.00     0.029 A 
ATOM     55  C   UNL     1      -7.597  -1.280 -10.213  1.00  0.00     0.049 A 
ATOM     56  H   UNL     1      -7.569  -2.685  -8.593  1.00  0.00     0.167 HD
ATOM     57  C   UNL     1     -14.020   0.451  -9.366  1.00  0.00     0.031 A 
ATOM     58  C   UNL     1      -7.430  -1.947 -11.397  1.00  0.00     0.031 A 
ATOM     59  C   UNL     1     -13.120   1.019 -10.370  1.00  0.00     0.049 A 
ATOM     60  C   UNL     1      -8.417  -1.506 -12.466  1.00  0.00     0.074 A 
ATOM     61  C   UNL     1     -12.155   2.012 -10.325  1.00  0.00     0.029 A 
ATOM     62  N   UNL     1     -12.848   0.271 -11.506  1.00  0.00    -0.354 N 
ATOM     63  N   UNL     1      -9.509  -0.829 -12.232  1.00  0.00    -0.248 NA
ATOM     64  C   UNL     1      -8.259  -1.818 -13.881  1.00  0.00     0.031 C 
ATOM     65  C   UNL     1     -11.293   1.839 -11.447  1.00  0.00     0.029 A 
ATOM     66  C   UNL     1     -11.752   0.763 -12.185  1.00  0.00     0.049 A 
ATOM     67  H   UNL     1     -13.371  -0.513 -11.792  1.00  0.00     0.167 HD
ATOM     68  C   UNL     1     -10.183  -0.592 -13.405  1.00  0.00     0.074 A 
ATOM     69  C   UNL     1      -9.370  -1.267 -14.404  1.00  0.00     0.031 C 
ATOM     70  C   UNL     1     -11.351   0.127 -13.438  1.00  0.00     0.031 A 
BRANCH  57  71
ATOM     71  C   UNL     1     -15.153   1.209  -8.729  1.00  0.00    -0.014 A 
ATOM     72  C   UNL     1     -15.253   2.592  -8.961  1.00  0.00     0.009 A 
ATOM     73  C   UNL     1     -16.125   0.653  -7.880  1.00  0.00     0.009 A 
ATOM     74  C   UNL     1     -16.225   3.384  -8.339  1.00  0.00     0.001 A 
ATOM     75  C   UNL     1     -17.089   1.443  -7.234  1.00  0.00     0.001 A 
ATOM     76  C   UNL     1     -17.136   2.811  -7.462  1.00  0.00     0.000 A 
ENDBRANCH  57  71
BRANCH  58  77
ATOM     77  C   UNL     1      -6.934  -3.348 -11.180  1.00  0.00    -0.014 A 
ATOM     78  C   UNL     1      -5.676  -3.498 -10.550  1.00  0.00     0.009 A 
ATOM     79  C   UNL     1      -7.832  -4.423 -11.129  1.00  0.00     0.009 A 
ATOM     80  C   UNL     1      -5.415  -4.597  -9.723  1.00  0.00     0.001 A 
ATOM     81  C   UNL     1      -7.546  -5.539 -10.328  1.00  0.00     0.001 A 
ATOM     82  C   UNL     1      -6.370  -5.596  -9.578  1.00  0.00     0.000 A 
ENDBRANCH  58  77
BRANCH  70  83
ATOM     83  C   UNL     1     -12.283   0.310 -14.627  1.00  0.00    -0.014 A 
ATOM     84  C   UNL     1     -11.931   0.118 -15.963  1.00  0.00     0.009 A 
ATOM     85  C   UNL     1     -13.620   0.731 -14.404  1.00  0.00     0.009 A 
ATOM     86  C   UNL     1     -12.877   0.235 -16.996  1.00  0.00     0.001 A 
ATOM     87  C   UNL     1     -14.566   0.852 -15.421  1.00  0.00     0.001 A 
ATOM     88  C   UNL     1     -14.196   0.583 -16.724  1.00  0.00     0.000 A 
ENDBRANCH  70  83
ENDBRANCH  44  45
ENDBRANCH  36  39
ENDBRANCH  34  35
ENDBRANCH  33  34
ENDBRANCH  32  33
ENDBRANCH  31  32
ENDBRANCH   1  31
TORSDOF 17
