REMARK SMILES O=C(NCCCCCCNC(=O)c1ccccc1Nc1cccc(S(F)(F)(F)(F)F)c1)c1ccc(-c2c3nc(c(-c4ccccc4)c4ccc([nH]4)c(-c4ccccc4)c4nc(c(-c5ccccc5)c5ccc2[nH]5)C=C4)C=C3)cc1
REMARK SMILES IDX 7 1 6 2 5 3 4 4 3 5 1 6 2 7 32 9 33 10 79 11 34 12 78 13
REMARK SMILES IDX 35 14 36 15 37 16 72 17 38 18 77 19 71 20 73 21 39 22 76 23
REMARK SMILES IDX 70 24 69 25 40 27 62 28 47 29 61 30 48 31 51 32 60 33 74 34
REMARK SMILES IDX 49 35 50 36 59 38 75 39 52 40 41 41 42 42 46 43 43 44 45 45
REMARK SMILES IDX 44 46 63 47 64 48 68 49 65 50 67 51 66 52 53 53 54 54 58 55
REMARK SMILES IDX 55 56 57 57 56 58 8 59 9 60 10 61 11 62 12 64 13 65 14 66
REMARK SMILES IDX 18 67 15 68 17 69 16 70 19 71 20 73 21 74 31 75 22 76 24 77
REMARK SMILES IDX 23 78 25 79 26 80 27 81 28 82 29 83 30 84
REMARK H PARENT 3 8 73 26 51 37 10 63 19 72
REMARK Flexibility Score: inf
ROOT
ATOM      1  C   UNL     1       4.930  -3.078  -2.737  1.00  0.00     0.002 C 
ENDROOT
BRANCH   1   2
ATOM      2  C   UNL     1       4.423  -3.395  -1.340  1.00  0.00     0.002 C 
BRANCH   2   3
ATOM      3  C   UNL     1       4.930  -2.344  -0.366  1.00  0.00     0.021 C 
BRANCH   3   4
ATOM      4  C   UNL     1       4.423  -0.975  -0.790  1.00  0.00     0.116 C 
BRANCH   4   5
ATOM      5  N   UNL     1       2.953  -0.975  -0.790  1.00  0.00    -0.352 N 
ATOM      6  O   UNL     1       0.948  -0.041   0.075  1.00  0.00    -0.269 OA
ATOM      7  C   UNL     1       2.218  -0.041   0.075  1.00  0.00     0.251 C 
ATOM      8  H   UNL     1       2.461  -1.600  -1.369  1.00  0.00     0.163 HD
BRANCH   7   9
ATOM      9  C   UNL     1       2.978   0.925   0.969  1.00  0.00     0.039 A 
ATOM     10  C   UNL     1       4.138   1.557   0.550  1.00  0.00     0.014 A 
ATOM     11  C   UNL     1       2.546   1.038   2.220  1.00  0.00     0.014 A 
ATOM     12  C   UNL     1       4.934   2.055   1.609  1.00  0.00     0.010 A 
ATOM     13  C   UNL     1       3.316   1.658   3.173  1.00  0.00     0.010 A 
ATOM     14  C   UNL     1       4.502   2.252   2.842  1.00  0.00    -0.014 A 
BRANCH  14  15
ATOM     15  C   UNL     1       5.282   3.094   3.838  1.00  0.00     0.031 A 
ATOM     16  C   UNL     1       5.681   2.421   4.994  1.00  0.00     0.074 A 
ATOM     17  C   UNL     1       5.657   4.391   3.529  1.00  0.00     0.049 A 
ATOM     18  N   UNL     1       6.489   2.867   5.958  1.00  0.00    -0.248 NA
ATOM     19  C   UNL     1       5.256   1.057   5.341  1.00  0.00     0.031 C 
ATOM     20  C   UNL     1       5.266   5.074   2.361  1.00  0.00     0.029 A 
ATOM     21  N   UNL     1       6.452   5.240   4.268  1.00  0.00    -0.354 N 
ATOM     22  C   UNL     1       6.651   1.929   6.893  1.00  0.00     0.074 A 
ATOM     23  C   UNL     1       5.856   0.754   6.513  1.00  0.00     0.031 C 
ATOM     24  C   UNL     1       5.807   6.320   2.400  1.00  0.00     0.029 A 
ATOM     25  C   UNL     1       6.546   6.436   3.593  1.00  0.00     0.049 A 
ATOM     26  H   UNL     1       6.878   5.027   5.129  1.00  0.00     0.167 HD
ATOM     27  C   UNL     1       7.433   2.007   8.047  1.00  0.00     0.031 A 
ATOM     28  C   UNL     1       7.231   7.577   3.980  1.00  0.00     0.031 A 
ATOM     29  C   UNL     1       8.153   3.134   8.412  1.00  0.00     0.049 A 
ATOM     30  C   UNL     1       7.966   7.676   5.163  1.00  0.00     0.074 A 
ATOM     31  C   UNL     1       8.952   3.227   9.568  1.00  0.00     0.029 A 
ATOM     32  N   UNL     1       8.228   4.339   7.750  1.00  0.00    -0.354 N 
ATOM     33  N   UNL     1       8.161   6.725   6.078  1.00  0.00    -0.248 NA
ATOM     34  C   UNL     1       8.669   8.890   5.599  1.00  0.00     0.031 C 
ATOM     35  C   UNL     1       9.494   4.473   9.607  1.00  0.00     0.029 A 
ATOM     36  C   UNL     1       9.041   5.180   8.476  1.00  0.00     0.049 A 
ATOM     37  H   UNL     1       7.778   4.561   6.903  1.00  0.00     0.167 HD
ATOM     38  C   UNL     1       8.935   7.186   7.063  1.00  0.00     0.074 A 
ATOM     39  C   UNL     1       9.268   8.587   6.772  1.00  0.00     0.031 C 
ATOM     40  C   UNL     1       9.381   6.493   8.189  1.00  0.00     0.031 A 
BRANCH  27  41
ATOM     41  C   UNL     1       7.497   0.789   8.954  1.00  0.00    -0.014 A 
ATOM     42  C   UNL     1       7.955  -0.430   8.482  1.00  0.00     0.009 A 
ATOM     43  C   UNL     1       7.080   0.930  10.206  1.00  0.00     0.009 A 
ATOM     44  C   UNL     1       7.662  -1.521   9.334  1.00  0.00     0.001 A 
ATOM     45  C   UNL     1       6.945  -0.164  11.026  1.00  0.00     0.001 A 
ATOM     46  C   UNL     1       7.323  -1.409  10.605  1.00  0.00     0.000 A 
ENDBRANCH  27  41
BRANCH  28  47
ATOM     47  C   UNL     1       7.180   8.790   3.064  1.00  0.00    -0.014 A 
ATOM     48  C   UNL     1       8.375   9.263   2.549  1.00  0.00     0.009 A 
ATOM     49  C   UNL     1       6.023   9.367   2.762  1.00  0.00     0.009 A 
ATOM     50  C   UNL     1       8.274  10.540   1.948  1.00  0.00     0.001 A 
ATOM     51  C   UNL     1       5.992  10.544   2.054  1.00  0.00     0.001 A 
ATOM     52  C   UNL     1       7.142  11.100   1.565  1.00  0.00     0.000 A 
ENDBRANCH  28  47
BRANCH  40  53
ATOM     53  C   UNL     1      10.295   7.222   9.161  1.00  0.00    -0.014 A 
ATOM     54  C   UNL     1       9.921   8.426   9.735  1.00  0.00     0.009 A 
ATOM     55  C   UNL     1      11.501   6.707   9.366  1.00  0.00     0.009 A 
ATOM     56  C   UNL     1      11.000   9.159  10.282  1.00  0.00     0.001 A 
ATOM     57  C   UNL     1      12.466   7.426  10.028  1.00  0.00     0.001 A 
ATOM     58  C   UNL     1      12.183   8.649  10.570  1.00  0.00     0.000 A 
ENDBRANCH  40  53
ENDBRANCH  14  15
ENDBRANCH   7   9
ENDBRANCH   4   5
ENDBRANCH   3   4
ENDBRANCH   2   3
ENDBRANCH   1   2
BRANCH   1  59
ATOM     59  C   UNL     1       6.450  -3.078  -2.737  1.00  0.00     0.021 C 
BRANCH  59  60
ATOM     60  C   UNL     1       6.957  -4.447  -2.313  1.00  0.00     0.116 C 
BRANCH  60  61
ATOM     61  N   UNL     1       6.467  -5.464  -3.255  1.00  0.00    -0.352 N 
ATOM     62  C   UNL     1       7.422  -6.284  -4.014  1.00  0.00     0.253 C 
ATOM     63  H   UNL     1       5.499  -5.596  -3.377  1.00  0.00     0.163 HD
ATOM     64  O   UNL     1       6.998  -7.163  -4.828  1.00  0.00    -0.269 OA
BRANCH  62  65
ATOM     65  C   UNL     1       8.916  -6.080  -3.825  1.00  0.00     0.063 A 
ATOM     66  C   UNL     1       9.741  -6.025  -4.937  1.00  0.00     0.016 A 
ATOM     67  C   UNL     1       9.407  -5.958  -2.597  1.00  0.00     0.051 A 
ATOM     68  C   UNL     1      11.119  -6.127  -4.634  1.00  0.00     0.001 A 
ATOM     69  C   UNL     1      10.764  -5.928  -2.386  1.00  0.00     0.027 A 
ATOM     70  C   UNL     1      11.640  -5.931  -3.437  1.00  0.00     0.002 A 
BRANCH  67  71
ATOM     71  N   UNL     1       8.490  -5.854  -1.453  1.00  0.00    -0.355 N 
ATOM     72  H   UNL     1       7.516  -5.875  -1.599  1.00  0.00     0.167 HD
BRANCH  71  73
ATOM     73  C   UNL     1       9.026  -5.720  -0.091  1.00  0.00     0.040 A 
ATOM     74  C   UNL     1       8.709  -6.673   0.863  1.00  0.00     0.026 A 
ATOM     75  C   UNL     1       9.795  -4.678   0.205  1.00  0.00     0.050 A 
ATOM     76  C   UNL     1       9.018  -6.283   2.187  1.00  0.00     0.004 A 
ATOM     77  C   UNL     1      10.172  -4.434   1.503  1.00  0.00     0.109 A 
ATOM     78  C   UNL     1       9.843  -5.303   2.506  1.00  0.00     0.024 A 
BRANCH  77  79
ATOM     79  S   UNL     1      11.117  -2.940   1.891  1.00  0.00     0.310 S 
ATOM     80  F   UNL     1      10.607  -2.955   3.393  1.00  0.00    -0.094 F 
ATOM     81  F   UNL     1       9.823  -2.117   1.531  1.00  0.00    -0.094 F 
ATOM     82  F   UNL     1      11.888  -1.633   2.231  1.00  0.00    -0.094 F 
ATOM     83  F   UNL     1      12.357  -3.788   2.381  1.00  0.00    -0.094 F 
ATOM     84  F   UNL     1      10.312  -4.280   1.658  1.00  0.00    -0.094 F 
ENDBRANCH  77  79
ENDBRANCH  71  73
ENDBRANCH  67  71
ENDBRANCH  62  65
ENDBRANCH  60  61
ENDBRANCH  59  60
ENDBRANCH   1  59
TORSDOF 16
