REMARK SMILES CC(C)c1cc2c(cc1Cl)C=C(C(=O)NCCCCCCNC(=O)c1ccc(-c3c4nc(c(-c5ccccc5)c5ccc([nH]5)c(-c5ccccc5)c5nc(c(-c6ccccc6)c6ccc3[nH]6)C=C5)C=C4)cc1)[C@@H](C(F)(F)F)O2
REMARK SMILES IDX 19 1 18 2 17 3 16 4 15 5 13 6 14 7 12 9 4 10 5 11 9 12 6 13
REMARK SMILES IDX 8 14 10 15 7 16 78 17 11 18 73 19 2 20 1 21 3 22 74 23 75 24
REMARK SMILES IDX 76 25 77 26 20 27 21 28 22 29 23 30 24 32 25 33 26 34 72 35
REMARK SMILES IDX 27 36 71 37 28 38 29 39 30 40 65 41 31 42 70 43 64 44 66 45
REMARK SMILES IDX 32 46 69 47 63 48 62 49 33 51 55 52 40 53 54 54 41 55 44 56
REMARK SMILES IDX 53 57 67 58 42 59 43 60 52 62 68 63 45 64 34 65 35 66 39 67
REMARK SMILES IDX 36 68 38 69 37 70 56 71 57 72 61 73 58 74 60 75 59 76 46 77
REMARK SMILES IDX 47 78 51 79 48 80 50 81 49 82
REMARK H PARENT 15 8 22 31 66 50 44 61
REMARK Flexibility Score: inf
ROOT
ATOM      1  C   UNL     1     -10.409  -4.750  -1.336  1.00  0.00     0.002 C 
ENDROOT
BRANCH   1   2
ATOM      2  C   UNL     1      -9.910  -3.916  -0.148  1.00  0.00     0.002 C 
BRANCH   2   3
ATOM      3  C   UNL     1      -8.401  -3.651  -0.114  1.00  0.00     0.021 C 
BRANCH   3   4
ATOM      4  C   UNL     1      -7.857  -2.985  -1.375  1.00  0.00     0.116 C 
BRANCH   4   5
ATOM      5  N   UNL     1      -8.015  -1.542  -1.339  1.00  0.00    -0.352 N 
ATOM      6  C   UNL     1      -7.214  -0.452  -1.381  1.00  0.00     0.251 C 
ATOM      7  O   UNL     1      -7.806   0.633  -1.357  1.00  0.00    -0.270 OA
ATOM      8  H   UNL     1      -8.963  -1.287  -1.263  1.00  0.00     0.163 HD
BRANCH   6   9
ATOM      9  C   UNL     1      -5.721  -0.473  -1.448  1.00  0.00     0.067 C 
ATOM     10  C   UNL     1      -0.824   0.830  -1.402  1.00  0.00    -0.023 A 
ATOM     11  C   UNL     1      -1.537  -0.381  -1.366  1.00  0.00     0.052 A 
ATOM     12  C   UNL     1      -1.569   2.024  -1.418  1.00  0.00     0.045 A 
ATOM     13  C   UNL     1      -2.929  -0.399  -1.363  1.00  0.00     0.128 A 
ATOM     14  C   UNL     1      -2.973   1.999  -1.402  1.00  0.00     0.032 A 
ATOM     15  Cl  UNL     1      -0.819   3.581  -1.440  1.00  0.00    -0.084 Cl
ATOM     16  C   UNL     1      -3.659   0.783  -1.374  1.00  0.00     0.019 A 
ATOM     17  O   UNL     1      -3.508  -1.630  -1.297  1.00  0.00    -0.475 OA
ATOM     18  C   UNL     1      -5.114   0.721  -1.310  1.00  0.00     0.025 C 
ATOM     19  C   UNL     1      -4.904  -1.712  -1.685  1.00  0.00     0.314 C 
BRANCH  10  20
ATOM     20  C   UNL     1       0.697   0.786  -1.399  1.00  0.00     0.014 C 
ATOM     21  C   UNL     1       1.222   0.223  -0.074  1.00  0.00     0.012 C 
ATOM     22  C   UNL     1       1.244  -0.020  -2.584  1.00  0.00     0.012 C 
ENDBRANCH  10  20
BRANCH  19  23
ATOM     23  C   UNL     1      -4.988  -2.211  -3.139  1.00  0.00     0.429 C 
ATOM     24  F   UNL     1      -4.508  -3.477  -3.233  1.00  0.00    -0.167 F 
ATOM     25  F   UNL     1      -6.259  -2.253  -3.603  1.00  0.00    -0.167 F 
ATOM     26  F   UNL     1      -4.278  -1.443  -3.995  1.00  0.00    -0.167 F 
ENDBRANCH  19  23
ENDBRANCH   6   9
ENDBRANCH   4   5
ENDBRANCH   3   4
ENDBRANCH   2   3
ENDBRANCH   1   2
BRANCH   1  27
ATOM     27  C   UNL     1      -9.633  -6.039  -1.615  1.00  0.00     0.021 C 
BRANCH  27  28
ATOM     28  C   UNL     1      -9.580  -7.021  -0.452  1.00  0.00     0.116 C 
BRANCH  28  29
ATOM     29  N   UNL     1     -10.892  -7.533  -0.092  1.00  0.00    -0.352 N 
ATOM     30  C   UNL     1     -11.298  -8.835   0.076  1.00  0.00     0.251 C 
ATOM     31  H   UNL     1     -11.587  -6.851   0.053  1.00  0.00     0.163 HD
ATOM     32  O   UNL     1     -12.485  -9.101   0.237  1.00  0.00    -0.269 OA
BRANCH  30  33
ATOM     33  C   UNL     1     -10.298  -9.921   0.025  1.00  0.00     0.039 A 
ATOM     34  C   UNL     1      -9.096  -9.814   0.728  1.00  0.00     0.014 A 
ATOM     35  C   UNL     1     -10.557 -11.049  -0.758  1.00  0.00     0.014 A 
ATOM     36  C   UNL     1      -8.093 -10.754   0.523  1.00  0.00     0.010 A 
ATOM     37  C   UNL     1      -9.577 -12.035  -0.899  1.00  0.00     0.010 A 
ATOM     38  C   UNL     1      -8.320 -11.872  -0.296  1.00  0.00    -0.014 A 
BRANCH  38  39
ATOM     39  C   UNL     1      -7.229 -12.859  -0.502  1.00  0.00     0.031 A 
ATOM     40  C   UNL     1      -6.605 -13.046  -1.858  1.00  0.00     0.074 A 
ATOM     41  C   UNL     1      -6.761 -13.548   0.556  1.00  0.00     0.049 A 
ATOM     42  N   UNL     1      -5.622 -13.838  -2.206  1.00  0.00    -0.248 NA
ATOM     43  C   UNL     1      -7.147 -12.243  -2.966  1.00  0.00     0.031 C 
ATOM     44  C   UNL     1      -7.272 -13.436   1.924  1.00  0.00     0.029 A 
ATOM     45  N   UNL     1      -5.735 -14.452   0.657  1.00  0.00    -0.354 N 
ATOM     46  C   UNL     1      -5.438 -13.641  -3.569  1.00  0.00     0.074 A 
ATOM     47  C   UNL     1      -6.428 -12.675  -3.994  1.00  0.00     0.031 C 
ATOM     48  C   UNL     1      -6.521 -14.194   2.736  1.00  0.00     0.029 A 
ATOM     49  C   UNL     1      -5.520 -14.896   1.939  1.00  0.00     0.049 A 
ATOM     50  H   UNL     1      -5.203 -14.753  -0.115  1.00  0.00     0.167 HD
ATOM     51  C   UNL     1      -4.521 -14.206  -4.388  1.00  0.00     0.031 A 
ATOM     52  C   UNL     1      -4.626 -15.778   2.425  1.00  0.00     0.031 A 
ATOM     53  C   UNL     1      -3.532 -15.161  -3.962  1.00  0.00     0.049 A 
ATOM     54  C   UNL     1      -3.653 -16.428   1.486  1.00  0.00     0.074 A 
ATOM     55  C   UNL     1      -2.553 -15.779  -4.721  1.00  0.00     0.029 A 
ATOM     56  N   UNL     1      -3.394 -15.634  -2.667  1.00  0.00    -0.354 N 
ATOM     57  N   UNL     1      -3.493 -16.227   0.200  1.00  0.00    -0.248 NA
ATOM     58  C   UNL     1      -2.741 -17.427   2.059  1.00  0.00     0.031 C 
ATOM     59  C   UNL     1      -1.858 -16.667  -3.898  1.00  0.00     0.029 A 
ATOM     60  C   UNL     1      -2.361 -16.555  -2.611  1.00  0.00     0.049 A 
ATOM     61  H   UNL     1      -3.947 -15.357  -1.901  1.00  0.00     0.167 HD
ATOM     62  C   UNL     1      -2.459 -17.067  -0.189  1.00  0.00     0.074 A 
ATOM     63  C   UNL     1      -2.013 -17.763   1.001  1.00  0.00     0.031 C 
ATOM     64  C   UNL     1      -1.931 -17.246  -1.423  1.00  0.00     0.031 A 
BRANCH  51  65
ATOM     65  C   UNL     1      -4.537 -13.821  -5.842  1.00  0.00    -0.014 A 
ATOM     66  C   UNL     1      -4.925 -14.763  -6.808  1.00  0.00     0.009 A 
ATOM     67  C   UNL     1      -4.074 -12.566  -6.265  1.00  0.00     0.009 A 
ATOM     68  C   UNL     1      -4.837 -14.462  -8.169  1.00  0.00     0.001 A 
ATOM     69  C   UNL     1      -4.012 -12.258  -7.626  1.00  0.00     0.001 A 
ATOM     70  C   UNL     1      -4.384 -13.208  -8.576  1.00  0.00     0.000 A 
ENDBRANCH  51  65
BRANCH  52  71
ATOM     71  C   UNL     1      -4.623 -16.083   3.879  1.00  0.00    -0.014 A 
ATOM     72  C   UNL     1      -5.699 -16.772   4.464  1.00  0.00     0.009 A 
ATOM     73  C   UNL     1      -3.579 -15.635   4.700  1.00  0.00     0.009 A 
ATOM     74  C   UNL     1      -5.745 -16.978   5.843  1.00  0.00     0.001 A 
ATOM     75  C   UNL     1      -3.613 -15.869   6.077  1.00  0.00     0.001 A 
ATOM     76  C   UNL     1      -4.700 -16.530   6.649  1.00  0.00     0.000 A 
ENDBRANCH  52  71
BRANCH  64  77
ATOM     77  C   UNL     1      -0.805 -18.229  -1.568  1.00  0.00    -0.014 A 
ATOM     78  C   UNL     1       0.491 -17.768  -1.852  1.00  0.00     0.009 A 
ATOM     79  C   UNL     1      -1.043 -19.611  -1.527  1.00  0.00     0.009 A 
ATOM     80  C   UNL     1       1.523 -18.672  -2.109  1.00  0.00     0.001 A 
ATOM     81  C   UNL     1      -0.002 -20.512  -1.757  1.00  0.00     0.001 A 
ATOM     82  C   UNL     1       1.276 -20.043  -2.058  1.00  0.00     0.000 A 
ENDBRANCH  64  77
ENDBRANCH  38  39
ENDBRANCH  30  33
ENDBRANCH  28  29
ENDBRANCH  27  28
ENDBRANCH   1  27
TORSDOF 15
