REMARK SMILES Cc1cccc([C@@H](CCC[C@@H]2CCCO2)C(=O)NCCCCCCNC(=O)c2ccc(-c3c4nc(c(-c5ccccc5)c5ccc([nH]5)c(-c5ccccc5)c5nc(c(-c6ccccc6)c6ccc3[nH]6)C=C5)C=C4)cc2)c1
REMARK SMILES IDX 20 1 19 2 18 3 16 4 17 5 7 7 6 8 1 9 2 10 3 11 76 12 4 13
REMARK SMILES IDX 5 14 8 15 9 16 10 17 11 18 12 19 15 20 13 21 14 22 21 23
REMARK SMILES IDX 22 24 23 25 24 26 25 27 26 28 27 30 28 31 29 32 75 33 30 34
REMARK SMILES IDX 74 35 31 36 32 37 33 38 68 39 34 40 73 41 67 42 69 43 35 44
REMARK SMILES IDX 72 45 66 46 65 47 36 49 58 50 43 51 57 52 44 53 47 54 56 55
REMARK SMILES IDX 70 56 45 57 46 58 55 60 71 61 48 62 37 63 38 64 42 65 39 66
REMARK SMILES IDX 41 67 40 68 59 69 60 70 64 71 61 72 63 73 62 74 49 75 50 76
REMARK SMILES IDX 54 77 51 78 53 79 52 80
REMARK H PARENT 18 6 25 29 69 48 47 59
REMARK Flexibility Score: inf
ROOT
ATOM      1  C   UNL     1      -3.885  -1.082   2.293  1.00  0.00     0.021 C 
ENDROOT
BRANCH   1   2
ATOM      2  C   UNL     1      -3.821   0.242   1.542  1.00  0.00     0.116 C 
BRANCH   2   3
ATOM      3  N   UNL     1      -2.946   1.248   2.084  1.00  0.00    -0.356 N 
ATOM      4  C   UNL     1      -2.238   2.214   1.429  1.00  0.00     0.227 C 
ATOM      5  O   UNL     1      -1.924   3.207   2.100  1.00  0.00    -0.274 OA
ATOM      6  H   UNL     1      -2.845   1.238   3.064  1.00  0.00     0.163 HD
BRANCH   4   7
ATOM      7  C   UNL     1      -1.756   2.094  -0.034  1.00  0.00     0.108 C 
BRANCH   7   8
ATOM      8  C   UNL     1      -0.850   0.882  -0.273  1.00  0.00    -0.035 A 
ATOM      9  C   UNL     1       2.857   0.077   0.298  1.00  0.00     0.044 C 
ATOM     10  C   UNL     1       1.406  -0.081  -0.051  1.00  0.00    -0.051 A 
ATOM     11  C   UNL     1       0.913  -1.317  -0.465  1.00  0.00     0.003 A 
ATOM     12  C   UNL     1       0.517   0.997   0.066  1.00  0.00     0.008 A 
ATOM     13  C   UNL     1      -0.427  -1.451  -0.819  1.00  0.00     0.001 A 
ATOM     14  C   UNL     1      -1.294  -0.355  -0.750  1.00  0.00     0.004 A 
ENDBRANCH   7   8
BRANCH   7  15
ATOM     15  C   UNL     1      -2.639   2.643  -1.187  1.00  0.00     0.018 C 
BRANCH  15  16
ATOM     16  C   UNL     1      -3.922   1.953  -1.659  1.00  0.00     0.004 C 
BRANCH  16  17
ATOM     17  C   UNL     1      -5.171   2.151  -0.800  1.00  0.00     0.032 C 
BRANCH  17  18
ATOM     18  C   UNL     1      -5.908   3.480  -0.806  1.00  0.00     0.118 C 
ATOM     19  C   UNL     1      -6.415   4.002  -2.132  1.00  0.00     0.034 C 
ATOM     20  O   UNL     1      -5.098   4.524  -0.254  1.00  0.00    -0.378 OA
ATOM     21  C   UNL     1      -6.675   5.446  -1.768  1.00  0.00     0.031 C 
ATOM     22  C   UNL     1      -5.508   5.763  -0.851  1.00  0.00     0.160 C 
ENDBRANCH  17  18
ENDBRANCH  16  17
ENDBRANCH  15  16
ENDBRANCH   7  15
ENDBRANCH   4   7
ENDBRANCH   2   3
ENDBRANCH   1   2
BRANCH   1  23
ATOM     23  C   UNL     1      -5.138  -1.261   3.174  1.00  0.00     0.002 C 
BRANCH  23  24
ATOM     24  C   UNL     1      -6.511  -0.843   2.599  1.00  0.00     0.002 C 
BRANCH  24  25
ATOM     25  C   UNL     1      -6.815  -1.227   1.148  1.00  0.00     0.021 C 
BRANCH  25  26
ATOM     26  C   UNL     1      -7.056  -2.712   0.935  1.00  0.00     0.116 C 
BRANCH  26  27
ATOM     27  N   UNL     1      -8.454  -3.116   1.053  1.00  0.00    -0.352 N 
ATOM     28  C   UNL     1      -8.975  -4.400   1.097  1.00  0.00     0.251 C 
ATOM     29  H   UNL     1      -9.110  -2.384   1.109  1.00  0.00     0.163 HD
ATOM     30  O   UNL     1     -10.175  -4.593   1.192  1.00  0.00    -0.269 OA
BRANCH  28  31
ATOM     31  C   UNL     1      -8.024  -5.535   1.157  1.00  0.00     0.039 A 
ATOM     32  C   UNL     1      -8.103  -6.376   2.269  1.00  0.00     0.014 A 
ATOM     33  C   UNL     1      -6.919  -5.567   0.309  1.00  0.00     0.014 A 
ATOM     34  C   UNL     1      -6.959  -7.047   2.684  1.00  0.00     0.010 A 
ATOM     35  C   UNL     1      -5.759  -6.159   0.768  1.00  0.00     0.010 A 
ATOM     36  C   UNL     1      -5.764  -6.826   1.998  1.00  0.00    -0.014 A 
BRANCH  36  37
ATOM     37  C   UNL     1      -4.464  -7.119   2.589  1.00  0.00     0.031 A 
ATOM     38  C   UNL     1      -3.688  -8.290   2.152  1.00  0.00     0.074 A 
ATOM     39  C   UNL     1      -3.966  -6.309   3.549  1.00  0.00     0.049 A 
ATOM     40  N   UNL     1      -2.833  -8.910   2.895  1.00  0.00    -0.248 NA
ATOM     41  C   UNL     1      -3.870  -8.899   0.842  1.00  0.00     0.031 C 
ATOM     42  C   UNL     1      -2.614  -6.300   4.099  1.00  0.00     0.029 A 
ATOM     43  N   UNL     1      -4.688  -5.472   4.394  1.00  0.00    -0.354 N 
ATOM     44  C   UNL     1      -2.148  -9.784   2.085  1.00  0.00     0.074 A 
ATOM     45  C   UNL     1      -2.896  -9.812   0.848  1.00  0.00     0.031 C 
ATOM     46  C   UNL     1      -2.642  -5.710   5.305  1.00  0.00     0.029 A 
ATOM     47  C   UNL     1      -4.034  -5.451   5.633  1.00  0.00     0.049 A 
ATOM     48  H   UNL     1      -5.511  -4.983   4.163  1.00  0.00     0.167 HD
ATOM     49  C   UNL     1      -0.940 -10.267   2.490  1.00  0.00     0.031 A 
ATOM     50  C   UNL     1      -4.662  -5.892   6.762  1.00  0.00     0.031 A 
ATOM     51  C   UNL     1      -0.610  -9.854   3.855  1.00  0.00     0.049 A 
ATOM     52  C   UNL     1      -3.996  -7.086   7.413  1.00  0.00     0.074 A 
ATOM     53  C   UNL     1       0.236  -8.888   4.377  1.00  0.00     0.029 A 
ATOM     54  N   UNL     1      -1.416 -10.275   4.907  1.00  0.00    -0.354 N 
ATOM     55  N   UNL     1      -3.095  -7.834   6.838  1.00  0.00    -0.248 NA
ATOM     56  C   UNL     1      -4.337  -7.557   8.752  1.00  0.00     0.031 C 
ATOM     57  C   UNL     1      -0.103  -8.695   5.743  1.00  0.00     0.029 A 
ATOM     58  C   UNL     1      -1.137  -9.559   6.056  1.00  0.00     0.049 A 
ATOM     59  H   UNL     1      -2.093 -10.987   4.843  1.00  0.00     0.167 HD
ATOM     60  C   UNL     1      -2.752  -8.868   7.673  1.00  0.00     0.074 A 
ATOM     61  C   UNL     1      -3.539  -8.633   8.870  1.00  0.00     0.031 C 
ATOM     62  C   UNL     1      -1.865  -9.836   7.290  1.00  0.00     0.031 A 
BRANCH  49  63
ATOM     63  C   UNL     1       0.067 -10.847   1.521  1.00  0.00    -0.014 A 
ATOM     64  C   UNL     1       1.444 -10.716   1.782  1.00  0.00     0.009 A 
ATOM     65  C   UNL     1      -0.267 -11.462   0.302  1.00  0.00     0.009 A 
ATOM     66  C   UNL     1       2.418 -11.067   0.837  1.00  0.00     0.001 A 
ATOM     67  C   UNL     1       0.697 -11.775  -0.667  1.00  0.00     0.001 A 
ATOM     68  C   UNL     1       2.042 -11.564  -0.404  1.00  0.00     0.000 A 
ENDBRANCH  49  63
BRANCH  50  69
ATOM     69  C   UNL     1      -6.129  -5.637   6.772  1.00  0.00    -0.014 A 
ATOM     70  C   UNL     1      -6.577  -4.301   6.825  1.00  0.00     0.009 A 
ATOM     71  C   UNL     1      -7.039  -6.632   6.391  1.00  0.00     0.009 A 
ATOM     72  C   UNL     1      -7.864  -3.959   6.401  1.00  0.00     0.001 A 
ATOM     73  C   UNL     1      -8.332  -6.286   5.977  1.00  0.00     0.001 A 
ATOM     74  C   UNL     1      -8.731  -4.949   5.950  1.00  0.00     0.000 A 
ENDBRANCH  50  69
BRANCH  62  75
ATOM     75  C   UNL     1      -1.534 -11.117   8.032  1.00  0.00    -0.014 A 
ATOM     76  C   UNL     1      -2.283 -11.660   9.084  1.00  0.00     0.009 A 
ATOM     77  C   UNL     1      -0.442 -11.899   7.582  1.00  0.00     0.009 A 
ATOM     78  C   UNL     1      -1.940 -12.885   9.677  1.00  0.00     0.001 A 
ATOM     79  C   UNL     1      -0.123 -13.141   8.137  1.00  0.00     0.001 A 
ATOM     80  C   UNL     1      -0.868 -13.630   9.197  1.00  0.00     0.000 A 
ENDBRANCH  62  75
ENDBRANCH  36  37
ENDBRANCH  28  31
ENDBRANCH  26  27
ENDBRANCH  25  26
ENDBRANCH  24  25
ENDBRANCH  23  24
ENDBRANCH   1  23
TORSDOF 18
