REMARK SMILES O=C(C[C@@H](C(=O)N(c1ccccc1)c1ccccc1)[NH+]1CCOCC1)NCCCCCCNC(=O)c1ccc(-c2c3nc(c(-c4ccccc4)c4ccc([nH]4)c(-c4ccccc4)c4nc(c(-c5ccccc5)c5ccc2[nH]5)C=C4)C=C3)cc1
REMARK SMILES IDX 29 1 28 2 27 3 26 4 1 5 2 6 3 8 4 9 5 10 6 11 7 12 8 13 9 14
REMARK SMILES IDX 13 15 10 16 12 17 11 18 14 19 15 20 19 21 16 22 18 23 17 24
REMARK SMILES IDX 20 25 21 26 25 27 22 29 24 30 23 31 30 32 31 33 32 34 33 35
REMARK SMILES IDX 34 36 35 38 36 39 37 40 83 41 38 42 82 43 39 44 40 45 41 46
REMARK SMILES IDX 76 47 42 48 81 49 75 50 77 51 43 52 80 53 74 54 73 55 44 57
REMARK SMILES IDX 66 58 51 59 65 60 52 61 55 62 64 63 78 64 53 65 54 66 63 68
REMARK SMILES IDX 79 69 56 70 45 71 46 72 50 73 47 74 49 75 48 76 67 77 68 78
REMARK SMILES IDX 72 79 69 80 71 81 70 82 57 83 58 84 62 85 59 86 61 87 60 88
REMARK H PARENT 26 7 20 28 33 37 77 56 55 67
REMARK Flexibility Score: inf
ROOT
ATOM      1  C   UNL     1       3.606   1.381   4.302  1.00  0.00     0.002 C 
ENDROOT
BRANCH   1   2
ATOM      2  C   UNL     1       2.206   0.836   4.005  1.00  0.00     0.021 C 
BRANCH   2   3
ATOM      3  C   UNL     1       1.797   0.844   2.530  1.00  0.00     0.116 C 
BRANCH   3   4
ATOM      4  N   UNL     1       2.739   0.148   1.673  1.00  0.00    -0.356 N 
ATOM      5  O   UNL     1       1.164  -0.654   0.203  1.00  0.00    -0.275 OA
ATOM      6  C   UNL     1       2.335  -0.540   0.554  1.00  0.00     0.226 C 
ATOM      7  H   UNL     1       3.697   0.170   1.899  1.00  0.00     0.163 HD
BRANCH   6   8
ATOM      8  C   UNL     1       3.454  -1.185  -0.227  1.00  0.00     0.175 C 
BRANCH   8   9
ATOM      9  C   UNL     1       3.891  -0.408  -1.477  1.00  0.00     0.284 C 
BRANCH   9  10
ATOM     10  C   UNL     1       4.825   0.765  -1.050  1.00  0.00     0.290 C 
ATOM     11  O   UNL     1       6.025   0.475  -0.865  1.00  0.00    -0.267 OA
ATOM     12  N   UNL     1       4.391   2.080  -0.779  1.00  0.00    -0.276 N 
BRANCH  12  13
ATOM     13  C   UNL     1       3.056   2.669  -0.657  1.00  0.00     0.049 A 
ATOM     14  C   UNL     1       2.873   3.915  -0.005  1.00  0.00     0.027 A 
ATOM     15  C   UNL     1       1.867   2.073  -1.089  1.00  0.00     0.027 A 
ATOM     16  C   UNL     1       1.608   4.428   0.332  1.00  0.00     0.002 A 
ATOM     17  C   UNL     1       0.594   2.566  -0.741  1.00  0.00     0.002 A 
ATOM     18  C   UNL     1       0.463   3.729  -0.005  1.00  0.00     0.000 A 
ENDBRANCH  12  13
BRANCH  12  19
ATOM     19  C   UNL     1       5.462   2.931  -0.323  1.00  0.00     0.049 A 
ATOM     20  C   UNL     1       5.786   2.945   1.037  1.00  0.00     0.027 A 
ATOM     21  C   UNL     1       6.253   3.657  -1.216  1.00  0.00     0.027 A 
ATOM     22  C   UNL     1       6.796   3.768   1.531  1.00  0.00     0.002 A 
ATOM     23  C   UNL     1       7.303   4.445  -0.727  1.00  0.00     0.002 A 
ATOM     24  C   UNL     1       7.555   4.522   0.645  1.00  0.00     0.000 A 
ENDBRANCH  12  19
ENDBRANCH   9  10
BRANCH   9  25
ATOM     25  N   UNL     1       4.639  -1.224  -2.490  1.00  0.00    -0.320 N 
ATOM     26  C   UNL     1       3.834  -1.741  -3.605  1.00  0.00     0.291 C 
ATOM     27  C   UNL     1       5.548  -2.274  -1.991  1.00  0.00     0.291 C 
ATOM     28  H   UNL     1       5.248  -0.489  -2.851  1.00  0.00     0.348 HD
ATOM     29  C   UNL     1       3.175  -3.093  -3.313  1.00  0.00     0.221 C 
ATOM     30  C   UNL     1       4.916  -3.671  -1.821  1.00  0.00     0.221 C 
ATOM     31  O   UNL     1       4.158  -4.075  -2.967  1.00  0.00    -0.370 OA
ENDBRANCH   9  25
ENDBRANCH   8   9
ENDBRANCH   6   8
ENDBRANCH   3   4
ENDBRANCH   2   3
ENDBRANCH   1   2
BRANCH   1  32
ATOM     32  C   UNL     1       3.864   2.799   3.799  1.00  0.00     0.002 C 
BRANCH  32  33
ATOM     33  C   UNL     1       3.256   3.934   4.600  1.00  0.00     0.021 C 
BRANCH  33  34
ATOM     34  C   UNL     1       3.774   4.040   6.023  1.00  0.00     0.116 C 
BRANCH  34  35
ATOM     35  N   UNL     1       5.227   4.144   6.133  1.00  0.00    -0.352 N 
ATOM     36  C   UNL     1       5.977   4.905   7.000  1.00  0.00     0.251 C 
ATOM     37  H   UNL     1       5.740   3.594   5.498  1.00  0.00     0.163 HD
ATOM     38  O   UNL     1       7.201   4.932   6.910  1.00  0.00    -0.269 OA
BRANCH  36  39
ATOM     39  C   UNL     1       5.283   5.732   8.007  1.00  0.00     0.039 A 
ATOM     40  C   UNL     1       5.668   7.062   8.180  1.00  0.00     0.014 A 
ATOM     41  C   UNL     1       4.189   5.218   8.703  1.00  0.00     0.014 A 
ATOM     42  C   UNL     1       4.886   7.902   8.975  1.00  0.00     0.010 A 
ATOM     43  C   UNL     1       3.341   6.082   9.377  1.00  0.00     0.010 A 
ATOM     44  C   UNL     1       3.684   7.432   9.531  1.00  0.00    -0.014 A 
BRANCH  44  45
ATOM     45  C   UNL     1       2.771   8.332  10.275  1.00  0.00     0.031 A 
ATOM     46  C   UNL     1       2.415   8.030  11.706  1.00  0.00     0.074 A 
ATOM     47  C   UNL     1       2.202   9.376   9.641  1.00  0.00     0.049 A 
ATOM     48  N   UNL     1       1.620   8.685  12.515  1.00  0.00    -0.248 NA
ATOM     49  C   UNL     1       2.990   6.809  12.295  1.00  0.00     0.031 C 
ATOM     50  C   UNL     1       2.399   9.729   8.232  1.00  0.00     0.029 A 
ATOM     51  N   UNL     1       1.346  10.342  10.105  1.00  0.00    -0.354 N 
ATOM     52  C   UNL     1       1.578   7.938  13.686  1.00  0.00     0.074 A 
ATOM     53  C   UNL     1       2.368   6.750  13.461  1.00  0.00     0.031 C 
ATOM     54  C   UNL     1       1.738  10.867   7.966  1.00  0.00     0.029 A 
ATOM     55  C   UNL     1       1.042  11.302   9.171  1.00  0.00     0.049 A 
ATOM     56  H   UNL     1       0.984  10.347  11.021  1.00  0.00     0.167 HD
ATOM     57  C   UNL     1       0.966   8.229  14.857  1.00  0.00     0.031 A 
ATOM     58  C   UNL     1       0.300  12.419   9.280  1.00  0.00     0.031 A 
ATOM     59  C   UNL     1       0.214   9.431  15.091  1.00  0.00     0.049 A 
ATOM     60  C   UNL     1      -0.337  12.744  10.602  1.00  0.00     0.074 A 
ATOM     61  C   UNL     1      -0.369   9.870  16.266  1.00  0.00     0.029 A 
ATOM     62  N   UNL     1      -0.056  10.387  14.124  1.00  0.00    -0.354 N 
ATOM     63  N   UNL     1      -0.286  12.078  11.730  1.00  0.00    -0.248 NA
ATOM     64  C   UNL     1      -1.120  13.985  10.666  1.00  0.00     0.031 C 
ATOM     65  C   UNL     1      -1.033  11.072  15.997  1.00  0.00     0.029 A 
ATOM     66  C   UNL     1      -0.820  11.405  14.669  1.00  0.00     0.049 A 
ATOM     67  H   UNL     1       0.250  10.348  13.189  1.00  0.00     0.167 HD
ATOM     68  C   UNL     1      -1.012  12.828  12.645  1.00  0.00     0.074 A 
ATOM     69  C   UNL     1      -1.471  14.011  11.944  1.00  0.00     0.031 C 
ATOM     70  C   UNL     1      -1.277  12.565  13.948  1.00  0.00     0.031 A 
BRANCH  57  71
ATOM     71  C   UNL     1       1.092   7.221  15.967  1.00  0.00    -0.014 A 
ATOM     72  C   UNL     1       2.324   6.978  16.598  1.00  0.00     0.009 A 
ATOM     73  C   UNL     1      -0.037   6.502  16.387  1.00  0.00     0.009 A 
ATOM     74  C   UNL     1       2.432   6.000  17.588  1.00  0.00     0.001 A 
ATOM     75  C   UNL     1       0.067   5.548  17.401  1.00  0.00     0.001 A 
ATOM     76  C   UNL     1       1.303   5.288  17.991  1.00  0.00     0.000 A 
ENDBRANCH  57  71
BRANCH  58  77
ATOM     77  C   UNL     1       0.168  13.345   8.125  1.00  0.00    -0.014 A 
ATOM     78  C   UNL     1       0.826  14.585   8.138  1.00  0.00     0.009 A 
ATOM     79  C   UNL     1      -0.606  12.999   7.007  1.00  0.00     0.009 A 
ATOM     80  C   UNL     1       0.691  15.471   7.067  1.00  0.00     0.001 A 
ATOM     81  C   UNL     1      -0.718  13.876   5.926  1.00  0.00     0.001 A 
ATOM     82  C   UNL     1      -0.077  15.114   5.960  1.00  0.00     0.000 A 
ENDBRANCH  58  77
BRANCH  70  83
ATOM     83  C   UNL     1      -2.085  13.587  14.695  1.00  0.00    -0.014 A 
ATOM     84  C   UNL     1      -3.455  13.757  14.442  1.00  0.00     0.009 A 
ATOM     85  C   UNL     1      -1.468  14.378  15.677  1.00  0.00     0.009 A 
ATOM     86  C   UNL     1      -4.182  14.731  15.128  1.00  0.00     0.001 A 
ATOM     87  C   UNL     1      -2.205  15.329  16.383  1.00  0.00     0.001 A 
ATOM     88  C   UNL     1      -3.558  15.513  16.100  1.00  0.00     0.000 A 
ENDBRANCH  70  83
ENDBRANCH  44  45
ENDBRANCH  36  39
ENDBRANCH  34  35
ENDBRANCH  33  34
ENDBRANCH  32  33
ENDBRANCH   1  32
TORSDOF 18
