REMARK SMILES CCNC(=O)c1cccc(-c2ccc(Cl)c(C(=O)NCCCCCCNC(=O)c3ccc(-c4c5nc(c(-c6ccccc6)c6ccc([nH]6)c(-c6ccccc6)c6nc(c(-c7ccccc7)c7ccc4[nH]7)C=C6)C=C5)cc3)c2)c1
REMARK SMILES IDX 22 1 21 2 20 3 19 4 17 5 18 6 16 8 11 9 12 10 77 11 13 12
REMARK SMILES IDX 14 13 15 14 10 15 6 16 7 17 78 18 8 19 9 20 4 21 3 22 5 24
REMARK SMILES IDX 2 25 1 26 23 27 24 28 25 29 26 30 27 31 28 33 29 34 30 35
REMARK SMILES IDX 76 36 31 37 75 38 32 39 33 40 34 41 69 42 35 43 74 44 68 45
REMARK SMILES IDX 70 46 36 47 73 48 67 49 66 50 37 52 59 53 44 54 58 55 45 56
REMARK SMILES IDX 48 57 57 58 71 59 46 60 47 61 56 63 72 64 49 65 38 66 39 67
REMARK SMILES IDX 43 68 40 69 42 70 41 71 60 72 61 73 65 74 62 75 64 76 63 77
REMARK SMILES IDX 50 78 51 79 55 80 52 81 54 82 53 83
REMARK H PARENT 19 7 3 23 26 32 70 51 48 62
REMARK Flexibility Score: inf
ROOT
ATOM      1  C   UNL     1      -2.402   9.152   2.135  1.00  0.00     0.002 C 
ENDROOT
BRANCH   1   2
ATOM      2  C   UNL     1      -3.115   7.957   1.508  1.00  0.00     0.021 C 
BRANCH   2   3
ATOM      3  C   UNL     1      -2.814   6.590   2.104  1.00  0.00     0.116 C 
BRANCH   3   4
ATOM      4  N   UNL     1      -3.221   6.414   3.493  1.00  0.00    -0.352 N 
ATOM      5  C   UNL     1      -3.774   5.345   4.179  1.00  0.00     0.252 C 
ATOM      6  O   UNL     1      -3.902   5.464   5.395  1.00  0.00    -0.269 OA
ATOM      7  H   UNL     1      -3.075   7.211   4.052  1.00  0.00     0.163 HD
BRANCH   5   8
ATOM      8  C   UNL     1      -4.213   4.092   3.490  1.00  0.00     0.059 A 
ATOM      9  C   UNL     1      -4.028   2.710   1.465  1.00  0.00    -0.017 A 
ATOM     10  C   UNL     1      -5.138   1.974   1.885  1.00  0.00     0.010 A 
ATOM     11  C   UNL     1      -3.512   3.662   2.359  1.00  0.00     0.024 A 
ATOM     12  C   UNL     1      -5.751   2.256   3.111  1.00  0.00     0.022 A 
ATOM     13  C   UNL     1      -5.322   3.340   3.893  1.00  0.00     0.053 A 
ATOM     14  Cl  UNL     1      -6.259   3.675   5.305  1.00  0.00    -0.083 Cl
BRANCH   9  15
ATOM     15  C   UNL     1      -3.465   2.611   0.104  1.00  0.00    -0.018 A 
ATOM     16  C   UNL     1      -1.545   2.724  -1.407  1.00  0.00     0.040 A 
ATOM     17  C   UNL     1      -2.389   2.648  -2.515  1.00  0.00     0.014 A 
ATOM     18  C   UNL     1      -2.088   2.756  -0.119  1.00  0.00     0.022 A 
ATOM     19  C   UNL     1      -3.764   2.532  -2.324  1.00  0.00     0.001 A 
ATOM     20  C   UNL     1      -4.293   2.498  -1.028  1.00  0.00     0.009 A 
BRANCH  16  21
ATOM     21  C   UNL     1      -0.085   2.857  -1.612  1.00  0.00     0.251 C 
ATOM     22  N   UNL     1       0.800   2.182  -0.809  1.00  0.00    -0.352 N 
ATOM     23  H   UNL     1       1.744   2.434  -0.934  1.00  0.00     0.163 HD
ATOM     24  O   UNL     1       0.334   3.586  -2.508  1.00  0.00    -0.269 OA
BRANCH  22  25
ATOM     25  C   UNL     1       0.573   1.155   0.197  1.00  0.00     0.112 C 
ATOM     26  C   UNL     1       1.242  -0.150  -0.179  1.00  0.00     0.027 C 
ENDBRANCH  22  25
ENDBRANCH  16  21
ENDBRANCH   9  15
ENDBRANCH   5   8
ENDBRANCH   3   4
ENDBRANCH   2   3
ENDBRANCH   1   2
BRANCH   1  27
ATOM     27  C   UNL     1      -0.874   9.080   2.198  1.00  0.00     0.002 C 
BRANCH  27  28
ATOM     28  C   UNL     1      -0.151   8.767   0.886  1.00  0.00     0.021 C 
BRANCH  28  29
ATOM     29  C   UNL     1      -0.494   9.672  -0.293  1.00  0.00     0.116 C 
BRANCH  29  30
ATOM     30  N   UNL     1      -0.162  11.066  -0.049  1.00  0.00    -0.352 N 
ATOM     31  C   UNL     1       0.635  11.919  -0.777  1.00  0.00     0.251 C 
ATOM     32  H   UNL     1      -0.567  11.459   0.757  1.00  0.00     0.163 HD
ATOM     33  O   UNL     1       0.930  13.021  -0.335  1.00  0.00    -0.269 OA
BRANCH  31  34
ATOM     34  C   UNL     1       1.163  11.488  -2.091  1.00  0.00     0.039 A 
ATOM     35  C   UNL     1       2.520  11.676  -2.366  1.00  0.00     0.014 A 
ATOM     36  C   UNL     1       0.329  10.892  -3.040  1.00  0.00     0.014 A 
ATOM     37  C   UNL     1       3.058  11.187  -3.559  1.00  0.00     0.010 A 
ATOM     38  C   UNL     1       0.879  10.345  -4.197  1.00  0.00     0.010 A 
ATOM     39  C   UNL     1       2.252  10.474  -4.461  1.00  0.00    -0.014 A 
BRANCH  39  40
ATOM     40  C   UNL     1       2.826   9.823  -5.667  1.00  0.00     0.031 A 
ATOM     41  C   UNL     1       2.403  10.261  -7.041  1.00  0.00     0.074 A 
ATOM     42  C   UNL     1       3.676   8.786  -5.520  1.00  0.00     0.049 A 
ATOM     43  N   UNL     1       2.715   9.746  -8.204  1.00  0.00    -0.248 NA
ATOM     44  C   UNL     1       1.498  11.419  -7.120  1.00  0.00     0.031 C 
ATOM     45  C   UNL     1       4.150   8.251  -4.242  1.00  0.00     0.029 A 
ATOM     46  N   UNL     1       4.283   7.987  -6.458  1.00  0.00    -0.354 N 
ATOM     47  C   UNL     1       2.045  10.513  -9.148  1.00  0.00     0.074 A 
ATOM     48  C   UNL     1       1.270  11.496  -8.423  1.00  0.00     0.031 C 
ATOM     49  C   UNL     1       4.988   7.228  -4.476  1.00  0.00     0.029 A 
ATOM     50  C   UNL     1       5.068   6.998  -5.914  1.00  0.00     0.049 A 
ATOM     51  H   UNL     1       4.167   8.111  -7.427  1.00  0.00     0.167 HD
ATOM     52  C   UNL     1       2.089  10.421 -10.498  1.00  0.00     0.031 A 
ATOM     53  C   UNL     1       5.756   6.003  -6.506  1.00  0.00     0.031 A 
ATOM     54  C   UNL     1       2.854   9.439 -11.220  1.00  0.00     0.049 A 
ATOM     55  C   UNL     1       5.717   5.875  -8.005  1.00  0.00     0.074 A 
ATOM     56  C   UNL     1       2.982   9.284 -12.590  1.00  0.00     0.029 A 
ATOM     57  N   UNL     1       3.617   8.444 -10.631  1.00  0.00    -0.354 N 
ATOM     58  N   UNL     1       5.128   6.646  -8.886  1.00  0.00    -0.248 NA
ATOM     59  C   UNL     1       6.440   4.737  -8.591  1.00  0.00     0.031 C 
ATOM     60  C   UNL     1       3.777   8.160 -12.829  1.00  0.00     0.029 A 
ATOM     61  C   UNL     1       4.193   7.652 -11.610  1.00  0.00     0.049 A 
ATOM     62  H   UNL     1       3.731   8.318  -9.661  1.00  0.00     0.167 HD
ATOM     63  C   UNL     1       5.432   6.103 -10.127  1.00  0.00     0.074 A 
ATOM     64  C   UNL     1       6.277   4.953  -9.888  1.00  0.00     0.031 C 
ATOM     65  C   UNL     1       5.042   6.518 -11.356  1.00  0.00     0.031 A 
BRANCH  52  66
ATOM     66  C   UNL     1       1.286  11.414 -11.291  1.00  0.00    -0.014 A 
ATOM     67  C   UNL     1       1.667  12.764 -11.354  1.00  0.00     0.009 A 
ATOM     68  C   UNL     1       0.176  10.987 -12.037  1.00  0.00     0.009 A 
ATOM     69  C   UNL     1       0.938  13.671 -12.126  1.00  0.00     0.001 A 
ATOM     70  C   UNL     1      -0.534  11.890 -12.831  1.00  0.00     0.001 A 
ATOM     71  C   UNL     1      -0.157  13.232 -12.869  1.00  0.00     0.000 A 
ENDBRANCH  52  66
BRANCH  53  72
ATOM     72  C   UNL     1       6.530   5.027  -5.691  1.00  0.00    -0.014 A 
ATOM     73  C   UNL     1       7.930   4.975  -5.783  1.00  0.00     0.009 A 
ATOM     74  C   UNL     1       5.874   4.111  -4.854  1.00  0.00     0.009 A 
ATOM     75  C   UNL     1       8.651   4.001  -5.089  1.00  0.00     0.001 A 
ATOM     76  C   UNL     1       6.600   3.160  -4.134  1.00  0.00     0.001 A 
ATOM     77  C   UNL     1       7.986   3.096  -4.263  1.00  0.00     0.000 A 
ENDBRANCH  53  72
BRANCH  65  78
ATOM     78  C   UNL     1       5.553   5.747 -12.541  1.00  0.00    -0.014 A 
ATOM     79  C   UNL     1       5.067   4.464 -12.838  1.00  0.00     0.009 A 
ATOM     80  C   UNL     1       6.489   6.338 -13.404  1.00  0.00     0.009 A 
ATOM     81  C   UNL     1       5.529   3.779 -13.964  1.00  0.00     0.001 A 
ATOM     82  C   UNL     1       6.925   5.663 -14.545  1.00  0.00     0.001 A 
ATOM     83  C   UNL     1       6.450   4.382 -14.820  1.00  0.00     0.000 A 
ENDBRANCH  65  78
ENDBRANCH  39  40
ENDBRANCH  31  34
ENDBRANCH  29  30
ENDBRANCH  28  29
ENDBRANCH  27  28
ENDBRANCH   1  27
TORSDOF 16
