REMARK SMILES COc1cc(Br)c([C@@H]2CC[NH2+][C@H]2C(=O)NCCCCCCNC(=O)c2ccc(-c3c4nc(c(-c5ccccc5)c5ccc([nH]5)c(-c5ccccc5)c5nc(c(-c6ccccc6)c6ccc3[nH]6)C=C5)C=C4)cc2)cc1OC
REMARK SMILES IDX 18 1 17 2 16 3 15 4 13 5 14 6 12 8 8 9 9 10 10 11 11 12 7 15
REMARK SMILES IDX 3 16 4 17 74 18 5 19 73 20 6 21 2 22 1 23 75 24 76 25 19 26
REMARK SMILES IDX 20 27 21 28 22 29 23 30 24 32 25 33 26 34 72 35 27 36 71 37
REMARK SMILES IDX 28 38 29 39 30 40 65 41 31 42 70 43 64 44 66 45 32 46 69 47
REMARK SMILES IDX 63 48 62 49 33 51 55 52 40 53 54 54 41 55 44 56 53 57 67 58
REMARK SMILES IDX 42 59 43 60 52 62 68 63 45 64 34 65 35 66 39 67 36 68 38 69
REMARK SMILES IDX 37 70 56 71 57 72 61 73 58 74 60 75 59 76 46 77 47 78 51 79
REMARK SMILES IDX 48 80 50 81 49 82
REMARK H PARENT 15 7 11 13 11 14 22 31 66 50 44 61
REMARK Flexibility Score: inf
ROOT
ATOM      1  C   UNL     1       0.091  -8.944  -6.898  1.00  0.00     0.002 C 
ENDROOT
BRANCH   1   2
ATOM      2  C   UNL     1       0.721  -8.345  -5.638  1.00  0.00     0.021 C 
BRANCH   2   3
ATOM      3  C   UNL     1       1.947  -7.475  -5.895  1.00  0.00     0.116 C 
BRANCH   3   4
ATOM      4  N   UNL     1       1.591  -6.163  -6.393  1.00  0.00    -0.351 N 
ATOM      5  C   UNL     1       1.842  -4.909  -5.916  1.00  0.00     0.278 C 
ATOM      6  O   UNL     1       1.336  -3.971  -6.542  1.00  0.00    -0.268 OA
ATOM      7  H   UNL     1       1.072  -6.178  -7.230  1.00  0.00     0.163 HD
BRANCH   5   8
ATOM      8  C   UNL     1       2.693  -4.641  -4.650  1.00  0.00     0.280 C 
ATOM      9  C   UNL     1       1.983  -5.030  -3.348  1.00  0.00     0.094 C 
ATOM     10  C   UNL     1       2.866  -6.095  -2.698  1.00  0.00     0.076 C 
ATOM     11  C   UNL     1       4.171  -6.114  -3.479  1.00  0.00     0.262 C 
ATOM     12  N   UNL     1       3.992  -5.351  -4.710  1.00  0.00    -0.335 N 
ATOM     13  H   UNL     1       3.999  -5.985  -5.509  1.00  0.00     0.346 HD
ATOM     14  H   UNL     1       4.750  -4.677  -4.812  1.00  0.00     0.346 HD
BRANCH   9  15
ATOM     15  C   UNL     1       1.636  -3.901  -2.377  1.00  0.00    -0.020 A 
ATOM     16  C   UNL     1       0.751  -1.968  -0.477  1.00  0.00     0.161 A 
ATOM     17  C   UNL     1       2.085  -2.019  -0.893  1.00  0.00     0.066 A 
ATOM     18  C   UNL     1      -0.154  -2.905  -0.977  1.00  0.00     0.161 A 
ATOM     19  C   UNL     1       2.526  -2.961  -1.834  1.00  0.00     0.025 A 
ATOM     20  C   UNL     1       0.297  -3.844  -1.923  1.00  0.00     0.055 A 
ATOM     21  Br  UNL     1       4.377  -2.849  -2.242  1.00  0.00    -0.050 Br
BRANCH  16  22
ATOM     22  O   UNL     1       0.374  -1.057   0.473  1.00  0.00    -0.493 OA
ATOM     23  C   UNL     1       0.721   0.286   0.133  1.00  0.00     0.278 C 
ENDBRANCH  16  22
BRANCH  18  24
ATOM     24  O   UNL     1      -1.482  -3.054  -0.676  1.00  0.00    -0.493 OA
ATOM     25  C   UNL     1      -2.053  -2.211   0.314  1.00  0.00     0.278 C 
ENDBRANCH  18  24
ENDBRANCH   9  15
ENDBRANCH   5   8
ENDBRANCH   3   4
ENDBRANCH   2   3
ENDBRANCH   1   2
BRANCH   1  26
ATOM     26  C   UNL     1       1.020  -9.818  -7.749  1.00  0.00     0.002 C 
BRANCH  26  27
ATOM     27  C   UNL     1       1.753 -10.937  -7.002  1.00  0.00     0.021 C 
BRANCH  27  28
ATOM     28  C   UNL     1       0.856 -11.926  -6.259  1.00  0.00     0.116 C 
BRANCH  28  29
ATOM     29  N   UNL     1      -0.061 -12.613  -7.150  1.00  0.00    -0.352 N 
ATOM     30  C   UNL     1      -0.328 -13.950  -7.284  1.00  0.00     0.251 C 
ATOM     31  H   UNL     1      -0.573 -12.026  -7.752  1.00  0.00     0.163 HD
ATOM     32  O   UNL     1      -1.019 -14.336  -8.226  1.00  0.00    -0.269 OA
BRANCH  30  33
ATOM     33  C   UNL     1       0.212 -14.940  -6.325  1.00  0.00     0.039 A 
ATOM     34  C   UNL     1       0.664 -16.165  -6.824  1.00  0.00     0.014 A 
ATOM     35  C   UNL     1       0.220 -14.705  -4.946  1.00  0.00     0.014 A 
ATOM     36  C   UNL     1       1.155 -17.136  -5.950  1.00  0.00     0.010 A 
ATOM     37  C   UNL     1       0.767 -15.652  -4.079  1.00  0.00     0.010 A 
ATOM     38  C   UNL     1       1.228 -16.882  -4.571  1.00  0.00    -0.014 A 
BRANCH  38  39
ATOM     39  C   UNL     1       1.789 -17.905  -3.654  1.00  0.00     0.031 A 
ATOM     40  C   UNL     1       0.913 -18.608  -2.655  1.00  0.00     0.074 A 
ATOM     41  C   UNL     1       3.103 -18.196  -3.716  1.00  0.00     0.049 A 
ATOM     42  N   UNL     1       1.220 -19.578  -1.828  1.00  0.00    -0.248 NA
ATOM     43  C   UNL     1      -0.482 -18.154  -2.554  1.00  0.00     0.031 C 
ATOM     44  C   UNL     1       4.072 -17.549  -4.603  1.00  0.00     0.029 A 
ATOM     45  N   UNL     1       3.846 -19.123  -3.030  1.00  0.00    -0.354 N 
ATOM     46  C   UNL     1       0.062 -19.843  -1.109  1.00  0.00     0.074 A 
ATOM     47  C   UNL     1      -0.940 -18.901  -1.560  1.00  0.00     0.031 C 
ATOM     48  C   UNL     1       5.272 -18.126  -4.436  1.00  0.00     0.029 A 
ATOM     49  C   UNL     1       5.162 -19.168  -3.421  1.00  0.00     0.049 A 
ATOM     50  H   UNL     1       3.472 -19.700  -2.325  1.00  0.00     0.167 HD
ATOM     51  C   UNL     1      -0.156 -20.796  -0.171  1.00  0.00     0.031 A 
ATOM     52  C   UNL     1       6.164 -19.972  -3.021  1.00  0.00     0.031 A 
ATOM     53  C   UNL     1       0.835 -21.740   0.275  1.00  0.00     0.049 A 
ATOM     54  C   UNL     1       5.890 -21.040  -2.001  1.00  0.00     0.074 A 
ATOM     55  C   UNL     1       0.694 -22.778   1.181  1.00  0.00     0.029 A 
ATOM     56  N   UNL     1       2.153 -21.758  -0.151  1.00  0.00    -0.354 N 
ATOM     57  N   UNL     1       4.768 -21.329  -1.389  1.00  0.00    -0.248 NA
ATOM     58  C   UNL     1       7.020 -21.906  -1.635  1.00  0.00     0.031 C 
ATOM     59  C   UNL     1       1.939 -23.400   1.331  1.00  0.00     0.029 A 
ATOM     60  C   UNL     1       2.842 -22.778   0.485  1.00  0.00     0.049 A 
ATOM     61  H   UNL     1       2.543 -21.138  -0.809  1.00  0.00     0.167 HD
ATOM     62  C   UNL     1       5.050 -22.423  -0.581  1.00  0.00     0.074 A 
ATOM     63  C   UNL     1       6.443 -22.757  -0.799  1.00  0.00     0.031 C 
ATOM     64  C   UNL     1       4.230 -23.090   0.267  1.00  0.00     0.031 A 
BRANCH  51  65
ATOM     65  C   UNL     1      -1.529 -20.862   0.438  1.00  0.00    -0.014 A 
ATOM     66  C   UNL     1      -2.628 -21.329  -0.300  1.00  0.00     0.009 A 
ATOM     67  C   UNL     1      -1.722 -20.480   1.775  1.00  0.00     0.009 A 
ATOM     68  C   UNL     1      -3.899 -21.378   0.276  1.00  0.00     0.001 A 
ATOM     69  C   UNL     1      -2.989 -20.555   2.357  1.00  0.00     0.001 A 
ATOM     70  C   UNL     1      -4.078 -20.995   1.605  1.00  0.00     0.000 A 
ENDBRANCH  51  65
BRANCH  52  71
ATOM     71  C   UNL     1       7.513 -19.829  -3.623  1.00  0.00    -0.014 A 
ATOM     72  C   UNL     1       7.989 -20.784  -4.534  1.00  0.00     0.009 A 
ATOM     73  C   UNL     1       8.330 -18.738  -3.292  1.00  0.00     0.009 A 
ATOM     74  C   UNL     1       9.267 -20.663  -5.083  1.00  0.00     0.001 A 
ATOM     75  C   UNL     1       9.598 -18.606  -3.862  1.00  0.00     0.001 A 
ATOM     76  C   UNL     1      10.069 -19.572  -4.750  1.00  0.00     0.000 A 
ENDBRANCH  52  71
BRANCH  64  77
ATOM     77  C   UNL     1       4.821 -24.258   1.003  1.00  0.00    -0.014 A 
ATOM     78  C   UNL     1       5.737 -24.068   2.050  1.00  0.00     0.009 A 
ATOM     79  C   UNL     1       4.452 -25.564   0.649  1.00  0.00     0.009 A 
ATOM     80  C   UNL     1       6.303 -25.166   2.700  1.00  0.00     0.001 A 
ATOM     81  C   UNL     1       5.000 -26.660   1.318  1.00  0.00     0.001 A 
ATOM     82  C   UNL     1       5.934 -26.460   2.334  1.00  0.00     0.000 A 
ENDBRANCH  64  77
ENDBRANCH  38  39
ENDBRANCH  30  33
ENDBRANCH  28  29
ENDBRANCH  27  28
ENDBRANCH  26  27
ENDBRANCH   1  26
TORSDOF 16
