REMARK SMILES C=CCc1cccc(-c2ccc([C@@H](C)C(=O)NCCCCCCNC(=O)c3ccc(-c4c5nc(c(-c6ccccc6)c6ccc([nH]6)c(-c6ccccc6)c6nc(c(-c7ccccc7)c7ccc4[nH]7)C=C6)C=C5)cc3)cc2)c1
REMARK SMILES IDX 19 1 18 2 17 3 15 4 16 5 13 7 14 8 12 9 9 10 10 11 76 12
REMARK SMILES IDX 11 13 75 14 8 15 4 16 5 17 77 18 6 19 7 20 3 21 2 22 1 23
REMARK SMILES IDX 20 24 21 25 22 26 23 27 24 28 25 29 26 31 27 32 28 33 74 34
REMARK SMILES IDX 29 35 73 36 30 37 31 38 32 39 67 40 33 41 72 42 66 43 68 44
REMARK SMILES IDX 34 45 71 46 65 47 64 48 35 50 57 51 42 52 56 53 43 54 46 55
REMARK SMILES IDX 55 56 69 57 44 58 45 59 54 61 70 62 47 63 36 64 37 65 41 66
REMARK SMILES IDX 38 67 40 68 39 69 58 70 59 71 63 72 60 73 62 74 61 75 48 76
REMARK SMILES IDX 49 77 53 78 50 79 52 80 51 81
REMARK H PARENT 17 6 24 30 68 49 46 60
REMARK Flexibility Score: inf
ROOT
ATOM      1  C   UNL     1      -7.701   4.706   3.797  1.00  0.00     0.021 C 
ENDROOT
BRANCH   1   2
ATOM      2  C   UNL     1      -7.591   5.130   5.263  1.00  0.00     0.116 C 
BRANCH   2   3
ATOM      3  N   UNL     1      -7.391   3.991   6.131  1.00  0.00    -0.356 N 
ATOM      4  C   UNL     1      -6.272   3.492   6.723  1.00  0.00     0.227 C 
ATOM      5  O   UNL     1      -6.406   2.425   7.335  1.00  0.00    -0.274 OA
ATOM      6  H   UNL     1      -8.212   3.486   6.329  1.00  0.00     0.163 HD
BRANCH   4   7
ATOM      7  C   UNL     1      -4.902   4.188   6.687  1.00  0.00     0.105 C 
ATOM      8  C   UNL     1      -4.901   5.578   7.323  1.00  0.00     0.023 C 
BRANCH   7   9
ATOM      9  C   UNL     1      -4.191   4.073   5.347  1.00  0.00    -0.036 A 
ATOM     10  C   UNL     1      -2.952   3.704   2.794  1.00  0.00    -0.018 A 
ATOM     11  C   UNL     1      -3.817   4.778   3.049  1.00  0.00     0.009 A 
ATOM     12  C   UNL     1      -2.698   2.831   3.862  1.00  0.00     0.009 A 
ATOM     13  C   UNL     1      -4.383   4.985   4.309  1.00  0.00     0.005 A 
ATOM     14  C   UNL     1      -3.323   2.998   5.108  1.00  0.00     0.005 A 
BRANCH  10  15
ATOM     15  C   UNL     1      -2.340   3.533   1.456  1.00  0.00    -0.018 A 
ATOM     16  C   UNL     1      -1.488   2.112  -0.358  1.00  0.00    -0.044 A 
ATOM     17  C   UNL     1      -1.215   3.252  -1.125  1.00  0.00     0.004 A 
ATOM     18  C   UNL     1      -2.064   2.263   0.917  1.00  0.00     0.012 A 
ATOM     19  C   UNL     1      -1.474   4.517  -0.614  1.00  0.00     0.001 A 
ATOM     20  C   UNL     1      -2.015   4.652   0.665  1.00  0.00     0.009 A 
BRANCH  16  21
ATOM     21  C   UNL     1      -1.097   0.746  -0.870  1.00  0.00     0.062 C 
BRANCH  21  22
ATOM     22  C   UNL     1       0.393   0.544  -0.803  1.00  0.00    -0.030 C 
ATOM     23  C   UNL     1       1.014  -0.300   0.030  1.00  0.00     0.004 C 
ENDBRANCH  21  22
ENDBRANCH  16  21
ENDBRANCH  10  15
ENDBRANCH   7   9
ENDBRANCH   4   7
ENDBRANCH   2   3
ENDBRANCH   1   2
BRANCH   1  24
ATOM     24  C   UNL     1      -9.130   4.364   3.366  1.00  0.00     0.002 C 
BRANCH  24  25
ATOM     25  C   UNL     1     -10.128   5.524   3.472  1.00  0.00     0.002 C 
BRANCH  25  26
ATOM     26  C   UNL     1      -9.721   6.796   2.724  1.00  0.00     0.021 C 
BRANCH  26  27
ATOM     27  C   UNL     1      -9.570   6.606   1.220  1.00  0.00     0.116 C 
BRANCH  27  28
ATOM     28  N   UNL     1     -10.835   6.245   0.597  1.00  0.00    -0.352 N 
ATOM     29  C   UNL     1     -11.540   6.912  -0.374  1.00  0.00     0.251 C 
ATOM     30  H   UNL     1     -11.241   5.406   0.915  1.00  0.00     0.163 HD
ATOM     31  O   UNL     1     -12.703   6.619  -0.621  1.00  0.00    -0.269 OA
BRANCH  29  32
ATOM     32  C   UNL     1     -10.873   7.998  -1.119  1.00  0.00     0.039 A 
ATOM     33  C   UNL     1     -11.534   9.214  -1.302  1.00  0.00     0.014 A 
ATOM     34  C   UNL     1      -9.584   7.805  -1.620  1.00  0.00     0.014 A 
ATOM     35  C   UNL     1     -10.874  10.264  -1.944  1.00  0.00     0.010 A 
ATOM     36  C   UNL     1      -8.901   8.873  -2.184  1.00  0.00     0.010 A 
ATOM     37  C   UNL     1      -9.542  10.110  -2.362  1.00  0.00    -0.014 A 
BRANCH  37  38
ATOM     38  C   UNL     1      -8.795  11.207  -3.023  1.00  0.00     0.031 A 
ATOM     39  C   UNL     1      -8.306  11.021  -4.434  1.00  0.00     0.074 A 
ATOM     40  C   UNL     1      -8.477  12.320  -2.335  1.00  0.00     0.049 A 
ATOM     41  N   UNL     1      -7.513  11.783  -5.141  1.00  0.00    -0.248 NA
ATOM     42  C   UNL     1      -8.744   9.798  -5.128  1.00  0.00     0.031 C 
ATOM     43  C   UNL     1      -8.870  12.609  -0.955  1.00  0.00     0.029 A 
ATOM     44  N   UNL     1      -7.728  13.410  -2.702  1.00  0.00    -0.354 N 
ATOM     45  C   UNL     1      -7.339  11.120  -6.350  1.00  0.00     0.074 A 
ATOM     46  C   UNL     1      -8.061   9.871  -6.259  1.00  0.00     0.031 C 
ATOM     47  C   UNL     1      -8.369  13.802  -0.596  1.00  0.00     0.029 A 
ATOM     48  C   UNL     1      -7.579  14.338  -1.700  1.00  0.00     0.049 A 
ATOM     49  H   UNL     1      -7.335  13.517  -3.599  1.00  0.00     0.167 HD
ATOM     50  C   UNL     1      -6.656  11.525  -7.447  1.00  0.00     0.031 A 
ATOM     51  C   UNL     1      -6.868  15.481  -1.668  1.00  0.00     0.031 A 
ATOM     52  C   UNL     1      -5.945  12.771  -7.536  1.00  0.00     0.049 A 
ATOM     53  C   UNL     1      -6.089  15.895  -2.887  1.00  0.00     0.074 A 
ATOM     54  C   UNL     1      -5.253  13.293  -8.614  1.00  0.00     0.029 A 
ATOM     55  N   UNL     1      -5.838  13.692  -6.505  1.00  0.00    -0.354 N 
ATOM     56  N   UNL     1      -5.972  15.282  -4.040  1.00  0.00    -0.248 NA
ATOM     57  C   UNL     1      -5.352  17.165  -2.805  1.00  0.00     0.031 C 
ATOM     58  C   UNL     1      -4.681  14.505  -8.219  1.00  0.00     0.029 A 
ATOM     59  C   UNL     1      -5.075  14.771  -6.917  1.00  0.00     0.049 A 
ATOM     60  H   UNL     1      -6.243  13.593  -5.613  1.00  0.00     0.167 HD
ATOM     61  C   UNL     1      -5.185  16.109  -4.832  1.00  0.00     0.074 A 
ATOM     62  C   UNL     1      -4.858  17.269  -4.031  1.00  0.00     0.031 C 
ATOM     63  C   UNL     1      -4.775  15.926  -6.111  1.00  0.00     0.031 A 
BRANCH  50  64
ATOM     64  C   UNL     1      -6.641  10.602  -8.634  1.00  0.00    -0.014 A 
ATOM     65  C   UNL     1      -7.806  10.355  -9.379  1.00  0.00     0.009 A 
ATOM     66  C   UNL     1      -5.441   9.993  -9.031  1.00  0.00     0.009 A 
ATOM     67  C   UNL     1      -7.778   9.485 -10.471  1.00  0.00     0.001 A 
ATOM     68  C   UNL     1      -5.408   9.151 -10.145  1.00  0.00     0.001 A 
ATOM     69  C   UNL     1      -6.578   8.889 -10.856  1.00  0.00     0.000 A 
ENDBRANCH  50  64
BRANCH  51  70
ATOM     70  C   UNL     1      -6.854  16.319  -0.439  1.00  0.00    -0.014 A 
ATOM     71  C   UNL     1      -7.471  17.579  -0.425  1.00  0.00     0.009 A 
ATOM     72  C   UNL     1      -6.210  15.869   0.725  1.00  0.00     0.009 A 
ATOM     73  C   UNL     1      -7.413  18.385   0.715  1.00  0.00     0.001 A 
ATOM     74  C   UNL     1      -6.183  16.662   1.874  1.00  0.00     0.001 A 
ATOM     75  C   UNL     1      -6.774  17.924   1.864  1.00  0.00     0.000 A 
ENDBRANCH  51  70
BRANCH  63  76
ATOM     76  C   UNL     1      -3.982  17.030  -6.754  1.00  0.00    -0.014 A 
ATOM     77  C   UNL     1      -2.650  17.285  -6.396  1.00  0.00     0.009 A 
ATOM     78  C   UNL     1      -4.564  17.777  -7.790  1.00  0.00     0.009 A 
ATOM     79  C   UNL     1      -1.925  18.284  -7.049  1.00  0.00     0.001 A 
ATOM     80  C   UNL     1      -3.828  18.753  -8.462  1.00  0.00     0.001 A 
ATOM     81  C   UNL     1      -2.511  19.011  -8.086  1.00  0.00     0.000 A 
ENDBRANCH  63  76
ENDBRANCH  37  38
ENDBRANCH  29  32
ENDBRANCH  27  28
ENDBRANCH  26  27
ENDBRANCH  25  26
ENDBRANCH  24  25
ENDBRANCH   1  24
TORSDOF 17
