REMARK SMILES O=C(NCCCCCCNC(=O)[C@H]1C[NH2+]C[C@H]1c1ccc(C2CC2)cc1)c1ccc(-c2c3nc(c(-c4ccccc4)c4ccc([nH]4)c(-c4ccccc4)c4nc(c(-c5ccccc5)c5ccc2[nH]5)C=C4)C=C3)cc1
REMARK SMILES IDX 6 1 5 2 4 3 3 4 1 5 2 6 27 8 28 9 74 10 29 11 73 12 30 13
REMARK SMILES IDX 31 14 32 15 67 16 33 17 72 18 66 19 68 20 34 21 71 22 65 23
REMARK SMILES IDX 64 24 35 26 57 27 42 28 56 29 43 30 46 31 55 32 69 33 44 34
REMARK SMILES IDX 45 35 54 37 70 38 47 39 36 40 37 41 41 42 38 43 40 44 39 45
REMARK SMILES IDX 58 46 59 47 63 48 60 49 62 50 61 51 48 52 49 53 53 54 50 55
REMARK SMILES IDX 52 56 51 57 7 58 8 59 9 60 10 61 11 62 12 64 13 65 14 66
REMARK SMILES IDX 17 67 15 68 16 69 18 72 19 73 26 74 20 75 25 76 21 77 22 78
REMARK SMILES IDX 23 79 24 80
REMARK H PARENT 3 7 68 25 46 36 10 63 15 70 15 71
REMARK Flexibility Score: inf
ROOT
ATOM      1  C   UNL     1       6.680   7.045  -1.437  1.00  0.00     0.002 C 
ENDROOT
BRANCH   1   2
ATOM      2  C   UNL     1       5.870   8.199  -2.025  1.00  0.00     0.021 C 
BRANCH   2   3
ATOM      3  C   UNL     1       4.369   8.111  -1.793  1.00  0.00     0.116 C 
BRANCH   3   4
ATOM      4  N   UNL     1       3.998   8.294  -0.399  1.00  0.00    -0.352 N 
ATOM      5  O   UNL     1       2.941   9.262   1.350  1.00  0.00    -0.269 OA
ATOM      6  C   UNL     1       3.038   9.122   0.134  1.00  0.00     0.251 C 
ATOM      7  H   UNL     1       4.502   7.752   0.251  1.00  0.00     0.163 HD
BRANCH   6   8
ATOM      8  C   UNL     1       2.136   9.869  -0.770  1.00  0.00     0.039 A 
ATOM      9  C   UNL     1       1.549   9.233  -1.865  1.00  0.00     0.014 A 
ATOM     10  C   UNL     1       1.884  11.223  -0.528  1.00  0.00     0.014 A 
ATOM     11  C   UNL     1       0.840   9.980  -2.796  1.00  0.00     0.010 A 
ATOM     12  C   UNL     1       1.088  11.954  -1.417  1.00  0.00     0.010 A 
ATOM     13  C   UNL     1       0.583  11.345  -2.575  1.00  0.00    -0.014 A 
BRANCH  13  14
ATOM     14  C   UNL     1      -0.281  12.068  -3.542  1.00  0.00     0.031 A 
ATOM     15  C   UNL     1       0.246  13.190  -4.391  1.00  0.00     0.074 A 
ATOM     16  C   UNL     1      -1.551  11.642  -3.698  1.00  0.00     0.049 A 
ATOM     17  N   UNL     1      -0.360  13.844  -5.352  1.00  0.00    -0.248 NA
ATOM     18  C   UNL     1       1.621  13.644  -4.133  1.00  0.00     0.031 C 
ATOM     19  C   UNL     1      -2.181  10.574  -2.916  1.00  0.00     0.029 A 
ATOM     20  N   UNL     1      -2.522  12.018  -4.588  1.00  0.00    -0.354 N 
ATOM     21  C   UNL     1       0.551  14.790  -5.804  1.00  0.00     0.074 A 
ATOM     22  C   UNL     1       1.744  14.644  -4.997  1.00  0.00     0.031 C 
ATOM     23  C   UNL     1      -3.404  10.332  -3.408  1.00  0.00     0.029 A 
ATOM     24  C   UNL     1      -3.668  11.266  -4.495  1.00  0.00     0.049 A 
ATOM     25  H   UNL     1      -2.410  12.755  -5.231  1.00  0.00     0.167 HD
ATOM     26  C   UNL     1       0.408  15.693  -6.805  1.00  0.00     0.031 A 
ATOM     27  C   UNL     1      -4.810  11.319  -5.202  1.00  0.00     0.031 A 
ATOM     28  C   UNL     1      -0.782  15.842  -7.604  1.00  0.00     0.049 A 
ATOM     29  C   UNL     1      -4.939  12.330  -6.302  1.00  0.00     0.074 A 
ATOM     30  C   UNL     1      -1.018  16.726  -8.644  1.00  0.00     0.029 A 
ATOM     31  N   UNL     1      -1.935  15.087  -7.453  1.00  0.00    -0.354 N 
ATOM     32  N   UNL     1      -4.056  13.200  -6.729  1.00  0.00    -0.248 NA
ATOM     33  C   UNL     1      -6.220  12.364  -7.018  1.00  0.00     0.031 C 
ATOM     34  C   UNL     1      -2.329  16.533  -9.095  1.00  0.00     0.029 A 
ATOM     35  C   UNL     1      -2.891  15.495  -8.370  1.00  0.00     0.049 A 
ATOM     36  H   UNL     1      -2.057  14.368  -6.792  1.00  0.00     0.167 HD
ATOM     37  C   UNL     1      -4.675  13.886  -7.762  1.00  0.00     0.074 A 
ATOM     38  C   UNL     1      -5.992  13.304  -7.924  1.00  0.00     0.031 C 
ATOM     39  C   UNL     1      -4.202  14.916  -8.504  1.00  0.00     0.031 A 
BRANCH  26  40
ATOM     40  C   UNL     1       1.567  16.608  -7.089  1.00  0.00    -0.014 A 
ATOM     41  C   UNL     1       2.720  16.140  -7.737  1.00  0.00     0.009 A 
ATOM     42  C   UNL     1       1.478  17.971  -6.761  1.00  0.00     0.009 A 
ATOM     43  C   UNL     1       3.771  17.012  -8.031  1.00  0.00     0.001 A 
ATOM     44  C   UNL     1       2.521  18.845  -7.077  1.00  0.00     0.001 A 
ATOM     45  C   UNL     1       3.668  18.365  -7.706  1.00  0.00     0.000 A 
ENDBRANCH  26  40
BRANCH  27  46
ATOM     46  C   UNL     1      -5.926  10.396  -4.874  1.00  0.00    -0.014 A 
ATOM     47  C   UNL     1      -6.292   9.368  -5.755  1.00  0.00     0.009 A 
ATOM     48  C   UNL     1      -6.623  10.535  -3.663  1.00  0.00     0.009 A 
ATOM     49  C   UNL     1      -7.350   8.513  -5.439  1.00  0.00     0.001 A 
ATOM     50  C   UNL     1      -7.659   9.659  -3.337  1.00  0.00     0.001 A 
ATOM     51  C   UNL     1      -8.028   8.655  -4.229  1.00  0.00     0.000 A 
ENDBRANCH  27  46
BRANCH  39  52
ATOM     52  C   UNL     1      -5.121  15.465  -9.556  1.00  0.00    -0.014 A 
ATOM     53  C   UNL     1      -6.242  16.234  -9.205  1.00  0.00     0.009 A 
ATOM     54  C   UNL     1      -4.866  15.208 -10.911  1.00  0.00     0.009 A 
ATOM     55  C   UNL     1      -7.114  16.699 -10.191  1.00  0.00     0.001 A 
ATOM     56  C   UNL     1      -5.725  15.697 -11.896  1.00  0.00     0.001 A 
ATOM     57  C   UNL     1      -6.854  16.431 -11.535  1.00  0.00     0.000 A 
ENDBRANCH  39  52
ENDBRANCH  13  14
ENDBRANCH   6   8
ENDBRANCH   3   4
ENDBRANCH   2   3
ENDBRANCH   1   2
BRANCH   1  58
ATOM     58  C   UNL     1       6.283   5.645  -1.918  1.00  0.00     0.002 C 
BRANCH  58  59
ATOM     59  C   UNL     1       6.221   5.451  -3.440  1.00  0.00     0.021 C 
BRANCH  59  60
ATOM     60  C   UNL     1       7.488   5.858  -4.190  1.00  0.00     0.116 C 
BRANCH  60  61
ATOM     61  N   UNL     1       8.634   5.077  -3.769  1.00  0.00    -0.356 N 
ATOM     62  C   UNL     1       9.393   4.188  -4.472  1.00  0.00     0.229 C 
ATOM     63  H   UNL     1       8.906   5.209  -2.832  1.00  0.00     0.163 HD
ATOM     64  O   UNL     1      10.353   3.677  -3.898  1.00  0.00    -0.275 OA
BRANCH  62  65
ATOM     65  C   UNL     1       9.058   3.939  -5.938  1.00  0.00     0.146 C 
ATOM     66  C   UNL     1       9.728   5.018  -6.779  1.00  0.00     0.274 C 
ATOM     67  C   UNL     1       9.646   2.658  -6.538  1.00  0.00     0.092 C 
ATOM     68  N   UNL     1      11.076   4.531  -7.111  1.00  0.00    -0.345 N 
ATOM     69  C   UNL     1      11.089   3.077  -6.846  1.00  0.00     0.269 C 
ATOM     70  H   UNL     1      11.771   4.999  -6.528  1.00  0.00     0.346 HD
ATOM     71  H   UNL     1      11.302   4.725  -8.086  1.00  0.00     0.346 HD
BRANCH  67  72
ATOM     72  C   UNL     1       9.402   1.386  -5.754  1.00  0.00    -0.038 A 
ATOM     73  C   UNL     1      10.415   0.463  -5.486  1.00  0.00     0.004 A 
ATOM     74  C   UNL     1       8.114   1.087  -5.290  1.00  0.00     0.004 A 
ATOM     75  C   UNL     1      10.157  -0.685  -4.725  1.00  0.00     0.004 A 
ATOM     76  C   UNL     1       7.864  -0.061  -4.527  1.00  0.00     0.004 A 
ATOM     77  C   UNL     1       8.882  -0.970  -4.208  1.00  0.00    -0.045 A 
BRANCH  77  78
ATOM     78  C   UNL     1       8.683  -2.202  -3.349  1.00  0.00     0.019 C 
ATOM     79  C   UNL     1       7.383  -2.546  -2.666  1.00  0.00     0.009 C 
ATOM     80  C   UNL     1       7.824  -3.331  -3.866  1.00  0.00     0.009 C 
ENDBRANCH  77  78
ENDBRANCH  67  72
ENDBRANCH  62  65
ENDBRANCH  60  61
ENDBRANCH  59  60
ENDBRANCH  58  59
ENDBRANCH   1  58
TORSDOF 15
