REMARK SMILES O=C(NCCCCCCNC(=O)c1ccc([C@H]2CCCN(C(=O)c3ccc4[nH]ccc4c3)C2)cc1)c1ccc(-c2c3nc(c(-c4ccccc4)c4ccc([nH]4)c(-c4ccccc4)c4nc(c(-c5ccccc5)c5ccc2[nH]5)C=C4)C=C3)cc1
REMARK SMILES IDX 7 1 6 2 5 3 4 4 3 5 1 6 2 7 36 9 37 10 83 11 38 12 82 13
REMARK SMILES IDX 39 14 40 15 41 16 76 17 42 18 81 19 75 20 77 21 43 22 80 23
REMARK SMILES IDX 74 24 73 25 44 27 66 28 51 29 65 30 52 31 55 32 64 33 78 34
REMARK SMILES IDX 53 35 54 36 63 38 79 39 56 40 45 41 46 42 50 43 47 44 49 45
REMARK SMILES IDX 48 46 67 47 68 48 72 49 69 50 71 51 70 52 57 53 58 54 62 55
REMARK SMILES IDX 59 56 61 57 60 58 8 59 9 60 10 61 11 62 12 64 13 65 14 66
REMARK SMILES IDX 35 67 15 68 34 69 16 70 17 71 18 72 33 73 19 74 21 75 20 76
REMARK SMILES IDX 22 77 23 78 24 79 25 80 32 81 26 82 31 83 27 84 30 85 28 86
REMARK SMILES IDX 29 87
REMARK H PARENT 3 8 77 26 55 37 10 63 28 88
REMARK Flexibility Score: inf
ROOT
ATOM      1  C   UNL     1      20.314  -9.990  -3.902  1.00  0.00     0.002 C 
ENDROOT
BRANCH   1   2
ATOM      2  C   UNL     1      20.767  -9.104  -5.066  1.00  0.00     0.002 C 
BRANCH   2   3
ATOM      3  C   UNL     1      21.437  -7.791  -4.666  1.00  0.00     0.021 C 
BRANCH   3   4
ATOM      4  C   UNL     1      22.633  -7.941  -3.734  1.00  0.00     0.116 C 
BRANCH   4   5
ATOM      5  N   UNL     1      23.732  -8.670  -4.346  1.00  0.00    -0.352 N 
ATOM      6  O   UNL     1      25.808  -8.966  -5.183  1.00  0.00    -0.269 OA
ATOM      7  C   UNL     1      25.046  -8.295  -4.502  1.00  0.00     0.251 C 
ATOM      8  H   UNL     1      23.503  -9.560  -4.700  1.00  0.00     0.163 HD
BRANCH   7   9
ATOM      9  C   UNL     1      25.527  -7.053  -3.859  1.00  0.00     0.039 A 
ATOM     10  C   UNL     1      25.195  -6.763  -2.534  1.00  0.00     0.014 A 
ATOM     11  C   UNL     1      26.316  -6.166  -4.596  1.00  0.00     0.014 A 
ATOM     12  C   UNL     1      25.520  -5.524  -1.996  1.00  0.00     0.010 A 
ATOM     13  C   UNL     1      26.722  -4.959  -4.022  1.00  0.00     0.010 A 
ATOM     14  C   UNL     1      26.299  -4.614  -2.729  1.00  0.00    -0.014 A 
BRANCH  14  15
ATOM     15  C   UNL     1      26.706  -3.332  -2.099  1.00  0.00     0.031 A 
ATOM     16  C   UNL     1      26.243  -2.011  -2.646  1.00  0.00     0.074 A 
ATOM     17  C   UNL     1      27.488  -3.372  -1.004  1.00  0.00     0.049 A 
ATOM     18  N   UNL     1      26.484  -0.805  -2.197  1.00  0.00    -0.248 NA
ATOM     19  C   UNL     1      25.408  -2.045  -3.857  1.00  0.00     0.031 C 
ATOM     20  C   UNL     1      28.000  -4.593  -0.377  1.00  0.00     0.029 A 
ATOM     21  N   UNL     1      27.971  -2.363  -0.211  1.00  0.00    -0.354 N 
ATOM     22  C   UNL     1      25.854   0.064  -3.079  1.00  0.00     0.074 A 
ATOM     23  C   UNL     1      25.241  -0.754  -4.105  1.00  0.00     0.031 C 
ATOM     24  C   UNL     1      28.678  -4.266   0.732  1.00  0.00     0.029 A 
ATOM     25  C   UNL     1      28.708  -2.814   0.857  1.00  0.00     0.049 A 
ATOM     26  H   UNL     1      27.805  -1.409  -0.389  1.00  0.00     0.167 HD
ATOM     27  C   UNL     1      25.790   1.417  -3.037  1.00  0.00     0.031 A 
ATOM     28  C   UNL     1      29.352  -2.137   1.823  1.00  0.00     0.031 A 
ATOM     29  C   UNL     1      26.411   2.227  -2.020  1.00  0.00     0.049 A 
ATOM     30  C   UNL     1      29.307  -0.638   1.819  1.00  0.00     0.074 A 
ATOM     31  C   UNL     1      26.375   3.603  -1.870  1.00  0.00     0.029 A 
ATOM     32  N   UNL     1      27.194   1.735  -0.985  1.00  0.00    -0.354 N 
ATOM     33  N   UNL     1      28.672   0.166   1.001  1.00  0.00    -0.248 NA
ATOM     34  C   UNL     1      30.066   0.045   2.874  1.00  0.00     0.031 C 
ATOM     35  C   UNL     1      27.187   3.947  -0.784  1.00  0.00     0.029 A 
ATOM     36  C   UNL     1      27.672   2.781  -0.213  1.00  0.00     0.049 A 
ATOM     37  H   UNL     1      27.382   0.782  -0.824  1.00  0.00     0.167 HD
ATOM     38  C   UNL     1      28.934   1.450   1.456  1.00  0.00     0.074 A 
ATOM     39  C   UNL     1      29.771   1.315   2.632  1.00  0.00     0.031 C 
ATOM     40  C   UNL     1      28.513   2.635   0.949  1.00  0.00     0.031 A 
BRANCH  27  41
ATOM     41  C   UNL     1      25.054   2.110  -4.154  1.00  0.00    -0.014 A 
ATOM     42  C   UNL     1      23.659   2.014  -4.289  1.00  0.00     0.009 A 
ATOM     43  C   UNL     1      25.769   2.890  -5.077  1.00  0.00     0.009 A 
ATOM     44  C   UNL     1      23.004   2.644  -5.350  1.00  0.00     0.001 A 
ATOM     45  C   UNL     1      25.108   3.545  -6.118  1.00  0.00     0.001 A 
ATOM     46  C   UNL     1      23.729   3.411  -6.262  1.00  0.00     0.000 A 
ENDBRANCH  27  41
BRANCH  28  47
ATOM     47  C   UNL     1      30.091  -2.882   2.874  1.00  0.00    -0.014 A 
ATOM     48  C   UNL     1      29.619  -2.907   4.194  1.00  0.00     0.009 A 
ATOM     49  C   UNL     1      31.256  -3.598   2.555  1.00  0.00     0.009 A 
ATOM     50  C   UNL     1      30.308  -3.621   5.177  1.00  0.00     0.001 A 
ATOM     51  C   UNL     1      31.925  -4.337   3.533  1.00  0.00     0.001 A 
ATOM     52  C   UNL     1      31.454  -4.341   4.844  1.00  0.00     0.000 A 
ENDBRANCH  28  47
BRANCH  40  53
ATOM     53  C   UNL     1      28.922   3.878   1.689  1.00  0.00    -0.014 A 
ATOM     54  C   UNL     1      30.249   4.335   1.680  1.00  0.00     0.009 A 
ATOM     55  C   UNL     1      27.954   4.616   2.387  1.00  0.00     0.009 A 
ATOM     56  C   UNL     1      30.605   5.485   2.389  1.00  0.00     0.001 A 
ATOM     57  C   UNL     1      28.305   5.783   3.067  1.00  0.00     0.001 A 
ATOM     58  C   UNL     1      29.632   6.210   3.077  1.00  0.00     0.000 A 
ENDBRANCH  40  53
ENDBRANCH  14  15
ENDBRANCH   7   9
ENDBRANCH   4   5
ENDBRANCH   3   4
ENDBRANCH   2   3
ENDBRANCH   1   2
BRANCH   1  59
ATOM     59  C   UNL     1      19.384  -9.319  -2.887  1.00  0.00     0.021 C 
BRANCH  59  60
ATOM     60  C   UNL     1      18.114  -8.712  -3.478  1.00  0.00     0.116 C 
BRANCH  60  61
ATOM     61  N   UNL     1      17.279  -9.708  -4.130  1.00  0.00    -0.352 N 
ATOM     62  C   UNL     1      15.948  -9.985  -3.934  1.00  0.00     0.251 C 
ATOM     63  H   UNL     1      17.731 -10.261  -4.808  1.00  0.00     0.163 HD
ATOM     64  O   UNL     1      15.435 -10.975  -4.444  1.00  0.00    -0.269 OA
BRANCH  62  65
ATOM     65  C   UNL     1      15.146  -9.094  -3.074  1.00  0.00     0.039 A 
ATOM     66  C   UNL     1      14.421  -9.643  -2.020  1.00  0.00     0.014 A 
ATOM     67  C   UNL     1      15.134  -7.716  -3.292  1.00  0.00     0.014 A 
ATOM     68  C   UNL     1      13.779  -8.797  -1.114  1.00  0.00     0.005 A 
ATOM     69  C   UNL     1      14.510  -6.874  -2.372  1.00  0.00     0.005 A 
ATOM     70  C   UNL     1      13.871  -7.396  -1.236  1.00  0.00    -0.043 A 
BRANCH  70  71
ATOM     71  C   UNL     1      13.307  -6.509  -0.126  1.00  0.00     0.039 C 
ATOM     72  C   UNL     1      13.944  -6.889   1.236  1.00  0.00     0.012 C 
ATOM     73  C   UNL     1      13.492  -4.992  -0.362  1.00  0.00     0.128 C 
ATOM     74  C   UNL     1      13.474  -5.987   2.378  1.00  0.00     0.022 C 
ATOM     75  N   UNL     1      13.030  -4.204   0.776  1.00  0.00    -0.338 N 
ATOM     76  C   UNL     1      13.680  -4.514   2.046  1.00  0.00     0.120 C 
BRANCH  75  77
ATOM     77  C   UNL     1      11.972  -3.323   0.596  1.00  0.00     0.253 C 
ATOM     78  O   UNL     1      11.373  -3.176  -0.466  1.00  0.00    -0.269 OA
BRANCH  77  79
ATOM     79  C   UNL     1      11.512  -2.523   1.744  1.00  0.00     0.040 A 
ATOM     80  C   UNL     1      10.291  -2.850   2.335  1.00  0.00     0.016 A 
ATOM     81  C   UNL     1      12.268  -1.421   2.168  1.00  0.00     0.024 A 
ATOM     82  C   UNL     1       9.799  -2.098   3.404  1.00  0.00     0.027 A 
ATOM     83  C   UNL     1      11.769  -0.637   3.225  1.00  0.00     0.000 A 
ATOM     84  C   UNL     1      10.559  -0.998   3.823  1.00  0.00     0.045 A 
ATOM     85  C   UNL     1      12.219   0.547   3.874  1.00  0.00     0.028 A 
ATOM     86  N   UNL     1      10.311  -0.080   4.819  1.00  0.00    -0.361 N 
ATOM     87  C   UNL     1      11.295   0.873   4.841  1.00  0.00     0.083 A 
ATOM     88  H   UNL     1       9.538  -0.104   5.428  1.00  0.00     0.166 HD
ENDBRANCH  77  79
ENDBRANCH  75  77
ENDBRANCH  70  71
ENDBRANCH  62  65
ENDBRANCH  60  61
ENDBRANCH  59  60
ENDBRANCH   1  59
TORSDOF 16
