REMARK SMILES Cc1ccc(S(=O)(=O)n2cc(C(=O)C(=O)NCC(=O)NCCCCCCNC(=O)c3ccc(-c4c5nc(c(-c6ccccc6)c6ccc([nH]6)c(-c6ccccc6)c6nc(c(-c7ccccc7)c7ccc4[nH]7)C=C6)C=C5)cc3)c3ccccc32)cc1
REMARK SMILES IDX 22 1 21 2 20 3 18 4 19 5 17 7 16 8 14 9 15 10 12 12 13 13
REMARK SMILES IDX 11 14 9 15 10 16 83 17 78 18 82 19 79 20 81 21 80 22 6 23
REMARK SMILES IDX 7 24 8 25 5 26 1 27 2 28 3 29 85 30 4 31 84 32 23 33 24 34
REMARK SMILES IDX 25 35 26 36 27 37 28 38 29 40 30 41 31 42 77 43 32 44 76 45
REMARK SMILES IDX 33 46 34 47 35 48 70 49 36 50 75 51 69 52 71 53 37 54 74 55
REMARK SMILES IDX 68 56 67 57 38 59 60 60 45 61 59 62 46 63 49 64 58 65 72 66
REMARK SMILES IDX 47 67 48 68 57 70 73 71 50 72 39 73 40 74 44 75 41 76 43 77
REMARK SMILES IDX 42 78 61 79 62 80 66 81 63 82 65 83 64 84 51 85 52 86 56 87
REMARK SMILES IDX 53 88 55 89 54 90
REMARK H PARENT 20 6 16 11 27 39 71 58 49 69
REMARK Flexibility Score: inf
ROOT
ATOM      1  C   UNL     1     -10.095   3.559   1.306  1.00  0.00     0.021 C 
ENDROOT
BRANCH   1   2
ATOM      2  C   UNL     1      -9.396   4.891   1.038  1.00  0.00     0.116 C 
BRANCH   2   3
ATOM      3  N   UNL     1      -9.876   5.922   1.929  1.00  0.00    -0.355 N 
ATOM      4  C   UNL     1      -9.215   6.600   2.909  1.00  0.00     0.239 C 
ATOM      5  O   UNL     1      -9.820   7.499   3.498  1.00  0.00    -0.273 OA
ATOM      6  H   UNL     1     -10.821   6.172   1.811  1.00  0.00     0.163 HD
BRANCH   4   7
ATOM      7  C   UNL     1      -7.723   6.354   3.161  1.00  0.00     0.216 C 
BRANCH   7   8
ATOM      8  N   UNL     1      -7.380   4.966   3.457  1.00  0.00    -0.340 N 
ATOM      9  C   UNL     1      -6.487   4.099   2.860  1.00  0.00     0.292 C 
ATOM     10  O   UNL     1      -6.363   2.975   3.336  1.00  0.00    -0.265 OA
ATOM     11  H   UNL     1      -7.873   4.580   4.217  1.00  0.00     0.164 HD
BRANCH   9  12
ATOM     12  C   UNL     1      -5.687   4.506   1.592  1.00  0.00     0.252 C 
ATOM     13  O   UNL     1      -5.603   5.699   1.315  1.00  0.00    -0.283 OA
BRANCH  12  14
ATOM     14  C   UNL     1      -5.053   3.506   0.714  1.00  0.00     0.054 A 
ATOM     15  N   UNL     1      -4.166   1.615  -0.083  1.00  0.00    -0.240 N 
ATOM     16  C   UNL     1      -4.842   2.164   0.976  1.00  0.00     0.117 A 
ATOM     17  C   UNL     1      -3.942   2.548  -1.072  1.00  0.00     0.065 A 
ATOM     18  C   UNL     1      -4.487   3.749  -0.594  1.00  0.00     0.012 A 
ATOM     19  C   UNL     1      -3.284   2.471  -2.314  1.00  0.00     0.028 A 
ATOM     20  C   UNL     1      -4.380   4.899  -1.409  1.00  0.00     0.011 A 
ATOM     21  C   UNL     1      -3.173   3.634  -3.080  1.00  0.00     0.002 A 
ATOM     22  C   UNL     1      -3.718   4.832  -2.638  1.00  0.00     0.001 A 
BRANCH  15  23
ATOM     23  S   UNL     1      -3.585   0.013  -0.106  1.00  0.00     0.268 S 
ATOM     24  O   UNL     1      -3.931  -0.498  -1.416  1.00  0.00    -0.201 OA
ATOM     25  O   UNL     1      -4.082  -0.602   1.113  1.00  0.00    -0.201 OA
BRANCH  23  26
ATOM     26  C   UNL     1      -1.816   0.066   0.012  1.00  0.00     0.088 A 
ATOM     27  C   UNL     1       2.486  -0.047   0.023  1.00  0.00     0.044 C 
ATOM     28  C   UNL     1       0.986  -0.003   0.039  1.00  0.00    -0.051 A 
ATOM     29  C   UNL     1       0.252  -1.192  -0.042  1.00  0.00     0.005 A 
ATOM     30  C   UNL     1       0.304   1.216   0.136  1.00  0.00     0.005 A 
ATOM     31  C   UNL     1      -1.143  -1.159  -0.061  1.00  0.00     0.022 A 
ATOM     32  C   UNL     1      -1.093   1.254   0.135  1.00  0.00     0.022 A 
ENDBRANCH  23  26
ENDBRANCH  15  23
ENDBRANCH  12  14
ENDBRANCH   9  12
ENDBRANCH   7   8
ENDBRANCH   4   7
ENDBRANCH   2   3
ENDBRANCH   1   2
BRANCH   1  33
ATOM     33  C   UNL     1     -11.571   3.532   0.884  1.00  0.00     0.002 C 
BRANCH  33  34
ATOM     34  C   UNL     1     -11.860   3.992  -0.553  1.00  0.00     0.002 C 
BRANCH  34  35
ATOM     35  C   UNL     1     -10.995   3.340  -1.628  1.00  0.00     0.021 C 
BRANCH  35  36
ATOM     36  C   UNL     1     -11.332   1.880  -1.884  1.00  0.00     0.116 C 
BRANCH  36  37
ATOM     37  N   UNL     1     -12.405   1.725  -2.861  1.00  0.00    -0.352 N 
ATOM     38  C   UNL     1     -12.844   0.619  -3.562  1.00  0.00     0.251 C 
ATOM     39  H   UNL     1     -12.902   2.553  -3.054  1.00  0.00     0.163 HD
ATOM     40  O   UNL     1     -13.732   0.748  -4.401  1.00  0.00    -0.269 OA
BRANCH  38  41
ATOM     41  C   UNL     1     -12.413  -0.741  -3.154  1.00  0.00     0.039 A 
ATOM     42  C   UNL     1     -13.458  -1.650  -2.939  1.00  0.00     0.014 A 
ATOM     43  C   UNL     1     -11.178  -0.932  -2.553  1.00  0.00     0.014 A 
ATOM     44  C   UNL     1     -13.395  -2.486  -1.839  1.00  0.00     0.010 A 
ATOM     45  C   UNL     1     -11.162  -1.639  -1.380  1.00  0.00     0.010 A 
ATOM     46  C   UNL     1     -12.308  -2.337  -0.990  1.00  0.00    -0.014 A 
BRANCH  46  47
ATOM     47  C   UNL     1     -12.243  -2.892   0.341  1.00  0.00     0.031 A 
ATOM     48  C   UNL     1     -11.530  -4.162   0.490  1.00  0.00     0.074 A 
ATOM     49  C   UNL     1     -12.679  -2.135   1.370  1.00  0.00     0.049 A 
ATOM     50  N   UNL     1     -11.620  -4.929   1.512  1.00  0.00    -0.248 NA
ATOM     51  C   UNL     1     -10.684  -4.708  -0.571  1.00  0.00     0.031 C 
ATOM     52  C   UNL     1     -12.428  -2.295   2.797  1.00  0.00     0.029 A 
ATOM     53  N   UNL     1     -13.656  -1.140   1.307  1.00  0.00    -0.354 N 
ATOM     54  C   UNL     1     -10.613  -5.861   1.400  1.00  0.00     0.074 A 
ATOM     55  C   UNL     1     -10.145  -5.763   0.042  1.00  0.00     0.031 C 
ATOM     56  C   UNL     1     -13.390  -1.651   3.483  1.00  0.00     0.029 A 
ATOM     57  C   UNL     1     -14.379  -1.202   2.512  1.00  0.00     0.049 A 
ATOM     58  H   UNL     1     -13.809  -0.516   0.561  1.00  0.00     0.167 HD
ATOM     59  C   UNL     1     -10.188  -6.479   2.534  1.00  0.00     0.031 A 
ATOM     60  C   UNL     1     -15.682  -1.617   2.493  1.00  0.00     0.031 A 
ATOM     61  C   UNL     1     -11.066  -6.136   3.653  1.00  0.00     0.049 A 
ATOM     62  C   UNL     1     -15.872  -2.945   3.201  1.00  0.00     0.074 A 
ATOM     63  C   UNL     1     -10.970  -5.196   4.666  1.00  0.00     0.029 A 
ATOM     64  N   UNL     1     -12.406  -6.500   3.577  1.00  0.00    -0.354 N 
ATOM     65  N   UNL     1     -14.925  -3.830   3.375  1.00  0.00    -0.248 NA
ATOM     66  C   UNL     1     -17.136  -3.359   3.802  1.00  0.00     0.031 C 
ATOM     67  C   UNL     1     -12.290  -4.924   5.129  1.00  0.00     0.029 A 
ATOM     68  C   UNL     1     -13.174  -5.726   4.427  1.00  0.00     0.049 A 
ATOM     69  H   UNL     1     -12.760  -7.212   2.997  1.00  0.00     0.167 HD
ATOM     70  C   UNL     1     -15.402  -4.877   4.121  1.00  0.00     0.074 A 
ATOM     71  C   UNL     1     -16.795  -4.536   4.356  1.00  0.00     0.031 C 
ATOM     72  C   UNL     1     -14.617  -5.932   4.499  1.00  0.00     0.031 A 
BRANCH  59  73
ATOM     73  C   UNL     1      -8.838  -7.134   2.687  1.00  0.00    -0.014 A 
ATOM     74  C   UNL     1      -8.310  -7.306   3.979  1.00  0.00     0.009 A 
ATOM     75  C   UNL     1      -8.004  -7.532   1.628  1.00  0.00     0.009 A 
ATOM     76  C   UNL     1      -7.014  -7.792   4.197  1.00  0.00     0.001 A 
ATOM     77  C   UNL     1      -6.700  -8.004   1.835  1.00  0.00     0.001 A 
ATOM     78  C   UNL     1      -6.202  -8.128   3.122  1.00  0.00     0.000 A 
ENDBRANCH  59  73
BRANCH  60  79
ATOM     79  C   UNL     1     -16.401  -1.172   1.257  1.00  0.00    -0.014 A 
ATOM     80  C   UNL     1     -16.534   0.221   1.049  1.00  0.00     0.009 A 
ATOM     81  C   UNL     1     -16.522  -2.021   0.148  1.00  0.00     0.009 A 
ATOM     82  C   UNL     1     -16.589   0.753  -0.244  1.00  0.00     0.001 A 
ATOM     83  C   UNL     1     -16.613  -1.481  -1.144  1.00  0.00     0.001 A 
ATOM     84  C   UNL     1     -16.586  -0.100  -1.342  1.00  0.00     0.000 A 
ENDBRANCH  60  79
BRANCH  72  85
ATOM     85  C   UNL     1     -15.109  -7.261   5.036  1.00  0.00    -0.014 A 
ATOM     86  C   UNL     1     -16.436  -7.700   4.981  1.00  0.00     0.009 A 
ATOM     87  C   UNL     1     -14.162  -8.202   5.510  1.00  0.00     0.009 A 
ATOM     88  C   UNL     1     -16.805  -8.981   5.418  1.00  0.00     0.001 A 
ATOM     89  C   UNL     1     -14.512  -9.501   5.882  1.00  0.00     0.001 A 
ATOM     90  C   UNL     1     -15.842  -9.885   5.854  1.00  0.00     0.000 A 
ENDBRANCH  72  85
ENDBRANCH  46  47
ENDBRANCH  38  41
ENDBRANCH  36  37
ENDBRANCH  35  36
ENDBRANCH  34  35
ENDBRANCH  33  34
ENDBRANCH   1  33
TORSDOF 18
