REMARK SMILES C[NH2+][C@]1(C(=O)NCCCCCCNC(=O)c2ccc(-c3c4nc(c(-c5ccccc5)c5ccc([nH]5)c(-c5ccccc5)c5nc(c(-c6ccccc6)c6ccc3[nH]6)C=C5)C=C4)cc2)CC[C@@H](OCCCc2ccccc2)C1
REMARK SMILES IDX 8 1 7 2 6 3 4 4 5 5 3 7 64 8 77 9 65 10 66 11 2 12 1 13
REMARK SMILES IDX 67 16 68 17 69 18 70 19 71 20 72 21 76 22 73 23 75 24 74 25
REMARK SMILES IDX 9 26 10 27 11 28 12 29 13 30 14 31 15 33 16 34 17 35 63 36
REMARK SMILES IDX 18 37 62 38 19 39 20 40 21 41 56 42 22 43 61 44 55 45 57 46
REMARK SMILES IDX 23 47 60 48 54 49 53 50 24 52 46 53 31 54 45 55 32 56 35 57
REMARK SMILES IDX 44 58 58 59 33 60 34 61 43 63 59 64 36 65 25 66 26 67 30 68
REMARK SMILES IDX 27 69 29 70 28 71 47 72 48 73 52 74 49 75 51 76 50 77 37 78
REMARK SMILES IDX 38 79 42 80 39 81 41 82 40 83
REMARK H PARENT 6 6 2 14 2 15 13 32 57 51 35 62
REMARK Flexibility Score: inf
ROOT
ATOM      1  C   UNL     1       1.802   0.702  -2.660  1.00  0.00     0.021 C 
ENDROOT
BRANCH   1   2
ATOM      2  C   UNL     1       1.038  -0.188  -1.692  1.00  0.00     0.116 C 
BRANCH   2   3
ATOM      3  N   UNL     1       1.117   0.418  -0.183  1.00  0.00    -0.351 N 
ATOM      4  C   UNL     1       0.043   0.731   1.421  1.00  0.00     0.281 C 
ATOM      5  O   UNL     1       0.409   1.293   2.526  1.00  0.00    -0.268 OA
ATOM      6  H   UNL     1       2.032   0.743  -0.020  1.00  0.00     0.163 HD
BRANCH   4   7
ATOM      7  C   UNL     1      -1.766   0.388   1.784  1.00  0.00     0.177 C 
ATOM      8  C   UNL     1      -2.641   1.657   1.518  1.00  0.00     0.082 C 
ATOM      9  C   UNL     1      -2.685  -0.825   1.365  1.00  0.00     0.111 C 
ATOM     10  C   UNL     1      -3.965   1.206   0.898  1.00  0.00     0.039 C 
ATOM     11  C   UNL     1      -3.848  -0.269   0.546  1.00  0.00     0.125 C 
BRANCH   7  12
ATOM     12  N   UNL     1      -1.663   0.183   3.311  1.00  0.00    -0.336 N 
ATOM     13  C   UNL     1      -2.796   0.542   4.157  1.00  0.00     0.331 C 
ATOM     14  H   UNL     1      -1.478  -0.807   3.467  1.00  0.00     0.346 HD
ATOM     15  H   UNL     1      -0.934   0.838   3.594  1.00  0.00     0.346 HD
ENDBRANCH   7  12
BRANCH  11  16
ATOM     16  O   UNL     1      -4.081  -0.544  -0.825  1.00  0.00    -0.378 OA
BRANCH  16  17
ATOM     17  C   UNL     1      -3.097  -0.726  -1.814  1.00  0.00     0.161 C 
BRANCH  17  18
ATOM     18  C   UNL     1      -2.489   0.526  -2.420  1.00  0.00     0.033 C 
BRANCH  18  19
ATOM     19  C   UNL     1      -1.742   1.498  -1.528  1.00  0.00     0.038 C 
BRANCH  19  20
ATOM     20  C   UNL     1      -0.753   1.020  -0.488  1.00  0.00    -0.048 A 
ATOM     21  C   UNL     1      -0.459  -0.736   0.051  1.00  0.00     0.004 A 
ATOM     22  C   UNL     1       0.435   2.308   0.049  1.00  0.00     0.004 A 
ATOM     23  C   UNL     1       0.974  -1.143   1.107  1.00  0.00     0.000 A 
ATOM     24  C   UNL     1       1.888   1.880   1.049  1.00  0.00     0.000 A 
ATOM     25  C   UNL     1       2.144   0.149   1.589  1.00  0.00     0.000 A 
ENDBRANCH  19  20
ENDBRANCH  18  19
ENDBRANCH  17  18
ENDBRANCH  16  17
ENDBRANCH  11  16
ENDBRANCH   4   7
ENDBRANCH   2   3
ENDBRANCH   1   2
BRANCH   1  26
ATOM     26  C   UNL     1       3.273   0.320  -2.765  1.00  0.00     0.002 C 
BRANCH  26  27
ATOM     27  C   UNL     1       3.541  -1.180  -2.959  1.00  0.00     0.002 C 
BRANCH  27  28
ATOM     28  C   UNL     1       2.673  -1.867  -4.020  1.00  0.00     0.021 C 
BRANCH  28  29
ATOM     29  C   UNL     1       2.674  -1.168  -5.367  1.00  0.00     0.116 C 
BRANCH  29  30
ATOM     30  N   UNL     1       4.023  -0.951  -5.852  1.00  0.00    -0.352 N 
ATOM     31  C   UNL     1       4.525  -1.226  -7.092  1.00  0.00     0.251 C 
ATOM     32  H   UNL     1       4.655  -0.556  -5.208  1.00  0.00     0.163 HD
ATOM     33  O   UNL     1       5.729  -1.206  -7.307  1.00  0.00    -0.269 OA
BRANCH  31  34
ATOM     34  C   UNL     1       3.572  -1.570  -8.158  1.00  0.00     0.039 A 
ATOM     35  C   UNL     1       3.799  -2.717  -8.914  1.00  0.00     0.014 A 
ATOM     36  C   UNL     1       2.430  -0.784  -8.356  1.00  0.00     0.014 A 
ATOM     37  C   UNL     1       2.860  -3.092  -9.868  1.00  0.00     0.010 A 
ATOM     38  C   UNL     1       1.451  -1.215  -9.238  1.00  0.00     0.010 A 
ATOM     39  C   UNL     1       1.671  -2.358 -10.019  1.00  0.00    -0.014 A 
BRANCH  39  40
ATOM     40  C   UNL     1       0.658  -2.764 -11.018  1.00  0.00     0.031 A 
ATOM     41  C   UNL     1       0.332  -1.850 -12.165  1.00  0.00     0.074 A 
ATOM     42  C   UNL     1       0.021  -3.940 -10.874  1.00  0.00     0.049 A 
ATOM     43  N   UNL     1      -0.523  -2.026 -13.139  1.00  0.00    -0.248 NA
ATOM     44  C   UNL     1       1.040  -0.559 -12.212  1.00  0.00     0.031 C 
ATOM     45  C   UNL     1       0.231  -4.890  -9.778  1.00  0.00     0.029 A 
ATOM     46  N   UNL     1      -0.930  -4.540 -11.656  1.00  0.00    -0.354 N 
ATOM     47  C   UNL     1      -0.463  -0.868 -13.903  1.00  0.00     0.074 A 
ATOM     48  C   UNL     1       0.460   0.029 -13.247  1.00  0.00     0.031 C 
ATOM     49  C   UNL     1      -0.538  -5.971  -9.982  1.00  0.00     0.029 A 
ATOM     50  C   UNL     1      -1.331  -5.767 -11.189  1.00  0.00     0.049 A 
ATOM     51  H   UNL     1      -1.292  -4.131 -12.476  1.00  0.00     0.167 HD
ATOM     52  C   UNL     1      -1.103  -0.586 -15.062  1.00  0.00     0.031 A 
ATOM     53  C   UNL     1      -2.245  -6.627 -11.674  1.00  0.00     0.031 A 
ATOM     54  C   UNL     1      -2.025  -1.484 -15.704  1.00  0.00     0.049 A 
ATOM     55  C   UNL     1      -2.972  -6.274 -12.942  1.00  0.00     0.074 A 
ATOM     56  C   UNL     1      -2.693  -1.318 -16.904  1.00  0.00     0.029 A 
ATOM     57  N   UNL     1      -2.419  -2.710 -15.191  1.00  0.00    -0.354 N 
ATOM     58  N   UNL     1      -2.848  -5.209 -13.697  1.00  0.00    -0.248 NA
ATOM     59  C   UNL     1      -3.956  -7.248 -13.431  1.00  0.00     0.031 C 
ATOM     60  C   UNL     1      -3.550  -2.408 -17.078  1.00  0.00     0.029 A 
ATOM     61  C   UNL     1      -3.352  -3.295 -16.030  1.00  0.00     0.049 A 
ATOM     62  H   UNL     1      -2.086  -3.107 -14.353  1.00  0.00     0.167 HD
ATOM     63  C   UNL     1      -3.716  -5.398 -14.765  1.00  0.00     0.074 A 
ATOM     64  C   UNL     1      -4.342  -6.690 -14.569  1.00  0.00     0.031 C 
ATOM     65  C   UNL     1      -3.970  -4.579 -15.815  1.00  0.00     0.031 A 
BRANCH  52  66
ATOM     66  C   UNL     1      -0.844   0.757 -15.688  1.00  0.00    -0.014 A 
ATOM     67  C   UNL     1       0.416   1.095 -16.210  1.00  0.00     0.009 A 
ATOM     68  C   UNL     1      -1.885   1.694 -15.777  1.00  0.00     0.009 A 
ATOM     69  C   UNL     1       0.638   2.357 -16.765  1.00  0.00     0.001 A 
ATOM     70  C   UNL     1      -1.671   2.941 -16.367  1.00  0.00     0.001 A 
ATOM     71  C   UNL     1      -0.407   3.276 -16.849  1.00  0.00     0.000 A 
ENDBRANCH  52  66
BRANCH  53  72
ATOM     72  C   UNL     1      -2.526  -7.899 -10.957  1.00  0.00    -0.014 A 
ATOM     73  C   UNL     1      -2.193  -9.137 -11.528  1.00  0.00     0.009 A 
ATOM     74  C   UNL     1      -3.135  -7.880  -9.692  1.00  0.00     0.009 A 
ATOM     75  C   UNL     1      -2.497 -10.328 -10.864  1.00  0.00     0.001 A 
ATOM     76  C   UNL     1      -3.403  -9.070  -9.013  1.00  0.00     0.001 A 
ATOM     77  C   UNL     1      -3.095 -10.293  -9.605  1.00  0.00     0.000 A 
ENDBRANCH  53  72
BRANCH  65  78
ATOM     78  C   UNL     1      -4.940  -5.072 -16.855  1.00  0.00    -0.014 A 
ATOM     79  C   UNL     1      -6.310  -5.205 -16.580  1.00  0.00     0.009 A 
ATOM     80  C   UNL     1      -4.475  -5.368 -18.146  1.00  0.00     0.009 A 
ATOM     81  C   UNL     1      -7.186  -5.663 -17.566  1.00  0.00     0.001 A 
ATOM     82  C   UNL     1      -5.358  -5.787 -19.141  1.00  0.00     0.001 A 
ATOM     83  C   UNL     1      -6.711  -5.946 -18.846  1.00  0.00     0.000 A 
ENDBRANCH  65  78
ENDBRANCH  39  40
ENDBRANCH  31  34
ENDBRANCH  29  30
ENDBRANCH  28  29
ENDBRANCH  27  28
ENDBRANCH  26  27
ENDBRANCH   1  26
TORSDOF 19
