REMARK SMILES NS(=O)(=O)c1ccc(/N=C/c2ccc(O)c(C(=O)NCCCCCCNC(=O)c3ccc(-c4c5nc(c(-c6ccccc6)c6ccc([nH]6)c(-c6ccccc6)c6nc(c(-c7ccccc7)c7ccc4[nH]7)C=C6)C=C5)cc3)c2)cc1
REMARK SMILES IDX 21 1 20 2 19 3 17 4 18 5 16 7 11 8 12 9 77 10 13 11 14 12
REMARK SMILES IDX 10 13 9 14 8 15 5 16 6 17 79 18 7 19 78 20 2 21 3 22 4 23
REMARK SMILES IDX 1 24 15 27 22 29 23 30 24 31 25 32 26 33 27 34 28 36 29 37
REMARK SMILES IDX 30 38 76 39 31 40 75 41 32 42 33 43 34 44 69 45 35 46 74 47
REMARK SMILES IDX 68 48 70 49 36 50 73 51 67 52 66 53 37 55 59 56 44 57 58 58
REMARK SMILES IDX 45 59 48 60 57 61 71 62 46 63 47 64 56 66 72 67 49 68 38 69
REMARK SMILES IDX 39 70 43 71 40 72 42 73 41 74 60 75 61 76 65 77 62 78 64 79
REMARK SMILES IDX 63 80 50 81 51 82 55 83 52 84 54 85 53 86
REMARK H PARENT 19 6 1 25 1 26 15 28 26 35 70 54 48 65
REMARK Flexibility Score: inf
ROOT
ATOM      1  C   UNL     1       5.561  -7.953   0.948  1.00  0.00     0.021 C 
ENDROOT
BRANCH   1   2
ATOM      2  C   UNL     1       4.470  -8.347   1.937  1.00  0.00     0.116 C 
BRANCH   2   3
ATOM      3  N   UNL     1       4.668  -9.639   2.574  1.00  0.00    -0.352 N 
ATOM      4  C   UNL     1       4.450 -10.041   3.873  1.00  0.00     0.255 C 
ATOM      5  O   UNL     1       4.760 -11.188   4.205  1.00  0.00    -0.269 OA
ATOM      6  H   UNL     1       5.016 -10.342   1.978  1.00  0.00     0.163 HD
BRANCH   4   7
ATOM      7  C   UNL     1       3.934  -9.126   4.925  1.00  0.00     0.082 A 
ATOM      8  C   UNL     1       2.803  -7.085   5.579  1.00  0.00    -0.006 A 
ATOM      9  C   UNL     1       3.255  -7.225   6.890  1.00  0.00     0.013 A 
ATOM     10  C   UNL     1       3.064  -8.078   4.629  1.00  0.00     0.027 A 
ATOM     11  C   UNL     1       4.011  -8.348   7.233  1.00  0.00     0.047 A 
ATOM     12  C   UNL     1       4.361  -9.281   6.253  1.00  0.00     0.128 A 
BRANCH   8  13
ATOM     13  C   UNL     1       2.200  -5.812   5.129  1.00  0.00     0.119 C 
ATOM     14  N   UNL     1       2.161  -5.536   3.865  1.00  0.00    -0.256 NA
BRANCH  14  15
ATOM     15  C   UNL     1       1.725  -4.280   3.424  1.00  0.00     0.063 A 
ATOM     16  C   UNL     1       0.979  -1.817   2.311  1.00  0.00     0.082 A 
ATOM     17  C   UNL     1       0.572  -3.004   1.699  1.00  0.00     0.024 A 
ATOM     18  C   UNL     1       1.754  -1.846   3.472  1.00  0.00     0.024 A 
ATOM     19  C   UNL     1       0.953  -4.228   2.257  1.00  0.00     0.030 A 
ATOM     20  C   UNL     1       2.134  -3.078   4.016  1.00  0.00     0.030 A 
BRANCH  16  21
ATOM     21  S   UNL     1       0.482  -0.268   1.614  1.00  0.00     0.238 S 
ATOM     22  O   UNL     1       1.054   0.806   2.387  1.00  0.00    -0.207 OA
ATOM     23  O   UNL     1      -0.928  -0.339   1.300  1.00  0.00    -0.207 OA
BRANCH  21  24
ATOM     24  N   UNL     1       1.296  -0.252   0.145  1.00  0.00    -0.225 NA
ATOM     25  H   UNL     1       1.081   0.612  -0.354  1.00  0.00     0.137 HD
ATOM     26  H   UNL     1       1.000  -1.051  -0.416  1.00  0.00     0.137 HD
ENDBRANCH  21  24
ENDBRANCH  16  21
ENDBRANCH  14  15
ENDBRANCH   8  13
BRANCH  12  27
ATOM     27  O   UNL     1       5.149 -10.324   6.665  1.00  0.00    -0.507 OA
ATOM     28  H   UNL     1       5.410 -10.388   7.562  1.00  0.00     0.293 HD
ENDBRANCH  12  27
ENDBRANCH   4   7
ENDBRANCH   2   3
ENDBRANCH   1   2
BRANCH   1  29
ATOM     29  C   UNL     1       5.742  -8.851  -0.275  1.00  0.00     0.002 C 
BRANCH  29  30
ATOM     30  C   UNL     1       4.490  -9.143  -1.105  1.00  0.00     0.002 C 
BRANCH  30  31
ATOM     31  C   UNL     1       3.662  -7.936  -1.548  1.00  0.00     0.021 C 
BRANCH  31  32
ATOM     32  C   UNL     1       4.421  -6.830  -2.274  1.00  0.00     0.116 C 
BRANCH  32  33
ATOM     33  N   UNL     1       5.042  -7.281  -3.507  1.00  0.00    -0.352 N 
ATOM     34  C   UNL     1       4.953  -6.763  -4.776  1.00  0.00     0.251 C 
ATOM     35  H   UNL     1       5.612  -8.078  -3.420  1.00  0.00     0.163 HD
ATOM     36  O   UNL     1       5.452  -7.367  -5.721  1.00  0.00    -0.269 OA
BRANCH  34  37
ATOM     37  C   UNL     1       4.234  -5.493  -5.020  1.00  0.00     0.039 A 
ATOM     38  C   UNL     1       3.363  -5.415  -6.112  1.00  0.00     0.014 A 
ATOM     39  C   UNL     1       4.425  -4.378  -4.199  1.00  0.00     0.014 A 
ATOM     40  C   UNL     1       2.636  -4.245  -6.341  1.00  0.00     0.010 A 
ATOM     41  C   UNL     1       3.651  -3.235  -4.389  1.00  0.00     0.010 A 
ATOM     42  C   UNL     1       2.749  -3.156  -5.461  1.00  0.00    -0.014 A 
BRANCH  42  43
ATOM     43  C   UNL     1       1.923  -1.936  -5.639  1.00  0.00     0.031 A 
ATOM     44  C   UNL     1       2.570  -0.616  -5.951  1.00  0.00     0.074 A 
ATOM     45  C   UNL     1       0.592  -2.000  -5.442  1.00  0.00     0.049 A 
ATOM     46  N   UNL     1       2.018   0.566  -6.073  1.00  0.00    -0.248 NA
ATOM     47  C   UNL     1       4.031  -0.618  -6.117  1.00  0.00     0.031 C 
ATOM     48  C   UNL     1      -0.155  -3.209  -5.090  1.00  0.00     0.029 A 
ATOM     49  N   UNL     1      -0.368  -1.020  -5.500  1.00  0.00    -0.354 N 
ATOM     50  C   UNL     1       3.065   1.448  -6.310  1.00  0.00     0.074 A 
ATOM     51  C   UNL     1       4.286   0.673  -6.268  1.00  0.00     0.031 C 
ATOM     52  C   UNL     1      -1.458  -2.904  -4.981  1.00  0.00     0.029 A 
ATOM     53  C   UNL     1      -1.634  -1.474  -5.218  1.00  0.00     0.049 A 
ATOM     54  H   UNL     1      -0.169  -0.082  -5.722  1.00  0.00     0.167 HD
ATOM     55  C   UNL     1       3.014   2.780  -6.555  1.00  0.00     0.031 A 
ATOM     56  C   UNL     1      -2.805  -0.815  -5.146  1.00  0.00     0.031 A 
ATOM     57  C   UNL     1       1.798   3.547  -6.610  1.00  0.00     0.049 A 
ATOM     58  C   UNL     1      -2.839   0.661  -5.421  1.00  0.00     0.074 A 
ATOM     59  C   UNL     1       1.637   4.885  -6.928  1.00  0.00     0.029 A 
ATOM     60  N   UNL     1       0.535   3.047  -6.335  1.00  0.00    -0.354 N 
ATOM     61  N   UNL     1      -1.849   1.466  -5.722  1.00  0.00    -0.248 NA
ATOM     62  C   UNL     1      -4.153   1.316  -5.356  1.00  0.00     0.031 C 
ATOM     63  C   UNL     1       0.283   5.209  -6.785  1.00  0.00     0.029 A 
ATOM     64  C   UNL     1      -0.406   4.059  -6.435  1.00  0.00     0.049 A 
ATOM     65  H   UNL     1       0.336   2.112  -6.103  1.00  0.00     0.167 HD
ATOM     66  C   UNL     1      -2.421   2.719  -5.899  1.00  0.00     0.074 A 
ATOM     67  C   UNL     1      -3.847   2.563  -5.690  1.00  0.00     0.031 C 
ATOM     68  C   UNL     1      -1.819   3.894  -6.206  1.00  0.00     0.031 A 
BRANCH  55  69
ATOM     69  C   UNL     1       4.322   3.494  -6.757  1.00  0.00    -0.014 A 
ATOM     70  C   UNL     1       5.107   3.277  -7.901  1.00  0.00     0.009 A 
ATOM     71  C   UNL     1       4.767   4.414  -5.795  1.00  0.00     0.009 A 
ATOM     72  C   UNL     1       6.333   3.930  -8.053  1.00  0.00     0.001 A 
ATOM     73  C   UNL     1       5.978   5.088  -5.964  1.00  0.00     0.001 A 
ATOM     74  C   UNL     1       6.766   4.836  -7.086  1.00  0.00     0.000 A 
ENDBRANCH  55  69
BRANCH  56  75
ATOM     75  C   UNL     1      -4.045  -1.557  -4.803  1.00  0.00    -0.014 A 
ATOM     76  C   UNL     1      -5.015  -1.817  -5.782  1.00  0.00     0.009 A 
ATOM     77  C   UNL     1      -4.253  -2.030  -3.498  1.00  0.00     0.009 A 
ATOM     78  C   UNL     1      -6.176  -2.525  -5.458  1.00  0.00     0.001 A 
ATOM     79  C   UNL     1      -5.401  -2.760  -3.183  1.00  0.00     0.001 A 
ATOM     80  C   UNL     1      -6.364  -3.001  -4.161  1.00  0.00     0.000 A 
ENDBRANCH  56  75
BRANCH  68  81
ATOM     81  C   UNL     1      -2.702   5.103  -6.343  1.00  0.00    -0.014 A 
ATOM     82  C   UNL     1      -3.283   5.709  -5.218  1.00  0.00     0.009 A 
ATOM     83  C   UNL     1      -2.922   5.666  -7.610  1.00  0.00     0.009 A 
ATOM     84  C   UNL     1      -4.092   6.838  -5.364  1.00  0.00     0.001 A 
ATOM     85  C   UNL     1      -3.708   6.811  -7.748  1.00  0.00     0.001 A 
ATOM     86  C   UNL     1      -4.299   7.391  -6.627  1.00  0.00     0.000 A 
ENDBRANCH  68  81
ENDBRANCH  42  43
ENDBRANCH  34  37
ENDBRANCH  32  33
ENDBRANCH  31  32
ENDBRANCH  30  31
ENDBRANCH  29  30
ENDBRANCH   1  29
TORSDOF 18
