REMARK SMILES Cc1cc(C)nc(N2CCCC[C@H]2C(=O)NCCCCCCNC(=O)c2ccc(-c3c4nc(c(-c5ccccc5)c5ccc([nH]5)c(-c5ccccc5)c5nc(c(-c6ccccc6)c6ccc3[nH]6)C=C5)C=C4)cc2)n1
REMARK SMILES IDX 20 1 19 2 18 3 17 4 16 5 14 6 15 7 13 9 8 10 9 11 10 12
REMARK SMILES IDX 12 13 11 14 7 15 1 16 2 17 3 18 74 19 4 20 5 21 6 22 21 23
REMARK SMILES IDX 22 24 23 25 24 26 25 28 26 29 27 30 73 31 28 32 72 33 29 34
REMARK SMILES IDX 30 35 31 36 66 37 32 38 71 39 65 40 67 41 33 42 70 43 64 44
REMARK SMILES IDX 63 45 34 47 56 48 41 49 55 50 42 51 45 52 54 53 68 54 43 55
REMARK SMILES IDX 44 56 53 58 69 59 46 60 35 61 36 62 40 63 37 64 39 65 38 66
REMARK SMILES IDX 57 67 58 68 62 69 59 70 61 71 60 72 47 73 48 74 52 75 49 76
REMARK SMILES IDX 51 77 50 78
REMARK H PARENT 16 8 23 27 67 46 45 57
REMARK Flexibility Score: inf
ROOT
ATOM      1  C   UNL     1       5.646  -0.146  -0.667  1.00  0.00     0.002 C 
ENDROOT
BRANCH   1   2
ATOM      2  C   UNL     1       5.543  -0.590   0.797  1.00  0.00     0.002 C 
BRANCH   2   3
ATOM      3  C   UNL     1       4.170  -0.482   1.471  1.00  0.00     0.021 C 
BRANCH   3   4
ATOM      4  C   UNL     1       3.046  -1.308   0.853  1.00  0.00     0.116 C 
BRANCH   4   5
ATOM      5  N   UNL     1       3.228  -2.735   0.975  1.00  0.00    -0.354 N 
ATOM      6  C   UNL     1       2.272  -3.714   1.025  1.00  0.00     0.242 C 
ATOM      7  O   UNL     1       2.685  -4.875   0.925  1.00  0.00    -0.273 OA
ATOM      8  H   UNL     1       4.161  -3.045   1.030  1.00  0.00     0.163 HD
BRANCH   6   9
ATOM      9  C   UNL     1       0.764  -3.377   1.241  1.00  0.00     0.174 C 
ATOM     10  N   UNL     1       0.090  -2.979   0.006  1.00  0.00    -0.329 N 
ATOM     11  C   UNL     1      -0.108  -3.941  -1.053  1.00  0.00     0.120 C 
ATOM     12  C   UNL     1      -0.860  -5.156  -0.514  1.00  0.00     0.022 C 
ATOM     13  C   UNL     1       0.012  -4.604   1.807  1.00  0.00     0.035 C 
ATOM     14  C   UNL     1      -0.236  -5.706   0.767  1.00  0.00     0.004 C 
BRANCH  10  15
ATOM     15  C   UNL     1      -0.329  -1.692  -0.169  1.00  0.00     0.226 A 
ATOM     16  C   UNL     1       1.292   1.450  -1.081  1.00  0.00     0.067 C 
ATOM     17  C   UNL     1       0.218   0.488  -0.692  1.00  0.00     0.043 A 
ATOM     18  C   UNL     1      -1.037   0.926  -0.357  1.00  0.00     0.047 A 
ATOM     19  N   UNL     1       0.572  -0.808  -0.612  1.00  0.00    -0.218 NA
ATOM     20  C   UNL     1      -1.932  -0.049   0.029  1.00  0.00     0.043 A 
ATOM     21  C   UNL     1      -3.341   0.346   0.357  1.00  0.00     0.067 C 
ATOM     22  N   UNL     1      -1.588  -1.353   0.145  1.00  0.00    -0.218 NA
ENDBRANCH  10  15
ENDBRANCH   6   9
ENDBRANCH   4   5
ENDBRANCH   3   4
ENDBRANCH   2   3
ENDBRANCH   1   2
BRANCH   1  23
ATOM     23  C   UNL     1       5.106   1.241  -1.014  1.00  0.00     0.021 C 
BRANCH  23  24
ATOM     24  C   UNL     1       5.538   2.401  -0.125  1.00  0.00     0.116 C 
BRANCH  24  25
ATOM     25  N   UNL     1       6.909   2.813  -0.356  1.00  0.00    -0.352 N 
ATOM     26  C   UNL     1       7.401   4.040  -0.734  1.00  0.00     0.251 C 
ATOM     27  H   UNL     1       7.586   2.111  -0.222  1.00  0.00     0.163 HD
ATOM     28  O   UNL     1       8.587   4.157  -1.028  1.00  0.00    -0.269 OA
BRANCH  26  29
ATOM     29  C   UNL     1       6.514   5.227  -0.807  1.00  0.00     0.039 A 
ATOM     30  C   UNL     1       6.647   6.099  -1.893  1.00  0.00     0.014 A 
ATOM     31  C   UNL     1       5.594   5.518   0.204  1.00  0.00     0.014 A 
ATOM     32  C   UNL     1       5.836   7.236  -1.985  1.00  0.00     0.010 A 
ATOM     33  C   UNL     1       4.739   6.614   0.078  1.00  0.00     0.010 A 
ATOM     34  C   UNL     1       4.863   7.495  -1.008  1.00  0.00    -0.014 A 
BRANCH  34  35
ATOM     35  C   UNL     1       4.002   8.706  -1.069  1.00  0.00     0.031 A 
ATOM     36  C   UNL     1       4.117   9.764  -0.004  1.00  0.00     0.074 A 
ATOM     37  C   UNL     1       3.075   8.836  -2.038  1.00  0.00     0.049 A 
ATOM     38  N   UNL     1       3.394  10.841   0.177  1.00  0.00    -0.248 NA
ATOM     39  C   UNL     1       5.168   9.569   1.007  1.00  0.00     0.031 C 
ATOM     40  C   UNL     1       2.838   7.880  -3.120  1.00  0.00     0.029 A 
ATOM     41  N   UNL     1       2.148   9.826  -2.258  1.00  0.00    -0.354 N 
ATOM     42  C   UNL     1       3.886  11.436   1.332  1.00  0.00     0.074 A 
ATOM     43  C   UNL     1       4.935  10.576   1.835  1.00  0.00     0.031 C 
ATOM     44  C   UNL     1       1.840   8.335  -3.896  1.00  0.00     0.029 A 
ATOM     45  C   UNL     1       1.342   9.593  -3.346  1.00  0.00     0.049 A 
ATOM     46  H   UNL     1       2.068  10.626  -1.690  1.00  0.00     0.167 HD
ATOM     47  C   UNL     1       3.514  12.600   1.917  1.00  0.00     0.031 A 
ATOM     48  C   UNL     1       0.311  10.304  -3.840  1.00  0.00     0.031 A 
ATOM     49  C   UNL     1       2.482  13.467   1.415  1.00  0.00     0.049 A 
ATOM     50  C   UNL     1      -0.094  11.590  -3.173  1.00  0.00     0.074 A 
ATOM     51  C   UNL     1       2.067  14.691   1.910  1.00  0.00     0.029 A 
ATOM     52  N   UNL     1       1.705  13.202   0.298  1.00  0.00    -0.354 N 
ATOM     53  N   UNL     1       0.412  12.160  -2.107  1.00  0.00    -0.248 NA
ATOM     54  C   UNL     1      -1.204  12.334  -3.786  1.00  0.00     0.031 C 
ATOM     55  C   UNL     1       1.007  15.146   1.118  1.00  0.00     0.029 A 
ATOM     56  C   UNL     1       0.799  14.230   0.099  1.00  0.00     0.049 A 
ATOM     57  H   UNL     1       1.785  12.402  -0.269  1.00  0.00     0.167 HD
ATOM     58  C   UNL     1      -0.298  13.342  -1.937  1.00  0.00     0.074 A 
ATOM     59  C   UNL     1      -1.264  13.411  -3.014  1.00  0.00     0.031 C 
ATOM     60  C   UNL     1      -0.157  14.288  -0.977  1.00  0.00     0.031 A 
BRANCH  47  61
ATOM     61  C   UNL     1       4.227  12.990   3.183  1.00  0.00    -0.014 A 
ATOM     62  C   UNL     1       5.575  13.385   3.168  1.00  0.00     0.009 A 
ATOM     63  C   UNL     1       3.539  12.971   4.406  1.00  0.00     0.009 A 
ATOM     64  C   UNL     1       6.232  13.702   4.358  1.00  0.00     0.001 A 
ATOM     65  C   UNL     1       4.191  13.320   5.591  1.00  0.00     0.001 A 
ATOM     66  C   UNL     1       5.539  13.672   5.568  1.00  0.00     0.000 A 
ENDBRANCH  47  61
BRANCH  48  67
ATOM     67  C   UNL     1      -0.408   9.816  -5.046  1.00  0.00    -0.014 A 
ATOM     68  C   UNL     1      -0.235  10.453  -6.284  1.00  0.00     0.009 A 
ATOM     69  C   UNL     1      -1.257   8.701  -4.968  1.00  0.00     0.009 A 
ATOM     70  C   UNL     1      -0.912   9.993  -7.416  1.00  0.00     0.001 A 
ATOM     71  C   UNL     1      -1.911   8.228  -6.106  1.00  0.00     0.001 A 
ATOM     72  C   UNL     1      -1.744   8.877  -7.328  1.00  0.00     0.000 A 
ENDBRANCH  48  67
BRANCH  60  73
ATOM     73  C   UNL     1      -1.040  15.500  -1.063  1.00  0.00    -0.014 A 
ATOM     74  C   UNL     1      -2.401  15.437  -0.728  1.00  0.00     0.009 A 
ATOM     75  C   UNL     1      -0.485  16.736  -1.430  1.00  0.00     0.009 A 
ATOM     76  C   UNL     1      -3.195  16.585  -0.784  1.00  0.00     0.001 A 
ATOM     77  C   UNL     1      -1.275  17.887  -1.460  1.00  0.00     0.001 A 
ATOM     78  C   UNL     1      -2.630  17.809  -1.144  1.00  0.00     0.000 A 
ENDBRANCH  60  73
ENDBRANCH  34  35
ENDBRANCH  26  29
ENDBRANCH  24  25
ENDBRANCH  23  24
ENDBRANCH   1  23
TORSDOF 14
