REMARK SMILES O=C(CCn1c(SCc2ccccn2)nc2ccccc2c1=O)NCCCCCCNC(=O)c1ccc(-c2c3nc(c(-c4ccccc4)c4ccc([nH]4)c(-c4ccccc4)c4nc(c(-c5ccccc5)c5ccc2[nH]5)C=C4)C=C3)cc1
REMARK SMILES IDX 26 1 25 2 24 3 1 4 2 5 3 7 4 8 5 9 6 10 22 11 15 12 21 13
REMARK SMILES IDX 23 14 16 15 20 16 17 17 19 18 18 19 7 20 8 21 9 22 10 23
REMARK SMILES IDX 14 24 11 25 13 26 12 27 27 28 28 29 29 30 30 31 31 32 32 33
REMARK SMILES IDX 33 35 34 36 35 37 81 38 36 39 80 40 37 41 38 42 39 43 74 44
REMARK SMILES IDX 40 45 79 46 73 47 75 48 41 49 78 50 72 51 71 52 42 54 64 55
REMARK SMILES IDX 49 56 63 57 50 58 53 59 62 60 76 61 51 62 52 63 61 65 77 66
REMARK SMILES IDX 54 67 43 68 44 69 48 70 45 71 47 72 46 73 65 74 66 75 70 76
REMARK SMILES IDX 67 77 69 78 68 79 55 80 56 81 60 82 57 83 59 84 58 85
REMARK H PARENT 24 6 31 34 75 53 53 64
REMARK Flexibility Score: inf
ROOT
ATOM      1  C   UNL     1       2.554   1.792   2.722  1.00  0.00     0.021 C 
ENDROOT
BRANCH   1   2
ATOM      2  C   UNL     1       2.027   2.035   1.307  1.00  0.00     0.116 C 
BRANCH   2   3
ATOM      3  N   UNL     1       2.494   1.075   0.326  1.00  0.00    -0.356 N 
ATOM      4  O   UNL     1       0.919   1.668  -1.230  1.00  0.00    -0.275 OA
ATOM      5  C   UNL     1       1.901   0.999  -0.919  1.00  0.00     0.221 C 
ATOM      6  H   UNL     1       3.239   0.473   0.549  1.00  0.00     0.163 HD
BRANCH   5   7
ATOM      7  C   UNL     1       2.466  -0.059  -1.848  1.00  0.00     0.122 C 
BRANCH   7   8
ATOM      8  C   UNL     1       3.883   0.116  -2.408  1.00  0.00     0.138 C 
BRANCH   8   9
ATOM      9  N   UNL     1       4.859   0.791  -1.558  1.00  0.00    -0.287 N 
ATOM     10  C   UNL     1       5.883   0.222  -0.811  1.00  0.00     0.171 A 
ATOM     11  C   UNL     1       4.755   2.194  -1.643  1.00  0.00     0.262 A 
ATOM     12  N   UNL     1       6.724   0.935  -0.127  1.00  0.00    -0.224 NA
ATOM     13  C   UNL     1       5.703   3.003  -0.877  1.00  0.00     0.066 A 
ATOM     14  O   UNL     1       3.931   2.782  -2.342  1.00  0.00    -0.269 OA
ATOM     15  C   UNL     1       6.658   2.325  -0.142  1.00  0.00     0.079 A 
ATOM     16  C   UNL     1       5.641   4.404  -0.879  1.00  0.00     0.016 A 
ATOM     17  C   UNL     1       7.592   3.065   0.589  1.00  0.00     0.029 A 
ATOM     18  C   UNL     1       6.562   5.133  -0.130  1.00  0.00     0.001 A 
ATOM     19  C   UNL     1       7.544   4.463   0.599  1.00  0.00     0.002 A 
BRANCH  10  20
ATOM     20  S   UNL     1       6.363  -1.453  -0.758  1.00  0.00    -0.081 SA
BRANCH  20  21
ATOM     21  C   UNL     1       5.100  -2.651  -1.080  1.00  0.00     0.134 C 
BRANCH  21  22
ATOM     22  C   UNL     1       3.857  -2.734  -0.229  1.00  0.00     0.051 A 
ATOM     23  C   UNL     1       2.913  -3.710  -0.575  1.00  0.00     0.025 A 
ATOM     24  N   UNL     1       3.644  -1.856   0.782  1.00  0.00    -0.260 NA
ATOM     25  C   UNL     1       1.704  -3.771   0.109  1.00  0.00     0.003 A 
ATOM     26  C   UNL     1       2.475  -1.978   1.461  1.00  0.00     0.111 A 
ATOM     27  C   UNL     1       1.475  -2.883   1.148  1.00  0.00     0.020 A 
ENDBRANCH  21  22
ENDBRANCH  20  21
ENDBRANCH  10  20
ENDBRANCH   8   9
ENDBRANCH   7   8
ENDBRANCH   5   7
ENDBRANCH   2   3
ENDBRANCH   1   2
BRANCH   1  28
ATOM     28  C   UNL     1       4.062   1.982   2.905  1.00  0.00     0.002 C 
BRANCH  28  29
ATOM     29  C   UNL     1       4.586   3.380   2.579  1.00  0.00     0.002 C 
BRANCH  29  30
ATOM     30  C   UNL     1       3.945   4.545   3.322  1.00  0.00     0.021 C 
BRANCH  30  31
ATOM     31  C   UNL     1       4.102   4.497   4.834  1.00  0.00     0.116 C 
BRANCH  31  32
ATOM     32  N   UNL     1       5.475   4.709   5.272  1.00  0.00    -0.352 N 
ATOM     33  C   UNL     1       5.998   5.663   6.117  1.00  0.00     0.251 C 
ATOM     34  H   UNL     1       6.131   4.072   4.907  1.00  0.00     0.163 HD
ATOM     35  O   UNL     1       7.209   5.766   6.257  1.00  0.00    -0.269 OA
BRANCH  33  36
ATOM     36  C   UNL     1       5.093   6.598   6.827  1.00  0.00     0.039 A 
ATOM     37  C   UNL     1       3.905   6.148   7.403  1.00  0.00     0.014 A 
ATOM     38  C   UNL     1       5.431   7.953   6.899  1.00  0.00     0.014 A 
ATOM     39  C   UNL     1       2.969   7.068   7.861  1.00  0.00     0.010 A 
ATOM     40  C   UNL     1       4.532   8.868   7.459  1.00  0.00     0.010 A 
ATOM     41  C   UNL     1       3.268   8.441   7.893  1.00  0.00    -0.014 A 
BRANCH  41  42
ATOM     42  C   UNL     1       2.244   9.396   8.393  1.00  0.00     0.031 A 
ATOM     43  C   UNL     1       1.653  10.447   7.489  1.00  0.00     0.074 A 
ATOM     44  C   UNL     1       1.793   9.270   9.657  1.00  0.00     0.049 A 
ATOM     45  N   UNL     1       0.712  11.320   7.753  1.00  0.00    -0.248 NA
ATOM     46  C   UNL     1       2.182  10.535   6.118  1.00  0.00     0.031 C 
ATOM     47  C   UNL     1       2.273   8.281  10.625  1.00  0.00     0.029 A 
ATOM     48  N   UNL     1       0.809   9.946  10.333  1.00  0.00    -0.354 N 
ATOM     49  C   UNL     1       0.550  12.068   6.592  1.00  0.00     0.074 A 
ATOM     50  C   UNL     1       1.508  11.569   5.631  1.00  0.00     0.031 C 
ATOM     51  C   UNL     1       1.537   8.367  11.742  1.00  0.00     0.029 A 
ATOM     52  C   UNL     1       0.584   9.464  11.600  1.00  0.00     0.049 A 
ATOM     53  H   UNL     1       0.312  10.704   9.948  1.00  0.00     0.167 HD
ATOM     54  C   UNL     1      -0.327  13.071   6.348  1.00  0.00     0.031 A 
ATOM     55  C   UNL     1      -0.283   9.857  12.552  1.00  0.00     0.031 A 
ATOM     56  C   UNL     1      -1.292  13.556   7.300  1.00  0.00     0.049 A 
ATOM     57  C   UNL     1      -1.210  11.004  12.271  1.00  0.00     0.074 A 
ATOM     58  C   UNL     1      -2.242  14.548   7.126  1.00  0.00     0.029 A 
ATOM     59  N   UNL     1      -1.432  13.089   8.597  1.00  0.00    -0.354 N 
ATOM     60  N   UNL     1      -1.360  11.687  11.162  1.00  0.00    -0.248 NA
ATOM     61  C   UNL     1      -2.082  11.438  13.370  1.00  0.00     0.031 C 
ATOM     62  C   UNL     1      -2.912  14.727   8.338  1.00  0.00     0.029 A 
ATOM     63  C   UNL     1      -2.430  13.798   9.246  1.00  0.00     0.049 A 
ATOM     64  H   UNL     1      -0.902  12.363   8.998  1.00  0.00     0.167 HD
ATOM     65  C   UNL     1      -2.348  12.625  11.426  1.00  0.00     0.074 A 
ATOM     66  C   UNL     1      -2.780  12.407  12.791  1.00  0.00     0.031 C 
ATOM     67  C   UNL     1      -2.847  13.583  10.608  1.00  0.00     0.031 A 
BRANCH  54  68
ATOM     68  C   UNL     1      -0.291  13.735   4.998  1.00  0.00    -0.014 A 
ATOM     69  C   UNL     1       0.127  15.072   4.891  1.00  0.00     0.009 A 
ATOM     70  C   UNL     1      -0.772  13.082   3.852  1.00  0.00     0.009 A 
ATOM     71  C   UNL     1       0.047  15.746   3.672  1.00  0.00     0.001 A 
ATOM     72  C   UNL     1      -0.824  13.751   2.627  1.00  0.00     0.001 A 
ATOM     73  C   UNL     1      -0.425  15.085   2.540  1.00  0.00     0.000 A 
ENDBRANCH  54  68
BRANCH  55  74
ATOM     74  C   UNL     1      -0.306   9.144  13.856  1.00  0.00    -0.014 A 
ATOM     75  C   UNL     1       0.791   9.219  14.730  1.00  0.00     0.009 A 
ATOM     76  C   UNL     1      -1.397   8.335  14.207  1.00  0.00     0.009 A 
ATOM     77  C   UNL     1       0.812   8.475  15.910  1.00  0.00     0.001 A 
ATOM     78  C   UNL     1      -1.387   7.617  15.405  1.00  0.00     0.001 A 
ATOM     79  C   UNL     1      -0.279   7.677  16.249  1.00  0.00     0.000 A 
ENDBRANCH  55  74
BRANCH  67  80
ATOM     80  C   UNL     1      -3.922  14.480  11.153  1.00  0.00    -0.014 A 
ATOM     81  C   UNL     1      -5.228  14.395  10.644  1.00  0.00     0.009 A 
ATOM     82  C   UNL     1      -3.623  15.477  12.094  1.00  0.00     0.009 A 
ATOM     83  C   UNL     1      -6.209  15.300  11.053  1.00  0.00     0.001 A 
ATOM     84  C   UNL     1      -4.614  16.361  12.525  1.00  0.00     0.001 A 
ATOM     85  C   UNL     1      -5.902  16.279  11.996  1.00  0.00     0.000 A 
ENDBRANCH  67  80
ENDBRANCH  41  42
ENDBRANCH  33  36
ENDBRANCH  31  32
ENDBRANCH  30  31
ENDBRANCH  29  30
ENDBRANCH  28  29
ENDBRANCH   1  28
TORSDOF 18
