REMARK SMILES COc1ccc(OC)c(NC(=O)[C@@H]2[C@@H](C(=O)NCCCCCCNC(=O)c3ccc(-c4c5nc(c(-c6ccccc6)c6ccc([nH]6)c(-c6ccccc6)c6nc(c(-c7ccccc7)c7ccc4[nH]7)C=C6)C=C5)cc3)[C@H]3C=C[C@@H]2C3)c1
REMARK SMILES IDX 20 1 19 2 18 3 17 4 15 5 16 6 14 8 13 9 78 10 75 11 77 12
REMARK SMILES IDX 79 13 76 14 11 15 10 16 12 18 9 19 3 20 4 21 80 22 5 23 6 24
REMARK SMILES IDX 2 25 1 26 7 27 8 28 21 29 22 30 23 31 24 32 25 33 26 35
REMARK SMILES IDX 27 36 28 37 74 38 29 39 73 40 30 41 31 42 32 43 67 44 33 45
REMARK SMILES IDX 72 46 66 47 68 48 34 49 71 50 65 51 64 52 35 54 57 55 42 56
REMARK SMILES IDX 56 57 43 58 46 59 55 60 69 61 44 62 45 63 54 65 70 66 47 67
REMARK SMILES IDX 36 68 37 69 41 70 38 71 40 72 39 73 58 74 59 75 63 76 60 77
REMARK SMILES IDX 62 78 61 79 48 80 49 81 53 82 50 83 52 84 51 85
REMARK H PARENT 17 7 10 17 24 34 68 53 46 64
REMARK Flexibility Score: inf
ROOT
ATOM      1  C   UNL     1      -0.114  10.589   4.548  1.00  0.00     0.002 C 
ENDROOT
BRANCH   1   2
ATOM      2  C   UNL     1       1.404  10.456   4.642  1.00  0.00     0.021 C 
BRANCH   2   3
ATOM      3  C   UNL     1       1.966   9.047   4.775  1.00  0.00     0.116 C 
BRANCH   3   4
ATOM      4  N   UNL     1       2.102   8.341   3.530  1.00  0.00    -0.356 N 
ATOM      5  C   UNL     1       3.017   7.425   3.134  1.00  0.00     0.224 C 
ATOM      6  O   UNL     1       2.865   6.979   1.988  1.00  0.00    -0.275 OA
ATOM      7  H   UNL     1       1.419   8.559   2.855  1.00  0.00     0.163 HD
BRANCH   5   8
ATOM      8  C   UNL     1       4.168   6.865   3.975  1.00  0.00     0.098 C 
ATOM      9  C   UNL     1       3.847   5.389   4.368  1.00  0.00     0.099 C 
ATOM     10  C   UNL     1       4.505   5.262   5.768  1.00  0.00     0.025 C 
ATOM     11  C   UNL     1       4.705   7.447   5.312  1.00  0.00     0.025 C 
ATOM     12  C   UNL     1       3.621   5.980   6.749  1.00  0.00    -0.027 C 
ATOM     13  C   UNL     1       5.644   6.298   5.707  1.00  0.00     0.017 C 
ATOM     14  C   UNL     1       3.759   7.286   6.495  1.00  0.00    -0.027 C 
BRANCH   9  15
ATOM     15  C   UNL     1       4.466   4.344   3.471  1.00  0.00     0.229 C 
ATOM     16  N   UNL     1       3.763   3.387   2.809  1.00  0.00    -0.323 N 
ATOM     17  H   UNL     1       4.355   2.749   2.348  1.00  0.00     0.170 HD
ATOM     18  O   UNL     1       5.694   4.316   3.309  1.00  0.00    -0.274 OA
BRANCH  16  19
ATOM     19  C   UNL     1       2.400   3.078   2.617  1.00  0.00     0.087 A 
ATOM     20  C   UNL     1       0.831   2.130   1.005  1.00  0.00     0.121 A 
ATOM     21  C   UNL     1      -0.239   2.667   1.704  1.00  0.00     0.050 A 
ATOM     22  C   UNL     1       2.139   2.361   1.435  1.00  0.00     0.076 A 
ATOM     23  C   UNL     1      -0.004   3.288   2.926  1.00  0.00     0.052 A 
ATOM     24  C   UNL     1       1.303   3.413   3.421  1.00  0.00     0.142 A 
BRANCH  20  25
ATOM     25  O   UNL     1       0.559   1.441  -0.145  1.00  0.00    -0.497 OA
ATOM     26  C   UNL     1       1.002   0.086  -0.050  1.00  0.00     0.278 C 
ENDBRANCH  20  25
BRANCH  24  27
ATOM     27  O   UNL     1       1.362   3.807   4.731  1.00  0.00    -0.495 OA
ATOM     28  C   UNL     1       1.904   2.782   5.563  1.00  0.00     0.278 C 
ENDBRANCH  24  27
ENDBRANCH  16  19
ENDBRANCH   9  15
ENDBRANCH   5   8
ENDBRANCH   3   4
ENDBRANCH   2   3
ENDBRANCH   1   2
BRANCH   1  29
ATOM     29  C   UNL     1      -0.942   9.941   5.662  1.00  0.00     0.002 C 
BRANCH  29  30
ATOM     30  C   UNL     1      -0.507  10.206   7.106  1.00  0.00     0.021 C 
BRANCH  30  31
ATOM     31  C   UNL     1      -0.302  11.665   7.504  1.00  0.00     0.116 C 
BRANCH  31  32
ATOM     32  N   UNL     1      -1.462  12.499   7.256  1.00  0.00    -0.352 N 
ATOM     33  C   UNL     1      -2.076  13.419   8.069  1.00  0.00     0.251 C 
ATOM     34  H   UNL     1      -1.871  12.389   6.367  1.00  0.00     0.163 HD
ATOM     35  O   UNL     1      -3.119  13.952   7.706  1.00  0.00    -0.269 OA
BRANCH  33  36
ATOM     36  C   UNL     1      -1.509  13.753   9.395  1.00  0.00     0.039 A 
ATOM     37  C   UNL     1      -2.383  13.866  10.481  1.00  0.00     0.014 A 
ATOM     38  C   UNL     1      -0.142  13.985   9.575  1.00  0.00     0.014 A 
ATOM     39  C   UNL     1      -1.883  14.160  11.751  1.00  0.00     0.010 A 
ATOM     40  C   UNL     1       0.364  14.210  10.855  1.00  0.00     0.010 A 
ATOM     41  C   UNL     1      -0.501  14.306  11.955  1.00  0.00    -0.014 A 
BRANCH  41  42
ATOM     42  C   UNL     1       0.047  14.561  13.312  1.00  0.00     0.031 A 
ATOM     43  C   UNL     1       0.745  15.858  13.620  1.00  0.00     0.074 A 
ATOM     44  C   UNL     1      -0.043  13.605  14.258  1.00  0.00     0.049 A 
ATOM     45  N   UNL     1       1.310  16.248  14.736  1.00  0.00    -0.248 NA
ATOM     46  C   UNL     1       0.843  16.837  12.525  1.00  0.00     0.031 C 
ATOM     47  C   UNL     1      -0.665  12.291  14.079  1.00  0.00     0.029 A 
ATOM     48  N   UNL     1       0.390  13.593  15.560  1.00  0.00    -0.354 N 
ATOM     49  C   UNL     1       1.844  17.503  14.471  1.00  0.00     0.074 A 
ATOM     50  C   UNL     1       1.576  17.791  13.079  1.00  0.00     0.031 C 
ATOM     51  C   UNL     1      -0.602  11.614  15.237  1.00  0.00     0.029 A 
ATOM     52  C   UNL     1       0.098  12.427  16.227  1.00  0.00     0.049 A 
ATOM     53  H   UNL     1       0.865  14.347  15.978  1.00  0.00     0.167 HD
ATOM     54  C   UNL     1       2.486  18.347  15.314  1.00  0.00     0.031 A 
ATOM     55  C   UNL     1       0.364  12.054  17.492  1.00  0.00     0.031 A 
ATOM     56  C   UNL     1       2.740  18.068  16.703  1.00  0.00     0.049 A 
ATOM     57  C   UNL     1       1.085  13.007  18.404  1.00  0.00     0.074 A 
ATOM     58  C   UNL     1       3.328  18.886  17.653  1.00  0.00     0.029 A 
ATOM     59  N   UNL     1       2.425  16.878  17.339  1.00  0.00    -0.354 N 
ATOM     60  N   UNL     1       1.518  14.220  18.158  1.00  0.00    -0.248 NA
ATOM     61  C   UNL     1       1.340  12.543  19.775  1.00  0.00     0.031 C 
ATOM     62  C   UNL     1       3.416  18.170  18.852  1.00  0.00     0.029 A 
ATOM     63  C   UNL     1       2.828  16.930  18.663  1.00  0.00     0.049 A 
ATOM     64  H   UNL     1       1.980  16.109  16.913  1.00  0.00     0.167 HD
ATOM     65  C   UNL     1       2.063  14.676  19.351  1.00  0.00     0.074 A 
ATOM     66  C   UNL     1       1.893  13.616  20.323  1.00  0.00     0.031 C 
ATOM     67  C   UNL     1       2.648  15.868  19.620  1.00  0.00     0.031 A 
BRANCH  54  68
ATOM     68  C   UNL     1       2.971  19.655  14.752  1.00  0.00    -0.014 A 
ATOM     69  C   UNL     1       2.074  20.671  14.384  1.00  0.00     0.009 A 
ATOM     70  C   UNL     1       4.349  19.892  14.627  1.00  0.00     0.009 A 
ATOM     71  C   UNL     1       2.545  21.881  13.870  1.00  0.00     0.001 A 
ATOM     72  C   UNL     1       4.819  21.114  14.141  1.00  0.00     0.001 A 
ATOM     73  C   UNL     1       3.917  22.103  13.754  1.00  0.00     0.000 A 
ENDBRANCH  54  68
BRANCH  55  74
ATOM     74  C   UNL     1      -0.073  10.722  17.988  1.00  0.00    -0.014 A 
ATOM     75  C   UNL     1      -1.097  10.620  18.944  1.00  0.00     0.009 A 
ATOM     76  C   UNL     1       0.544   9.548  17.529  1.00  0.00     0.009 A 
ATOM     77  C   UNL     1      -1.469   9.373  19.452  1.00  0.00     0.001 A 
ATOM     78  C   UNL     1       0.148   8.301  18.017  1.00  0.00     0.001 A 
ATOM     79  C   UNL     1      -0.850   8.216  18.986  1.00  0.00     0.000 A 
ENDBRANCH  55  74
BRANCH  67  80
ATOM     80  C   UNL     1       3.103  16.107  21.032  1.00  0.00    -0.014 A 
ATOM     81  C   UNL     1       4.214  15.438  21.569  1.00  0.00     0.009 A 
ATOM     82  C   UNL     1       2.420  17.039  21.830  1.00  0.00     0.009 A 
ATOM     83  C   UNL     1       4.605  15.667  22.890  1.00  0.00     0.001 A 
ATOM     84  C   UNL     1       2.833  17.290  23.139  1.00  0.00     0.001 A 
ATOM     85  C   UNL     1       3.918  16.595  23.671  1.00  0.00     0.000 A 
ENDBRANCH  67  80
ENDBRANCH  41  42
ENDBRANCH  33  36
ENDBRANCH  31  32
ENDBRANCH  30  31
ENDBRANCH  29  30
ENDBRANCH   1  29
TORSDOF 17
