REMARK SMILES Cc1cc(/C=C2/C(=O)NC(=S)[NH+]=C2NCCCCCCNC(=O)c2ccc(-c3c4nc(c(-c5ccccc5)c5ccc([nH]5)c(-c5ccccc5)c5nc(c(-c6ccccc6)c6ccc3[nH]6)C=C5)C=C4)cc2)c(C)n1-c1cccc(C(=O)[O-])c1
REMARK SMILES IDX 17 1 16 2 15 3 14 4 5 5 6 6 7 7 13 8 8 9 9 10 12 11 10 12
REMARK SMILES IDX 11 16 4 17 1 18 2 19 3 20 74 21 72 22 73 23 75 24 76 25
REMARK SMILES IDX 83 26 77 27 79 28 78 29 80 30 81 31 82 32 18 33 19 34 20 35
REMARK SMILES IDX 21 36 22 37 23 39 24 40 25 41 71 42 26 43 70 44 27 45 28 46
REMARK SMILES IDX 29 47 64 48 30 49 69 50 63 51 65 52 31 53 68 54 62 55 61 56
REMARK SMILES IDX 32 58 54 59 39 60 53 61 40 62 43 63 52 64 66 65 41 66 42 67
REMARK SMILES IDX 51 69 67 70 44 71 33 72 34 73 38 74 35 75 37 76 36 77 55 78
REMARK SMILES IDX 56 79 60 80 57 81 59 82 58 83 45 84 46 85 50 86 47 87 49 88
REMARK SMILES IDX 48 89
REMARK H PARENT 9 13 12 14 14 15 21 38 65 57 43 68
REMARK Flexibility Score: inf
ROOT
ATOM      1  C   UNL     1       1.768   4.285  -2.391  1.00  0.00     0.003 C 
ENDROOT
BRANCH   1   2
ATOM      2  C   UNL     1       0.214   4.166  -2.332  1.00  0.00     0.037 C 
BRANCH   2   3
ATOM      3  C   UNL     1      -0.732   4.743  -1.269  1.00  0.00     0.194 C 
BRANCH   3   4
ATOM      4  N   UNL     1      -0.251   5.808  -0.419  1.00  0.00    -0.305 N 
ATOM      5  C   UNL     1      -1.605   4.205   2.059  1.00  0.00     0.032 C 
ATOM      6  C   UNL     1      -1.779   5.478   1.642  1.00  0.00     0.128 C 
ATOM      7  C   UNL     1      -2.899   6.189   2.310  1.00  0.00     0.319 C 
ATOM      8  C   UNL     1      -0.999   6.295   0.643  1.00  0.00     0.234 C 
ATOM      9  O   UNL     1      -3.836   5.631   2.872  1.00  0.00    -0.250 OA
ATOM     10  N   UNL     1      -2.800   7.546   2.267  1.00  0.00    -0.229 N 
ATOM     11  N   UNL     1      -1.031   7.603   0.703  1.00  0.00    -0.236 N 
ATOM     12  C   UNL     1      -1.850   8.255   1.585  1.00  0.00     0.295 C 
ATOM     13  H   UNL     1      -3.470   8.062   2.770  1.00  0.00     0.268 HD
ATOM     14  H   UNL     1      -0.455   8.127   0.102  1.00  0.00     0.268 HD
ATOM     15  H   UNL     1       0.634   6.199  -0.599  1.00  0.00     0.256 HD
ATOM     16  S   UNL     1      -1.828   9.916   1.815  1.00  0.00    -0.005 S 
BRANCH   5  17
ATOM     17  C   UNL     1      -0.679   3.212   1.628  1.00  0.00    -0.003 A 
ATOM     18  C   UNL     1       0.205  -0.165   0.400  1.00  0.00     0.065 C 
ATOM     19  C   UNL     1       0.036   1.258   0.775  1.00  0.00     0.020 A 
ATOM     20  C   UNL     1      -1.032   1.863   1.398  1.00  0.00     0.031 A 
ATOM     21  N   UNL     1       0.997   2.226   0.576  1.00  0.00    -0.318 N 
ATOM     22  C   UNL     1       0.675   3.340   1.355  1.00  0.00     0.027 A 
ATOM     23  C   UNL     1       1.589   4.492   1.629  1.00  0.00     0.065 C 
BRANCH  21  24
ATOM     24  C   UNL     1       2.064   2.137  -0.337  1.00  0.00     0.046 A 
ATOM     25  C   UNL     1       3.705   2.576   0.258  1.00  0.00     0.026 A 
ATOM     26  C   UNL     1       1.781   1.837  -2.117  1.00  0.00     0.036 A 
ATOM     27  C   UNL     1       5.038   2.737  -0.907  1.00  0.00     0.003 A 
ATOM     28  C   UNL     1       3.179   2.023  -3.279  1.00  0.00    -0.001 A 
ATOM     29  C   UNL     1       4.801   2.467  -2.663  1.00  0.00     0.010 A 
BRANCH  28  30
ATOM     30  C   UNL     1       3.120   1.802  -4.723  1.00  0.00     0.072 C 
ATOM     31  O   UNL     1       4.044   2.005  -5.488  1.00  0.00    -0.545 OA
ATOM     32  O   UNL     1       1.958   1.269  -5.111  1.00  0.00    -0.545 OA
ENDBRANCH  28  30
ENDBRANCH  21  24
ENDBRANCH   5  17
ENDBRANCH   3   4
ENDBRANCH   2   3
ENDBRANCH   1   2
BRANCH   1  33
ATOM     33  C   UNL     1       3.090   3.333  -1.667  1.00  0.00     0.002 C 
BRANCH  33  34
ATOM     34  C   UNL     1       3.582   1.204  -1.426  1.00  0.00     0.021 C 
BRANCH  34  35
ATOM     35  C   UNL     1       2.740  -0.342  -1.878  1.00  0.00     0.116 C 
BRANCH  35  36
ATOM     36  N   UNL     1       2.927  -0.962  -3.185  1.00  0.00    -0.352 N 
ATOM     37  C   UNL     1       2.126  -1.854  -3.917  1.00  0.00     0.251 C 
ATOM     38  H   UNL     1       3.765  -0.711  -3.635  1.00  0.00     0.163 HD
ATOM     39  O   UNL     1       2.658  -2.369  -4.905  1.00  0.00    -0.269 OA
BRANCH  37  40
ATOM     40  C   UNL     1       0.683  -2.277  -3.594  1.00  0.00     0.039 A 
ATOM     41  C   UNL     1       0.431  -3.336  -2.732  1.00  0.00     0.014 A 
ATOM     42  C   UNL     1      -0.429  -1.939  -4.405  1.00  0.00     0.014 A 
ATOM     43  C   UNL     1      -0.889  -3.942  -2.625  1.00  0.00     0.010 A 
ATOM     44  C   UNL     1      -1.758  -2.610  -4.343  1.00  0.00     0.010 A 
ATOM     45  C   UNL     1      -2.058  -3.653  -3.438  1.00  0.00    -0.014 A 
BRANCH  45  46
ATOM     46  C   UNL     1      -3.207  -4.883  -3.587  1.00  0.00     0.031 A 
ATOM     47  C   UNL     1      -2.299  -6.042  -3.788  1.00  0.00     0.074 A 
ATOM     48  C   UNL     1      -4.563  -5.250  -3.767  1.00  0.00     0.049 A 
ATOM     49  N   UNL     1      -1.489  -5.983  -4.803  1.00  0.00    -0.248 NA
ATOM     50  C   UNL     1      -1.922  -7.004  -2.755  1.00  0.00     0.031 C 
ATOM     51  C   UNL     1      -5.743  -4.380  -3.959  1.00  0.00     0.029 A 
ATOM     52  N   UNL     1      -5.246  -6.537  -3.830  1.00  0.00    -0.354 N 
ATOM     53  C   UNL     1      -0.652  -7.058  -4.706  1.00  0.00     0.074 A 
ATOM     54  C   UNL     1      -0.816  -7.504  -3.324  1.00  0.00     0.031 C 
ATOM     55  C   UNL     1      -6.924  -5.080  -3.954  1.00  0.00     0.029 A 
ATOM     56  C   UNL     1      -6.708  -6.523  -3.815  1.00  0.00     0.049 A 
ATOM     57  H   UNL     1      -4.743  -7.382  -3.881  1.00  0.00     0.167 HD
ATOM     58  C   UNL     1      -0.557  -7.801  -5.846  1.00  0.00     0.031 A 
ATOM     59  C   UNL     1      -7.670  -7.552  -3.787  1.00  0.00     0.031 A 
ATOM     60  C   UNL     1      -1.409  -8.960  -5.776  1.00  0.00     0.049 A 
ATOM     61  C   UNL     1      -7.023  -8.720  -4.389  1.00  0.00     0.074 A 
ATOM     62  C   UNL     1      -1.685  -9.860  -4.764  1.00  0.00     0.029 A 
ATOM     63  N   UNL     1      -2.479  -8.997  -6.643  1.00  0.00    -0.354 N 
ATOM     64  N   UNL     1      -6.949  -8.842  -5.680  1.00  0.00    -0.248 NA
ATOM     65  C   UNL     1      -6.567  -9.871  -3.621  1.00  0.00     0.031 C 
ATOM     66  C   UNL     1      -3.093  -9.951  -4.759  1.00  0.00     0.029 A 
ATOM     67  C   UNL     1      -3.573  -9.514  -5.985  1.00  0.00     0.049 A 
ATOM     68  H   UNL     1      -2.464  -8.701  -7.582  1.00  0.00     0.167 HD
ATOM     69  C   UNL     1      -5.939  -9.736  -5.821  1.00  0.00     0.074 A 
ATOM     70  C   UNL     1      -5.959 -10.535  -4.608  1.00  0.00     0.031 C 
ATOM     71  C   UNL     1      -4.880  -9.312  -6.553  1.00  0.00     0.031 A 
BRANCH  58  72
ATOM     72  C   UNL     1      -0.378  -6.974  -7.106  1.00  0.00    -0.014 A 
ATOM     73  C   UNL     1       0.812  -7.074  -7.830  1.00  0.00     0.009 A 
ATOM     74  C   UNL     1      -1.323  -6.006  -7.520  1.00  0.00     0.009 A 
ATOM     75  C   UNL     1       1.076  -6.183  -8.880  1.00  0.00     0.001 A 
ATOM     76  C   UNL     1      -1.038  -5.086  -8.527  1.00  0.00     0.001 A 
ATOM     77  C   UNL     1       0.169  -5.173  -9.205  1.00  0.00     0.000 A 
ENDBRANCH  58  72
BRANCH  59  78
ATOM     78  C   UNL     1      -9.193  -7.952  -3.623  1.00  0.00    -0.014 A 
ATOM     79  C   UNL     1      -9.753  -9.014  -4.428  1.00  0.00     0.009 A 
ATOM     80  C   UNL     1      -9.946  -7.681  -2.471  1.00  0.00     0.009 A 
ATOM     81  C   UNL     1     -10.871  -9.803  -4.065  1.00  0.00     0.001 A 
ATOM     82  C   UNL     1     -11.101  -8.453  -2.120  1.00  0.00     0.001 A 
ATOM     83  C   UNL     1     -11.541  -9.530  -2.891  1.00  0.00     0.000 A 
ENDBRANCH  59  78
BRANCH  71  84
ATOM     84  C   UNL     1      -5.165  -8.441  -7.765  1.00  0.00    -0.014 A 
ATOM     85  C   UNL     1      -5.972  -7.281  -7.766  1.00  0.00     0.009 A 
ATOM     86  C   UNL     1      -4.614  -8.835  -8.991  1.00  0.00     0.009 A 
ATOM     87  C   UNL     1      -6.254  -6.580  -8.946  1.00  0.00     0.001 A 
ATOM     88  C   UNL     1      -4.854  -8.109 -10.162  1.00  0.00     0.001 A 
ATOM     89  C   UNL     1      -5.685  -6.992 -10.144  1.00  0.00     0.000 A 
ENDBRANCH  71  84
ENDBRANCH  45  46
ENDBRANCH  37  40
ENDBRANCH  35  36
ENDBRANCH  34  35
ENDBRANCH  33  34
ENDBRANCH   1  33
TORSDOF 15
