REMARK SMILES O=C(NCCCCCCNC(=O)[C@@H](Cc1c[nH]c2ccccc12)NC(=O)c1ccc(F)cc1F)c1ccc(-c2c3nc(c(-c4ccccc4)c4ccc([nH]4)c(-c4ccccc4)c4nc(c(-c5ccccc5)c5ccc2[nH]5)C=C4)C=C3)cc1
REMARK SMILES IDX 6 1 5 2 4 3 3 4 1 5 2 6 35 8 36 9 82 10 37 11 81 12 38 13
REMARK SMILES IDX 39 14 40 15 75 16 41 17 80 18 74 19 76 20 42 21 79 22 73 23
REMARK SMILES IDX 72 24 43 26 65 27 50 28 64 29 51 30 54 31 63 32 77 33 52 34
REMARK SMILES IDX 53 35 62 37 78 38 55 39 44 40 45 41 49 42 46 43 48 44 47 45
REMARK SMILES IDX 66 46 67 47 71 48 68 49 70 50 69 51 56 52 57 53 61 54 58 55
REMARK SMILES IDX 60 56 59 57 7 58 8 59 9 60 10 61 11 62 12 64 13 65 14 66
REMARK SMILES IDX 15 67 16 68 23 69 17 70 18 71 22 72 19 74 21 75 20 76 24 77
REMARK SMILES IDX 25 78 26 80 27 81 28 82 33 83 29 84 32 85 34 86 30 87 31 88
REMARK H PARENT 3 7 76 25 54 36 10 63 17 73 24 79
REMARK Flexibility Score: inf
ROOT
ATOM      1  C   UNL     1       3.724   1.225  -3.911  1.00  0.00     0.002 C 
ENDROOT
BRANCH   1   2
ATOM      2  C   UNL     1       4.343   0.294  -2.866  1.00  0.00     0.021 C 
BRANCH   2   3
ATOM      3  C   UNL     1       4.244   0.789  -1.427  1.00  0.00     0.116 C 
BRANCH   3   4
ATOM      4  N   UNL     1       2.879   0.773  -0.927  1.00  0.00    -0.352 N 
ATOM      5  O   UNL     1       1.084  -0.019   0.185  1.00  0.00    -0.269 OA
ATOM      6  C   UNL     1       2.298  -0.026   0.029  1.00  0.00     0.251 C 
ATOM      7  H   UNL     1       2.278   1.437  -1.336  1.00  0.00     0.163 HD
BRANCH   6   8
ATOM      8  C   UNL     1       3.140  -0.912   0.864  1.00  0.00     0.039 A 
ATOM      9  C   UNL     1       4.332  -0.445   1.418  1.00  0.00     0.014 A 
ATOM     10  C   UNL     1       2.713  -2.219   1.125  1.00  0.00     0.014 A 
ATOM     11  C   UNL     1       5.167  -1.322   2.099  1.00  0.00     0.010 A 
ATOM     12  C   UNL     1       3.509  -3.072   1.898  1.00  0.00     0.010 A 
ATOM     13  C   UNL     1       4.756  -2.638   2.371  1.00  0.00    -0.014 A 
BRANCH  13  14
ATOM     14  C   UNL     1       5.620  -3.493   3.226  1.00  0.00     0.031 A 
ATOM     15  C   UNL     1       6.262  -4.747   2.702  1.00  0.00     0.074 A 
ATOM     16  C   UNL     1       5.870  -3.084   4.486  1.00  0.00     0.049 A 
ATOM     17  N   UNL     1       7.110  -5.546   3.303  1.00  0.00    -0.248 NA
ATOM     18  C   UNL     1       5.909  -5.167   1.337  1.00  0.00     0.031 C 
ATOM     19  C   UNL     1       5.286  -1.895   5.117  1.00  0.00     0.029 A 
ATOM     20  N   UNL     1       6.701  -3.594   5.450  1.00  0.00    -0.354 N 
ATOM     21  C   UNL     1       7.386  -6.563   2.397  1.00  0.00     0.074 A 
ATOM     22  C   UNL     1       6.591  -6.298   1.216  1.00  0.00     0.031 C 
ATOM     23  C   UNL     1       5.826  -1.732   6.333  1.00  0.00     0.029 A 
ATOM     24  C   UNL     1       6.739  -2.836   6.596  1.00  0.00     0.049 A 
ATOM     25  H   UNL     1       7.220  -4.423   5.333  1.00  0.00     0.167 HD
ATOM     26  C   UNL     1       8.229  -7.615   2.535  1.00  0.00     0.031 A 
ATOM     27  C   UNL     1       7.423  -3.012   7.740  1.00  0.00     0.031 A 
ATOM     28  C   UNL     1       9.008  -7.885   3.717  1.00  0.00     0.049 A 
ATOM     29  C   UNL     1       8.334  -4.196   7.868  1.00  0.00     0.074 A 
ATOM     30  C   UNL     1       9.897  -8.922   3.946  1.00  0.00     0.029 A 
ATOM     31  N   UNL     1       8.990  -7.115   4.870  1.00  0.00    -0.354 N 
ATOM     32  N   UNL     1       8.606  -5.126   6.986  1.00  0.00    -0.248 NA
ATOM     33  C   UNL     1       9.034  -4.351   9.150  1.00  0.00     0.031 C 
ATOM     34  C   UNL     1      10.381  -8.806   5.254  1.00  0.00     0.029 A 
ATOM     35  C   UNL     1       9.838  -7.664   5.819  1.00  0.00     0.049 A 
ATOM     36  H   UNL     1       8.453  -6.300   4.996  1.00  0.00     0.167 HD
ATOM     37  C   UNL     1       9.514  -5.974   7.603  1.00  0.00     0.074 A 
ATOM     38  C   UNL     1       9.775  -5.424   8.918  1.00  0.00     0.031 C 
ATOM     39  C   UNL     1      10.074  -7.114   7.128  1.00  0.00     0.031 A 
BRANCH  26  40
ATOM     40  C   UNL     1       8.349  -8.569   1.378  1.00  0.00    -0.014 A 
ATOM     41  C   UNL     1       9.025  -8.205   0.203  1.00  0.00     0.009 A 
ATOM     42  C   UNL     1       7.838  -9.872   1.488  1.00  0.00     0.009 A 
ATOM     43  C   UNL     1       9.166  -9.117  -0.846  1.00  0.00     0.001 A 
ATOM     44  C   UNL     1       8.002 -10.790   0.448  1.00  0.00     0.001 A 
ATOM     45  C   UNL     1       8.660 -10.410  -0.720  1.00  0.00     0.000 A 
ENDBRANCH  26  40
BRANCH  27  46
ATOM     46  C   UNL     1       7.250  -2.053   8.862  1.00  0.00    -0.014 A 
ATOM     47  C   UNL     1       8.298  -1.212   9.262  1.00  0.00     0.009 A 
ATOM     48  C   UNL     1       6.023  -1.978   9.542  1.00  0.00     0.009 A 
ATOM     49  C   UNL     1       8.130  -0.336  10.337  1.00  0.00     0.001 A 
ATOM     50  C   UNL     1       5.847  -1.078  10.593  1.00  0.00     0.001 A 
ATOM     51  C   UNL     1       6.904  -0.266  10.998  1.00  0.00     0.000 A 
ENDBRANCH  27  46
BRANCH  39  52
ATOM     52  C   UNL     1      11.035  -7.822   8.040  1.00  0.00    -0.014 A 
ATOM     53  C   UNL     1      10.586  -8.493   9.189  1.00  0.00     0.009 A 
ATOM     54  C   UNL     1      12.408  -7.815   7.748  1.00  0.00     0.009 A 
ATOM     55  C   UNL     1      11.499  -9.102  10.053  1.00  0.00     0.001 A 
ATOM     56  C   UNL     1      13.315  -8.451   8.597  1.00  0.00     0.001 A 
ATOM     57  C   UNL     1      12.861  -9.082   9.755  1.00  0.00     0.000 A 
ENDBRANCH  39  52
ENDBRANCH  13  14
ENDBRANCH   6   8
ENDBRANCH   3   4
ENDBRANCH   2   3
ENDBRANCH   1   2
BRANCH   1  58
ATOM     58  C   UNL     1       4.231   2.670  -3.893  1.00  0.00     0.002 C 
BRANCH  58  59
ATOM     59  C   UNL     1       5.752   2.824  -3.860  1.00  0.00     0.021 C 
BRANCH  59  60
ATOM     60  C   UNL     1       6.488   2.399  -5.129  1.00  0.00     0.116 C 
BRANCH  60  61
ATOM     61  N   UNL     1       6.593   3.522  -6.036  1.00  0.00    -0.354 N 
ATOM     62  C   UNL     1       7.614   4.388  -6.267  1.00  0.00     0.242 C 
ATOM     63  H   UNL     1       5.787   3.687  -6.577  1.00  0.00     0.163 HD
ATOM     64  O   UNL     1       7.300   5.488  -6.740  1.00  0.00    -0.273 OA
BRANCH  62  65
ATOM     65  C   UNL     1       9.094   4.115  -5.909  1.00  0.00     0.176 C 
BRANCH  65  66
ATOM     66  C   UNL     1       9.526   4.577  -4.503  1.00  0.00     0.072 C 
BRANCH  66  67
ATOM     67  C   UNL     1       9.186   3.702  -3.331  1.00  0.00    -0.020 A 
ATOM     68  C   UNL     1       9.657   2.427  -3.072  1.00  0.00     0.087 A 
ATOM     69  C   UNL     1       8.361   4.061  -2.212  1.00  0.00     0.003 A 
ATOM     70  N   UNL     1       9.097   1.982  -1.903  1.00  0.00    -0.361 N 
ATOM     71  C   UNL     1       8.280   2.950  -1.370  1.00  0.00     0.046 A 
ATOM     72  C   UNL     1       7.640   5.222  -1.858  1.00  0.00     0.010 A 
ATOM     73  H   UNL     1       9.256   1.096  -1.503  1.00  0.00     0.166 HD
ATOM     74  C   UNL     1       7.474   2.922  -0.225  1.00  0.00     0.026 A 
ATOM     75  C   UNL     1       6.828   5.210  -0.718  1.00  0.00     0.001 A 
ATOM     76  C   UNL     1       6.737   4.071   0.077  1.00  0.00     0.002 A 
ENDBRANCH  66  67
ENDBRANCH  65  66
BRANCH  65  77
ATOM     77  N   UNL     1       9.604   2.789  -6.279  1.00  0.00    -0.340 N 
ATOM     78  C   UNL     1      10.441   2.404  -7.296  1.00  0.00     0.254 C 
ATOM     79  H   UNL     1       9.294   2.055  -5.702  1.00  0.00     0.164 HD
ATOM     80  O   UNL     1      10.645   1.206  -7.474  1.00  0.00    -0.269 OA
BRANCH  78  81
ATOM     81  C   UNL     1      11.125   3.394  -8.154  1.00  0.00     0.075 A 
ATOM     82  C   UNL     1      11.857   4.458  -7.607  1.00  0.00     0.020 A 
ATOM     83  C   UNL     1      11.109   3.217  -9.541  1.00  0.00     0.138 A 
ATOM     84  C   UNL     1      12.498   5.369  -8.449  1.00  0.00     0.040 A 
ATOM     85  C   UNL     1      11.769   4.110 -10.383  1.00  0.00     0.079 A 
ATOM     86  F   UNL     1      10.444   2.196 -10.099  1.00  0.00    -0.206 F 
ATOM     87  C   UNL     1      12.447   5.186  -9.828  1.00  0.00     0.126 A 
ATOM     88  F   UNL     1      13.071   6.058 -10.630  1.00  0.00    -0.207 F 
ENDBRANCH  78  81
ENDBRANCH  65  77
ENDBRANCH  62  65
ENDBRANCH  60  61
ENDBRANCH  59  60
ENDBRANCH  58  59
ENDBRANCH   1  58
TORSDOF 17
