REMARK SMILES CCN1C(=O)[C@H](CC(=O)Nc2ccc(C(=O)NCCCCCCNC(=O)c3ccc(-c4c5nc(c(-c6ccccc6)c6ccc([nH]6)c(-c6ccccc6)c6nc(c(-c7ccccc7)c7ccc4[nH]7)C=C6)C=C5)cc3)cc2)S/C1=[NH+]\c1ccc(Cl)cc1
REMARK SMILES IDX 19 1 18 2 17 3 15 4 16 5 14 7 11 8 12 9 76 10 13 11 75 12
REMARK SMILES IDX 10 13 8 14 9 15 7 17 6 18 3 19 4 20 78 21 5 22 77 23 79 24
REMARK SMILES IDX 2 26 1 27 80 28 81 29 86 30 82 31 85 32 83 33 84 34 20 35
REMARK SMILES IDX 21 36 22 37 23 38 24 39 25 40 26 42 27 43 28 44 74 45 29 46
REMARK SMILES IDX 73 47 30 48 31 49 32 50 67 51 33 52 72 53 66 54 68 55 34 56
REMARK SMILES IDX 71 57 65 58 64 59 35 61 57 62 42 63 56 64 43 65 46 66 55 67
REMARK SMILES IDX 69 68 44 69 45 70 54 72 70 73 47 74 36 75 37 76 41 77 38 78
REMARK SMILES IDX 40 79 39 80 58 81 59 82 63 83 60 84 62 85 61 86 48 87 49 88
REMARK SMILES IDX 53 89 50 90 52 91 51 92
REMARK H PARENT 17 6 10 16 79 25 24 41 68 60 46 71
REMARK Flexibility Score: inf
ROOT
ATOM      1  C   UNL     1      -0.171   3.394   0.560  1.00  0.00     0.021 C 
ENDROOT
BRANCH   1   2
ATOM      2  C   UNL     1       1.291   2.960   0.391  1.00  0.00     0.116 C 
BRANCH   2   3
ATOM      3  N   UNL     1       1.837   2.301   1.572  1.00  0.00    -0.352 N 
ATOM      4  C   UNL     1       2.437   1.075   1.756  1.00  0.00     0.251 C 
ATOM      5  O   UNL     1       2.763   0.746   2.896  1.00  0.00    -0.269 OA
ATOM      6  H   UNL     1       1.763   2.836   2.395  1.00  0.00     0.163 HD
BRANCH   4   7
ATOM      7  C   UNL     1       2.636   0.097   0.652  1.00  0.00     0.039 A 
ATOM      8  C   UNL     1       2.615  -1.817  -1.436  1.00  0.00     0.041 A 
ATOM      9  C   UNL     1       2.401  -2.200  -0.104  1.00  0.00     0.027 A 
ATOM     10  C   UNL     1       3.003  -0.501  -1.676  1.00  0.00     0.027 A 
ATOM     11  C   UNL     1       2.408  -1.256   0.929  1.00  0.00     0.016 A 
ATOM     12  C   UNL     1       3.023   0.450  -0.639  1.00  0.00     0.016 A 
BRANCH   8  13
ATOM     13  N   UNL     1       2.359  -2.807  -2.403  1.00  0.00    -0.326 N 
ATOM     14  C   UNL     1       2.218  -2.839  -3.756  1.00  0.00     0.226 C 
ATOM     15  O   UNL     1       1.903  -3.918  -4.271  1.00  0.00    -0.275 OA
ATOM     16  H   UNL     1       2.256  -3.699  -2.000  1.00  0.00     0.169 HD
BRANCH  14  17
ATOM     17  C   UNL     1       2.419  -1.642  -4.644  1.00  0.00     0.128 C 
BRANCH  17  18
ATOM     18  C   UNL     1       1.194  -0.755  -4.821  1.00  0.00     0.183 C 
ATOM     19  N   UNL     1       0.115   0.526  -3.089  1.00  0.00    -0.190 N 
ATOM     20  C   UNL     1       0.186  -0.714  -3.693  1.00  0.00     0.324 C 
ATOM     21  C   UNL     1       0.818   1.548  -3.682  1.00  0.00     0.319 C 
ATOM     22  O   UNL     1      -0.531  -1.671  -3.413  1.00  0.00    -0.245 OA
ATOM     23  S   UNL     1       1.694   0.972  -5.080  1.00  0.00    -0.022 SA
ATOM     24  N   UNL     1       0.783   2.766  -3.246  1.00  0.00    -0.235 N 
ATOM     25  H   UNL     1       0.346   2.964  -2.387  1.00  0.00     0.313 HD
BRANCH  19  26
ATOM     26  C   UNL     1      -0.905   0.773  -2.074  1.00  0.00     0.243 C 
ATOM     27  C   UNL     1      -0.798  -0.076  -0.816  1.00  0.00     0.054 C 
ENDBRANCH  19  26
BRANCH  24  28
ATOM     28  C   UNL     1       1.365   3.809  -3.987  1.00  0.00     0.125 A 
ATOM     29  C   UNL     1       2.539   4.439  -3.566  1.00  0.00     0.053 A 
ATOM     30  C   UNL     1       0.704   4.298  -5.123  1.00  0.00     0.053 A 
ATOM     31  C   UNL     1       3.062   5.520  -4.290  1.00  0.00     0.025 A 
ATOM     32  C   UNL     1       1.225   5.369  -5.852  1.00  0.00     0.025 A 
ATOM     33  C   UNL     1       2.404   5.976  -5.432  1.00  0.00     0.041 A 
ATOM     34  Cl  UNL     1       3.040   7.302  -6.324  1.00  0.00    -0.084 Cl
ENDBRANCH  24  28
ENDBRANCH  17  18
ENDBRANCH  14  17
ENDBRANCH   8  13
ENDBRANCH   4   7
ENDBRANCH   2   3
ENDBRANCH   1   2
BRANCH   1  35
ATOM     35  C   UNL     1      -0.401   4.791   1.143  1.00  0.00     0.002 C 
BRANCH  35  36
ATOM     36  C   UNL     1       0.121   5.961   0.296  1.00  0.00     0.002 C 
BRANCH  36  37
ATOM     37  C   UNL     1      -0.422   6.069  -1.135  1.00  0.00     0.021 C 
BRANCH  37  38
ATOM     38  C   UNL     1      -1.929   6.290  -1.267  1.00  0.00     0.116 C 
BRANCH  38  39
ATOM     39  N   UNL     1      -2.369   7.522  -0.629  1.00  0.00    -0.352 N 
ATOM     40  C   UNL     1      -2.939   8.654  -1.158  1.00  0.00     0.251 C 
ATOM     41  H   UNL     1      -2.235   7.549   0.345  1.00  0.00     0.163 HD
ATOM     42  O   UNL     1      -3.038   9.662  -0.463  1.00  0.00    -0.269 OA
BRANCH  40  43
ATOM     43  C   UNL     1      -3.434   8.686  -2.553  1.00  0.00     0.039 A 
ATOM     44  C   UNL     1      -3.218   9.838  -3.317  1.00  0.00     0.014 A 
ATOM     45  C   UNL     1      -4.166   7.626  -3.092  1.00  0.00     0.014 A 
ATOM     46  C   UNL     1      -3.684   9.904  -4.634  1.00  0.00     0.010 A 
ATOM     47  C   UNL     1      -4.575   7.666  -4.426  1.00  0.00     0.010 A 
ATOM     48  C   UNL     1      -4.340   8.805  -5.211  1.00  0.00    -0.014 A 
BRANCH  48  49
ATOM     49  C   UNL     1      -4.778   8.828  -6.632  1.00  0.00     0.031 A 
ATOM     50  C   UNL     1      -6.240   8.757  -6.984  1.00  0.00     0.074 A 
ATOM     51  C   UNL     1      -3.854   8.852  -7.612  1.00  0.00     0.049 A 
ATOM     52  N   UNL     1      -6.804   8.704  -8.165  1.00  0.00    -0.248 NA
ATOM     53  C   UNL     1      -7.191   8.718  -5.862  1.00  0.00     0.031 C 
ATOM     54  C   UNL     1      -2.404   8.892  -7.409  1.00  0.00     0.029 A 
ATOM     55  N   UNL     1      -3.997   8.839  -8.978  1.00  0.00    -0.354 N 
ATOM     56  C   UNL     1      -8.170   8.608  -7.928  1.00  0.00     0.074 A 
ATOM     57  C   UNL     1      -8.347   8.563  -6.492  1.00  0.00     0.031 C 
ATOM     58  C   UNL     1      -1.794   8.927  -8.605  1.00  0.00     0.029 A 
ATOM     59  C   UNL     1      -2.803   8.868  -9.657  1.00  0.00     0.049 A 
ATOM     60  H   UNL     1      -4.872   8.812  -9.427  1.00  0.00     0.167 HD
ATOM     61  C   UNL     1      -9.188   8.576  -8.822  1.00  0.00     0.031 A 
ATOM     62  C   UNL     1      -2.547   8.841 -10.979  1.00  0.00     0.031 A 
ATOM     63  C   UNL     1      -9.015   8.627 -10.250  1.00  0.00     0.049 A 
ATOM     64  C   UNL     1      -3.693   8.783 -11.951  1.00  0.00     0.074 A 
ATOM     65  C   UNL     1      -9.987   8.652 -11.236  1.00  0.00     0.029 A 
ATOM     66  N   UNL     1      -7.790   8.655 -10.897  1.00  0.00    -0.354 N 
ATOM     67  N   UNL     1      -4.981   8.756 -11.709  1.00  0.00    -0.248 NA
ATOM     68  C   UNL     1      -3.348   8.762 -13.379  1.00  0.00     0.031 C 
ATOM     69  C   UNL     1      -9.349   8.640 -12.480  1.00  0.00     0.029 A 
ATOM     70  C   UNL     1      -7.980   8.670 -12.269  1.00  0.00     0.049 A 
ATOM     71  H   UNL     1      -6.914   8.664 -10.447  1.00  0.00     0.167 HD
ATOM     72  C   UNL     1      -5.600   8.745 -12.953  1.00  0.00     0.074 A 
ATOM     73  C   UNL     1      -4.546   8.785 -13.946  1.00  0.00     0.031 C 
ATOM     74  C   UNL     1      -6.923   8.707 -13.246  1.00  0.00     0.031 A 
BRANCH  61  75
ATOM     75  C   UNL     1     -10.587   8.469  -8.278  1.00  0.00    -0.014 A 
ATOM     76  C   UNL     1     -11.185   9.535  -7.586  1.00  0.00     0.009 A 
ATOM     77  C   UNL     1     -11.334   7.299  -8.493  1.00  0.00     0.009 A 
ATOM     78  C   UNL     1     -12.484   9.417  -7.088  1.00  0.00     0.001 A 
ATOM     79  C   UNL     1     -12.643   7.195  -8.021  1.00  0.00     0.001 A 
ATOM     80  C   UNL     1     -13.214   8.250  -7.309  1.00  0.00     0.000 A 
ENDBRANCH  61  75
BRANCH  62  81
ATOM     81  C   UNL     1      -1.143   8.881 -11.466  1.00  0.00    -0.014 A 
ATOM     82  C   UNL     1      -0.651  10.016 -12.129  1.00  0.00     0.009 A 
ATOM     83  C   UNL     1      -0.288   7.783 -11.277  1.00  0.00     0.009 A 
ATOM     84  C   UNL     1       0.658  10.039 -12.617  1.00  0.00     0.001 A 
ATOM     85  C   UNL     1       1.029   7.822 -11.737  1.00  0.00     0.001 A 
ATOM     86  C   UNL     1       1.498   8.945 -12.416  1.00  0.00     0.000 A 
ENDBRANCH  62  81
BRANCH  74  87
ATOM     87  C   UNL     1      -7.307   8.743 -14.699  1.00  0.00    -0.014 A 
ATOM     88  C   UNL     1      -7.093   7.640 -15.540  1.00  0.00     0.009 A 
ATOM     89  C   UNL     1      -7.929   9.887 -15.223  1.00  0.00     0.009 A 
ATOM     90  C   UNL     1      -7.464   7.696 -16.886  1.00  0.00     0.001 A 
ATOM     91  C   UNL     1      -8.327   9.929 -16.560  1.00  0.00     0.001 A 
ATOM     92  C   UNL     1      -8.085   8.838 -17.393  1.00  0.00     0.000 A 
ENDBRANCH  74  87
ENDBRANCH  48  49
ENDBRANCH  40  43
ENDBRANCH  38  39
ENDBRANCH  37  38
ENDBRANCH  36  37
ENDBRANCH  35  36
ENDBRANCH   1  35
TORSDOF 18
