REMARK SMILES NC(=O)[C@@H]1CCC[N@@H+]1[C@@H](C(=O)NCCCCCCNC(=O)c1ccc(-c2c3nc(c(-c4ccccc4)c4ccc([nH]4)c(-c4ccccc4)c4nc(c(-c5ccccc5)c5ccc2[nH]5)C=C4)C=C3)cc1)c1c[nH]c2cc(OCc3ccccc3)ccc12
REMARK SMILES IDX 14 1 13 2 12 3 10 4 11 5 9 7 8 8 4 9 5 10 6 11 7 12 2 14
REMARK SMILES IDX 1 15 3 18 70 19 71 20 86 21 72 22 73 23 85 24 74 26 84 27
REMARK SMILES IDX 75 28 76 29 77 30 78 31 79 32 83 33 80 34 82 35 81 36 15 37
REMARK SMILES IDX 16 38 17 39 18 40 19 41 20 42 21 44 22 45 23 46 69 47 24 48
REMARK SMILES IDX 68 49 25 50 26 51 27 52 62 53 28 54 67 55 61 56 63 57 29 58
REMARK SMILES IDX 66 59 60 60 59 61 30 63 52 64 37 65 51 66 38 67 41 68 50 69
REMARK SMILES IDX 64 70 39 71 40 72 49 74 65 75 42 76 31 77 32 78 36 79 33 80
REMARK SMILES IDX 35 81 34 82 53 83 54 84 58 85 55 86 57 87 56 88 43 89 44 90
REMARK SMILES IDX 48 91 45 92 47 93 46 94
REMARK H PARENT 12 6 8 13 1 16 1 17 72 25 19 43 63 62 41 73
REMARK Flexibility Score: inf
ROOT
ATOM      1  C   UNL     1       0.404  -2.633  -0.327  1.00  0.00     0.021 C 
ENDROOT
BRANCH   1   2
ATOM      2  C   UNL     1       1.703  -1.955   0.145  1.00  0.00     0.116 C 
BRANCH   2   3
ATOM      3  N   UNL     1       2.878  -2.386  -0.590  1.00  0.00    -0.351 N 
ATOM      4  C   UNL     1       3.769  -1.843  -1.471  1.00  0.00     0.283 C 
ATOM      5  O   UNL     1       4.617  -2.678  -1.812  1.00  0.00    -0.268 OA
ATOM      6  H   UNL     1       3.092  -3.328  -0.401  1.00  0.00     0.163 HD
BRANCH   4   7
ATOM      7  C   UNL     1       3.812  -0.339  -1.934  1.00  0.00     0.308 C 
BRANCH   7   8
ATOM      8  N   UNL     1       2.808   0.142  -2.998  1.00  0.00    -0.311 N 
ATOM      9  C   UNL     1       1.374  -0.243  -2.924  1.00  0.00     0.275 C 
ATOM     10  C   UNL     1       1.307  -1.663  -3.486  1.00  0.00     0.081 C 
ATOM     11  C   UNL     1       2.430  -1.690  -4.511  1.00  0.00     0.068 C 
ATOM     12  C   UNL     1       3.036  -0.311  -4.388  1.00  0.00     0.264 C 
ATOM     13  H   UNL     1       2.985   1.122  -2.776  1.00  0.00     0.349 HD
BRANCH   9  14
ATOM     14  C   UNL     1       0.530   0.252  -1.750  1.00  0.00     0.275 C 
ATOM     15  N   UNL     1       1.054   1.319  -1.062  1.00  0.00    -0.365 N 
ATOM     16  H   UNL     1       0.568   1.695  -0.293  1.00  0.00     0.159 HD
ATOM     17  H   UNL     1       1.914   1.709  -1.339  1.00  0.00     0.159 HD
ATOM     18  O   UNL     1      -0.576  -0.149  -1.499  1.00  0.00    -0.268 OA
ENDBRANCH   9  14
ENDBRANCH   7   8
BRANCH   7  19
ATOM     19  C   UNL     1       5.275   0.122  -2.409  1.00  0.00     0.044 A 
ATOM     20  C   UNL     1       5.648   1.411  -2.788  1.00  0.00     0.094 A 
ATOM     21  C   UNL     1       6.245  -0.629  -3.176  1.00  0.00     0.009 A 
ATOM     22  N   UNL     1       5.850   1.313  -4.145  1.00  0.00    -0.361 N 
ATOM     23  C   UNL     1       6.231   0.018  -4.410  1.00  0.00     0.050 A 
ATOM     24  C   UNL     1       6.938  -1.855  -3.105  1.00  0.00     0.015 A 
ATOM     25  H   UNL     1       5.742   2.035  -4.804  1.00  0.00     0.166 HD
ATOM     26  C   UNL     1       6.412  -0.682  -5.599  1.00  0.00     0.073 A 
ATOM     27  C   UNL     1       7.325  -2.502  -4.292  1.00  0.00     0.047 A 
ATOM     28  C   UNL     1       6.930  -1.977  -5.516  1.00  0.00     0.121 A 
BRANCH  28  29
ATOM     29  O   UNL     1       6.846  -2.707  -6.672  1.00  0.00    -0.489 OA
BRANCH  29  30
ATOM     30  C   UNL     1       8.041  -3.341  -7.128  1.00  0.00     0.265 C 
BRANCH  30  31
ATOM     31  C   UNL     1       8.941  -2.417  -7.925  1.00  0.00    -0.011 A 
ATOM     32  C   UNL     1      10.173  -2.891  -8.390  1.00  0.00     0.007 A 
ATOM     33  C   UNL     1       8.585  -1.095  -8.227  1.00  0.00     0.007 A 
ATOM     34  C   UNL     1      11.043  -2.042  -9.080  1.00  0.00     0.000 A 
ATOM     35  C   UNL     1       9.463  -0.237  -8.883  1.00  0.00     0.000 A 
ATOM     36  C   UNL     1      10.697  -0.710  -9.305  1.00  0.00     0.000 A 
ENDBRANCH  30  31
ENDBRANCH  29  30
ENDBRANCH  28  29
ENDBRANCH   7  19
ENDBRANCH   4   7
ENDBRANCH   2   3
ENDBRANCH   1   2
BRANCH   1  37
ATOM     37  C   UNL     1       0.370  -4.158  -0.185  1.00  0.00     0.002 C 
BRANCH  37  38
ATOM     38  C   UNL     1      -0.671  -4.622   0.833  1.00  0.00     0.002 C 
BRANCH  38  39
ATOM     39  C   UNL     1      -2.126  -4.278   0.487  1.00  0.00     0.021 C 
BRANCH  39  40
ATOM     40  C   UNL     1      -2.610  -4.817  -0.856  1.00  0.00     0.116 C 
BRANCH  40  41
ATOM     41  N   UNL     1      -2.621  -6.273  -0.861  1.00  0.00    -0.352 N 
ATOM     42  C   UNL     1      -3.704  -7.112  -0.836  1.00  0.00     0.251 C 
ATOM     43  H   UNL     1      -1.739  -6.710  -0.886  1.00  0.00     0.163 HD
ATOM     44  O   UNL     1      -3.580  -8.293  -0.513  1.00  0.00    -0.269 OA
BRANCH  42  45
ATOM     45  C   UNL     1      -5.029  -6.586  -1.212  1.00  0.00     0.039 A 
ATOM     46  C   UNL     1      -6.135  -6.857  -0.403  1.00  0.00     0.014 A 
ATOM     47  C   UNL     1      -5.170  -5.826  -2.377  1.00  0.00     0.014 A 
ATOM     48  C   UNL     1      -7.380  -6.324  -0.742  1.00  0.00     0.010 A 
ATOM     49  C   UNL     1      -6.396  -5.242  -2.676  1.00  0.00     0.010 A 
ATOM     50  C   UNL     1      -7.515  -5.494  -1.869  1.00  0.00    -0.014 A 
BRANCH  50  51
ATOM     51  C   UNL     1      -8.821  -4.888  -2.224  1.00  0.00     0.031 A 
ATOM     52  C   UNL     1      -9.508  -5.275  -3.505  1.00  0.00     0.074 A 
ATOM     53  C   UNL     1      -9.360  -3.948  -1.424  1.00  0.00     0.049 A 
ATOM     54  N   UNL     1     -10.630  -4.827  -4.008  1.00  0.00    -0.248 NA
ATOM     55  C   UNL     1      -8.833  -6.279  -4.344  1.00  0.00     0.031 C 
ATOM     56  C   UNL     1      -8.771  -3.459  -0.175  1.00  0.00     0.029 A 
ATOM     57  N   UNL     1     -10.524  -3.233  -1.546  1.00  0.00    -0.354 N 
ATOM     58  C   UNL     1     -10.786  -5.481  -5.224  1.00  0.00     0.074 A 
ATOM     59  C   UNL     1      -9.621  -6.317  -5.408  1.00  0.00     0.031 C 
ATOM     60  C   UNL     1      -9.593  -2.547   0.369  1.00  0.00     0.029 A 
ATOM     61  C   UNL     1     -10.741  -2.356  -0.511  1.00  0.00     0.049 A 
ATOM     62  H   UNL     1     -11.144  -3.337  -2.303  1.00  0.00     0.167 HD
ATOM     63  C   UNL     1     -11.816  -5.406  -6.100  1.00  0.00     0.031 A 
ATOM     64  C   UNL     1     -11.751  -1.491  -0.297  1.00  0.00     0.031 A 
ATOM     65  C   UNL     1     -12.977  -4.578  -5.912  1.00  0.00     0.049 A 
ATOM     66  C   UNL     1     -12.871  -1.412  -1.297  1.00  0.00     0.074 A 
ATOM     67  C   UNL     1     -14.102  -4.477  -6.711  1.00  0.00     0.029 A 
ATOM     68  N   UNL     1     -13.158  -3.703  -4.852  1.00  0.00    -0.354 N 
ATOM     69  N   UNL     1     -13.042  -2.094  -2.403  1.00  0.00    -0.248 NA
ATOM     70  C   UNL     1     -13.945  -0.450  -1.010  1.00  0.00     0.031 C 
ATOM     71  C   UNL     1     -14.938  -3.498  -6.165  1.00  0.00     0.029 A 
ATOM     72  C   UNL     1     -14.363  -3.036  -4.992  1.00  0.00     0.049 A 
ATOM     73  H   UNL     1     -12.524  -3.576  -4.109  1.00  0.00     0.167 HD
ATOM     74  C   UNL     1     -14.254  -1.665  -2.929  1.00  0.00     0.074 A 
ATOM     75  C   UNL     1     -14.783  -0.678  -2.011  1.00  0.00     0.031 C 
ATOM     76  C   UNL     1     -14.874  -2.055  -4.070  1.00  0.00     0.031 A 
BRANCH  63  77
ATOM     77  C   UNL     1     -11.725  -6.236  -7.351  1.00  0.00    -0.014 A 
ATOM     78  C   UNL     1     -11.819  -7.636  -7.307  1.00  0.00     0.009 A 
ATOM     79  C   UNL     1     -11.581  -5.606  -8.598  1.00  0.00     0.009 A 
ATOM     80  C   UNL     1     -11.733  -8.390  -8.479  1.00  0.00     0.001 A 
ATOM     81  C   UNL     1     -11.526  -6.360  -9.771  1.00  0.00     0.001 A 
ATOM     82  C   UNL     1     -11.592  -7.751  -9.711  1.00  0.00     0.000 A 
ENDBRANCH  63  77
BRANCH  64  83
ATOM     83  C   UNL     1     -11.759  -0.639   0.921  1.00  0.00    -0.014 A 
ATOM     84  C   UNL     1     -12.701  -0.861   1.938  1.00  0.00     0.009 A 
ATOM     85  C   UNL     1     -10.834   0.405   1.071  1.00  0.00     0.009 A 
ATOM     86  C   UNL     1     -12.735  -0.036   3.065  1.00  0.00     0.001 A 
ATOM     87  C   UNL     1     -10.850   1.209   2.213  1.00  0.00     0.001 A 
ATOM     88  C   UNL     1     -11.807   0.994   3.204  1.00  0.00     0.000 A 
ENDBRANCH  64  83
BRANCH  76  89
ATOM     89  C   UNL     1     -16.211  -1.437  -4.371  1.00  0.00    -0.014 A 
ATOM     90  C   UNL     1     -16.324  -0.096  -4.769  1.00  0.00     0.009 A 
ATOM     91  C   UNL     1     -17.371  -2.224  -4.293  1.00  0.00     0.009 A 
ATOM     92  C   UNL     1     -17.576   0.453  -5.049  1.00  0.00     0.001 A 
ATOM     93  C   UNL     1     -18.618  -1.681  -4.605  1.00  0.00     0.001 A 
ATOM     94  C   UNL     1     -18.721  -0.341  -4.973  1.00  0.00     0.000 A 
ENDBRANCH  76  89
ENDBRANCH  50  51
ENDBRANCH  42  45
ENDBRANCH  40  41
ENDBRANCH  39  40
ENDBRANCH  38  39
ENDBRANCH  37  38
ENDBRANCH   1  37
TORSDOF 19
