REMARK SMILES C#CC[N@@H+](CC(=O)NCCCCCCNC(=O)c1ccc(-c2c3nc(c(-c4ccccc4)c4ccc([nH]4)c(-c4ccccc4)c4nc(c(-c5ccccc5)c5ccc2[nH]5)C=C4)C=C3)cc1)CC(=O)NC(=O)NC
REMARK SMILES IDX 11 1 10 2 9 3 8 4 6 5 7 6 5 8 4 9 3 11 2 12 1 13 66 14 67 15
REMARK SMILES IDX 68 16 69 17 70 18 71 20 72 21 73 22 12 24 13 25 14 26 15 27
REMARK SMILES IDX 16 28 17 30 18 31 19 32 65 33 20 34 64 35 21 36 22 37 23 38
REMARK SMILES IDX 58 39 24 40 63 41 57 42 59 43 25 44 62 45 56 46 55 47 26 49
REMARK SMILES IDX 48 50 33 51 47 52 34 53 37 54 46 55 60 56 35 57 36 58 45 60
REMARK SMILES IDX 61 61 38 62 27 63 28 64 32 65 29 66 31 67 30 68 49 69 50 70
REMARK SMILES IDX 54 71 51 72 53 73 52 74 39 75 40 76 44 77 41 78 43 79 42 80
REMARK H PARENT 8 7 4 10 69 19 72 23 15 29 59 48 37 59
REMARK Flexibility Score: inf
ROOT
ATOM      1  C   UNL     1      -2.957   0.193   4.613  1.00  0.00     0.002 C 
ENDROOT
BRANCH   1   2
ATOM      2  C   UNL     1      -2.625  -0.090   3.152  1.00  0.00     0.021 C 
BRANCH   2   3
ATOM      3  C   UNL     1      -3.786  -0.613   2.289  1.00  0.00     0.116 C 
BRANCH   3   4
ATOM      4  N   UNL     1      -4.572   0.476   1.749  1.00  0.00    -0.351 N 
ATOM      5  C   UNL     1      -4.705   1.019   0.510  1.00  0.00     0.275 C 
ATOM      6  O   UNL     1      -5.536   1.931   0.423  1.00  0.00    -0.269 OA
ATOM      7  H   UNL     1      -5.132   0.921   2.427  1.00  0.00     0.163 HD
BRANCH   5   8
ATOM      8  C   UNL     1      -3.981   0.530  -0.764  1.00  0.00     0.364 C 
BRANCH   8   9
ATOM      9  N   UNL     1      -2.538   0.862  -0.954  1.00  0.00    -0.309 N 
ATOM     10  H   UNL     1      -2.336   0.617  -1.923  1.00  0.00     0.349 HD
BRANCH   9  11
ATOM     11  C   UNL     1      -1.761   0.065  -0.043  1.00  0.00     0.354 C 
BRANCH  11  12
ATOM     12  C   UNL     1      -0.241   0.065  -0.043  1.00  0.00    -0.047 C 
ATOM     13  C   UNL     1       1.063   0.065  -0.043  1.00  0.00     0.010 C 
ENDBRANCH  11  12
ENDBRANCH   9  11
BRANCH   9  14
ATOM     14  C   UNL     1      -2.136   2.277  -0.995  1.00  0.00     0.365 C 
BRANCH  14  15
ATOM     15  C   UNL     1      -2.938   3.277  -0.194  1.00  0.00     0.283 C 
ATOM     16  O   UNL     1      -2.774   3.368   1.029  1.00  0.00    -0.268 OA
ATOM     17  N   UNL     1      -3.821   4.141  -0.816  1.00  0.00    -0.273 N 
ATOM     18  C   UNL     1      -4.866   3.966  -1.673  1.00  0.00     0.321 C 
ATOM     19  H   UNL     1      -3.660   5.086  -0.592  1.00  0.00     0.175 HD
ATOM     20  O   UNL     1      -5.961   4.452  -1.378  1.00  0.00    -0.248 OA
ATOM     21  N   UNL     1      -4.778   3.308  -2.838  1.00  0.00    -0.341 N 
ATOM     22  C   UNL     1      -3.671   3.025  -3.713  1.00  0.00     0.144 C 
ATOM     23  H   UNL     1      -5.638   2.948  -3.157  1.00  0.00     0.165 HD
ENDBRANCH  14  15
ENDBRANCH   9  14
ENDBRANCH   8   9
ENDBRANCH   5   8
ENDBRANCH   3   4
ENDBRANCH   2   3
ENDBRANCH   1   2
BRANCH   1  24
ATOM     24  C   UNL     1      -3.417  -1.018   5.418  1.00  0.00     0.002 C 
BRANCH  24  25
ATOM     25  C   UNL     1      -2.523  -2.254   5.297  1.00  0.00     0.021 C 
BRANCH  25  26
ATOM     26  C   UNL     1      -1.046  -2.009   5.593  1.00  0.00     0.116 C 
BRANCH  26  27
ATOM     27  N   UNL     1      -0.846  -1.487   6.934  1.00  0.00    -0.352 N 
ATOM     28  C   UNL     1      -0.230  -2.083   8.004  1.00  0.00     0.251 C 
ATOM     29  H   UNL     1      -1.202  -0.584   7.097  1.00  0.00     0.163 HD
ATOM     30  O   UNL     1      -0.358  -1.633   9.136  1.00  0.00    -0.269 OA
BRANCH  28  31
ATOM     31  C   UNL     1       0.593  -3.284   7.773  1.00  0.00     0.039 A 
ATOM     32  C   UNL     1       0.394  -4.410   8.573  1.00  0.00     0.014 A 
ATOM     33  C   UNL     1       1.559  -3.288   6.761  1.00  0.00     0.014 A 
ATOM     34  C   UNL     1       1.140  -5.562   8.330  1.00  0.00     0.010 A 
ATOM     35  C   UNL     1       2.252  -4.458   6.477  1.00  0.00     0.010 A 
ATOM     36  C   UNL     1       2.058  -5.601   7.268  1.00  0.00    -0.014 A 
BRANCH  36  37
ATOM     37  C   UNL     1       2.842  -6.825   6.981  1.00  0.00     0.031 A 
ATOM     38  C   UNL     1       4.334  -6.820   7.158  1.00  0.00     0.074 A 
ATOM     39  C   UNL     1       2.215  -7.921   6.513  1.00  0.00     0.049 A 
ATOM     40  N   UNL     1       5.195  -7.779   6.929  1.00  0.00    -0.248 NA
ATOM     41  C   UNL     1       4.943  -5.565   7.629  1.00  0.00     0.031 C 
ATOM     42  C   UNL     1       0.777  -8.033   6.259  1.00  0.00     0.029 A 
ATOM     43  N   UNL     1       2.711  -9.151   6.163  1.00  0.00    -0.354 N 
ATOM     44  C   UNL     1       6.443  -7.238   7.211  1.00  0.00     0.074 A 
ATOM     45  C   UNL     1       6.234  -5.855   7.579  1.00  0.00     0.031 C 
ATOM     46  C   UNL     1       0.504  -9.272   5.821  1.00  0.00     0.029 A 
ATOM     47  C   UNL     1       1.748 -10.029   5.729  1.00  0.00     0.049 A 
ATOM     48  H   UNL     1       3.667  -9.382   6.218  1.00  0.00     0.167 HD
ATOM     49  C   UNL     1       7.653  -7.844   7.186  1.00  0.00     0.031 A 
ATOM     50  C   UNL     1       1.858 -11.301   5.304  1.00  0.00     0.031 A 
ATOM     51  C   UNL     1       7.856  -9.223   6.832  1.00  0.00     0.049 A 
ATOM     52  C   UNL     1       3.213 -11.951   5.282  1.00  0.00     0.074 A 
ATOM     53  C   UNL     1       9.033  -9.950   6.836  1.00  0.00     0.029 A 
ATOM     54  N   UNL     1       6.854 -10.082   6.406  1.00  0.00    -0.354 N 
ATOM     55  N   UNL     1       4.375 -11.449   5.625  1.00  0.00    -0.248 NA
ATOM     56  C   UNL     1       3.268 -13.347   4.827  1.00  0.00     0.031 C 
ATOM     57  C   UNL     1       8.751 -11.237   6.363  1.00  0.00     0.029 A 
ATOM     58  C   UNL     1       7.390 -11.325   6.119  1.00  0.00     0.049 A 
ATOM     59  H   UNL     1       5.903  -9.842   6.321  1.00  0.00     0.167 HD
ATOM     60  C   UNL     1       5.295 -12.473   5.450  1.00  0.00     0.074 A 
ATOM     61  C   UNL     1       4.553 -13.629   4.988  1.00  0.00     0.031 C 
ATOM     62  C   UNL     1       6.635 -12.460   5.654  1.00  0.00     0.031 A 
BRANCH  49  63
ATOM     63  C   UNL     1       8.852  -7.011   7.546  1.00  0.00    -0.014 A 
ATOM     64  C   UNL     1       9.065  -6.572   8.863  1.00  0.00     0.009 A 
ATOM     65  C   UNL     1       9.795  -6.683   6.561  1.00  0.00     0.009 A 
ATOM     66  C   UNL     1      10.178  -5.789   9.176  1.00  0.00     0.001 A 
ATOM     67  C   UNL     1      10.923  -5.925   6.883  1.00  0.00     0.001 A 
ATOM     68  C   UNL     1      11.108  -5.470   8.187  1.00  0.00     0.000 A 
ENDBRANCH  49  63
BRANCH  50  69
ATOM     69  C   UNL     1       0.646 -12.050   4.882  1.00  0.00    -0.014 A 
ATOM     70  C   UNL     1       0.142 -13.092   5.673  1.00  0.00     0.009 A 
ATOM     71  C   UNL     1      -0.014 -11.724   3.687  1.00  0.00     0.009 A 
ATOM     72  C   UNL     1      -0.985 -13.810   5.264  1.00  0.00     0.001 A 
ATOM     73  C   UNL     1      -1.157 -12.425   3.295  1.00  0.00     0.001 A 
ATOM     74  C   UNL     1      -1.635 -13.473   4.079  1.00  0.00     0.000 A 
ENDBRANCH  50  69
BRANCH  62  75
ATOM     75  C   UNL     1       7.379 -13.741   5.403  1.00  0.00    -0.014 A 
ATOM     76  C   UNL     1       7.599 -14.211   4.099  1.00  0.00     0.009 A 
ATOM     77  C   UNL     1       7.900 -14.465   6.486  1.00  0.00     0.009 A 
ATOM     78  C   UNL     1       8.299 -15.400   3.888  1.00  0.00     0.001 A 
ATOM     79  C   UNL     1       8.624 -15.638   6.270  1.00  0.00     0.001 A 
ATOM     80  C   UNL     1       8.815 -16.109   4.972  1.00  0.00     0.000 A 
ENDBRANCH  62  75
ENDBRANCH  36  37
ENDBRANCH  28  31
ENDBRANCH  26  27
ENDBRANCH  25  26
ENDBRANCH  24  25
ENDBRANCH   1  24
TORSDOF 18
