REMARK SMILES CSCC[C@@H](NC1=[NH+]S(=O)(=O)c2ccccc21)C(=O)NCCCCCCNC(=O)c1ccc(-c2c3nc(c(-c4ccccc4)c4ccc([nH]4)c(-c4ccccc4)c4nc(c(-c5ccccc5)c5ccc2[nH]5)C=C4)C=C3)cc1
REMARK SMILES IDX 23 1 22 2 21 3 20 4 18 5 19 6 5 8 4 9 3 10 2 11 1 12 6 13
REMARK SMILES IDX 7 14 8 16 17 17 9 18 12 20 16 21 10 22 11 23 13 24 15 25
REMARK SMILES IDX 14 26 24 27 25 28 26 29 27 30 28 31 29 33 30 34 31 35 77 36
REMARK SMILES IDX 32 37 76 38 33 39 34 40 35 41 70 42 36 43 75 44 69 45 71 46
REMARK SMILES IDX 37 47 74 48 68 49 67 50 38 52 60 53 45 54 59 55 46 56 49 57
REMARK SMILES IDX 58 58 72 59 47 60 48 61 57 63 73 64 50 65 39 66 40 67 44 68
REMARK SMILES IDX 41 69 43 70 42 71 61 72 62 73 66 74 63 75 65 76 64 77 51 78
REMARK SMILES IDX 52 79 56 80 53 81 55 82 54 83
REMARK H PARENT 20 7 6 15 8 19 27 32 71 51 49 62
REMARK Flexibility Score: inf
ROOT
ATOM      1  C   UNL     1       0.313   6.214   5.224  1.00  0.00     0.002 C 
ENDROOT
BRANCH   1   2
ATOM      2  C   UNL     1       0.612   5.834   3.771  1.00  0.00     0.021 C 
BRANCH   2   3
ATOM      3  C   UNL     1       1.352   4.513   3.606  1.00  0.00     0.116 C 
BRANCH   3   4
ATOM      4  N   UNL     1       0.520   3.376   3.944  1.00  0.00    -0.352 N 
ATOM      5  C   UNL     1       0.407   2.152   3.343  1.00  0.00     0.264 C 
ATOM      6  O   UNL     1      -0.379   1.342   3.844  1.00  0.00    -0.270 OA
ATOM      7  H   UNL     1      -0.056   3.505   4.732  1.00  0.00     0.163 HD
BRANCH   5   8
ATOM      8  C   UNL     1       1.143   1.823   2.019  1.00  0.00     0.262 C 
BRANCH   8   9
ATOM      9  C   UNL     1       0.403   2.553   0.883  1.00  0.00     0.071 C 
BRANCH   9  10
ATOM     10  C   UNL     1       0.872   2.261  -0.541  1.00  0.00     0.074 C 
BRANCH  10  11
ATOM     11  S   UNL     1       0.093   0.819  -1.328  1.00  0.00    -0.165 SA
ATOM     12  C   UNL     1       1.011  -0.526  -0.544  1.00  0.00     0.085 C 
ENDBRANCH  10  11
ENDBRANCH   9  10
ENDBRANCH   8   9
BRANCH   8  13
ATOM     13  N   UNL     1       2.575   2.167   2.046  1.00  0.00    -0.261 N 
ATOM     14  C   UNL     1       3.370   2.082   3.163  1.00  0.00     0.292 C 
ATOM     15  H   UNL     1       2.990   2.477   1.209  1.00  0.00     0.306 HD
ATOM     16  N   UNL     1       3.079   1.395   4.226  1.00  0.00    -0.162 N 
ATOM     17  C   UNL     1       4.598   2.906   3.259  1.00  0.00     0.087 A 
ATOM     18  S   UNL     1       4.146   1.688   5.437  1.00  0.00     0.329 S 
ATOM     19  H   UNL     1       2.316   0.777   4.296  1.00  0.00     0.327 HD
ATOM     20  C   UNL     1       5.116   2.816   4.535  1.00  0.00     0.124 A 
ATOM     21  C   UNL     1       5.146   3.782   2.338  1.00  0.00     0.018 A 
ATOM     22  O   UNL     1       4.971   0.530   5.690  1.00  0.00    -0.179 OA
ATOM     23  O   UNL     1       3.508   2.451   6.491  1.00  0.00    -0.179 OA
ATOM     24  C   UNL     1       6.162   3.598   4.984  1.00  0.00     0.025 A 
ATOM     25  C   UNL     1       6.223   4.574   2.752  1.00  0.00     0.001 A 
ATOM     26  C   UNL     1       6.721   4.490   4.067  1.00  0.00     0.002 A 
ENDBRANCH   8  13
ENDBRANCH   5   8
ENDBRANCH   3   4
ENDBRANCH   2   3
ENDBRANCH   1   2
BRANCH   1  27
ATOM     27  C   UNL     1       1.532   6.303   6.149  1.00  0.00     0.002 C 
BRANCH  27  28
ATOM     28  C   UNL     1       2.673   7.197   5.658  1.00  0.00     0.021 C 
BRANCH  28  29
ATOM     29  C   UNL     1       2.275   8.632   5.332  1.00  0.00     0.116 C 
BRANCH  29  30
ATOM     30  N   UNL     1       1.783   9.357   6.491  1.00  0.00    -0.352 N 
ATOM     31  C   UNL     1       2.049  10.651   6.866  1.00  0.00     0.251 C 
ATOM     32  H   UNL     1       1.180   8.855   7.085  1.00  0.00     0.163 HD
ATOM     33  O   UNL     1       1.656  11.087   7.942  1.00  0.00    -0.269 OA
BRANCH  31  34
ATOM     34  C   UNL     1       2.843  11.513   5.967  1.00  0.00     0.039 A 
ATOM     35  C   UNL     1       3.946  12.197   6.486  1.00  0.00     0.014 A 
ATOM     36  C   UNL     1       2.504  11.633   4.617  1.00  0.00     0.014 A 
ATOM     37  C   UNL     1       4.749  12.959   5.634  1.00  0.00     0.010 A 
ATOM     38  C   UNL     1       3.334  12.349   3.761  1.00  0.00     0.010 A 
ATOM     39  C   UNL     1       4.463  13.018   4.262  1.00  0.00    -0.014 A 
BRANCH  39  40
ATOM     40  C   UNL     1       5.312  13.790   3.322  1.00  0.00     0.031 A 
ATOM     41  C   UNL     1       4.745  14.999   2.633  1.00  0.00     0.074 A 
ATOM     42  C   UNL     1       6.550  13.357   3.022  1.00  0.00     0.049 A 
ATOM     43  N   UNL     1       5.261  15.717   1.669  1.00  0.00    -0.248 NA
ATOM     44  C   UNL     1       3.409  15.438   3.067  1.00  0.00     0.031 C 
ATOM     45  C   UNL     1       7.209  12.188   3.608  1.00  0.00     0.029 A 
ATOM     46  N   UNL     1       7.470  13.844   2.128  1.00  0.00    -0.354 N 
ATOM     47  C   UNL     1       4.301  16.672   1.359  1.00  0.00     0.074 A 
ATOM     48  C   UNL     1       3.162  16.423   2.215  1.00  0.00     0.031 C 
ATOM     49  C   UNL     1       8.431  12.055   3.066  1.00  0.00     0.029 A 
ATOM     50  C   UNL     1       8.624  13.102   2.067  1.00  0.00     0.049 A 
ATOM     51  H   UNL     1       7.318  14.649   1.582  1.00  0.00     0.167 HD
ATOM     52  C   UNL     1       4.366  17.673   0.450  1.00  0.00     0.031 A 
ATOM     53  C   UNL     1       9.710  13.240   1.282  1.00  0.00     0.031 A 
ATOM     54  C   UNL     1       5.508  17.938  -0.382  1.00  0.00     0.049 A 
ATOM     55  C   UNL     1       9.759  14.359   0.281  1.00  0.00     0.074 A 
ATOM     56  C   UNL     1       5.689  18.959  -1.298  1.00  0.00     0.029 A 
ATOM     57  N   UNL     1       6.667  17.179  -0.391  1.00  0.00    -0.354 N 
ATOM     58  N   UNL     1       8.856  15.273   0.021  1.00  0.00    -0.248 NA
ATOM     59  C   UNL     1      10.979  14.468  -0.532  1.00  0.00     0.031 C 
ATOM     60  C   UNL     1       6.949  18.799  -1.885  1.00  0.00     0.029 A 
ATOM     61  C   UNL     1       7.564  17.702  -1.305  1.00  0.00     0.049 A 
ATOM     62  H   UNL     1       6.828  16.386   0.170  1.00  0.00     0.167 HD
ATOM     63  C   UNL     1       9.410  16.083  -0.962  1.00  0.00     0.074 A 
ATOM     64  C   UNL     1      10.727  15.555  -1.250  1.00  0.00     0.031 C 
ATOM     65  C   UNL     1       8.875  17.169  -1.568  1.00  0.00     0.031 A 
BRANCH  52  66
ATOM     66  C   UNL     1       3.156  18.549   0.302  1.00  0.00    -0.014 A 
ATOM     67  C   UNL     1       2.813  19.487   1.289  1.00  0.00     0.009 A 
ATOM     68  C   UNL     1       2.361  18.451  -0.850  1.00  0.00     0.009 A 
ATOM     69  C   UNL     1       1.677  20.285   1.140  1.00  0.00     0.001 A 
ATOM     70  C   UNL     1       1.240  19.268  -1.008  1.00  0.00     0.001 A 
ATOM     71  C   UNL     1       0.894  20.177  -0.009  1.00  0.00     0.000 A 
ENDBRANCH  52  66
BRANCH  53  72
ATOM     72  C   UNL     1      10.848  12.296   1.417  1.00  0.00    -0.014 A 
ATOM     73  C   UNL     1      12.042  12.709   2.027  1.00  0.00     0.009 A 
ATOM     74  C   UNL     1      10.748  10.980   0.939  1.00  0.00     0.009 A 
ATOM     75  C   UNL     1      13.121  11.830   2.136  1.00  0.00     0.001 A 
ATOM     76  C   UNL     1      11.821  10.097   1.070  1.00  0.00     0.001 A 
ATOM     77  C   UNL     1      13.009  10.524   1.662  1.00  0.00     0.000 A 
ENDBRANCH  53  72
BRANCH  65  78
ATOM     78  C   UNL     1       9.728  17.889  -2.571  1.00  0.00    -0.014 A 
ATOM     79  C   UNL     1       9.910  17.382  -3.866  1.00  0.00     0.009 A 
ATOM     80  C   UNL     1      10.302  19.123  -2.231  1.00  0.00     0.009 A 
ATOM     81  C   UNL     1      10.669  18.092  -4.797  1.00  0.00     0.001 A 
ATOM     82  C   UNL     1      11.043  19.840  -3.171  1.00  0.00     0.001 A 
ATOM     83  C   UNL     1      11.230  19.322  -4.451  1.00  0.00     0.000 A 
ENDBRANCH  65  78
ENDBRANCH  39  40
ENDBRANCH  31  34
ENDBRANCH  29  30
ENDBRANCH  28  29
ENDBRANCH  27  28
ENDBRANCH   1  27
TORSDOF 17
