REMARK SMILES CC(=O)Nc1cc(NC(C)=O)cc(C(=O)Nc2ccc(Br)cc2C(=O)NCCCCCCNC(=O)c2ccc(-c3c4nc(c(-c5ccccc5)c5ccc([nH]5)c(-c5ccccc5)c5nc(c(-c6ccccc6)c6ccc3[nH]6)C=C5)C=C4)cc2)c1
REMARK SMILES IDX 29 1 28 2 27 3 26 4 24 5 25 6 23 8 17 9 18 10 19 11 22 12
REMARK SMILES IDX 20 13 21 14 16 15 14 16 15 17 13 19 5 20 6 21 84 22 7 23
REMARK SMILES IDX 12 24 4 25 1 26 2 27 3 28 8 30 9 31 10 33 11 34 30 35 31 36
REMARK SMILES IDX 32 37 33 38 34 39 35 41 36 42 37 43 83 44 38 45 82 46 39 47
REMARK SMILES IDX 40 48 41 49 76 50 42 51 81 52 75 53 77 54 43 55 80 56 74 57
REMARK SMILES IDX 73 58 44 60 66 61 51 62 65 63 52 64 55 65 64 66 78 67 53 68
REMARK SMILES IDX 54 69 63 71 79 72 56 73 45 74 46 75 50 76 47 77 49 78 48 79
REMARK SMILES IDX 67 80 68 81 72 82 69 83 71 84 70 85 57 86 58 87 62 88 59 89
REMARK SMILES IDX 61 90 60 91
REMARK H PARENT 26 7 16 18 4 29 8 32 33 40 77 59 55 70
REMARK Flexibility Score: inf
ROOT
ATOM      1  C   UNL     1       7.578  -4.598   1.970  1.00  0.00     0.002 C 
ENDROOT
BRANCH   1   2
ATOM      2  C   UNL     1       7.790  -3.127   1.589  1.00  0.00     0.021 C 
BRANCH   2   3
ATOM      3  C   UNL     1       6.554  -2.362   1.135  1.00  0.00     0.116 C 
BRANCH   3   4
ATOM      4  N   UNL     1       5.510  -2.287   2.130  1.00  0.00    -0.352 N 
ATOM      5  C   UNL     1       4.448  -1.425   2.224  1.00  0.00     0.253 C 
ATOM      6  O   UNL     1       3.702  -1.530   3.197  1.00  0.00    -0.269 OA
ATOM      7  H   UNL     1       5.569  -2.957   2.850  1.00  0.00     0.163 HD
BRANCH   5   8
ATOM      8  C   UNL     1       4.217  -0.320   1.250  1.00  0.00     0.064 A 
ATOM      9  C   UNL     1       4.335  -0.375  -0.155  1.00  0.00     0.054 A 
ATOM     10  C   UNL     1       4.278   0.830  -0.883  1.00  0.00     0.028 A 
ATOM     11  C   UNL     1       3.936   2.034  -0.264  1.00  0.00     0.018 A 
ATOM     12  C   UNL     1       3.840   0.897   1.857  1.00  0.00     0.031 A 
ATOM     13  C   UNL     1       3.676   2.053   1.099  1.00  0.00     0.018 A 
ATOM     14  Br  UNL     1       3.087   3.648   1.920  1.00  0.00    -0.051 Br
BRANCH   9  15
ATOM     15  N   UNL     1       4.412  -1.527  -0.974  1.00  0.00    -0.321 N 
ATOM     16  C   UNL     1       3.861  -2.789  -0.845  1.00  0.00     0.255 C 
ATOM     17  O   UNL     1       4.253  -3.695  -1.580  1.00  0.00    -0.269 OA
ATOM     18  H   UNL     1       4.959  -1.408  -1.784  1.00  0.00     0.170 HD
BRANCH  16  19
ATOM     19  C   UNL     1       2.766  -3.063   0.111  1.00  0.00     0.044 A 
ATOM     20  C   UNL     1       0.917  -2.252   1.430  1.00  0.00     0.044 A 
ATOM     21  C   UNL     1       0.917  -3.472   2.124  1.00  0.00     0.052 A 
ATOM     22  C   UNL     1       1.798  -2.091   0.372  1.00  0.00     0.040 A 
ATOM     23  C   UNL     1       1.776  -4.519   1.766  1.00  0.00     0.044 A 
ATOM     24  C   UNL     1       2.720  -4.298   0.762  1.00  0.00     0.040 A 
BRANCH  20  25
ATOM     25  N   UNL     1       0.104  -1.220   1.935  1.00  0.00    -0.326 N 
ATOM     26  C   UNL     1      -0.013   0.405   0.038  1.00  0.00     0.114 C 
ATOM     27  C   UNL     1      -0.224   0.021   1.476  1.00  0.00     0.221 C 
ATOM     28  O   UNL     1      -0.742   0.825   2.256  1.00  0.00    -0.275 OA
ATOM     29  H   UNL     1      -0.313  -1.440   2.799  1.00  0.00     0.169 HD
ENDBRANCH  20  25
BRANCH  23  30
ATOM     30  N   UNL     1       1.762  -5.795   2.373  1.00  0.00    -0.326 N 
ATOM     31  C   UNL     1       0.872  -6.256   3.326  1.00  0.00     0.221 C 
ATOM     32  H   UNL     1       2.463  -6.424   2.087  1.00  0.00     0.169 HD
ATOM     33  C   UNL     1       1.125  -7.686   3.735  1.00  0.00     0.114 C 
ATOM     34  O   UNL     1      -0.067  -5.634   3.812  1.00  0.00    -0.275 OA
ENDBRANCH  23  30
ENDBRANCH  16  19
ENDBRANCH   9  15
ENDBRANCH   5   8
ENDBRANCH   3   4
ENDBRANCH   2   3
ENDBRANCH   1   2
BRANCH   1  35
ATOM     35  C   UNL     1       6.767  -5.473   1.009  1.00  0.00     0.002 C 
BRANCH  35  36
ATOM     36  C   UNL     1       7.188  -5.484  -0.460  1.00  0.00     0.021 C 
BRANCH  36  37
ATOM     37  C   UNL     1       8.662  -5.742  -0.740  1.00  0.00     0.116 C 
BRANCH  37  38
ATOM     38  N   UNL     1       9.144  -6.996  -0.191  1.00  0.00    -0.352 N 
ATOM     39  C   UNL     1       9.949  -7.952  -0.766  1.00  0.00     0.251 C 
ATOM     40  H   UNL     1       8.853  -7.191   0.729  1.00  0.00     0.163 HD
ATOM     41  O   UNL     1      10.177  -8.996  -0.175  1.00  0.00    -0.269 OA
BRANCH  39  42
ATOM     42  C   UNL     1      10.512  -7.733  -2.120  1.00  0.00     0.039 A 
ATOM     43  C   UNL     1      10.470  -8.787  -3.038  1.00  0.00     0.014 A 
ATOM     44  C   UNL     1      11.081  -6.511  -2.487  1.00  0.00     0.014 A 
ATOM     45  C   UNL     1      10.936  -8.595  -4.341  1.00  0.00     0.010 A 
ATOM     46  C   UNL     1      11.479  -6.298  -3.805  1.00  0.00     0.010 A 
ATOM     47  C   UNL     1      11.412  -7.338  -4.745  1.00  0.00    -0.014 A 
BRANCH  47  48
ATOM     48  C   UNL     1      11.843  -7.088  -6.143  1.00  0.00     0.031 A 
ATOM     49  C   UNL     1      13.275  -6.738  -6.441  1.00  0.00     0.074 A 
ATOM     50  C   UNL     1      10.934  -7.103  -7.137  1.00  0.00     0.049 A 
ATOM     51  N   UNL     1      13.824  -6.400  -7.580  1.00  0.00    -0.248 NA
ATOM     52  C   UNL     1      14.209  -6.745  -5.302  1.00  0.00     0.031 C 
ATOM     53  C   UNL     1       9.508  -7.396  -6.979  1.00  0.00     0.029 A 
ATOM     54  N   UNL     1      11.074  -6.855  -8.480  1.00  0.00    -0.354 N 
ATOM     55  C   UNL     1      15.157  -6.135  -7.292  1.00  0.00     0.074 A 
ATOM     56  C   UNL     1      15.325  -6.306  -5.866  1.00  0.00     0.031 C 
ATOM     57  C   UNL     1       8.910  -7.333  -8.180  1.00  0.00     0.029 A 
ATOM     58  C   UNL     1       9.898  -6.953  -9.184  1.00  0.00     0.049 A 
ATOM     59  H   UNL     1      11.936  -6.629  -8.900  1.00  0.00     0.167 HD
ATOM     60  C   UNL     1      16.156  -5.794  -8.141  1.00  0.00     0.031 A 
ATOM     61  C   UNL     1       9.640  -6.748 -10.490  1.00  0.00     0.031 A 
ATOM     62  C   UNL     1      15.994  -5.637  -9.561  1.00  0.00     0.049 A 
ATOM     63  C   UNL     1      10.763  -6.352 -11.408  1.00  0.00     0.074 A 
ATOM     64  C   UNL     1      16.957  -5.350 -10.512  1.00  0.00     0.029 A 
ATOM     65  N   UNL     1      14.788  -5.753 -10.234  1.00  0.00    -0.354 N 
ATOM     66  N   UNL     1      12.030  -6.164 -11.130  1.00  0.00    -0.248 NA
ATOM     67  C   UNL     1      10.420  -6.149 -12.823  1.00  0.00     0.031 C 
ATOM     68  C   UNL     1      16.326  -5.243 -11.755  1.00  0.00     0.029 A 
ATOM     69  C   UNL     1      14.978  -5.519 -11.585  1.00  0.00     0.049 A 
ATOM     70  H   UNL     1      13.924  -5.970  -9.814  1.00  0.00     0.167 HD
ATOM     71  C   UNL     1      12.640  -5.849 -12.337  1.00  0.00     0.074 A 
ATOM     72  C   UNL     1      11.607  -5.884 -13.351  1.00  0.00     0.031 C 
ATOM     73  C   UNL     1      13.941  -5.560 -12.583  1.00  0.00     0.031 A 
BRANCH  60  74
ATOM     74  C   UNL     1      17.518  -5.559  -7.548  1.00  0.00    -0.014 A 
ATOM     75  C   UNL     1      18.283  -6.619  -7.035  1.00  0.00     0.009 A 
ATOM     76  C   UNL     1      18.058  -4.263  -7.532  1.00  0.00     0.009 A 
ATOM     77  C   UNL     1      19.543  -6.380  -6.483  1.00  0.00     0.001 A 
ATOM     78  C   UNL     1      19.330  -4.032  -7.006  1.00  0.00     0.001 A 
ATOM     79  C   UNL     1      20.067  -5.088  -6.473  1.00  0.00     0.000 A 
ENDBRANCH  60  74
BRANCH  61  80
ATOM     80  C   UNL     1       8.260  -6.922 -11.012  1.00  0.00    -0.014 A 
ATOM     81  C   UNL     1       7.946  -8.007 -11.844  1.00  0.00     0.009 A 
ATOM     82  C   UNL     1       7.250  -6.003 -10.686  1.00  0.00     0.009 A 
ATOM     83  C   UNL     1       6.656  -8.156 -12.358  1.00  0.00     0.001 A 
ATOM     84  C   UNL     1       5.954  -6.170 -11.178  1.00  0.00     0.001 A 
ATOM     85  C   UNL     1       5.660  -7.240 -12.022  1.00  0.00     0.000 A 
ENDBRANCH  61  80
BRANCH  73  86
ATOM     86  C   UNL     1      14.331  -5.294 -14.009  1.00  0.00    -0.014 A 
ATOM     87  C   UNL     1      13.982  -4.095 -14.649  1.00  0.00     0.009 A 
ATOM     88  C   UNL     1      15.106  -6.237 -14.702  1.00  0.00     0.009 A 
ATOM     89  C   UNL     1      14.380  -3.858 -15.966  1.00  0.00     0.001 A 
ATOM     90  C   UNL     1      15.525  -5.985 -16.009  1.00  0.00     0.001 A 
ATOM     91  C   UNL     1      15.156  -4.799 -16.642  1.00  0.00     0.000 A 
ENDBRANCH  73  86
ENDBRANCH  47  48
ENDBRANCH  39  42
ENDBRANCH  37  38
ENDBRANCH  36  37
ENDBRANCH  35  36
ENDBRANCH   1  35
TORSDOF 17
