REMARK SMILES CNC(=O)c1cc(S(=O)(=O)N2CCC(C(=O)NCCCCCCNC(=O)c3ccc(-c4c5nc(c(-c6ccccc6)c6ccc([nH]6)c(-c6ccccc6)c6nc(c(-c7ccccc7)c7ccc4[nH]7)C=C6)C=C5)cc3)CC2)ccc1OC
REMARK SMILES IDX 20 1 19 2 18 3 17 4 15 5 16 6 14 8 11 9 12 10 76 11 13 12
REMARK SMILES IDX 75 13 8 14 9 15 10 16 7 17 5 18 6 19 79 20 78 21 77 22 3 23
REMARK SMILES IDX 1 24 2 25 4 27 80 28 81 29 21 30 22 31 23 32 24 33 25 34
REMARK SMILES IDX 26 36 27 37 28 38 74 39 29 40 73 41 30 42 31 43 32 44 67 45
REMARK SMILES IDX 33 46 72 47 66 48 68 49 34 50 71 51 65 52 64 53 35 55 57 56
REMARK SMILES IDX 42 57 56 58 43 59 46 60 55 61 69 62 44 63 45 64 54 66 70 67
REMARK SMILES IDX 47 68 36 69 37 70 41 71 38 72 40 73 39 74 58 75 59 76 63 77
REMARK SMILES IDX 60 78 62 79 61 80 48 81 49 82 53 83 50 84 52 85 51 86
REMARK H PARENT 17 7 2 26 24 35 68 54 46 65
REMARK Flexibility Score: inf
ROOT
ATOM      1  C   UNL     1      -4.625  10.081   8.249  1.00  0.00     0.002 C 
ENDROOT
BRANCH   1   2
ATOM      2  C   UNL     1      -3.794   8.902   7.739  1.00  0.00     0.021 C 
BRANCH   2   3
ATOM      3  C   UNL     1      -4.565   7.943   6.839  1.00  0.00     0.116 C 
BRANCH   3   4
ATOM      4  N   UNL     1      -4.851   8.538   5.546  1.00  0.00    -0.356 N 
ATOM      5  C   UNL     1      -4.508   8.149   4.291  1.00  0.00     0.223 C 
ATOM      6  O   UNL     1      -4.870   8.852   3.345  1.00  0.00    -0.275 OA
ATOM      7  H   UNL     1      -5.384   9.365   5.586  1.00  0.00     0.163 HD
BRANCH   5   8
ATOM      8  C   UNL     1      -3.713   6.880   4.037  1.00  0.00     0.081 C 
ATOM      9  N   UNL     1      -2.312   4.487   4.803  1.00  0.00    -0.198 NA
ATOM     10  C   UNL     1      -1.525   5.672   4.393  1.00  0.00     0.103 C 
ATOM     11  C   UNL     1      -3.692   4.365   4.275  1.00  0.00     0.103 C 
ATOM     12  C   UNL     1      -2.300   6.959   4.610  1.00  0.00     0.030 C 
ATOM     13  C   UNL     1      -4.488   5.639   4.476  1.00  0.00     0.030 C 
BRANCH   9  14
ATOM     14  S   UNL     1      -1.444   3.020   4.951  1.00  0.00     0.243 S 
ATOM     15  O   UNL     1      -2.320   2.074   5.609  1.00  0.00    -0.207 OA
ATOM     16  O   UNL     1      -0.133   3.329   5.481  1.00  0.00    -0.207 OA
BRANCH  14  17
ATOM     17  C   UNL     1      -1.182   2.388   3.301  1.00  0.00     0.083 A 
ATOM     18  C   UNL     1      -0.471   0.518   1.931  1.00  0.00     0.083 A 
ATOM     19  C   UNL     1      -0.665   1.092   3.196  1.00  0.00     0.039 A 
ATOM     20  C   UNL     1      -0.868   1.207   0.778  1.00  0.00     0.131 A 
ATOM     21  C   UNL     1      -1.337   2.514   0.888  1.00  0.00     0.048 A 
ATOM     22  C   UNL     1      -1.488   3.104   2.142  1.00  0.00     0.025 A 
BRANCH  18  23
ATOM     23  C   UNL     1       0.159  -0.814   1.894  1.00  0.00     0.254 C 
ATOM     24  C   UNL     1       2.093  -0.027   0.453  1.00  0.00     0.143 C 
ATOM     25  N   UNL     1       1.319  -1.003   1.188  1.00  0.00    -0.355 N 
ATOM     26  H   UNL     1       1.671  -1.922   1.181  1.00  0.00     0.163 HD
ATOM     27  O   UNL     1      -0.352  -1.736   2.522  1.00  0.00    -0.269 OA
ENDBRANCH  18  23
BRANCH  20  28
ATOM     28  O   UNL     1      -0.796   0.722  -0.498  1.00  0.00    -0.496 OA
ATOM     29  C   UNL     1      -1.559  -0.473  -0.678  1.00  0.00     0.278 C 
ENDBRANCH  20  28
ENDBRANCH  14  17
ENDBRANCH   9  14
ENDBRANCH   5   8
ENDBRANCH   3   4
ENDBRANCH   2   3
ENDBRANCH   1   2
BRANCH   1  30
ATOM     30  C   UNL     1      -5.912   9.696   8.986  1.00  0.00     0.002 C 
BRANCH  30  31
ATOM     31  C   UNL     1      -5.739   8.696  10.135  1.00  0.00     0.021 C 
BRANCH  31  32
ATOM     32  C   UNL     1      -4.736   9.107  11.208  1.00  0.00     0.116 C 
BRANCH  32  33
ATOM     33  N   UNL     1      -5.075  10.377  11.821  1.00  0.00    -0.352 N 
ATOM     34  C   UNL     1      -5.116  10.733  13.143  1.00  0.00     0.251 C 
ATOM     35  H   UNL     1      -5.313  11.094  11.190  1.00  0.00     0.163 HD
ATOM     36  O   UNL     1      -5.585  11.822  13.463  1.00  0.00    -0.269 OA
BRANCH  34  37
ATOM     37  C   UNL     1      -4.619   9.815  14.191  1.00  0.00     0.039 A 
ATOM     38  C   UNL     1      -5.350   9.713  15.378  1.00  0.00     0.014 A 
ATOM     39  C   UNL     1      -3.427   9.099  14.041  1.00  0.00     0.014 A 
ATOM     40  C   UNL     1      -4.906   8.871  16.398  1.00  0.00     0.010 A 
ATOM     41  C   UNL     1      -3.016   8.211  15.036  1.00  0.00     0.010 A 
ATOM     42  C   UNL     1      -3.745   8.099  16.228  1.00  0.00    -0.014 A 
BRANCH  42  43
ATOM     43  C   UNL     1      -3.301   7.177  17.302  1.00  0.00     0.031 A 
ATOM     44  C   UNL     1      -2.039   7.447  18.073  1.00  0.00     0.074 A 
ATOM     45  C   UNL     1      -4.036   6.084  17.578  1.00  0.00     0.049 A 
ATOM     46  N   UNL     1      -1.539   6.790  19.090  1.00  0.00    -0.248 NA
ATOM     47  C   UNL     1      -1.222   8.590  17.637  1.00  0.00     0.031 C 
ATOM     48  C   UNL     1      -5.251   5.679  16.868  1.00  0.00     0.029 A 
ATOM     49  N   UNL     1      -3.875   5.119  18.540  1.00  0.00    -0.354 N 
ATOM     50  C   UNL     1      -0.349   7.432  19.407  1.00  0.00     0.074 A 
ATOM     51  C   UNL     1      -0.178   8.502  18.448  1.00  0.00     0.031 C 
ATOM     52  C   UNL     1      -5.747   4.572  17.443  1.00  0.00     0.029 A 
ATOM     53  C   UNL     1      -4.877   4.180  18.547  1.00  0.00     0.049 A 
ATOM     54  H   UNL     1      -3.114   5.101  19.164  1.00  0.00     0.167 HD
ATOM     55  C   UNL     1       0.514   7.169  20.418  1.00  0.00     0.031 A 
ATOM     56  C   UNL     1      -5.083   3.131  19.364  1.00  0.00     0.031 A 
ATOM     57  C   UNL     1       0.344   6.112  21.378  1.00  0.00     0.049 A 
ATOM     58  C   UNL     1      -4.130   2.880  20.497  1.00  0.00     0.074 A 
ATOM     59  C   UNL     1       1.136   5.800  22.470  1.00  0.00     0.029 A 
ATOM     60  N   UNL     1      -0.693   5.192  21.361  1.00  0.00    -0.354 N 
ATOM     61  N   UNL     1      -3.053   3.547  20.833  1.00  0.00    -0.248 NA
ATOM     62  C   UNL     1      -4.437   1.744  21.376  1.00  0.00     0.031 C 
ATOM     63  C   UNL     1       0.598   4.668  23.092  1.00  0.00     0.029 A 
ATOM     64  C   UNL     1      -0.553   4.303  22.414  1.00  0.00     0.049 A 
ATOM     65  H   UNL     1      -1.420   5.174  20.698  1.00  0.00     0.167 HD
ATOM     66  C   UNL     1      -2.566   2.926  21.975  1.00  0.00     0.074 A 
ATOM     67  C   UNL     1      -3.477   1.843  22.285  1.00  0.00     0.031 C 
ATOM     68  C   UNL     1      -1.464   3.227  22.704  1.00  0.00     0.031 A 
BRANCH  55  69
ATOM     69  C   UNL     1       1.729   8.048  20.531  1.00  0.00    -0.014 A 
ATOM     70  C   UNL     1       1.623   9.378  20.966  1.00  0.00     0.009 A 
ATOM     71  C   UNL     1       2.998   7.531  20.227  1.00  0.00     0.009 A 
ATOM     72  C   UNL     1       2.759  10.184  21.061  1.00  0.00     0.001 A 
ATOM     73  C   UNL     1       4.135   8.332  20.348  1.00  0.00     0.001 A 
ATOM     74  C   UNL     1       4.014   9.660  20.756  1.00  0.00     0.000 A 
ENDBRANCH  55  69
BRANCH  56  75
ATOM     75  C   UNL     1      -6.274   2.266  19.171  1.00  0.00    -0.014 A 
ATOM     76  C   UNL     1      -7.358   2.341  20.060  1.00  0.00     0.009 A 
ATOM     77  C   UNL     1      -6.335   1.365  18.098  1.00  0.00     0.009 A 
ATOM     78  C   UNL     1      -8.468   1.512  19.892  1.00  0.00     0.001 A 
ATOM     79  C   UNL     1      -7.458   0.555  17.919  1.00  0.00     0.001 A 
ATOM     80  C   UNL     1      -8.519   0.623  18.820  1.00  0.00     0.000 A 
ENDBRANCH  56  75
BRANCH  68  81
ATOM     81  C   UNL     1      -1.203   2.384  23.919  1.00  0.00    -0.014 A 
ATOM     82  C   UNL     1      -0.747   1.062  23.804  1.00  0.00     0.009 A 
ATOM     83  C   UNL     1      -1.407   2.926  25.198  1.00  0.00     0.009 A 
ATOM     84  C   UNL     1      -0.539   0.285  24.945  1.00  0.00     0.001 A 
ATOM     85  C   UNL     1      -1.174   2.156  26.337  1.00  0.00     0.001 A 
ATOM     86  C   UNL     1      -0.752   0.833  26.210  1.00  0.00     0.000 A 
ENDBRANCH  68  81
ENDBRANCH  42  43
ENDBRANCH  34  37
ENDBRANCH  32  33
ENDBRANCH  31  32
ENDBRANCH  30  31
ENDBRANCH   1  30
TORSDOF 17
