REMARK SMILES Cc1nn(C)c(OCC(C)(C)[NH+](C)C)c1C(=O)NCCCCCCNC(=O)c1ccc(-c2c3nc(c(-c4ccccc4)c4ccc([nH]4)c(-c4ccccc4)c4nc(c(-c5ccccc5)c5ccc2[nH]5)C=C4)C=C3)cc1
REMARK SMILES IDX 20 1 19 2 18 3 16 4 17 5 15 7 1 8 2 9 3 10 4 11 6 12 5 13
REMARK SMILES IDX 7 14 8 15 9 16 10 17 11 18 12 19 13 20 14 21 21 23 22 24
REMARK SMILES IDX 23 25 24 26 25 27 26 28 27 30 28 31 29 32 75 33 30 34 74 35
REMARK SMILES IDX 31 36 32 37 33 38 68 39 34 40 73 41 67 42 69 43 35 44 72 45
REMARK SMILES IDX 66 46 65 47 36 49 58 50 43 51 57 52 44 53 47 54 56 55 70 56
REMARK SMILES IDX 45 57 46 58 55 60 71 61 48 62 37 63 38 64 42 65 39 66 41 67
REMARK SMILES IDX 40 68 59 69 60 70 64 71 61 72 63 73 62 74 49 75 50 76 54 77
REMARK SMILES IDX 51 78 53 79 52 80
REMARK H PARENT 18 6 12 22 25 29 69 48 47 59
REMARK Flexibility Score: inf
ROOT
ATOM      1  C   UNL     1      -4.735  -1.063  -1.028  1.00  0.00     0.021 C 
ENDROOT
BRANCH   1   2
ATOM      2  C   UNL     1      -3.636  -1.514  -0.069  1.00  0.00     0.116 C 
BRANCH   2   3
ATOM      3  N   UNL     1      -2.707  -2.298  -0.846  1.00  0.00    -0.352 N 
ATOM      4  C   UNL     1      -1.471  -1.991  -1.336  1.00  0.00     0.258 C 
ATOM      5  O   UNL     1      -1.041  -2.710  -2.238  1.00  0.00    -0.269 OA
ATOM      6  H   UNL     1      -3.017  -3.208  -1.058  1.00  0.00     0.163 HD
BRANCH   4   7
ATOM      7  C   UNL     1      -0.660  -0.950  -0.740  1.00  0.00     0.124 A 
ATOM      8  C   UNL     1      -2.053   1.319  -0.822  1.00  0.00     0.070 C 
ATOM      9  C   UNL     1      -0.870   0.458  -0.573  1.00  0.00     0.076 A 
ATOM     10  N   UNL     1       0.232   1.075  -0.133  1.00  0.00    -0.174 NA
ATOM     11  N   UNL     1       1.148   0.100  -0.089  1.00  0.00    -0.236 N 
ATOM     12  C   UNL     1       0.629  -1.160  -0.251  1.00  0.00     0.225 A 
ATOM     13  C   UNL     1       2.536   0.459   0.078  1.00  0.00     0.178 C 
BRANCH  12  14
ATOM     14  O   UNL     1       1.426  -2.200   0.013  1.00  0.00    -0.471 OA
BRANCH  14  15
ATOM     15  C   UNL     1       0.913  -3.517   0.208  1.00  0.00     0.299 C 
BRANCH  15  16
ATOM     16  C   UNL     1       0.302  -3.893   1.620  1.00  0.00     0.126 C 
ATOM     17  C   UNL     1      -1.030  -3.161   1.873  1.00  0.00     0.082 C 
ATOM     18  C   UNL     1      -0.049  -5.406   1.484  1.00  0.00     0.082 C 
BRANCH  16  19
ATOM     19  N   UNL     1       1.258  -3.741   2.764  1.00  0.00    -0.333 N 
ATOM     20  C   UNL     1       1.895  -2.423   2.839  1.00  0.00     0.333 C 
ATOM     21  C   UNL     1       0.697  -4.059   4.082  1.00  0.00     0.333 C 
ATOM     22  H   UNL     1       1.966  -4.440   2.540  1.00  0.00     0.348 HD
ENDBRANCH  16  19
ENDBRANCH  15  16
ENDBRANCH  14  15
ENDBRANCH  12  14
ENDBRANCH   4   7
ENDBRANCH   2   3
ENDBRANCH   1   2
BRANCH   1  23
ATOM     23  C   UNL     1      -5.844  -2.114  -1.137  1.00  0.00     0.002 C 
BRANCH  23  24
ATOM     24  C   UNL     1      -6.791  -2.107   0.066  1.00  0.00     0.002 C 
BRANCH  24  25
ATOM     25  C   UNL     1      -7.484  -0.764   0.310  1.00  0.00     0.021 C 
BRANCH  25  26
ATOM     26  C   UNL     1      -8.213  -0.219  -0.912  1.00  0.00     0.116 C 
BRANCH  26  27
ATOM     27  N   UNL     1      -9.292  -1.104  -1.319  1.00  0.00    -0.352 N 
ATOM     28  C   UNL     1     -10.625  -0.811  -1.460  1.00  0.00     0.251 C 
ATOM     29  H   UNL     1      -9.033  -2.033  -1.519  1.00  0.00     0.163 HD
ATOM     30  O   UNL     1     -11.460  -1.700  -1.544  1.00  0.00    -0.269 OA
BRANCH  28  31
ATOM     31  C   UNL     1     -11.033   0.606  -1.499  1.00  0.00     0.039 A 
ATOM     32  C   UNL     1     -12.104   1.029  -0.713  1.00  0.00     0.014 A 
ATOM     33  C   UNL     1     -10.331   1.514  -2.299  1.00  0.00     0.014 A 
ATOM     34  C   UNL     1     -12.445   2.381  -0.693  1.00  0.00     0.010 A 
ATOM     35  C   UNL     1     -10.618   2.869  -2.213  1.00  0.00     0.010 A 
ATOM     36  C   UNL     1     -11.686   3.314  -1.419  1.00  0.00    -0.014 A 
BRANCH  36  37
ATOM     37  C   UNL     1     -12.000   4.762  -1.372  1.00  0.00     0.031 A 
ATOM     38  C   UNL     1     -12.430   5.479  -2.621  1.00  0.00     0.074 A 
ATOM     39  C   UNL     1     -11.840   5.441  -0.219  1.00  0.00     0.049 A 
ATOM     40  N   UNL     1     -12.700   6.748  -2.792  1.00  0.00    -0.248 NA
ATOM     41  C   UNL     1     -12.548   4.670  -3.846  1.00  0.00     0.031 C 
ATOM     42  C   UNL     1     -11.390   4.864   1.050  1.00  0.00     0.029 A 
ATOM     43  N   UNL     1     -12.035   6.768   0.069  1.00  0.00    -0.354 N 
ATOM     44  C   UNL     1     -13.003   6.889  -4.141  1.00  0.00     0.074 A 
ATOM     45  C   UNL     1     -12.828   5.592  -4.754  1.00  0.00     0.031 C 
ATOM     46  C   UNL     1     -11.375   5.825   1.988  1.00  0.00     0.029 A 
ATOM     47  C   UNL     1     -11.769   7.091   1.378  1.00  0.00     0.049 A 
ATOM     48  H   UNL     1     -12.337   7.426  -0.598  1.00  0.00     0.167 HD
ATOM     49  C   UNL     1     -13.412   7.996  -4.806  1.00  0.00     0.031 A 
ATOM     50  C   UNL     1     -11.829   8.276   2.013  1.00  0.00     0.031 A 
ATOM     51  C   UNL     1     -13.589   9.284  -4.191  1.00  0.00     0.049 A 
ATOM     52  C   UNL     1     -12.261   9.495   1.246  1.00  0.00     0.074 A 
ATOM     53  C   UNL     1     -14.049  10.456  -4.765  1.00  0.00     0.029 A 
ATOM     54  N   UNL     1     -13.309   9.570  -2.864  1.00  0.00    -0.354 N 
ATOM     55  N   UNL     1     -12.613   9.598  -0.013  1.00  0.00    -0.248 NA
ATOM     56  C   UNL     1     -12.316  10.760   1.992  1.00  0.00     0.031 C 
ATOM     57  C   UNL     1     -13.989  11.466  -3.800  1.00  0.00     0.029 A 
ATOM     58  C   UNL     1     -13.560  10.907  -2.607  1.00  0.00     0.049 A 
ATOM     59  H   UNL     1     -12.981   8.919  -2.202  1.00  0.00     0.167 HD
ATOM     60  C   UNL     1     -12.963  10.929  -0.201  1.00  0.00     0.074 A 
ATOM     61  C   UNL     1     -12.795  11.591   1.077  1.00  0.00     0.031 C 
ATOM     62  C   UNL     1     -13.390  11.548  -1.329  1.00  0.00     0.031 A 
BRANCH  49  63
ATOM     63  C   UNL     1     -13.684   7.859  -6.279  1.00  0.00    -0.014 A 
ATOM     64  C   UNL     1     -14.773   7.110  -6.753  1.00  0.00     0.009 A 
ATOM     65  C   UNL     1     -12.860   8.517  -7.205  1.00  0.00     0.009 A 
ATOM     66  C   UNL     1     -15.007   6.990  -8.125  1.00  0.00     0.001 A 
ATOM     67  C   UNL     1     -13.116   8.424  -8.574  1.00  0.00     0.001 A 
ATOM     68  C   UNL     1     -14.182   7.652  -9.033  1.00  0.00     0.000 A 
ENDBRANCH  49  63
BRANCH  50  69
ATOM     69  C   UNL     1     -11.484   8.368   3.456  1.00  0.00    -0.014 A 
ATOM     70  C   UNL     1     -12.476   8.642   4.411  1.00  0.00     0.009 A 
ATOM     71  C   UNL     1     -10.160   8.190   3.888  1.00  0.00     0.009 A 
ATOM     72  C   UNL     1     -12.144   8.768   5.762  1.00  0.00     0.001 A 
ATOM     73  C   UNL     1      -9.837   8.284   5.243  1.00  0.00     0.001 A 
ATOM     74  C   UNL     1     -10.826   8.584   6.177  1.00  0.00     0.000 A 
ENDBRANCH  50  69
BRANCH  62  75
ATOM     75  C   UNL     1     -13.750  13.004  -1.223  1.00  0.00    -0.014 A 
ATOM     76  C   UNL     1     -12.770  13.992  -1.052  1.00  0.00     0.009 A 
ATOM     77  C   UNL     1     -15.094  13.393  -1.348  1.00  0.00     0.009 A 
ATOM     78  C   UNL     1     -13.132  15.339  -0.973  1.00  0.00     0.001 A 
ATOM     79  C   UNL     1     -15.450  14.741  -1.302  1.00  0.00     0.001 A 
ATOM     80  C   UNL     1     -14.470  15.712  -1.105  1.00  0.00     0.000 A 
ENDBRANCH  62  75
ENDBRANCH  36  37
ENDBRANCH  28  31
ENDBRANCH  26  27
ENDBRANCH  25  26
ENDBRANCH  24  25
ENDBRANCH  23  24
ENDBRANCH   1  23
TORSDOF 17
