REMARK SMILES Cc1c(/C=C/C(=O)NCCCCCCNC(=O)c2ccc(-c3c4nc(c(-c5ccccc5)c5ccc([nH]5)c(-c5ccccc5)c5nc(c(-c6ccccc6)c6ccc3[nH]6)C=C5)C=C4)cc2)cccc1C(=O)N1C[C@@H](C)[C@@H](C)C1
REMARK SMILES IDX 11 1 10 2 9 3 8 4 6 5 7 6 5 8 4 9 3 10 1 11 2 12 69 13 66 14
REMARK SMILES IDX 68 15 67 16 70 17 71 18 72 19 73 20 78 21 74 22 76 23 75 24
REMARK SMILES IDX 77 25 12 26 13 27 14 28 15 29 16 30 17 32 18 33 19 34 65 35
REMARK SMILES IDX 20 36 64 37 21 38 22 39 23 40 58 41 24 42 63 43 57 44 59 45
REMARK SMILES IDX 25 46 62 47 56 48 55 49 26 51 48 52 33 53 47 54 34 55 37 56
REMARK SMILES IDX 46 57 60 58 35 59 36 60 45 62 61 63 38 64 27 65 28 66 32 67
REMARK SMILES IDX 29 68 31 69 30 70 49 71 50 72 54 73 51 74 53 75 52 76 39 77
REMARK SMILES IDX 40 78 44 79 41 80 43 81 42 82
REMARK H PARENT 8 7 15 31 59 50 37 61
REMARK Flexibility Score: inf
ROOT
ATOM      1  C   UNL     1       5.142  -5.207   1.052  1.00  0.00     0.002 C 
ENDROOT
BRANCH   1   2
ATOM      2  C   UNL     1       4.103  -4.086   0.901  1.00  0.00     0.021 C 
BRANCH   2   3
ATOM      3  C   UNL     1       3.163  -4.239  -0.295  1.00  0.00     0.116 C 
BRANCH   3   4
ATOM      4  N   UNL     1       2.085  -5.172  -0.020  1.00  0.00    -0.353 N 
ATOM      5  C   UNL     1       0.737  -4.971  -0.074  1.00  0.00     0.243 C 
ATOM      6  O   UNL     1      -0.044  -5.912   0.029  1.00  0.00    -0.270 OA
ATOM      7  H   UNL     1       2.366  -6.078   0.242  1.00  0.00     0.163 HD
BRANCH   5   8
ATOM      8  C   UNL     1       0.229  -3.611  -0.348  1.00  0.00     0.072 C 
ATOM      9  C   UNL     1       0.511  -2.589   0.474  1.00  0.00     0.014 C 
BRANCH   9  10
ATOM     10  C   UNL     1       0.095  -1.199   0.213  1.00  0.00    -0.022 A 
ATOM     11  C   UNL     1       2.425  -0.363   0.770  1.00  0.00     0.046 C 
ATOM     12  C   UNL     1       0.996  -0.108   0.361  1.00  0.00    -0.031 A 
ATOM     13  C   UNL     1       0.518   1.204   0.112  1.00  0.00     0.043 A 
ATOM     14  C   UNL     1      -1.250  -0.957  -0.116  1.00  0.00     0.008 A 
ATOM     15  C   UNL     1      -0.829   1.409  -0.236  1.00  0.00     0.014 A 
ATOM     16  C   UNL     1      -1.708   0.336  -0.347  1.00  0.00     0.001 A 
BRANCH  13  17
ATOM     17  C   UNL     1       1.265   2.430   0.505  1.00  0.00     0.254 C 
ATOM     18  O   UNL     1       0.700   3.194   1.289  1.00  0.00    -0.269 OA
BRANCH  17  19
ATOM     19  N   UNL     1       2.563   2.652   0.087  1.00  0.00    -0.338 N 
ATOM     20  C   UNL     1       3.422   3.493   0.897  1.00  0.00     0.123 C 
ATOM     21  C   UNL     1       3.183   2.311  -1.184  1.00  0.00     0.123 C 
ATOM     22  C   UNL     1       4.583   3.888  -0.005  1.00  0.00     0.010 C 
ATOM     23  C   UNL     1       4.655   2.743  -1.040  1.00  0.00     0.010 C 
ATOM     24  C   UNL     1       5.845   4.170   0.799  1.00  0.00     0.010 C 
ATOM     25  C   UNL     1       5.554   1.573  -0.645  1.00  0.00     0.010 C 
ENDBRANCH  17  19
ENDBRANCH  13  17
ENDBRANCH   9  10
ENDBRANCH   5   8
ENDBRANCH   3   4
ENDBRANCH   2   3
ENDBRANCH   1   2
BRANCH   1  26
ATOM     26  C   UNL     1       6.018  -5.500  -0.179  1.00  0.00     0.002 C 
BRANCH  26  27
ATOM     27  C   UNL     1       6.635  -4.282  -0.872  1.00  0.00     0.021 C 
BRANCH  27  28
ATOM     28  C   UNL     1       7.771  -3.630  -0.093  1.00  0.00     0.116 C 
BRANCH  28  29
ATOM     29  N   UNL     1       9.097  -4.002  -0.578  1.00  0.00    -0.352 N 
ATOM     30  C   UNL     1      10.350  -3.656  -0.097  1.00  0.00     0.251 C 
ATOM     31  H   UNL     1       9.101  -4.590  -1.368  1.00  0.00     0.163 HD
ATOM     32  O   UNL     1      11.355  -4.051  -0.656  1.00  0.00    -0.269 OA
BRANCH  30  33
ATOM     33  C   UNL     1      10.451  -2.932   1.195  1.00  0.00     0.039 A 
ATOM     34  C   UNL     1      11.306  -3.474   2.161  1.00  0.00     0.014 A 
ATOM     35  C   UNL     1       9.551  -1.925   1.532  1.00  0.00     0.014 A 
ATOM     36  C   UNL     1      11.056  -3.219   3.504  1.00  0.00     0.010 A 
ATOM     37  C   UNL     1       9.242  -1.741   2.865  1.00  0.00     0.010 A 
ATOM     38  C   UNL     1       9.935  -2.462   3.841  1.00  0.00    -0.014 A 
BRANCH  38  39
ATOM     39  C   UNL     1       9.314  -2.525   5.157  1.00  0.00     0.031 A 
ATOM     40  C   UNL     1       9.439  -1.403   6.105  1.00  0.00     0.074 A 
ATOM     41  C   UNL     1       8.592  -3.615   5.499  1.00  0.00     0.049 A 
ATOM     42  N   UNL     1       9.318  -1.516   7.386  1.00  0.00    -0.248 NA
ATOM     43  C   UNL     1       9.788  -0.053   5.678  1.00  0.00     0.031 C 
ATOM     44  C   UNL     1       7.687  -3.764   6.635  1.00  0.00     0.029 A 
ATOM     45  N   UNL     1       8.639  -4.894   4.978  1.00  0.00    -0.354 N 
ATOM     46  C   UNL     1       9.245  -0.245   7.904  1.00  0.00     0.074 A 
ATOM     47  C   UNL     1       9.668   0.618   6.826  1.00  0.00     0.031 C 
ATOM     48  C   UNL     1       7.500  -5.074   6.873  1.00  0.00     0.029 A 
ATOM     49  C   UNL     1       8.403  -5.807   6.002  1.00  0.00     0.049 A 
ATOM     50  H   UNL     1       8.811  -5.122   4.036  1.00  0.00     0.167 HD
ATOM     51  C   UNL     1       8.677  -0.057   9.130  1.00  0.00     0.031 A 
ATOM     52  C   UNL     1       9.351  -6.689   6.442  1.00  0.00     0.031 A 
ATOM     53  C   UNL     1       8.388  -1.328   9.798  1.00  0.00     0.049 A 
ATOM     54  C   UNL     1       9.738  -6.492   7.898  1.00  0.00     0.074 A 
ATOM     55  C   UNL     1       7.222  -2.050   9.998  1.00  0.00     0.029 A 
ATOM     56  N   UNL     1       9.437  -2.182  10.123  1.00  0.00    -0.354 N 
ATOM     57  N   UNL     1       9.469  -5.415   8.585  1.00  0.00    -0.248 NA
ATOM     58  C   UNL     1      10.498  -7.467   8.679  1.00  0.00     0.031 C 
ATOM     59  C   UNL     1       7.582  -3.374  10.366  1.00  0.00     0.029 A 
ATOM     60  C   UNL     1       8.963  -3.445  10.421  1.00  0.00     0.049 A 
ATOM     61  H   UNL     1      10.386  -1.922  10.139  1.00  0.00     0.167 HD
ATOM     62  C   UNL     1       9.998  -5.524   9.844  1.00  0.00     0.074 A 
ATOM     63  C   UNL     1      10.620  -6.835   9.860  1.00  0.00     0.031 C 
ATOM     64  C   UNL     1       9.891  -4.516  10.759  1.00  0.00     0.031 A 
BRANCH  51  65
ATOM     65  C   UNL     1       8.100   1.270   9.583  1.00  0.00    -0.014 A 
ATOM     66  C   UNL     1       7.085   1.289  10.559  1.00  0.00     0.009 A 
ATOM     67  C   UNL     1       8.437   2.521   9.039  1.00  0.00     0.009 A 
ATOM     68  C   UNL     1       6.386   2.460  10.889  1.00  0.00     0.001 A 
ATOM     69  C   UNL     1       7.726   3.692   9.340  1.00  0.00     0.001 A 
ATOM     70  C   UNL     1       6.688   3.658  10.257  1.00  0.00     0.000 A 
ENDBRANCH  51  65
BRANCH  52  71
ATOM     71  C   UNL     1      10.287  -7.162   5.387  1.00  0.00    -0.014 A 
ATOM     72  C   UNL     1       9.785  -8.002   4.375  1.00  0.00     0.009 A 
ATOM     73  C   UNL     1      11.525  -6.535   5.184  1.00  0.00     0.009 A 
ATOM     74  C   UNL     1      10.446  -8.120   3.149  1.00  0.00     0.001 A 
ATOM     75  C   UNL     1      12.188  -6.663   3.957  1.00  0.00     0.001 A 
ATOM     76  C   UNL     1      11.632  -7.425   2.930  1.00  0.00     0.000 A 
ENDBRANCH  52  71
BRANCH  64  77
ATOM     77  C   UNL     1      10.600  -4.450  12.089  1.00  0.00    -0.014 A 
ATOM     78  C   UNL     1      11.805  -5.105  12.374  1.00  0.00     0.009 A 
ATOM     79  C   UNL     1      10.108  -3.568  13.077  1.00  0.00     0.009 A 
ATOM     80  C   UNL     1      12.462  -4.919  13.600  1.00  0.00     0.001 A 
ATOM     81  C   UNL     1      10.781  -3.346  14.281  1.00  0.00     0.001 A 
ATOM     82  C   UNL     1      11.956  -4.034  14.547  1.00  0.00     0.000 A 
ENDBRANCH  64  77
ENDBRANCH  38  39
ENDBRANCH  30  33
ENDBRANCH  28  29
ENDBRANCH  27  28
ENDBRANCH  26  27
ENDBRANCH   1  26
TORSDOF 16
