REMARK SMILES Cc1ccc(NC(=O)N2CCCC[C@@H]2C(=O)NCCCCCCNC(=O)c2ccc(-c3c4nc(c(-c5ccccc5)c5ccc([nH]5)c(-c5ccccc5)c5nc(c(-c6ccccc6)c6ccc3[nH]6)C=C5)C=C4)cc2)cc1
REMARK SMILES IDX 20 1 19 2 18 3 17 4 15 5 16 6 14 8 9 9 10 10 11 11 13 12
REMARK SMILES IDX 12 13 7 14 6 15 8 17 5 18 1 19 2 20 3 21 76 22 4 23 75 24
REMARK SMILES IDX 21 25 22 26 23 27 24 28 25 29 26 31 27 32 28 33 74 34 29 35
REMARK SMILES IDX 73 36 30 37 31 38 32 39 67 40 33 41 72 42 66 43 68 44 34 45
REMARK SMILES IDX 71 46 65 47 64 48 35 50 57 51 42 52 56 53 43 54 46 55 55 56
REMARK SMILES IDX 69 57 44 58 45 59 54 61 70 62 47 63 36 64 37 65 41 66 38 67
REMARK SMILES IDX 40 68 39 69 58 70 59 71 63 72 60 73 62 74 61 75 48 76 49 77
REMARK SMILES IDX 53 78 50 79 52 80 51 81
REMARK H PARENT 17 7 6 16 24 30 68 49 46 60
REMARK Flexibility Score: inf
ROOT
ATOM      1  C   UNL     1      -5.443  -1.436   5.078  1.00  0.00     0.002 C 
ENDROOT
BRANCH   1   2
ATOM      2  C   UNL     1      -5.089  -2.523   4.054  1.00  0.00     0.021 C 
BRANCH   2   3
ATOM      3  C   UNL     1      -4.629  -2.004   2.689  1.00  0.00     0.116 C 
BRANCH   3   4
ATOM      4  N   UNL     1      -3.333  -1.367   2.796  1.00  0.00    -0.354 N 
ATOM      5  C   UNL     1      -2.151  -1.685   2.195  1.00  0.00     0.242 C 
ATOM      6  O   UNL     1      -1.131  -1.178   2.673  1.00  0.00    -0.273 OA
ATOM      7  H   UNL     1      -3.300  -0.586   3.393  1.00  0.00     0.163 HD
BRANCH   5   8
ATOM      8  C   UNL     1      -2.056  -2.759   1.082  1.00  0.00     0.176 C 
ATOM      9  N   UNL     1      -3.084  -2.659   0.008  1.00  0.00    -0.313 N 
ATOM     10  C   UNL     1      -3.351  -3.846  -0.800  1.00  0.00     0.122 C 
ATOM     11  C   UNL     1      -3.401  -5.144  -0.015  1.00  0.00     0.022 C 
ATOM     12  C   UNL     1      -2.055  -4.127   1.801  1.00  0.00     0.035 C 
ATOM     13  C   UNL     1      -2.153  -5.298   0.837  1.00  0.00     0.004 C 
BRANCH   9  14
ATOM     14  C   UNL     1      -3.557  -1.475  -0.535  1.00  0.00     0.322 C 
ATOM     15  N   UNL     1      -2.850  -0.322  -0.412  1.00  0.00    -0.308 N 
ATOM     16  H   UNL     1      -3.393   0.478  -0.229  1.00  0.00     0.171 HD
ATOM     17  O   UNL     1      -4.676  -1.415  -1.053  1.00  0.00    -0.248 OA
BRANCH  15  18
ATOM     18  C   UNL     1      -1.469  -0.088  -0.504  1.00  0.00     0.042 A 
ATOM     19  C   UNL     1       2.772   0.491  -0.144  1.00  0.00     0.044 C 
ATOM     20  C   UNL     1       1.299   0.354  -0.385  1.00  0.00    -0.051 A 
ATOM     21  C   UNL     1       0.791  -0.786  -1.016  1.00  0.00     0.005 A 
ATOM     22  C   UNL     1       0.406   1.312   0.107  1.00  0.00     0.005 A 
ATOM     23  C   UNL     1      -0.587  -0.990  -1.100  1.00  0.00     0.026 A 
ATOM     24  C   UNL     1      -0.973   1.102   0.029  1.00  0.00     0.026 A 
ENDBRANCH  15  18
ENDBRANCH   9  14
ENDBRANCH   5   8
ENDBRANCH   3   4
ENDBRANCH   2   3
ENDBRANCH   1   2
BRANCH   1  25
ATOM     25  C   UNL     1      -6.484  -0.394   4.635  1.00  0.00     0.002 C 
BRANCH  25  26
ATOM     26  C   UNL     1      -7.747  -0.942   3.966  1.00  0.00     0.021 C 
BRANCH  26  27
ATOM     27  C   UNL     1      -8.603  -1.819   4.870  1.00  0.00     0.116 C 
BRANCH  27  28
ATOM     28  N   UNL     1      -9.743  -1.134   5.468  1.00  0.00    -0.352 N 
ATOM     29  C   UNL     1     -10.594  -1.578   6.466  1.00  0.00     0.251 C 
ATOM     30  H   UNL     1      -9.933  -0.235   5.116  1.00  0.00     0.163 HD
ATOM     31  O   UNL     1     -11.523  -0.883   6.850  1.00  0.00    -0.269 OA
BRANCH  29  32
ATOM     32  C   UNL     1     -10.282  -2.851   7.160  1.00  0.00     0.039 A 
ATOM     33  C   UNL     1     -10.223  -2.827   8.558  1.00  0.00     0.014 A 
ATOM     34  C   UNL     1      -9.833  -3.965   6.454  1.00  0.00     0.014 A 
ATOM     35  C   UNL     1      -9.479  -3.797   9.222  1.00  0.00     0.010 A 
ATOM     36  C   UNL     1      -9.017  -4.875   7.098  1.00  0.00     0.010 A 
ATOM     37  C   UNL     1      -8.778  -4.740   8.469  1.00  0.00    -0.014 A 
BRANCH  37  38
ATOM     38  C   UNL     1      -7.674  -5.513   9.023  1.00  0.00     0.031 A 
ATOM     39  C   UNL     1      -7.876  -6.911   9.444  1.00  0.00     0.074 A 
ATOM     40  C   UNL     1      -6.457  -4.940   9.163  1.00  0.00     0.049 A 
ATOM     41  N   UNL     1      -7.250  -7.477  10.422  1.00  0.00    -0.248 NA
ATOM     42  C   UNL     1      -8.866  -7.770   8.810  1.00  0.00     0.031 C 
ATOM     43  C   UNL     1      -5.209  -5.599   9.536  1.00  0.00     0.029 A 
ATOM     44  N   UNL     1      -6.154  -3.578   9.232  1.00  0.00    -0.354 N 
ATOM     45  C   UNL     1      -7.511  -8.827  10.339  1.00  0.00     0.074 A 
ATOM     46  C   UNL     1      -8.605  -8.939   9.401  1.00  0.00     0.031 C 
ATOM     47  C   UNL     1      -4.395  -4.685  10.090  1.00  0.00     0.029 A 
ATOM     48  C   UNL     1      -5.152  -3.448  10.204  1.00  0.00     0.049 A 
ATOM     49  H   UNL     1      -6.562  -2.855   8.703  1.00  0.00     0.167 HD
ATOM     50  C   UNL     1      -6.666  -9.720  10.931  1.00  0.00     0.031 A 
ATOM     51  C   UNL     1      -5.294  -2.708  11.341  1.00  0.00     0.031 A 
ATOM     52  C   UNL     1      -5.607  -9.055  11.689  1.00  0.00     0.049 A 
ATOM     53  C   UNL     1      -5.079  -3.515  12.604  1.00  0.00     0.074 A 
ATOM     54  C   UNL     1      -4.275  -8.798  11.407  1.00  0.00     0.029 A 
ATOM     55  N   UNL     1      -5.928  -8.290  12.804  1.00  0.00    -0.354 N 
ATOM     56  N   UNL     1      -5.107  -4.817  12.646  1.00  0.00    -0.248 NA
ATOM     57  C   UNL     1      -4.897  -2.919  13.926  1.00  0.00     0.031 C 
ATOM     58  C   UNL     1      -3.815  -7.812  12.316  1.00  0.00     0.029 A 
ATOM     59  C   UNL     1      -4.860  -7.490  13.163  1.00  0.00     0.049 A 
ATOM     60  H   UNL     1      -6.794  -8.314  13.272  1.00  0.00     0.167 HD
ATOM     61  C   UNL     1      -4.958  -5.236  13.941  1.00  0.00     0.074 A 
ATOM     62  C   UNL     1      -4.824  -4.011  14.707  1.00  0.00     0.031 C 
ATOM     63  C   UNL     1      -4.972  -6.558  14.275  1.00  0.00     0.031 A 
BRANCH  50  64
ATOM     64  C   UNL     1      -6.605 -11.181  10.533  1.00  0.00    -0.014 A 
ATOM     65  C   UNL     1      -5.389 -11.881  10.644  1.00  0.00     0.009 A 
ATOM     66  C   UNL     1      -7.673 -11.903   9.976  1.00  0.00     0.009 A 
ATOM     67  C   UNL     1      -5.217 -13.170  10.120  1.00  0.00     0.001 A 
ATOM     68  C   UNL     1      -7.502 -13.176   9.412  1.00  0.00     0.001 A 
ATOM     69  C   UNL     1      -6.266 -13.803   9.469  1.00  0.00     0.000 A 
ENDBRANCH  50  64
BRANCH  51  70
ATOM     70  C   UNL     1      -6.260  -1.583  11.241  1.00  0.00    -0.014 A 
ATOM     71  C   UNL     1      -5.945  -0.494  10.406  1.00  0.00     0.009 A 
ATOM     72  C   UNL     1      -7.586  -1.737  11.671  1.00  0.00     0.009 A 
ATOM     73  C   UNL     1      -6.946   0.363   9.939  1.00  0.00     0.001 A 
ATOM     74  C   UNL     1      -8.584  -0.872  11.206  1.00  0.00     0.001 A 
ATOM     75  C   UNL     1      -8.269   0.156  10.318  1.00  0.00     0.000 A 
ENDBRANCH  51  70
BRANCH  63  76
ATOM     76  C   UNL     1      -5.011  -7.109  15.675  1.00  0.00    -0.014 A 
ATOM     77  C   UNL     1      -5.583  -6.439  16.765  1.00  0.00     0.009 A 
ATOM     78  C   UNL     1      -4.575  -8.434  15.897  1.00  0.00     0.009 A 
ATOM     79  C   UNL     1      -5.671  -7.046  18.025  1.00  0.00     0.001 A 
ATOM     80  C   UNL     1      -4.697  -9.056  17.141  1.00  0.00     0.001 A 
ATOM     81  C   UNL     1      -5.237  -8.356  18.211  1.00  0.00     0.000 A 
ENDBRANCH  63  76
ENDBRANCH  37  38
ENDBRANCH  29  32
ENDBRANCH  27  28
ENDBRANCH  26  27
ENDBRANCH  25  26
ENDBRANCH   1  25
TORSDOF 15
