REMARK SMILES Cc1nn(CC(=O)NCCCCCCNC(=O)c2ccc(-c3c4nc(c(-c5ccccc5)c5ccc([nH]5)c(-c5ccccc5)c5nc(c(-c6ccccc6)c6ccc3[nH]6)C=C5)C=C4)cc2)c(C)c1NS(=O)(=O)c1cccc2cccnc12
REMARK SMILES IDX 10 1 9 2 8 3 6 4 7 5 5 7 4 8 1 9 2 10 3 11 68 12 66 13 67 14
REMARK SMILES IDX 69 15 70 17 71 18 72 19 73 20 74 21 82 22 75 23 77 24 81 25
REMARK SMILES IDX 76 26 78 27 80 28 79 29 11 30 12 31 13 32 14 33 15 34 16 35
REMARK SMILES IDX 17 37 18 38 19 39 65 40 20 41 64 42 21 43 22 44 23 45 58 46
REMARK SMILES IDX 24 47 63 48 57 49 59 50 25 51 62 52 56 53 55 54 26 56 48 57
REMARK SMILES IDX 33 58 47 59 34 60 37 61 46 62 60 63 35 64 36 65 45 67 61 68
REMARK SMILES IDX 38 69 27 70 28 71 32 72 29 73 31 74 30 75 49 76 50 77 54 78
REMARK SMILES IDX 51 79 53 80 52 81 39 82 40 83 44 84 41 85 43 86 42 87
REMARK H PARENT 8 6 69 16 15 36 59 55 37 66
REMARK Flexibility Score: inf
ROOT
ATOM      1  C   UNL     1      -3.878   2.604   2.174  1.00  0.00     0.021 C 
ENDROOT
BRANCH   1   2
ATOM      2  C   UNL     1      -3.536   2.884   3.639  1.00  0.00     0.116 C 
BRANCH   2   3
ATOM      3  N   UNL     1      -3.468   1.651   4.378  1.00  0.00    -0.354 N 
ATOM      4  C   UNL     1      -2.374   0.842   4.516  1.00  0.00     0.241 C 
ATOM      5  O   UNL     1      -2.529  -0.230   5.106  1.00  0.00    -0.273 OA
ATOM      6  H   UNL     1      -4.293   1.359   4.829  1.00  0.00     0.163 HD
BRANCH   4   7
ATOM      7  C   UNL     1      -1.005   1.350   4.126  1.00  0.00     0.244 C 
BRANCH   7   8
ATOM      8  N   UNL     1      -0.747   1.552   2.698  1.00  0.00    -0.258 N 
ATOM      9  C   UNL     1       1.302  -0.077   0.331  1.00  0.00     0.071 C 
ATOM     10  C   UNL     1       0.655   0.858   1.284  1.00  0.00     0.084 A 
ATOM     11  N   UNL     1      -0.437   0.466   1.957  1.00  0.00    -0.175 NA
ATOM     12  C   UNL     1       0.985   2.219   1.565  1.00  0.00     0.093 A 
ATOM     13  C   UNL     1      -0.175   2.691   2.135  1.00  0.00     0.060 A 
ATOM     14  C   UNL     1      -0.717   4.059   2.218  1.00  0.00     0.069 C 
BRANCH  12  15
ATOM     15  N   UNL     1       2.172   2.865   1.223  1.00  0.00    -0.276 N 
ATOM     16  H   UNL     1       2.828   2.295   0.760  1.00  0.00     0.180 HD
BRANCH  15  17
ATOM     17  S   UNL     1       2.675   4.447   1.464  1.00  0.00     0.264 S 
ATOM     18  O   UNL     1       4.119   4.399   1.579  1.00  0.00    -0.201 OA
ATOM     19  O   UNL     1       2.080   5.196   0.369  1.00  0.00    -0.201 OA
BRANCH  17  20
ATOM     20  C   UNL     1       2.065   5.193   2.962  1.00  0.00     0.114 A 
ATOM     21  C   UNL     1       1.641   6.538   2.825  1.00  0.00     0.024 A 
ATOM     22  C   UNL     1       1.869   4.489   4.153  1.00  0.00     0.091 A 
ATOM     23  C   UNL     1       0.918   7.167   3.828  1.00  0.00     0.002 A 
ATOM     24  C   UNL     1       1.073   5.141   5.142  1.00  0.00     0.002 A 
ATOM     25  N   UNL     1       2.342   3.243   4.387  1.00  0.00    -0.255 NA
ATOM     26  C   UNL     1       0.600   6.452   4.970  1.00  0.00     0.010 A 
ATOM     27  C   UNL     1       0.715   4.447   6.303  1.00  0.00     0.012 A 
ATOM     28  C   UNL     1       2.046   2.638   5.565  1.00  0.00     0.112 A 
ATOM     29  C   UNL     1       1.216   3.177   6.528  1.00  0.00     0.021 A 
ENDBRANCH  17  20
ENDBRANCH  15  17
ENDBRANCH  12  15
ENDBRANCH   7   8
ENDBRANCH   4   7
ENDBRANCH   2   3
ENDBRANCH   1   2
BRANCH   1  30
ATOM     30  C   UNL     1      -5.373   2.632   1.892  1.00  0.00     0.002 C 
BRANCH  30  31
ATOM     31  C   UNL     1      -6.050   3.970   2.222  1.00  0.00     0.002 C 
BRANCH  31  32
ATOM     32  C   UNL     1      -5.440   5.228   1.579  1.00  0.00     0.021 C 
BRANCH  32  33
ATOM     33  C   UNL     1      -5.638   5.292   0.073  1.00  0.00     0.116 C 
BRANCH  33  34
ATOM     34  N   UNL     1      -7.056   5.309  -0.279  1.00  0.00    -0.352 N 
ATOM     35  C   UNL     1      -7.651   5.186  -1.519  1.00  0.00     0.251 C 
ATOM     36  H   UNL     1      -7.677   5.423   0.476  1.00  0.00     0.163 HD
ATOM     37  O   UNL     1      -8.804   5.519  -1.705  1.00  0.00    -0.269 OA
BRANCH  35  38
ATOM     38  C   UNL     1      -6.844   4.632  -2.616  1.00  0.00     0.039 A 
ATOM     39  C   UNL     1      -6.845   5.222  -3.882  1.00  0.00     0.014 A 
ATOM     40  C   UNL     1      -6.044   3.530  -2.333  1.00  0.00     0.014 A 
ATOM     41  C   UNL     1      -5.966   4.735  -4.844  1.00  0.00     0.010 A 
ATOM     42  C   UNL     1      -5.070   3.161  -3.220  1.00  0.00     0.010 A 
ATOM     43  C   UNL     1      -5.070   3.713  -4.496  1.00  0.00    -0.014 A 
BRANCH  43  44
ATOM     44  C   UNL     1      -4.057   3.253  -5.435  1.00  0.00     0.031 A 
ATOM     45  C   UNL     1      -3.112   4.302  -5.902  1.00  0.00     0.074 A 
ATOM     46  C   UNL     1      -3.840   1.941  -5.665  1.00  0.00     0.049 A 
ATOM     47  N   UNL     1      -2.990   4.787  -7.093  1.00  0.00    -0.248 NA
ATOM     48  C   UNL     1      -2.280   4.979  -4.894  1.00  0.00     0.031 C 
ATOM     49  C   UNL     1      -4.455   0.789  -4.989  1.00  0.00     0.029 A 
ATOM     50  N   UNL     1      -2.914   1.355  -6.468  1.00  0.00    -0.354 N 
ATOM     51  C   UNL     1      -1.932   5.692  -7.032  1.00  0.00     0.074 A 
ATOM     52  C   UNL     1      -1.657   5.899  -5.633  1.00  0.00     0.031 C 
ATOM     53  C   UNL     1      -3.718  -0.319  -5.221  1.00  0.00     0.029 A 
ATOM     54  C   UNL     1      -2.714   0.005  -6.214  1.00  0.00     0.049 A 
ATOM     55  H   UNL     1      -2.426   1.846  -7.169  1.00  0.00     0.167 HD
ATOM     56  C   UNL     1      -1.196   5.996  -8.138  1.00  0.00     0.031 A 
ATOM     57  C   UNL     1      -1.772  -0.789  -6.771  1.00  0.00     0.031 A 
ATOM     58  C   UNL     1      -1.830   5.509  -9.335  1.00  0.00     0.049 A 
ATOM     59  C   UNL     1      -1.326  -0.128  -8.015  1.00  0.00     0.074 A 
ATOM     60  C   UNL     1      -2.967   5.806 -10.053  1.00  0.00     0.029 A 
ATOM     61  N   UNL     1      -1.423   4.257  -9.726  1.00  0.00    -0.354 N 
ATOM     62  N   UNL     1      -2.101   0.067  -9.043  1.00  0.00    -0.248 NA
ATOM     63  C   UNL     1      -0.111   0.671  -7.991  1.00  0.00     0.031 C 
ATOM     64  C   UNL     1      -3.406   4.560 -10.594  1.00  0.00     0.029 A 
ATOM     65  C   UNL     1      -2.491   3.567 -10.234  1.00  0.00     0.049 A 
ATOM     66  H   UNL     1      -0.505   3.909  -9.653  1.00  0.00     0.167 HD
ATOM     67  C   UNL     1      -1.708   1.294  -9.551  1.00  0.00     0.074 A 
ATOM     68  C   UNL     1      -0.387   1.530  -8.976  1.00  0.00     0.031 C 
ATOM     69  C   UNL     1      -2.611   2.124 -10.152  1.00  0.00     0.031 A 
BRANCH  56  70
ATOM     70  C   UNL     1       0.290   6.290  -8.117  1.00  0.00    -0.014 A 
ATOM     71  C   UNL     1       0.939   6.559  -9.339  1.00  0.00     0.009 A 
ATOM     72  C   UNL     1       1.123   6.028  -7.014  1.00  0.00     0.009 A 
ATOM     73  C   UNL     1       2.333   6.495  -9.461  1.00  0.00     0.001 A 
ATOM     74  C   UNL     1       2.517   6.001  -7.123  1.00  0.00     0.001 A 
ATOM     75  C   UNL     1       3.122   6.207  -8.353  1.00  0.00     0.000 A 
ENDBRANCH  56  70
BRANCH  57  76
ATOM     76  C   UNL     1      -1.044  -1.922  -6.167  1.00  0.00    -0.014 A 
ATOM     77  C   UNL     1      -0.401  -2.873  -6.973  1.00  0.00     0.009 A 
ATOM     78  C   UNL     1      -0.737  -1.906  -4.793  1.00  0.00     0.009 A 
ATOM     79  C   UNL     1       0.555  -3.743  -6.432  1.00  0.00     0.001 A 
ATOM     80  C   UNL     1       0.217  -2.775  -4.254  1.00  0.00     0.001 A 
ATOM     81  C   UNL     1       0.876  -3.681  -5.077  1.00  0.00     0.000 A 
ENDBRANCH  57  76
BRANCH  69  82
ATOM     82  C   UNL     1      -3.931   1.530 -10.574  1.00  0.00    -0.014 A 
ATOM     83  C   UNL     1      -4.880   1.017  -9.673  1.00  0.00     0.009 A 
ATOM     84  C   UNL     1      -4.276   1.603 -11.932  1.00  0.00     0.009 A 
ATOM     85  C   UNL     1      -6.127   0.569 -10.125  1.00  0.00     0.001 A 
ATOM     86  C   UNL     1      -5.527   1.177 -12.380  1.00  0.00     0.001 A 
ATOM     87  C   UNL     1      -6.451   0.655 -11.478  1.00  0.00     0.000 A 
ENDBRANCH  69  82
ENDBRANCH  43  44
ENDBRANCH  35  38
ENDBRANCH  33  34
ENDBRANCH  32  33
ENDBRANCH  31  32
ENDBRANCH  30  31
ENDBRANCH   1  30
TORSDOF 17
