REMARK SMILES Cc1cscc1-c1noc(SCC(=O)NCCCCCCNC(=O)c2ccc(-c3c4nc(c(-c5ccccc5)c5ccc([nH]5)c(-c5ccccc5)c5nc(c(-c6ccccc6)c6ccc3[nH]6)C=C5)C=C4)cc2)n1
REMARK SMILES IDX 18 1 17 2 16 3 15 4 13 5 14 6 12 8 11 9 10 10 7 11 8 12
REMARK SMILES IDX 73 13 9 14 6 15 1 16 2 17 3 18 4 19 5 20 19 21 20 22 21 23
REMARK SMILES IDX 22 24 23 25 24 27 25 28 26 29 72 30 27 31 71 32 28 33 29 34
REMARK SMILES IDX 30 35 65 36 31 37 70 38 64 39 66 40 32 41 69 42 63 43 62 44
REMARK SMILES IDX 33 46 55 47 40 48 54 49 41 50 44 51 53 52 67 53 42 54 43 55
REMARK SMILES IDX 52 57 68 58 45 59 34 60 35 61 39 62 36 63 38 64 37 65 56 66
REMARK SMILES IDX 57 67 61 68 58 69 60 70 59 71 46 72 47 73 51 74 48 75 50 76
REMARK SMILES IDX 49 77
REMARK H PARENT 15 7 22 26 66 45 44 56
REMARK Flexibility Score: inf
ROOT
ATOM      1  C   UNL     1       7.582   2.472   0.511  1.00  0.00     0.002 C 
ENDROOT
BRANCH   1   2
ATOM      2  C   UNL     1       6.843   3.703  -0.031  1.00  0.00     0.021 C 
BRANCH   2   3
ATOM      3  C   UNL     1       6.798   3.781  -1.559  1.00  0.00     0.116 C 
BRANCH   3   4
ATOM      4  N   UNL     1       6.012   2.694  -2.107  1.00  0.00    -0.355 N 
ATOM      5  C   UNL     1       4.775   2.697  -2.679  1.00  0.00     0.230 C 
ATOM      6  O   UNL     1       4.318   1.608  -3.037  1.00  0.00    -0.274 OA
ATOM      7  H   UNL     1       6.441   1.809  -2.057  1.00  0.00     0.163 HD
BRANCH   5   8
ATOM      8  C   UNL     1       4.053   3.993  -2.994  1.00  0.00     0.179 C 
BRANCH   8   9
ATOM      9  S   UNL     1       3.657   5.018  -1.561  1.00  0.00    -0.055 SA
BRANCH   9  10
ATOM     10  C   UNL     1       2.549   4.032  -0.667  1.00  0.00     0.286 A 
ATOM     11  C   UNL     1       1.287   2.510   0.003  1.00  0.00     0.204 A 
ATOM     12  N   UNL     1       1.062   3.489   0.887  1.00  0.00    -0.056 NA
ATOM     13  N   UNL     1       2.207   2.803  -0.969  1.00  0.00    -0.181 NA
ATOM     14  O   UNL     1       1.919   4.500   0.455  1.00  0.00    -0.327 OA
BRANCH  11  15
ATOM     15  C   UNL     1       0.559   1.243  -0.001  1.00  0.00     0.036 A 
ATOM     16  C   UNL     1       2.660  -0.298  -0.140  1.00  0.00     0.046 C 
ATOM     17  C   UNL     1       1.188  -0.048  -0.080  1.00  0.00    -0.029 A 
ATOM     18  C   UNL     1       0.234  -1.051  -0.067  1.00  0.00     0.069 A 
ATOM     19  S   UNL     1      -1.365  -0.457   0.045  1.00  0.00    -0.151 S 
ATOM     20  C   UNL     1      -0.815   1.158   0.088  1.00  0.00     0.077 A 
ENDBRANCH  11  15
ENDBRANCH   9  10
ENDBRANCH   8   9
ENDBRANCH   5   8
ENDBRANCH   3   4
ENDBRANCH   2   3
ENDBRANCH   1   2
BRANCH   1  21
ATOM     21  C   UNL     1       9.043   2.339   0.068  1.00  0.00     0.002 C 
BRANCH  21  22
ATOM     22  C   UNL     1       9.928   3.549   0.375  1.00  0.00     0.021 C 
BRANCH  22  23
ATOM     23  C   UNL     1      10.016   3.918   1.852  1.00  0.00     0.116 C 
BRANCH  23  24
ATOM     24  N   UNL     1      10.659   2.881   2.642  1.00  0.00    -0.352 N 
ATOM     25  C   UNL     1      11.676   2.992   3.556  1.00  0.00     0.251 C 
ATOM     26  H   UNL     1      10.316   1.969   2.501  1.00  0.00     0.163 HD
ATOM     27  O   UNL     1      12.213   1.981   4.006  1.00  0.00    -0.269 OA
BRANCH  25  28
ATOM     28  C   UNL     1      12.144   4.325   3.991  1.00  0.00     0.039 A 
ATOM     29  C   UNL     1      13.518   4.555   4.101  1.00  0.00     0.014 A 
ATOM     30  C   UNL     1      11.236   5.337   4.316  1.00  0.00     0.014 A 
ATOM     31  C   UNL     1      13.983   5.812   4.494  1.00  0.00     0.010 A 
ATOM     32  C   UNL     1      11.701   6.609   4.640  1.00  0.00     0.010 A 
ATOM     33  C   UNL     1      13.079   6.856   4.746  1.00  0.00    -0.014 A 
BRANCH  33  34
ATOM     34  C   UNL     1      13.553   8.201   5.154  1.00  0.00     0.031 A 
ATOM     35  C   UNL     1      13.224   8.733   6.523  1.00  0.00     0.074 A 
ATOM     36  C   UNL     1      14.233   8.968   4.280  1.00  0.00     0.049 A 
ATOM     37  N   UNL     1      13.503   9.901   7.045  1.00  0.00    -0.248 NA
ATOM     38  C   UNL     1      12.458   7.845   7.412  1.00  0.00     0.031 C 
ATOM     39  C   UNL     1      14.585   8.587   2.911  1.00  0.00     0.029 A 
ATOM     40  N   UNL     1      14.744  10.234   4.415  1.00  0.00    -0.354 N 
ATOM     41  C   UNL     1      12.929   9.895   8.310  1.00  0.00     0.074 A 
ATOM     42  C   UNL     1      12.246   8.629   8.458  1.00  0.00     0.031 C 
ATOM     43  C   UNL     1      15.278   9.587   2.342  1.00  0.00     0.029 A 
ATOM     44  C   UNL     1      15.388  10.691   3.291  1.00  0.00     0.049 A 
ATOM     45  H   UNL     1      14.658  10.765   5.240  1.00  0.00     0.167 HD
ATOM     46  C   UNL     1      12.980  10.848   9.272  1.00  0.00     0.031 A 
ATOM     47  C   UNL     1      16.000  11.866   3.052  1.00  0.00     0.031 A 
ATOM     48  C   UNL     1      13.673  12.101   9.134  1.00  0.00     0.049 A 
ATOM     49  C   UNL     1      16.050  12.905   4.137  1.00  0.00     0.074 A 
ATOM     50  C   UNL     1      13.826  13.109  10.069  1.00  0.00     0.029 A 
ATOM     51  N   UNL     1      14.331  12.514   7.987  1.00  0.00    -0.354 N 
ATOM     52  N   UNL     1      15.553  12.860   5.349  1.00  0.00    -0.248 NA
ATOM     53  C   UNL     1      16.764  14.151   3.824  1.00  0.00     0.031 C 
ATOM     54  C   UNL     1      14.543  14.152   9.473  1.00  0.00     0.029 A 
ATOM     55  C   UNL     1      14.880  13.770   8.185  1.00  0.00     0.049 A 
ATOM     56  H   UNL     1      14.398  11.993   7.154  1.00  0.00     0.167 HD
ATOM     57  C   UNL     1      15.922  14.054   5.954  1.00  0.00     0.074 A 
ATOM     58  C   UNL     1      16.694  14.797   4.979  1.00  0.00     0.031 C 
ATOM     59  C   UNL     1      15.649  14.494   7.207  1.00  0.00     0.031 A 
BRANCH  46  60
ATOM     60  C   UNL     1      12.256  10.566  10.559  1.00  0.00    -0.014 A 
ATOM     61  C   UNL     1      12.720   9.591  11.457  1.00  0.00     0.009 A 
ATOM     62  C   UNL     1      11.104  11.296  10.887  1.00  0.00     0.009 A 
ATOM     63  C   UNL     1      12.021   9.325  12.636  1.00  0.00     0.001 A 
ATOM     64  C   UNL     1      10.424  11.049  12.081  1.00  0.00     0.001 A 
ATOM     65  C   UNL     1      10.876  10.056  12.949  1.00  0.00     0.000 A 
ENDBRANCH  46  60
BRANCH  47  66
ATOM     66  C   UNL     1      16.643  12.114   1.736  1.00  0.00    -0.014 A 
ATOM     67  C   UNL     1      18.042  12.139   1.624  1.00  0.00     0.009 A 
ATOM     68  C   UNL     1      15.866  12.331   0.589  1.00  0.00     0.009 A 
ATOM     69  C   UNL     1      18.649  12.405   0.395  1.00  0.00     0.001 A 
ATOM     70  C   UNL     1      16.476  12.569  -0.645  1.00  0.00     0.001 A 
ATOM     71  C   UNL     1      17.866  12.614  -0.739  1.00  0.00     0.000 A 
ENDBRANCH  47  66
BRANCH  59  72
ATOM     72  C   UNL     1      16.230  15.820   7.609  1.00  0.00    -0.014 A 
ATOM     73  C   UNL     1      15.727  17.026   7.097  1.00  0.00     0.009 A 
ATOM     74  C   UNL     1      17.278  15.861   8.542  1.00  0.00     0.009 A 
ATOM     75  C   UNL     1      16.288  18.245   7.483  1.00  0.00     0.001 A 
ATOM     76  C   UNL     1      17.818  17.082   8.948  1.00  0.00     0.001 A 
ATOM     77  C   UNL     1      17.329  18.272   8.411  1.00  0.00     0.000 A 
ENDBRANCH  59  72
ENDBRANCH  33  34
ENDBRANCH  25  28
ENDBRANCH  23  24
ENDBRANCH  22  23
ENDBRANCH  21  22
ENDBRANCH   1  21
TORSDOF 16
