REMARK SMILES Cc1c(CC(=O)N[C@@H](CCO)C(=O)NCCCCCCNC(=O)c2ccc(-c3c4nc(c(-c5ccccc5)c5ccc([nH]5)c(-c5ccccc5)c5nc(c(-c6ccccc6)c6ccc3[nH]6)C=C5)C=C4)cc2)cc(-c2ccc(S(C)(=O)=O)cc2)n1-c1ccc(F)cc1
REMARK SMILES IDX 16 1 15 2 14 3 12 4 13 5 8 7 7 8 5 9 6 10 4 12 3 13 1 14
REMARK SMILES IDX 2 15 84 16 72 17 73 18 85 19 86 20 91 21 87 22 90 23 88 24
REMARK SMILES IDX 89 25 74 26 75 27 83 28 76 29 82 30 77 31 78 32 79 33 80 34
REMARK SMILES IDX 81 35 9 36 10 37 11 38 17 40 18 41 19 42 20 43 21 44 22 45
REMARK SMILES IDX 23 47 24 48 25 49 71 50 26 51 70 52 27 53 28 54 29 55 64 56
REMARK SMILES IDX 30 57 69 58 63 59 65 60 31 61 68 62 62 63 61 64 32 66 54 67
REMARK SMILES IDX 39 68 53 69 40 70 43 71 52 72 66 73 41 74 42 75 51 77 67 78
REMARK SMILES IDX 44 79 33 80 34 81 38 82 35 83 37 84 36 85 55 86 56 87 60 88
REMARK SMILES IDX 57 89 59 90 58 91 45 92 46 93 50 94 47 95 49 96 48 97
REMARK H PARENT 14 6 7 11 11 39 21 46 65 65 43 76
REMARK Flexibility Score: inf
ROOT
ATOM      1  C   UNL     1      -6.213  -0.463  -2.382  1.00  0.00     0.021 C 
ENDROOT
BRANCH   1   2
ATOM      2  C   UNL     1      -5.341   0.769  -2.534  1.00  0.00     0.116 C 
BRANCH   2   3
ATOM      3  N   UNL     1      -5.577   1.741  -1.490  1.00  0.00    -0.354 N 
ATOM      4  C   UNL     1      -4.727   2.365  -0.632  1.00  0.00     0.242 C 
ATOM      5  O   UNL     1      -5.201   3.283   0.044  1.00  0.00    -0.273 OA
ATOM      6  H   UNL     1      -6.521   1.997  -1.382  1.00  0.00     0.163 HD
BRANCH   4   7
ATOM      7  C   UNL     1      -3.214   2.079  -0.593  1.00  0.00     0.173 C 
BRANCH   7   8
ATOM      8  N   UNL     1      -2.884   0.658  -0.442  1.00  0.00    -0.344 N 
ATOM      9  C   UNL     1      -2.247   0.041   0.599  1.00  0.00     0.225 C 
ATOM     10  O   UNL     1      -2.226  -1.192   0.605  1.00  0.00    -0.275 OA
ATOM     11  H   UNL     1      -3.156   0.073  -1.186  1.00  0.00     0.164 HD
BRANCH   9  12
ATOM     12  C   UNL     1      -1.592   0.855   1.708  1.00  0.00     0.137 C 
BRANCH  12  13
ATOM     13  C   UNL     1      -0.507   1.750   1.185  1.00  0.00    -0.017 A 
ATOM     14  C   UNL     1       1.029   0.009   0.032  1.00  0.00     0.065 C 
ATOM     15  C   UNL     1       0.587   1.387   0.410  1.00  0.00     0.024 A 
ATOM     16  N   UNL     1       1.272   2.543   0.053  1.00  0.00    -0.314 N 
ATOM     17  C   UNL     1      -0.428   3.153   1.373  1.00  0.00     0.033 A 
ATOM     18  C   UNL     1       0.636   3.640   0.635  1.00  0.00     0.053 A 
BRANCH  16  19
ATOM     19  C   UNL     1       2.424   2.602  -0.777  1.00  0.00     0.046 A 
ATOM     20  C   UNL     1       3.545   3.326  -0.349  1.00  0.00     0.029 A 
ATOM     21  C   UNL     1       2.414   1.977  -2.032  1.00  0.00     0.029 A 
ATOM     22  C   UNL     1       4.660   3.421  -1.179  1.00  0.00     0.041 A 
ATOM     23  C   UNL     1       3.529   2.093  -2.862  1.00  0.00     0.041 A 
ATOM     24  C   UNL     1       4.639   2.810  -2.428  1.00  0.00     0.123 A 
ATOM     25  F   UNL     1       5.706   2.920  -3.230  1.00  0.00    -0.207 F 
ENDBRANCH  16  19
BRANCH  18  26
ATOM     26  C   UNL     1       0.979   5.049   0.403  1.00  0.00    -0.001 A 
ATOM     27  C   UNL     1       1.060   5.574  -0.897  1.00  0.00     0.011 A 
ATOM     28  C   UNL     1       1.214   5.895   1.495  1.00  0.00     0.011 A 
ATOM     29  C   UNL     1       1.422   6.908  -1.106  1.00  0.00     0.021 A 
ATOM     30  C   UNL     1       1.575   7.229   1.295  1.00  0.00     0.021 A 
ATOM     31  C   UNL     1       1.696   7.723  -0.004  1.00  0.00     0.067 A 
BRANCH  31  32
ATOM     32  S   UNL     1       2.158   9.417  -0.280  1.00  0.00     0.175 S 
ATOM     33  C   UNL     1       3.741   9.309  -1.073  1.00  0.00     0.163 C 
ATOM     34  O   UNL     1       1.213   9.975  -1.207  1.00  0.00    -0.224 OA
ATOM     35  O   UNL     1       2.378  10.026   1.034  1.00  0.00    -0.224 OA
ENDBRANCH  31  32
ENDBRANCH  18  26
ENDBRANCH  12  13
ENDBRANCH   9  12
ENDBRANCH   7   8
BRANCH   7  36
ATOM     36  C   UNL     1      -2.379   2.813  -1.663  1.00  0.00     0.063 C 
BRANCH  36  37
ATOM     37  C   UNL     1      -2.721   2.634  -3.136  1.00  0.00     0.158 C 
BRANCH  37  38
ATOM     38  O   UNL     1      -3.856   3.380  -3.545  1.00  0.00    -0.396 OA
ATOM     39  H   UNL     1      -4.636   3.079  -3.051  1.00  0.00     0.210 HD
ENDBRANCH  37  38
ENDBRANCH  36  37
ENDBRANCH   7  36
ENDBRANCH   4   7
ENDBRANCH   2   3
ENDBRANCH   1   2
BRANCH   1  40
ATOM     40  C   UNL     1      -7.650  -0.288  -2.879  1.00  0.00     0.002 C 
BRANCH  40  41
ATOM     41  C   UNL     1      -7.830   0.147  -4.341  1.00  0.00     0.002 C 
BRANCH  41  42
ATOM     42  C   UNL     1      -6.962  -0.532  -5.419  1.00  0.00     0.021 C 
BRANCH  42  43
ATOM     43  C   UNL     1      -6.663  -2.037  -5.289  1.00  0.00     0.116 C 
BRANCH  43  44
ATOM     44  N   UNL     1      -7.504  -2.914  -6.065  1.00  0.00    -0.352 N 
ATOM     45  C   UNL     1      -7.264  -4.244  -6.374  1.00  0.00     0.251 C 
ATOM     46  H   UNL     1      -8.339  -2.526  -6.414  1.00  0.00     0.163 HD
ATOM     47  O   UNL     1      -8.154  -4.880  -6.935  1.00  0.00    -0.269 OA
BRANCH  45  48
ATOM     48  C   UNL     1      -5.919  -4.893  -6.138  1.00  0.00     0.039 A 
ATOM     49  C   UNL     1      -4.990  -4.833  -7.162  1.00  0.00     0.014 A 
ATOM     50  C   UNL     1      -5.606  -5.750  -5.065  1.00  0.00     0.014 A 
ATOM     51  C   UNL     1      -3.775  -5.574  -7.084  1.00  0.00     0.010 A 
ATOM     52  C   UNL     1      -4.395  -6.573  -5.034  1.00  0.00     0.010 A 
ATOM     53  C   UNL     1      -3.432  -6.535  -6.061  1.00  0.00    -0.014 A 
BRANCH  53  54
ATOM     54  C   UNL     1      -2.375  -7.686  -6.497  1.00  0.00     0.031 A 
ATOM     55  C   UNL     1      -2.835  -8.030  -7.871  1.00  0.00     0.074 A 
ATOM     56  C   UNL     1      -1.353  -8.530  -6.060  1.00  0.00     0.049 A 
ATOM     57  N   UNL     1      -4.054  -8.454  -8.027  1.00  0.00    -0.248 NA
ATOM     58  C   UNL     1      -2.184  -7.546  -9.088  1.00  0.00     0.031 C 
ATOM     59  C   UNL     1      -0.798  -8.679  -4.705  1.00  0.00     0.029 A 
ATOM     60  N   UNL     1      -0.536  -9.485  -6.755  1.00  0.00    -0.354 N 
ATOM     61  C   UNL     1      -4.275  -8.517  -9.378  1.00  0.00     0.074 A 
ATOM     62  C   UNL     1      -3.176  -7.757  -9.962  1.00  0.00     0.031 C 
ATOM     63  C   UNL     1       0.300  -9.494  -4.694  1.00  0.00     0.029 A 
ATOM     64  C   UNL     1       0.576 -10.036  -6.024  1.00  0.00     0.049 A 
ATOM     65  H   UNL     1      -0.726  -9.749  -7.685  1.00  0.00     0.167 HD
ATOM     66  C   UNL     1      -4.844  -9.670  -9.831  1.00  0.00     0.031 A 
ATOM     67  C   UNL     1       1.595 -10.903  -6.413  1.00  0.00     0.031 A 
ATOM     68  C   UNL     1      -3.848 -10.558 -10.369  1.00  0.00     0.049 A 
ATOM     69  C   UNL     1       1.095 -11.665  -7.564  1.00  0.00     0.074 A 
ATOM     70  C   UNL     1      -2.788 -10.360 -11.232  1.00  0.00     0.029 A 
ATOM     71  N   UNL     1      -3.559 -11.690  -9.634  1.00  0.00    -0.354 N 
ATOM     72  N   UNL     1       0.309 -12.684  -7.396  1.00  0.00    -0.248 NA
ATOM     73  C   UNL     1       1.548 -11.444  -8.932  1.00  0.00     0.031 C 
ATOM     74  C   UNL     1      -1.707 -11.033 -10.621  1.00  0.00     0.029 A 
ATOM     75  C   UNL     1      -2.199 -11.922  -9.673  1.00  0.00     0.049 A 
ATOM     76  H   UNL     1      -4.218 -12.244  -9.158  1.00  0.00     0.167 HD
ATOM     77  C   UNL     1      -0.255 -12.826  -8.624  1.00  0.00     0.074 A 
ATOM     78  C   UNL     1       0.723 -12.291  -9.553  1.00  0.00     0.031 C 
ATOM     79  C   UNL     1      -1.611 -12.781  -8.673  1.00  0.00     0.031 A 
BRANCH  66  80
ATOM     80  C   UNL     1      -6.031 -10.130  -9.021  1.00  0.00    -0.014 A 
ATOM     81  C   UNL     1      -7.303 -10.096  -9.599  1.00  0.00     0.009 A 
ATOM     82  C   UNL     1      -5.931 -10.454  -7.651  1.00  0.00     0.009 A 
ATOM     83  C   UNL     1      -8.442 -10.308  -8.812  1.00  0.00     0.001 A 
ATOM     84  C   UNL     1      -7.065 -10.620  -6.859  1.00  0.00     0.001 A 
ATOM     85  C   UNL     1      -8.324 -10.540  -7.440  1.00  0.00     0.000 A 
ENDBRANCH  66  80
BRANCH  67  86
ATOM     86  C   UNL     1       2.951 -11.527  -5.997  1.00  0.00    -0.014 A 
ATOM     87  C   UNL     1       3.247 -12.885  -6.365  1.00  0.00     0.009 A 
ATOM     88  C   UNL     1       4.075 -10.757  -5.676  1.00  0.00     0.009 A 
ATOM     89  C   UNL     1       4.551 -13.392  -6.530  1.00  0.00     0.001 A 
ATOM     90  C   UNL     1       5.394 -11.281  -5.804  1.00  0.00     0.001 A 
ATOM     91  C   UNL     1       5.633 -12.577  -6.265  1.00  0.00     0.000 A 
ENDBRANCH  67  86
BRANCH  79  92
ATOM     92  C   UNL     1      -2.373 -13.440  -7.529  1.00  0.00    -0.014 A 
ATOM     93  C   UNL     1      -2.074 -13.294  -6.154  1.00  0.00     0.009 A 
ATOM     94  C   UNL     1      -3.418 -14.315  -7.854  1.00  0.00     0.009 A 
ATOM     95  C   UNL     1      -2.728 -14.042  -5.167  1.00  0.00     0.001 A 
ATOM     96  C   UNL     1      -4.112 -15.023  -6.864  1.00  0.00     0.001 A 
ATOM     97  C   UNL     1      -3.753 -14.905  -5.524  1.00  0.00     0.000 A 
ENDBRANCH  79  92
ENDBRANCH  53  54
ENDBRANCH  45  48
ENDBRANCH  43  44
ENDBRANCH  42  43
ENDBRANCH  41  42
ENDBRANCH  40  41
ENDBRANCH   1  40
TORSDOF 22
