REMARK SMILES O=C(CNC(=O)[C@@H](CC1=c2ccccc2=NC1)N1C(=O)N=C2C=CC=C[C@H]2C1=O)NCCCCCCNC(=O)c1ccc(-c2c3nc(c(-c4ccccc4)c4ccc([nH]4)c(-c4ccccc4)c4nc(c(-c5ccccc5)c5ccc2[nH]5)C=C4)C=C3)cc1
REMARK SMILES IDX 32 1 31 2 30 3 1 4 2 5 3 7 4 8 5 9 6 11 7 12 8 13 9 14 10 15
REMARK SMILES IDX 17 16 11 17 15 18 16 19 12 20 14 21 13 22 18 23 19 24 28 25
REMARK SMILES IDX 21 26 20 27 27 28 29 29 22 30 26 31 23 32 25 33 24 34 33 35
REMARK SMILES IDX 34 36 35 37 36 38 37 39 38 40 39 42 40 43 41 44 87 45 42 46
REMARK SMILES IDX 86 47 43 48 44 49 45 50 80 51 46 52 85 53 79 54 81 55 47 56
REMARK SMILES IDX 84 57 78 58 77 59 48 61 70 62 55 63 69 64 56 65 59 66 68 67
REMARK SMILES IDX 82 68 57 69 58 70 67 72 83 73 60 74 49 75 50 76 54 77 51 78
REMARK SMILES IDX 53 79 52 80 71 81 72 82 76 83 73 84 75 85 74 86 61 87 62 88
REMARK SMILES IDX 66 89 63 90 65 91 64 92
REMARK H PARENT 30 6 4 10 37 41 81 60 59 71
REMARK Flexibility Score: inf
ROOT
ATOM      1  C   UNL     1       2.575   0.578  -3.572  1.00  0.00     0.021 C 
ENDROOT
BRANCH   1   2
ATOM      2  C   UNL     1       1.874  -0.503  -2.726  1.00  0.00     0.116 C 
BRANCH   2   3
ATOM      3  N   UNL     1       2.408  -0.428  -1.180  1.00  0.00    -0.355 N 
ATOM      4  O   UNL     1       0.775  -0.570   1.290  1.00  0.00    -0.273 OA
ATOM      5  C   UNL     1       1.908  -0.453   0.712  1.00  0.00     0.239 C 
ATOM      6  H   UNL     1       3.386  -0.329  -1.218  1.00  0.00     0.163 HD
BRANCH   5   7
ATOM      7  C   UNL     1       2.956  -0.084   2.124  1.00  0.00     0.216 C 
BRANCH   7   8
ATOM      8  N   UNL     1       4.201  -0.738   2.507  1.00  0.00    -0.345 N 
ATOM      9  C   UNL     1       5.506  -0.460   2.306  1.00  0.00     0.244 C 
ATOM     10  H   UNL     1       4.059  -1.563   3.025  1.00  0.00     0.164 HD
ATOM     11  O   UNL     1       6.264  -1.399   2.598  1.00  0.00    -0.273 OA
BRANCH   9  12
ATOM     12  C   UNL     1       6.124   0.902   1.923  1.00  0.00     0.188 C 
BRANCH  12  13
ATOM     13  C   UNL     1       5.610   1.867   0.834  1.00  0.00     0.069 C 
BRANCH  13  14
ATOM     14  C   UNL     1       4.264   1.678   0.231  1.00  0.00    -0.037 C 
ATOM     15  C   UNL     1       3.635   0.538  -0.017  1.00  0.00     0.001 A 
ATOM     16  C   UNL     1       3.378   2.909  -0.058  1.00  0.00     0.174 C 
ATOM     17  C   UNL     1       3.751  -1.363   0.031  1.00  0.00     0.010 A 
ATOM     18  C   UNL     1       1.890   1.285  -0.424  1.00  0.00     0.065 A 
ATOM     19  N   UNL     1       1.938   2.575  -0.406  1.00  0.00    -0.280 NA
ATOM     20  C   UNL     1       2.476  -2.286  -0.270  1.00  0.00     0.001 A 
ATOM     21  C   UNL     1       0.456  -0.003  -0.779  1.00  0.00     0.028 A 
ATOM     22  C   UNL     1       0.770  -1.602  -0.713  1.00  0.00     0.002 A 
ENDBRANCH  13  14
ENDBRANCH  12  13
BRANCH  12  23
ATOM     23  N   UNL     1       6.550   1.457   3.228  1.00  0.00    -0.249 N 
ATOM     24  C   UNL     1       7.803   1.038   3.663  1.00  0.00     0.351 C 
ATOM     25  C   UNL     1       5.750   2.306   3.969  1.00  0.00     0.244 C 
ATOM     26  N   UNL     1       8.094   1.056   4.988  1.00  0.00    -0.197 NA
ATOM     27  O   UNL     1       8.677   0.713   2.863  1.00  0.00    -0.246 OA
ATOM     28  C   UNL     1       6.107   2.462   5.447  1.00  0.00     0.151 C 
ATOM     29  O   UNL     1       4.774   2.885   3.487  1.00  0.00    -0.273 OA
ATOM     30  C   UNL     1       7.381   1.743   5.810  1.00  0.00     0.062 C 
ATOM     31  C   UNL     1       6.218   3.878   5.974  1.00  0.00    -0.007 C 
ATOM     32  C   UNL     1       7.936   1.924   7.169  1.00  0.00     0.025 C 
ATOM     33  C   UNL     1       7.024   4.179   7.011  1.00  0.00    -0.003 C 
ATOM     34  C   UNL     1       7.802   3.155   7.676  1.00  0.00     0.002 C 
ENDBRANCH  12  23
ENDBRANCH   9  12
ENDBRANCH   7   8
ENDBRANCH   5   7
ENDBRANCH   2   3
ENDBRANCH   1   2
BRANCH   1  35
ATOM     35  C   UNL     1       4.107   0.492  -3.663  1.00  0.00     0.002 C 
BRANCH  35  36
ATOM     36  C   UNL     1       4.676  -0.842  -4.155  1.00  0.00     0.002 C 
BRANCH  36  37
ATOM     37  C   UNL     1       4.111  -1.332  -5.485  1.00  0.00     0.021 C 
BRANCH  37  38
ATOM     38  C   UNL     1       4.223  -0.337  -6.630  1.00  0.00     0.116 C 
BRANCH  38  39
ATOM     39  N   UNL     1       5.592  -0.125  -7.076  1.00  0.00    -0.352 N 
ATOM     40  C   UNL     1       6.087  -0.160  -8.361  1.00  0.00     0.251 C 
ATOM     41  H   UNL     1       6.248   0.067  -6.368  1.00  0.00     0.163 HD
ATOM     42  O   UNL     1       7.292  -0.081  -8.574  1.00  0.00    -0.269 OA
BRANCH  40  43
ATOM     43  C   UNL     1       5.143  -0.349  -9.483  1.00  0.00     0.039 A 
ATOM     44  C   UNL     1       3.974   0.412  -9.555  1.00  0.00     0.014 A 
ATOM     45  C   UNL     1       5.386  -1.361 -10.414  1.00  0.00     0.014 A 
ATOM     46  C   UNL     1       2.963   0.031 -10.428  1.00  0.00     0.010 A 
ATOM     47  C   UNL     1       4.405  -1.677 -11.358  1.00  0.00     0.010 A 
ATOM     48  C   UNL     1       3.161  -1.026 -11.333  1.00  0.00    -0.014 A 
BRANCH  48  49
ATOM     49  C   UNL     1       2.052  -1.445 -12.229  1.00  0.00     0.031 A 
ATOM     50  C   UNL     1       1.451  -2.823 -12.121  1.00  0.00     0.074 A 
ATOM     51  C   UNL     1       1.548  -0.561 -13.112  1.00  0.00     0.049 A 
ATOM     52  N   UNL     1       0.481  -3.353 -12.824  1.00  0.00    -0.248 NA
ATOM     53  C   UNL     1       2.005  -3.724 -11.097  1.00  0.00     0.031 C 
ATOM     54  C   UNL     1       2.021   0.814 -13.287  1.00  0.00     0.029 A 
ATOM     55  N   UNL     1       0.516  -0.674 -14.009  1.00  0.00    -0.354 N 
ATOM     56  C   UNL     1       0.326  -4.648 -12.344  1.00  0.00     0.074 A 
ATOM     57  C   UNL     1       1.318  -4.838 -11.310  1.00  0.00     0.031 C 
ATOM     58  C   UNL     1       1.248   1.431 -14.191  1.00  0.00     0.029 A 
ATOM     59  C   UNL     1       0.278   0.477 -14.719  1.00  0.00     0.049 A 
ATOM     60  H   UNL     1      -0.004  -1.501 -14.132  1.00  0.00     0.167 HD
ATOM     61  C   UNL     1      -0.571  -5.589 -12.725  1.00  0.00     0.031 A 
ATOM     62  C   UNL     1      -0.605   0.740 -15.702  1.00  0.00     0.031 A 
ATOM     63  C   UNL     1      -1.568  -5.390 -13.745  1.00  0.00     0.049 A 
ATOM     64  C   UNL     1      -1.544  -0.342 -16.151  1.00  0.00     0.074 A 
ATOM     65  C   UNL     1      -2.536  -6.279 -14.180  1.00  0.00     0.029 A 
ATOM     66  N   UNL     1      -1.727  -4.230 -14.486  1.00  0.00    -0.354 N 
ATOM     67  N   UNL     1      -1.684  -1.557 -15.679  1.00  0.00    -0.248 NA
ATOM     68  C   UNL     1      -2.446  -0.021 -17.267  1.00  0.00     0.031 C 
ATOM     69  C   UNL     1      -3.233  -5.684 -15.232  1.00  0.00     0.029 A 
ATOM     70  C   UNL     1      -2.756  -4.394 -15.398  1.00  0.00     0.049 A 
ATOM     71  H   UNL     1      -1.190  -3.411 -14.379  1.00  0.00     0.167 HD
ATOM     72  C   UNL     1      -2.699  -2.140 -16.425  1.00  0.00     0.074 A 
ATOM     73  C   UNL     1      -3.153  -1.140 -17.369  1.00  0.00     0.031 C 
ATOM     74  C   UNL     1      -3.205  -3.393 -16.333  1.00  0.00     0.031 A 
BRANCH  61  75
ATOM     75  C   UNL     1      -0.525  -6.936 -12.054  1.00  0.00    -0.014 A 
ATOM     76  C   UNL     1      -0.169  -8.072 -12.801  1.00  0.00     0.009 A 
ATOM     77  C   UNL     1      -0.945  -7.104 -10.726  1.00  0.00     0.009 A 
ATOM     78  C   UNL     1      -0.254  -9.348 -12.240  1.00  0.00     0.001 A 
ATOM     79  C   UNL     1      -0.999  -8.380 -10.157  1.00  0.00     0.001 A 
ATOM     80  C   UNL     1      -0.665  -9.500 -10.917  1.00  0.00     0.000 A 
ENDBRANCH  61  75
BRANCH  62  81
ATOM     81  C   UNL     1      -0.627   2.095 -16.314  1.00  0.00    -0.014 A 
ATOM     82  C   UNL     1       0.471   2.561 -17.057  1.00  0.00     0.009 A 
ATOM     83  C   UNL     1      -1.714   2.957 -16.103  1.00  0.00     0.009 A 
ATOM     84  C   UNL     1       0.499   3.870 -17.543  1.00  0.00     0.001 A 
ATOM     85  C   UNL     1      -1.699   4.254 -16.621  1.00  0.00     0.001 A 
ATOM     86  C   UNL     1      -0.588   4.714 -17.328  1.00  0.00     0.000 A 
ENDBRANCH  62  81
BRANCH  74  87
ATOM     87  C   UNL     1      -4.325  -3.776 -17.260  1.00  0.00    -0.014 A 
ATOM     88  C   UNL     1      -5.603  -4.033 -16.735  1.00  0.00     0.009 A 
ATOM     89  C   UNL     1      -4.091  -4.010 -18.623  1.00  0.00     0.009 A 
ATOM     90  C   UNL     1      -6.616  -4.541 -17.550  1.00  0.00     0.001 A 
ATOM     91  C   UNL     1      -5.115  -4.487 -19.443  1.00  0.00     0.001 A 
ATOM     92  C   UNL     1      -6.371  -4.766 -18.904  1.00  0.00     0.000 A 
ENDBRANCH  74  87
ENDBRANCH  48  49
ENDBRANCH  40  43
ENDBRANCH  38  39
ENDBRANCH  37  38
ENDBRANCH  36  37
ENDBRANCH  35  36
ENDBRANCH   1  35
TORSDOF 18
