REMARK SMILES Cc1coc2c(C)c3oc(=O)c(CC(=O)NCC(=O)N[C@H](C(=O)NCCCCCCNC(=O)c4ccc(-c5c6nc(c(-c7ccccc7)c7ccc([nH]7)c(-c7ccccc7)c7nc(c(-c8ccccc8)c8ccc5[nH]8)C=C7)C=C6)cc4)C(C)C)c(C)c3cc12
REMARK SMILES IDX 26 1 25 2 24 3 22 4 23 5 21 7 20 8 18 9 19 10 17 12 16 13
REMARK SMILES IDX 14 14 15 15 13 17 12 18 1 19 2 20 3 21 89 22 4 23 5 24 88 25
REMARK SMILES IDX 6 26 87 27 7 28 8 29 85 30 9 31 86 32 10 33 11 34 82 35
REMARK SMILES IDX 83 36 84 37 27 38 28 39 29 40 30 41 31 42 32 43 33 45 34 46
REMARK SMILES IDX 35 47 81 48 36 49 80 50 37 51 38 52 39 53 74 54 40 55 79 56
REMARK SMILES IDX 73 57 75 58 41 59 78 60 72 61 71 62 42 64 64 65 49 66 63 67
REMARK SMILES IDX 50 68 53 69 62 70 76 71 51 72 52 73 61 75 77 76 54 77 43 78
REMARK SMILES IDX 44 79 48 80 45 81 47 82 46 83 65 84 66 85 70 86 67 87 69 88
REMARK SMILES IDX 68 89 55 90 56 91 60 92 57 93 59 94 58 95
REMARK H PARENT 24 6 20 11 16 16 31 44 75 63 53 74
REMARK Flexibility Score: inf
ROOT
ATOM      1  C   UNL     1       4.521   9.220   2.331  1.00  0.00     0.021 C 
ENDROOT
BRANCH   1   2
ATOM      2  C   UNL     1       4.973   7.884   1.396  1.00  0.00     0.116 C 
BRANCH   2   3
ATOM      3  N   UNL     1       4.837   5.802   1.642  1.00  0.00    -0.354 N 
ATOM      4  C   UNL     1       4.226   4.533   1.568  1.00  0.00     0.242 C 
ATOM      5  O   UNL     1       4.977   3.641   2.018  1.00  0.00    -0.273 OA
ATOM      6  H   UNL     1       5.710   5.586   2.043  1.00  0.00     0.163 HD
BRANCH   4   7
ATOM      7  C   UNL     1       2.867   4.051   0.929  1.00  0.00     0.173 C 
BRANCH   7   8
ATOM      8  N   UNL     1       3.254   3.269  -0.249  1.00  0.00    -0.343 N 
ATOM      9  C   UNL     1       2.750   3.191  -1.509  1.00  0.00     0.240 C 
ATOM     10  O   UNL     1       3.402   2.509  -2.309  1.00  0.00    -0.273 OA
ATOM     11  H   UNL     1       4.033   2.686  -0.099  1.00  0.00     0.164 HD
BRANCH   9  12
ATOM     12  C   UNL     1       1.547   4.019  -2.040  1.00  0.00     0.216 C 
BRANCH  12  13
ATOM     13  N   UNL     1       0.349   4.209  -1.230  1.00  0.00    -0.347 N 
ATOM     14  C   UNL     1      -0.318   5.271  -0.706  1.00  0.00     0.225 C 
ATOM     15  O   UNL     1      -1.335   5.008  -0.053  1.00  0.00    -0.275 OA
ATOM     16  H   UNL     1      -0.084   3.354  -1.005  1.00  0.00     0.164 HD
BRANCH  14  17
ATOM     17  C   UNL     1       0.082   6.735  -0.899  1.00  0.00     0.143 C 
BRANCH  17  18
ATOM     18  C   UNL     1       1.483   6.999  -0.419  1.00  0.00     0.051 A 
ATOM     19  C   UNL     1       6.125   7.011   5.718  1.00  0.00     0.048 C 
ATOM     20  C   UNL     1       6.516   6.942   4.288  1.00  0.00    -0.005 A 
ATOM     21  C   UNL     1       7.811   6.960   3.752  1.00  0.00     0.199 A 
ATOM     22  C   UNL     1       5.608   6.885   3.209  1.00  0.00     0.024 A 
ATOM     23  O   UNL     1       7.944   6.813   2.392  1.00  0.00    -0.464 OA
ATOM     24  C   UNL     1       6.700   6.690   1.857  1.00  0.00     0.140 A 
ATOM     25  C   UNL     1       3.818   6.931   2.932  1.00  0.00     0.024 A 
ATOM     26  C   UNL     1       6.088   6.504   0.162  1.00  0.00     0.036 A 
ATOM     27  C   UNL     1       3.163   6.876   1.246  1.00  0.00     0.022 A 
ATOM     28  C   UNL     1       7.025   6.757  -0.984  1.00  0.00     0.052 C 
ATOM     29  C   UNL     1       4.298   6.577  -0.123  1.00  0.00     0.145 A 
ATOM     30  C   UNL     1       1.786   7.156   0.888  1.00  0.00    -0.029 A 
ATOM     31  O   UNL     1       3.796   6.743  -1.405  1.00  0.00    -0.422 OA
ATOM     32  C   UNL     1       0.866   7.439   2.041  1.00  0.00     0.046 C 
ATOM     33  C   UNL     1       2.465   7.090  -1.558  1.00  0.00     0.340 A 
ATOM     34  O   UNL     1       2.063   7.423  -2.671  1.00  0.00    -0.246 OA
ENDBRANCH  17  18
ENDBRANCH  14  17
ENDBRANCH  12  13
ENDBRANCH   9  12
ENDBRANCH   7   8
BRANCH   7  35
ATOM     35  C   UNL     1       2.073   3.185   1.960  1.00  0.00     0.015 C 
ATOM     36  C   UNL     1       1.352   4.075   2.976  1.00  0.00     0.010 C 
ATOM     37  C   UNL     1       1.013   2.280   1.327  1.00  0.00     0.010 C 
ENDBRANCH   7  35
ENDBRANCH   4   7
ENDBRANCH   2   3
ENDBRANCH   1   2
BRANCH   1  38
ATOM     38  C   UNL     1       5.664  10.011   2.982  1.00  0.00     0.002 C 
BRANCH  38  39
ATOM     39  C   UNL     1       6.958  10.176   2.171  1.00  0.00     0.002 C 
BRANCH  39  40
ATOM     40  C   UNL     1       6.825  10.810   0.779  1.00  0.00     0.021 C 
BRANCH  40  41
ATOM     41  C   UNL     1       6.409  12.261   0.855  1.00  0.00     0.116 C 
BRANCH  41  42
ATOM     42  N   UNL     1       7.342  13.026   1.686  1.00  0.00    -0.352 N 
ATOM     43  C   UNL     1       7.266  14.335   2.092  1.00  0.00     0.251 C 
ATOM     44  H   UNL     1       8.134  12.532   1.997  1.00  0.00     0.163 HD
ATOM     45  O   UNL     1       8.240  14.932   2.529  1.00  0.00    -0.269 OA
BRANCH  43  46
ATOM     46  C   UNL     1       5.955  14.983   2.019  1.00  0.00     0.039 A 
ATOM     47  C   UNL     1       5.791  16.262   1.492  1.00  0.00     0.014 A 
ATOM     48  C   UNL     1       4.868  14.212   2.423  1.00  0.00     0.014 A 
ATOM     49  C   UNL     1       4.496  16.748   1.370  1.00  0.00     0.010 A 
ATOM     50  C   UNL     1       3.614  14.582   2.047  1.00  0.00     0.010 A 
ATOM     51  C   UNL     1       3.415  15.890   1.655  1.00  0.00    -0.014 A 
BRANCH  51  52
ATOM     52  C   UNL     1       2.040  16.263   1.392  1.00  0.00     0.031 A 
ATOM     53  C   UNL     1       1.845  16.651  -0.021  1.00  0.00     0.074 A 
ATOM     54  C   UNL     1       1.042  16.090   2.289  1.00  0.00     0.049 A 
ATOM     55  N   UNL     1       1.742  17.857  -0.461  1.00  0.00    -0.248 NA
ATOM     56  C   UNL     1       2.035  15.642  -1.081  1.00  0.00     0.031 C 
ATOM     57  C   UNL     1       1.078  15.466   3.620  1.00  0.00     0.029 A 
ATOM     58  N   UNL     1      -0.274  16.400   2.163  1.00  0.00    -0.354 N 
ATOM     59  C   UNL     1       1.591  17.743  -1.833  1.00  0.00     0.074 A 
ATOM     60  C   UNL     1       1.998  16.404  -2.176  1.00  0.00     0.031 C 
ATOM     61  C   UNL     1      -0.185  15.248   4.065  1.00  0.00     0.029 A 
ATOM     62  C   UNL     1      -1.115  15.869   3.141  1.00  0.00     0.049 A 
ATOM     63  H   UNL     1      -0.613  16.962   1.429  1.00  0.00     0.167 HD
ATOM     64  C   UNL     1       0.854  18.660  -2.513  1.00  0.00     0.031 A 
ATOM     65  C   UNL     1      -2.472  15.970   3.185  1.00  0.00     0.031 A 
ATOM     66  C   UNL     1       0.607  19.831  -1.705  1.00  0.00     0.049 A 
ATOM     67  C   UNL     1      -2.833  17.131   2.338  1.00  0.00     0.074 A 
ATOM     68  C   UNL     1       1.410  20.793  -1.126  1.00  0.00     0.029 A 
ATOM     69  N   UNL     1      -0.574  19.839  -1.001  1.00  0.00    -0.354 N 
ATOM     70  N   UNL     1      -2.505  18.354   2.641  1.00  0.00    -0.248 NA
ATOM     71  C   UNL     1      -3.093  16.874   0.932  1.00  0.00     0.031 C 
ATOM     72  C   UNL     1       0.850  21.012   0.169  1.00  0.00     0.029 A 
ATOM     73  C   UNL     1      -0.325  20.264   0.280  1.00  0.00     0.049 A 
ATOM     74  H   UNL     1      -1.455  19.582  -1.357  1.00  0.00     0.167 HD
ATOM     75  C   UNL     1      -2.065  18.900   1.445  1.00  0.00     0.074 A 
ATOM     76  C   UNL     1      -2.518  17.963   0.412  1.00  0.00     0.031 C 
ATOM     77  C   UNL     1      -1.118  19.883   1.431  1.00  0.00     0.031 A 
BRANCH  64  78
ATOM     78  C   UNL     1      -0.008  18.296  -3.689  1.00  0.00    -0.014 A 
ATOM     79  C   UNL     1      -0.642  19.319  -4.410  1.00  0.00     0.009 A 
ATOM     80  C   UNL     1      -0.427  16.976  -3.954  1.00  0.00     0.009 A 
ATOM     81  C   UNL     1      -1.661  19.034  -5.327  1.00  0.00     0.001 A 
ATOM     82  C   UNL     1      -1.417  16.685  -4.893  1.00  0.00     0.001 A 
ATOM     83  C   UNL     1      -2.047  17.718  -5.569  1.00  0.00     0.000 A 
ENDBRANCH  64  78
BRANCH  65  84
ATOM     84  C   UNL     1      -3.497  14.958   3.555  1.00  0.00    -0.014 A 
ATOM     85  C   UNL     1      -4.846  15.332   3.718  1.00  0.00     0.009 A 
ATOM     86  C   UNL     1      -3.221  13.588   3.409  1.00  0.00     0.009 A 
ATOM     87  C   UNL     1      -5.878  14.379   3.680  1.00  0.00     0.001 A 
ATOM     88  C   UNL     1      -4.252  12.636   3.370  1.00  0.00     0.001 A 
ATOM     89  C   UNL     1      -5.581  13.033   3.487  1.00  0.00     0.000 A 
ENDBRANCH  65  84
BRANCH  77  90
ATOM     90  C   UNL     1      -0.730  20.510   2.755  1.00  0.00    -0.014 A 
ATOM     91  C   UNL     1      -0.083  19.821   3.799  1.00  0.00     0.009 A 
ATOM     92  C   UNL     1      -0.891  21.897   2.881  1.00  0.00     0.009 A 
ATOM     93  C   UNL     1       0.375  20.505   4.935  1.00  0.00     0.001 A 
ATOM     94  C   UNL     1      -0.417  22.580   4.003  1.00  0.00     0.001 A 
ATOM     95  C   UNL     1       0.213  21.886   5.031  1.00  0.00     0.000 A 
ENDBRANCH  77  90
ENDBRANCH  51  52
ENDBRANCH  43  46
ENDBRANCH  41  42
ENDBRANCH  40  41
ENDBRANCH  39  40
ENDBRANCH  38  39
ENDBRANCH   1  38
TORSDOF 19
