REMARK SMILES CCOc1cccc(OCC)c1-c1ccc([C@@H](C)C(=O)NCCCCCCNC(=O)c2ccc(-c3c4nc(c(-c5ccccc5)c5ccc([nH]5)c(-c5ccccc5)c5nc(c(-c6ccccc6)c6ccc3[nH]6)C=C5)C=C4)cc2)cc1F
REMARK SMILES IDX 23 1 22 2 21 3 19 4 20 5 17 7 18 8 16 9 13 10 14 11 80 12
REMARK SMILES IDX 15 13 79 14 81 15 12 16 4 17 5 18 6 19 8 20 7 21 3 22 2 23
REMARK SMILES IDX 1 24 9 25 10 26 11 27 24 28 25 29 26 30 27 31 28 32 29 33
REMARK SMILES IDX 30 35 31 36 32 37 78 38 33 39 77 40 34 41 35 42 36 43 71 44
REMARK SMILES IDX 37 45 76 46 70 47 72 48 38 49 75 50 69 51 68 52 39 54 61 55
REMARK SMILES IDX 46 56 60 57 47 58 50 59 59 60 73 61 48 62 49 63 58 65 74 66
REMARK SMILES IDX 51 67 40 68 41 69 45 70 42 71 44 72 43 73 62 74 63 75 67 76
REMARK SMILES IDX 64 77 66 78 65 79 52 80 53 81 57 82 54 83 56 84 55 85
REMARK H PARENT 21 6 28 34 72 53 50 64
REMARK Flexibility Score: inf
ROOT
ATOM      1  C   UNL     1       3.026   2.978   3.267  1.00  0.00     0.021 C 
ENDROOT
BRANCH   1   2
ATOM      2  C   UNL     1       2.643   2.192   4.537  1.00  0.00     0.116 C 
BRANCH   2   3
ATOM      3  N   UNL     1       1.238   1.806   4.521  1.00  0.00    -0.356 N 
ATOM      4  C   UNL     1       0.560   0.651   4.273  1.00  0.00     0.227 C 
ATOM      5  O   UNL     1      -0.674   0.760   4.267  1.00  0.00    -0.274 OA
ATOM      6  H   UNL     1       0.639   2.556   4.742  1.00  0.00     0.163 HD
BRANCH   4   7
ATOM      7  C   UNL     1       1.190  -0.737   4.010  1.00  0.00     0.105 C 
ATOM      8  C   UNL     1       2.189  -1.191   5.069  1.00  0.00     0.023 C 
BRANCH   7   9
ATOM      9  C   UNL     1       1.695  -0.941   2.591  1.00  0.00    -0.033 A 
ATOM     10  C   UNL     1       2.635  -1.159  -0.087  1.00  0.00     0.025 A 
ATOM     11  C   UNL     1       3.017  -0.105   0.735  1.00  0.00     0.012 A 
ATOM     12  C   UNL     1       1.742  -2.098   0.447  1.00  0.00     0.131 A 
ATOM     13  C   UNL     1       2.639  -0.072   2.063  1.00  0.00     0.005 A 
ATOM     14  C   UNL     1       1.251  -1.978   1.759  1.00  0.00     0.044 A 
ATOM     15  F   UNL     1       1.317  -3.128  -0.300  1.00  0.00    -0.206 F 
BRANCH  10  16
ATOM     16  C   UNL     1       3.132  -1.146  -1.466  1.00  0.00     0.069 A 
ATOM     17  C   UNL     1       2.215  -0.761  -2.480  1.00  0.00     0.130 A 
ATOM     18  C   UNL     1       2.607  -0.563  -3.805  1.00  0.00     0.047 A 
ATOM     19  C   UNL     1       3.940  -0.724  -4.150  1.00  0.00     0.008 A 
ATOM     20  C   UNL     1       4.487  -1.322  -1.835  1.00  0.00     0.130 A 
ATOM     21  C   UNL     1       4.859  -1.111  -3.178  1.00  0.00     0.047 A 
BRANCH  17  22
ATOM     22  O   UNL     1       0.879  -0.646  -2.172  1.00  0.00    -0.493 OA
BRANCH  22  23
ATOM     23  C   UNL     1       0.425   0.710  -2.099  1.00  0.00     0.226 C 
ATOM     24  C   UNL     1      -0.162   0.960  -0.718  1.00  0.00     0.049 C 
ENDBRANCH  22  23
ENDBRANCH  17  22
BRANCH  20  25
ATOM     25  O   UNL     1       5.585  -1.702  -1.109  1.00  0.00    -0.493 OA
BRANCH  25  26
ATOM     26  C   UNL     1       5.672  -1.683   0.308  1.00  0.00     0.226 C 
ATOM     27  C   UNL     1       6.192  -0.336   0.796  1.00  0.00     0.049 C 
ENDBRANCH  25  26
ENDBRANCH  20  25
ENDBRANCH  10  16
ENDBRANCH   7   9
ENDBRANCH   4   7
ENDBRANCH   2   3
ENDBRANCH   1   2
BRANCH   1  28
ATOM     28  C   UNL     1       3.017   4.498   3.402  1.00  0.00     0.002 C 
BRANCH  28  29
ATOM     29  C   UNL     1       4.095   5.069   4.327  1.00  0.00     0.002 C 
BRANCH  29  30
ATOM     30  C   UNL     1       5.541   4.695   3.980  1.00  0.00     0.021 C 
BRANCH  30  31
ATOM     31  C   UNL     1       6.004   5.098   2.581  1.00  0.00     0.116 C 
BRANCH  31  32
ATOM     32  N   UNL     1       5.957   6.539   2.385  1.00  0.00    -0.352 N 
ATOM     33  C   UNL     1       6.974   7.432   2.172  1.00  0.00     0.251 C 
ATOM     34  H   UNL     1       5.055   6.934   2.410  1.00  0.00     0.163 HD
ATOM     35  O   UNL     1       6.760   8.641   2.267  1.00  0.00    -0.269 OA
BRANCH  33  36
ATOM     36  C   UNL     1       8.333   6.959   1.834  1.00  0.00     0.039 A 
ATOM     37  C   UNL     1       9.434   7.563   2.449  1.00  0.00     0.014 A 
ATOM     38  C   UNL     1       8.528   5.954   0.883  1.00  0.00     0.014 A 
ATOM     39  C   UNL     1      10.725   7.120   2.153  1.00  0.00     0.010 A 
ATOM     40  C   UNL     1       9.811   5.470   0.636  1.00  0.00     0.010 A 
ATOM     41  C   UNL     1      10.923   6.049   1.267  1.00  0.00    -0.014 A 
BRANCH  41  42
ATOM     42  C   UNL     1      12.283   5.519   0.992  1.00  0.00     0.031 A 
ATOM     43  C   UNL     1      12.875   5.626  -0.387  1.00  0.00     0.074 A 
ATOM     44  C   UNL     1      12.962   4.888   1.969  1.00  0.00     0.049 A 
ATOM     45  N   UNL     1      14.016   5.163  -0.833  1.00  0.00    -0.248 NA
ATOM     46  C   UNL     1      12.072   6.324  -1.403  1.00  0.00     0.031 C 
ATOM     47  C   UNL     1      12.485   4.687   3.340  1.00  0.00     0.029 A 
ATOM     48  N   UNL     1      14.196   4.288   1.956  1.00  0.00    -0.354 N 
ATOM     49  C   UNL     1      14.062   5.503  -2.179  1.00  0.00     0.074 A 
ATOM     50  C   UNL     1      12.814   6.168  -2.490  1.00  0.00     0.031 C 
ATOM     51  C   UNL     1      13.424   4.029   4.039  1.00  0.00     0.029 A 
ATOM     52  C   UNL     1      14.549   3.726   3.160  1.00  0.00     0.049 A 
ATOM     53  H   UNL     1      14.775   4.263   1.160  1.00  0.00     0.167 HD
ATOM     54  C   UNL     1      15.059   5.299  -3.073  1.00  0.00     0.031 A 
ATOM     55  C   UNL     1      15.649   3.036   3.514  1.00  0.00     0.031 A 
ATOM     56  C   UNL     1      16.302   4.644  -2.766  1.00  0.00     0.049 A 
ATOM     57  C   UNL     1      16.732   2.806   2.497  1.00  0.00     0.074 A 
ATOM     58  C   UNL     1      17.390   4.428  -3.593  1.00  0.00     0.029 A 
ATOM     59  N   UNL     1      16.623   4.100  -1.532  1.00  0.00    -0.354 N 
ATOM     60  N   UNL     1      16.783   3.186   1.244  1.00  0.00    -0.248 NA
ATOM     61  C   UNL     1      17.915   2.060   2.949  1.00  0.00     0.031 C 
ATOM     62  C   UNL     1      18.352   3.711  -2.873  1.00  0.00     0.029 A 
ATOM     63  C   UNL     1      17.884   3.531  -1.582  1.00  0.00     0.049 A 
ATOM     64  H   UNL     1      16.040   4.115  -0.739  1.00  0.00     0.167 HD
ATOM     65  C   UNL     1      18.012   2.752   0.766  1.00  0.00     0.074 A 
ATOM     66  C   UNL     1      18.683   2.095   1.869  1.00  0.00     0.031 C 
ATOM     67  C   UNL     1      18.539   2.883  -0.475  1.00  0.00     0.031 A 
BRANCH  54  68
ATOM     68  C   UNL     1      14.843   5.792  -4.477  1.00  0.00    -0.014 A 
ATOM     69  C   UNL     1      14.842   7.165  -4.771  1.00  0.00     0.009 A 
ATOM     70  C   UNL     1      14.687   4.873  -5.527  1.00  0.00     0.009 A 
ATOM     71  C   UNL     1      14.656   7.608  -6.082  1.00  0.00     0.001 A 
ATOM     72  C   UNL     1      14.529   5.319  -6.841  1.00  0.00     0.001 A 
ATOM     73  C   UNL     1      14.506   6.685  -7.116  1.00  0.00     0.000 A 
ENDBRANCH  54  68
BRANCH  55  74
ATOM     74  C   UNL     1      15.788   2.511   4.898  1.00  0.00    -0.014 A 
ATOM     75  C   UNL     1      16.734   3.059   5.777  1.00  0.00     0.009 A 
ATOM     76  C   UNL     1      14.988   1.446   5.340  1.00  0.00     0.009 A 
ATOM     77  C   UNL     1      16.898   2.531   7.060  1.00  0.00     0.001 A 
ATOM     78  C   UNL     1      15.133   0.940   6.634  1.00  0.00     0.001 A 
ATOM     79  C   UNL     1      16.095   1.475   7.488  1.00  0.00     0.000 A 
ENDBRANCH  55  74
BRANCH  67  80
ATOM     80  C   UNL     1      19.922   2.339  -0.696  1.00  0.00    -0.014 A 
ATOM     81  C   UNL     1      20.160   0.957  -0.759  1.00  0.00     0.009 A 
ATOM     82  C   UNL     1      20.995   3.225  -0.881  1.00  0.00     0.009 A 
ATOM     83  C   UNL     1      21.453   0.474  -0.970  1.00  0.00     0.001 A 
ATOM     84  C   UNL     1      22.280   2.739  -1.120  1.00  0.00     0.001 A 
ATOM     85  C   UNL     1      22.510   1.365  -1.155  1.00  0.00     0.000 A 
ENDBRANCH  67  80
ENDBRANCH  41  42
ENDBRANCH  33  36
ENDBRANCH  31  32
ENDBRANCH  30  31
ENDBRANCH  29  30
ENDBRANCH  28  29
ENDBRANCH   1  28
TORSDOF 19
