REMARK SMILES CC[C@@H](C)CN(C)c1cccc(Cl)c1/C=C/C(=O)NCCCCCCNC(=O)c1ccc(-c2c3nc(c(-c4ccccc4)c4ccc([nH]4)c(-c4ccccc4)c4nc(c(-c5ccccc5)c5ccc2[nH]5)C=C4)C=C3)cc1
REMARK SMILES IDX 21 1 20 2 19 3 17 4 18 5 16 7 15 8 14 9 8 10 9 11 10 12
REMARK SMILES IDX 12 13 11 14 13 15 6 16 7 17 5 18 3 19 4 20 2 21 1 22 22 23
REMARK SMILES IDX 23 24 24 25 25 26 26 27 27 28 28 30 29 31 30 32 76 33 31 34
REMARK SMILES IDX 75 35 32 36 33 37 34 38 69 39 35 40 74 41 68 42 70 43 36 44
REMARK SMILES IDX 73 45 67 46 66 47 37 49 59 50 44 51 58 52 45 53 48 54 57 55
REMARK SMILES IDX 71 56 46 57 47 58 56 60 72 61 49 62 38 63 39 64 43 65 40 66
REMARK SMILES IDX 42 67 41 68 60 69 61 70 65 71 62 72 64 73 63 74 50 75 51 76
REMARK SMILES IDX 55 77 52 78 54 79 53 80
REMARK H PARENT 19 6 26 29 70 48 48 59
REMARK Flexibility Score: inf
ROOT
ATOM      1  C   UNL     1      -0.292   6.660  -7.331  1.00  0.00     0.021 C 
ENDROOT
BRANCH   1   2
ATOM      2  C   UNL     1      -1.162   5.417  -7.148  1.00  0.00     0.116 C 
BRANCH   2   3
ATOM      3  N   UNL     1      -0.568   4.248  -7.770  1.00  0.00    -0.353 N 
ATOM      4  C   UNL     1      -0.251   3.043  -7.219  1.00  0.00     0.244 C 
ATOM      5  O   UNL     1       0.078   2.102  -7.936  1.00  0.00    -0.270 OA
ATOM      6  H   UNL     1      -0.364   4.339  -8.729  1.00  0.00     0.163 HD
BRANCH   4   7
ATOM      7  C   UNL     1      -0.339   2.854  -5.755  1.00  0.00     0.072 C 
ATOM      8  C   UNL     1       0.313   3.677  -4.923  1.00  0.00     0.017 C 
BRANCH   8   9
ATOM      9  C   UNL     1       0.420   3.532  -3.459  1.00  0.00     0.017 A 
ATOM     10  C   UNL     1       1.139   2.462  -2.877  1.00  0.00     0.045 A 
ATOM     11  C   UNL     1       1.476   2.554  -1.516  1.00  0.00     0.026 A 
ATOM     12  C   UNL     1       0.995   3.576  -0.701  1.00  0.00     0.004 A 
ATOM     13  C   UNL     1      -0.081   4.554  -2.621  1.00  0.00     0.050 A 
ATOM     14  C   UNL     1       0.181   4.557  -1.249  1.00  0.00     0.021 A 
ATOM     15  Cl  UNL     1      -1.055   5.854  -3.230  1.00  0.00    -0.084 Cl
BRANCH  10  16
ATOM     16  N   UNL     1       1.487   1.305  -3.561  1.00  0.00    -0.374 N 
ATOM     17  C   UNL     1       2.623   1.321  -4.466  1.00  0.00     0.143 C 
BRANCH  16  18
ATOM     18  C   UNL     1       0.605   0.130  -3.482  1.00  0.00     0.119 C 
BRANCH  18  19
ATOM     19  C   UNL     1       0.869  -0.715  -2.212  1.00  0.00     0.005 C 
ATOM     20  C   UNL     1       0.661  -2.204  -2.511  1.00  0.00     0.009 C 
BRANCH  19  21
ATOM     21  C   UNL     1      -0.055  -0.304  -1.042  1.00  0.00     0.002 C 
ATOM     22  C   UNL     1       0.605  -0.511   0.317  1.00  0.00     0.004 C 
ENDBRANCH  19  21
ENDBRANCH  18  19
ENDBRANCH  16  18
ENDBRANCH  10  16
ENDBRANCH   8   9
ENDBRANCH   4   7
ENDBRANCH   2   3
ENDBRANCH   1   2
BRANCH   1  23
ATOM     23  C   UNL     1      -0.359   7.268  -8.736  1.00  0.00     0.002 C 
BRANCH  23  24
ATOM     24  C   UNL     1      -1.765   7.653  -9.213  1.00  0.00     0.002 C 
BRANCH  24  25
ATOM     25  C   UNL     1      -2.557   8.555  -8.261  1.00  0.00     0.021 C 
BRANCH  25  26
ATOM     26  C   UNL     1      -1.905   9.903  -7.965  1.00  0.00     0.116 C 
BRANCH  26  27
ATOM     27  N   UNL     1      -1.760  10.709  -9.165  1.00  0.00    -0.352 N 
ATOM     28  C   UNL     1      -2.143  12.002  -9.407  1.00  0.00     0.251 C 
ATOM     29  H   UNL     1      -1.320  10.256  -9.920  1.00  0.00     0.163 HD
ATOM     30  O   UNL     1      -2.119  12.438 -10.554  1.00  0.00    -0.269 OA
BRANCH  28  31
ATOM     31  C   UNL     1      -2.589  12.878  -8.301  1.00  0.00     0.039 A 
ATOM     32  C   UNL     1      -3.663  13.743  -8.533  1.00  0.00     0.014 A 
ATOM     33  C   UNL     1      -1.925  12.903  -7.071  1.00  0.00     0.014 A 
ATOM     34  C   UNL     1      -4.087  14.610  -7.524  1.00  0.00     0.010 A 
ATOM     35  C   UNL     1      -2.389  13.724  -6.043  1.00  0.00     0.010 A 
ATOM     36  C   UNL     1      -3.462  14.597  -6.266  1.00  0.00    -0.014 A 
BRANCH  36  37
ATOM     37  C   UNL     1      -3.929  15.509  -5.192  1.00  0.00     0.031 A 
ATOM     38  C   UNL     1      -3.057  16.636  -4.712  1.00  0.00     0.074 A 
ATOM     39  C   UNL     1      -5.141  15.314  -4.641  1.00  0.00     0.049 A 
ATOM     40  N   UNL     1      -3.325  17.568  -3.832  1.00  0.00    -0.248 NA
ATOM     41  C   UNL     1      -1.701  16.718  -5.278  1.00  0.00     0.031 C 
ATOM     42  C   UNL     1      -6.061  14.226  -4.981  1.00  0.00     0.029 A 
ATOM     43  N   UNL     1      -5.814  16.033  -3.686  1.00  0.00    -0.354 N 
ATOM     44  C   UNL     1      -2.174  18.339  -3.733  1.00  0.00     0.074 A 
ATOM     45  C   UNL     1      -1.187  17.737  -4.604  1.00  0.00     0.031 C 
ATOM     46  C   UNL     1      -7.194  14.374  -4.277  1.00  0.00     0.029 A 
ATOM     47  C   UNL     1      -7.073  15.552  -3.423  1.00  0.00     0.049 A 
ATOM     48  H   UNL     1      -5.431  16.819  -3.233  1.00  0.00     0.167 HD
ATOM     49  C   UNL     1      -1.961  19.459  -3.002  1.00  0.00     0.031 A 
ATOM     50  C   UNL     1      -8.030  16.017  -2.601  1.00  0.00     0.031 A 
ATOM     51  C   UNL     1      -2.942  20.064  -2.141  1.00  0.00     0.049 A 
ATOM     52  C   UNL     1      -7.780  17.276  -1.820  1.00  0.00     0.074 A 
ATOM     53  C   UNL     1      -2.841  21.227  -1.397  1.00  0.00     0.029 A 
ATOM     54  N   UNL     1      -4.209  19.551  -1.909  1.00  0.00    -0.354 N 
ATOM     55  N   UNL     1      -6.712  18.035  -1.796  1.00  0.00    -0.248 NA
ATOM     56  C   UNL     1      -8.880  17.751  -0.969  1.00  0.00     0.031 C 
ATOM     57  C   UNL     1      -4.033  21.397  -0.684  1.00  0.00     0.029 A 
ATOM     58  C   UNL     1      -4.894  20.365  -1.022  1.00  0.00     0.049 A 
ATOM     59  H   UNL     1      -4.569  18.730  -2.315  1.00  0.00     0.167 HD
ATOM     60  C   UNL     1      -7.018  19.091  -0.947  1.00  0.00     0.074 A 
ATOM     61  C   UNL     1      -8.379  18.884  -0.495  1.00  0.00     0.031 C 
ATOM     62  C   UNL     1      -6.243  20.138  -0.574  1.00  0.00     0.031 A 
BRANCH  49  63
ATOM     63  C   UNL     1      -0.605  20.100  -3.103  1.00  0.00    -0.014 A 
ATOM     64  C   UNL     1      -0.205  20.770  -4.271  1.00  0.00     0.009 A 
ATOM     65  C   UNL     1       0.275  20.058  -2.011  1.00  0.00     0.009 A 
ATOM     66  C   UNL     1       1.062  21.351  -4.356  1.00  0.00     0.001 A 
ATOM     67  C   UNL     1       1.531  20.664  -2.088  1.00  0.00     0.001 A 
ATOM     68  C   UNL     1       1.927  21.301  -3.264  1.00  0.00     0.000 A 
ENDBRANCH  49  63
BRANCH  50  69
ATOM     69  C   UNL     1      -9.335  15.315  -2.509  1.00  0.00    -0.014 A 
ATOM     70  C   UNL     1     -10.486  15.879  -3.081  1.00  0.00     0.009 A 
ATOM     71  C   UNL     1      -9.438  14.081  -1.850  1.00  0.00     0.009 A 
ATOM     72  C   UNL     1     -11.720  15.233  -2.971  1.00  0.00     0.001 A 
ATOM     73  C   UNL     1     -10.667  13.425  -1.765  1.00  0.00     0.001 A 
ATOM     74  C   UNL     1     -11.808  14.005  -2.317  1.00  0.00     0.000 A 
ENDBRANCH  50  69
BRANCH  62  75
ATOM     75  C   UNL     1      -6.864  21.145   0.351  1.00  0.00    -0.014 A 
ATOM     76  C   UNL     1      -7.104  20.841   1.701  1.00  0.00     0.009 A 
ATOM     77  C   UNL     1      -7.208  22.416  -0.133  1.00  0.00     0.009 A 
ATOM     78  C   UNL     1      -7.718  21.777   2.536  1.00  0.00     0.001 A 
ATOM     79  C   UNL     1      -7.796  23.359   0.711  1.00  0.00     0.001 A 
ATOM     80  C   UNL     1      -8.062  23.034   2.041  1.00  0.00     0.000 A 
ENDBRANCH  62  75
ENDBRANCH  36  37
ENDBRANCH  28  31
ENDBRANCH  26  27
ENDBRANCH  25  26
ENDBRANCH  24  25
ENDBRANCH  23  24
ENDBRANCH   1  23
TORSDOF 18
