REMARK SMILES CC(C)[C@@H]1C(=O)Nc2ccccc2N1C(=O)N[C@H](Cc1ccccc1)C(=O)NCCCCCCNC(=O)c1ccc(-c2c3nc(c(-c4ccccc4)c4ccc([nH]4)c(-c4ccccc4)c4nc(c(-c5ccccc5)c5ccc2[nH]5)C=C4)C=C3)cc1
REMARK SMILES IDX 31 1 30 2 29 3 28 4 26 5 27 6 18 8 17 9 15 10 16 11 14 13
REMARK SMILES IDX 4 14 5 15 6 16 7 17 13 18 8 19 12 21 9 22 11 23 10 24 2 25
REMARK SMILES IDX 1 26 3 27 19 28 20 29 21 30 25 31 22 32 24 33 23 34 32 35
REMARK SMILES IDX 33 36 34 37 35 38 36 39 37 41 38 42 39 43 85 44 40 45 84 46
REMARK SMILES IDX 41 47 42 48 43 49 78 50 44 51 83 52 77 53 79 54 45 55 82 56
REMARK SMILES IDX 76 57 75 58 46 60 68 61 53 62 67 63 54 64 57 65 66 66 80 67
REMARK SMILES IDX 55 68 56 69 65 71 81 72 58 73 47 74 48 75 52 76 49 77 51 78
REMARK SMILES IDX 50 79 69 80 70 81 74 82 71 83 73 84 72 85 59 86 60 87 64 88
REMARK SMILES IDX 61 89 63 90 62 91
REMARK H PARENT 28 7 17 12 7 20 35 40 79 59 57 70
REMARK Flexibility Score: inf
ROOT
ATOM      1  C   UNL     1       4.732   4.212   1.575  1.00  0.00     0.002 C 
ENDROOT
BRANCH   1   2
ATOM      2  C   UNL     1       4.455   2.691   1.442  1.00  0.00     0.021 C 
BRANCH   2   3
ATOM      3  C   UNL     1       3.186   1.908   2.078  1.00  0.00     0.116 C 
BRANCH   3   4
ATOM      4  N   UNL     1       1.911   1.513   1.235  1.00  0.00    -0.354 N 
ATOM      5  C   UNL     1       1.401   0.252   0.823  1.00  0.00     0.242 C 
ATOM      6  O   UNL     1       0.885  -0.421   1.731  1.00  0.00    -0.273 OA
ATOM      7  H   UNL     1       1.369   2.281   0.941  1.00  0.00     0.163 HD
BRANCH   5   8
ATOM      8  C   UNL     1       1.033  -0.231  -0.828  1.00  0.00     0.177 C 
BRANCH   8   9
ATOM      9  N   UNL     1       1.979  -0.781  -2.037  1.00  0.00    -0.326 N 
ATOM     10  C   UNL     1       2.948  -0.591  -3.008  1.00  0.00     0.323 C 
ATOM     11  O   UNL     1       3.160  -1.611  -3.683  1.00  0.00    -0.248 OA
ATOM     12  H   UNL     1       1.740  -1.733  -2.118  1.00  0.00     0.166 HD
BRANCH  10  13
ATOM     13  N   UNL     1       3.734   0.542  -3.209  1.00  0.00    -0.280 N 
ATOM     14  C   UNL     1       3.589   1.902  -2.658  1.00  0.00     0.184 C 
ATOM     15  C   UNL     1       3.479   2.889  -3.805  1.00  0.00     0.247 C 
ATOM     16  O   UNL     1       2.686   3.832  -3.901  1.00  0.00    -0.272 OA
ATOM     17  N   UNL     1       4.631   2.803  -4.587  1.00  0.00    -0.322 N 
ATOM     18  C   UNL     1       5.076   0.521  -3.772  1.00  0.00     0.070 A 
ATOM     19  C   UNL     1       5.556   1.753  -4.330  1.00  0.00     0.065 A 
ATOM     20  H   UNL     1       4.801   3.457  -5.302  1.00  0.00     0.170 HD
ATOM     21  C   UNL     1       5.997  -0.427  -3.325  1.00  0.00     0.028 A 
ATOM     22  C   UNL     1       6.917   2.051  -4.352  1.00  0.00     0.028 A 
ATOM     23  C   UNL     1       7.357  -0.088  -3.289  1.00  0.00     0.002 A 
ATOM     24  C   UNL     1       7.808   1.147  -3.773  1.00  0.00     0.002 A 
BRANCH  14  25
ATOM     25  C   UNL     1       2.940   1.843  -1.346  1.00  0.00     0.015 C 
ATOM     26  C   UNL     1       3.919   0.779  -0.570  1.00  0.00     0.010 C 
ATOM     27  C   UNL     1       2.404   3.203  -0.881  1.00  0.00     0.010 C 
ENDBRANCH  14  25
ENDBRANCH  10  13
ENDBRANCH   8   9
BRANCH   8  28
ATOM     28  C   UNL     1      -0.127   0.654  -1.419  1.00  0.00     0.070 C 
BRANCH  28  29
ATOM     29  C   UNL     1      -1.404   0.096  -2.024  1.00  0.00    -0.045 A 
ATOM     30  C   UNL     1      -2.340   1.052  -2.479  1.00  0.00     0.004 A 
ATOM     31  C   UNL     1      -1.709  -1.254  -2.213  1.00  0.00     0.004 A 
ATOM     32  C   UNL     1      -3.539   0.680  -3.087  1.00  0.00     0.000 A 
ATOM     33  C   UNL     1      -2.919  -1.629  -2.822  1.00  0.00     0.000 A 
ATOM     34  C   UNL     1      -3.831  -0.667  -3.256  1.00  0.00     0.000 A 
ENDBRANCH  28  29
ENDBRANCH   8  28
ENDBRANCH   5   8
ENDBRANCH   3   4
ENDBRANCH   2   3
ENDBRANCH   1   2
BRANCH   1  35
ATOM     35  C   UNL     1       6.033   4.670   0.795  1.00  0.00     0.002 C 
BRANCH  35  36
ATOM     36  C   UNL     1       5.981   4.880  -0.748  1.00  0.00     0.021 C 
BRANCH  36  37
ATOM     37  C   UNL     1       5.819   6.331  -1.254  1.00  0.00     0.116 C 
BRANCH  37  38
ATOM     38  N   UNL     1       6.940   7.199  -0.905  1.00  0.00    -0.352 N 
ATOM     39  C   UNL     1       8.024   7.707  -1.580  1.00  0.00     0.251 C 
ATOM     40  H   UNL     1       6.912   7.489   0.035  1.00  0.00     0.163 HD
ATOM     41  O   UNL     1       8.874   8.298  -0.910  1.00  0.00    -0.269 OA
BRANCH  39  42
ATOM     42  C   UNL     1       8.250   7.606  -3.050  1.00  0.00     0.039 A 
ATOM     43  C   UNL     1       9.583   7.568  -3.499  1.00  0.00     0.014 A 
ATOM     44  C   UNL     1       7.237   7.718  -4.003  1.00  0.00     0.014 A 
ATOM     45  C   UNL     1       9.896   7.627  -4.866  1.00  0.00     0.010 A 
ATOM     46  C   UNL     1       7.548   7.725  -5.377  1.00  0.00     0.010 A 
ATOM     47  C   UNL     1       8.881   7.697  -5.829  1.00  0.00    -0.014 A 
BRANCH  47  48
ATOM     48  C   UNL     1       9.199   7.795  -7.288  1.00  0.00     0.031 A 
ATOM     49  C   UNL     1       8.815   9.025  -8.078  1.00  0.00     0.074 A 
ATOM     50  C   UNL     1       9.808   6.778  -7.932  1.00  0.00     0.049 A 
ATOM     51  N   UNL     1       8.915   9.251  -9.367  1.00  0.00    -0.248 NA
ATOM     52  C   UNL     1       8.223  10.139  -7.322  1.00  0.00     0.031 C 
ATOM     53  C   UNL     1      10.247   5.525  -7.317  1.00  0.00     0.029 A 
ATOM     54  N   UNL     1      10.157   6.636  -9.256  1.00  0.00    -0.354 N 
ATOM     55  C   UNL     1       8.362  10.509  -9.579  1.00  0.00     0.074 A 
ATOM     56  C   UNL     1       7.906  10.987  -8.290  1.00  0.00     0.031 C 
ATOM     57  C   UNL     1      10.816   4.750  -8.255  1.00  0.00     0.029 A 
ATOM     58  C   UNL     1      10.749   5.429  -9.547  1.00  0.00     0.049 A 
ATOM     59  H   UNL     1       9.998   7.333  -9.932  1.00  0.00     0.167 HD
ATOM     60  C   UNL     1       8.249  11.214 -10.732  1.00  0.00     0.031 A 
ATOM     61  C   UNL     1      11.178   4.914 -10.716  1.00  0.00     0.031 A 
ATOM     62  C   UNL     1       8.734  10.773 -12.014  1.00  0.00     0.049 A 
ATOM     63  C   UNL     1      11.042   5.712 -11.984  1.00  0.00     0.074 A 
ATOM     64  C   UNL     1       8.714  11.451 -13.223  1.00  0.00     0.029 A 
ATOM     65  N   UNL     1       9.333   9.548 -12.255  1.00  0.00    -0.354 N 
ATOM     66  N   UNL     1      10.543   6.911 -12.156  1.00  0.00    -0.248 NA
ATOM     67  C   UNL     1      11.536   5.084 -13.220  1.00  0.00     0.031 C 
ATOM     68  C   UNL     1       9.264  10.619 -14.204  1.00  0.00     0.029 A 
ATOM     69  C   UNL     1       9.670   9.443 -13.595  1.00  0.00     0.049 A 
ATOM     70  H   UNL     1       9.495   8.855 -11.575  1.00  0.00     0.167 HD
ATOM     71  C   UNL     1      10.685   7.191 -13.509  1.00  0.00     0.074 A 
ATOM     72  C   UNL     1      11.329   6.043 -14.113  1.00  0.00     0.031 C 
ATOM     73  C   UNL     1      10.314   8.302 -14.190  1.00  0.00     0.031 A 
BRANCH  60  74
ATOM     74  C   UNL     1       7.553  12.547 -10.667  1.00  0.00    -0.014 A 
ATOM     75  C   UNL     1       8.158  13.659 -10.060  1.00  0.00     0.009 A 
ATOM     76  C   UNL     1       6.291  12.702 -11.262  1.00  0.00     0.009 A 
ATOM     77  C   UNL     1       7.494  14.887 -10.013  1.00  0.00     0.001 A 
ATOM     78  C   UNL     1       5.642  13.938 -11.239  1.00  0.00     0.001 A 
ATOM     79  C   UNL     1       6.240  15.027 -10.606  1.00  0.00     0.000 A 
ENDBRANCH  60  74
BRANCH  61  80
ATOM     80  C   UNL     1      11.786   3.557 -10.751  1.00  0.00    -0.014 A 
ATOM     81  C   UNL     1      13.163   3.400 -10.967  1.00  0.00     0.009 A 
ATOM     82  C   UNL     1      10.990   2.413 -10.579  1.00  0.00     0.009 A 
ATOM     83  C   UNL     1      13.729   2.124 -11.030  1.00  0.00     0.001 A 
ATOM     84  C   UNL     1      11.563   1.140 -10.615  1.00  0.00     0.001 A 
ATOM     85  C   UNL     1      12.930   0.996 -10.849  1.00  0.00     0.000 A 
ENDBRANCH  61  80
BRANCH  73  86
ATOM     86  C   UNL     1      10.625   8.351 -15.659  1.00  0.00    -0.014 A 
ATOM     87  C   UNL     1       9.887   7.599 -16.586  1.00  0.00     0.009 A 
ATOM     88  C   UNL     1      11.641   9.200 -16.127  1.00  0.00     0.009 A 
ATOM     89  C   UNL     1      10.180   7.674 -17.950  1.00  0.00     0.001 A 
ATOM     90  C   UNL     1      11.915   9.292 -17.492  1.00  0.00     0.001 A 
ATOM     91  C   UNL     1      11.190   8.524 -18.402  1.00  0.00     0.000 A 
ENDBRANCH  73  86
ENDBRANCH  47  48
ENDBRANCH  39  42
ENDBRANCH  37  38
ENDBRANCH  36  37
ENDBRANCH  35  36
ENDBRANCH   1  35
TORSDOF 18
