REMARK SMILES CCCCCCNC(=O)Oc1cccc(-c2ccc([C@@H](C)C(=O)NCCCCCCNC(=O)c3ccc(-c4c5nc(c(-c6ccccc6)c6ccc([nH]6)c(-c6ccccc6)c6nc(c(-c7ccccc7)c7ccc4[nH]7)C=C6)C=C5)cc3)cc2[N+](=O)[O-])c1
REMARK SMILES IDX 22 1 23 2 24 3 20 5 21 6 19 7 16 8 17 9 83 10 18 11 82 12
REMARK SMILES IDX 15 13 11 14 12 15 87 16 13 17 14 18 10 19 8 20 7 21 9 23
REMARK SMILES IDX 6 24 5 25 4 26 3 27 2 28 1 29 84 30 85 31 86 32 25 33 26 34
REMARK SMILES IDX 27 35 28 36 29 37 30 38 31 39 32 40 33 42 34 43 35 44 81 45
REMARK SMILES IDX 36 46 80 47 37 48 38 49 39 50 74 51 40 52 79 53 73 54 75 55
REMARK SMILES IDX 41 56 78 57 72 58 71 59 42 61 64 62 49 63 63 64 50 65 53 66
REMARK SMILES IDX 62 67 76 68 51 69 52 70 61 72 77 73 54 74 43 75 44 76 48 77
REMARK SMILES IDX 45 78 47 79 46 80 65 81 66 82 70 83 67 84 69 85 68 86 55 87
REMARK SMILES IDX 56 88 60 89 57 90 59 91 58 92
REMARK H PARENT 24 4 7 22 31 41 75 60 53 71
REMARK Flexibility Score: inf
ROOT
ATOM      1  C   UNL     1      -3.144 -11.857  -7.684  1.00  0.00     0.227 C 
ATOM      2  O   UNL     1      -2.238 -12.236  -6.932  1.00  0.00    -0.274 OA
ATOM      3  N   UNL     1      -2.829 -11.759  -9.003  1.00  0.00    -0.356 N 
ATOM      4  H   UNL     1      -1.930 -12.095  -9.225  1.00  0.00     0.163 HD
ENDROOT
BRANCH   1   5
ATOM      5  C   UNL     1      -4.531 -11.540  -7.103  1.00  0.00     0.105 C 
ATOM      6  C   UNL     1      -5.672 -12.361  -7.702  1.00  0.00     0.023 C 
BRANCH   5   7
ATOM      7  C   UNL     1      -4.810 -10.052  -6.944  1.00  0.00    -0.029 A 
ATOM      8  C   UNL     1      -5.152  -7.214  -6.628  1.00  0.00     0.060 A 
ATOM      9  C   UNL     1      -5.424  -7.868  -7.842  1.00  0.00     0.016 A 
ATOM     10  C   UNL     1      -4.778  -8.041  -5.552  1.00  0.00     0.277 A 
ATOM     11  C   UNL     1      -5.297  -9.256  -7.983  1.00  0.00     0.005 A 
ATOM     12  C   UNL     1      -4.570  -9.427  -5.711  1.00  0.00     0.090 A 
BRANCH   8  13
ATOM     13  C   UNL     1      -5.236  -5.737  -6.587  1.00  0.00    -0.008 A 
ATOM     14  C   UNL     1      -4.296  -3.567  -6.032  1.00  0.00     0.133 A 
ATOM     15  C   UNL     1      -5.405  -2.913  -6.559  1.00  0.00     0.047 A 
ATOM     16  C   UNL     1      -4.197  -4.960  -6.050  1.00  0.00     0.056 A 
ATOM     17  C   UNL     1      -6.432  -3.666  -7.119  1.00  0.00     0.004 A 
ATOM     18  C   UNL     1      -6.351  -5.062  -7.122  1.00  0.00     0.009 A 
BRANCH  14  19
ATOM     19  O   UNL     1      -3.362  -2.777  -5.343  1.00  0.00    -0.410 OA
BRANCH  19  20
ATOM     20  C   UNL     1      -2.012  -2.951  -5.601  1.00  0.00     0.412 C 
ATOM     21  N   UNL     1      -1.212  -2.290  -4.710  1.00  0.00    -0.321 N 
ATOM     22  H   UNL     1      -0.241  -2.336  -4.869  1.00  0.00     0.167 HD
ATOM     23  O   UNL     1      -1.536  -3.610  -6.518  1.00  0.00    -0.224 OA
BRANCH  21  24
ATOM     24  C   UNL     1      -1.649  -1.530  -3.556  1.00  0.00     0.119 C 
BRANCH  24  25
ATOM     25  C   UNL     1      -1.059  -2.073  -2.254  1.00  0.00     0.021 C 
BRANCH  25  26
ATOM     26  C   UNL     1       0.469  -1.996  -2.155  1.00  0.00     0.002 C 
BRANCH  26  27
ATOM     27  C   UNL     1       1.070  -0.595  -2.316  1.00  0.00    -0.000 C 
BRANCH  27  28
ATOM     28  C   UNL     1       0.582   0.449  -1.309  1.00  0.00    -0.003 C 
ATOM     29  C   UNL     1       0.948   0.114   0.129  1.00  0.00     0.004 C 
ENDBRANCH  27  28
ENDBRANCH  26  27
ENDBRANCH  25  26
ENDBRANCH  24  25
ENDBRANCH  21  24
ENDBRANCH  19  20
ENDBRANCH  14  19
ENDBRANCH   8  13
BRANCH  10  30
ATOM     30  N   UNL     1      -4.662  -7.513  -4.196  1.00  0.00     0.063 N 
ATOM     31  O   UNL     1      -3.683  -7.878  -3.528  1.00  0.00    -0.258 OA
ATOM     32  O   UNL     1      -5.571  -6.781  -3.782  1.00  0.00    -0.258 OA
ENDBRANCH  10  30
ENDBRANCH   5   7
ENDBRANCH   1   5
BRANCH   3  33
ATOM     33  C   UNL     1      -3.567 -11.255 -10.141  1.00  0.00     0.116 C 
BRANCH  33  34
ATOM     34  C   UNL     1      -3.111  -9.845 -10.525  1.00  0.00     0.021 C 
BRANCH  34  35
ATOM     35  C   UNL     1      -1.962  -9.819 -11.538  1.00  0.00     0.002 C 
BRANCH  35  36
ATOM     36  C   UNL     1      -2.298 -10.406 -12.915  1.00  0.00     0.002 C 
BRANCH  36  37
ATOM     37  C   UNL     1      -3.519  -9.797 -13.613  1.00  0.00     0.021 C 
BRANCH  37  38
ATOM     38  C   UNL     1      -3.421  -8.297 -13.879  1.00  0.00     0.116 C 
BRANCH  38  39
ATOM     39  N   UNL     1      -2.328  -7.978 -14.784  1.00  0.00    -0.352 N 
ATOM     40  C   UNL     1      -2.357  -7.385 -16.020  1.00  0.00     0.251 C 
ATOM     41  H   UNL     1      -1.432  -8.226 -14.460  1.00  0.00     0.163 HD
ATOM     42  O   UNL     1      -1.363  -7.408 -16.739  1.00  0.00    -0.269 OA
BRANCH  40  43
ATOM     43  C   UNL     1      -3.590  -6.723 -16.498  1.00  0.00     0.039 A 
ATOM     44  C   UNL     1      -4.000  -6.929 -17.819  1.00  0.00     0.014 A 
ATOM     45  C   UNL     1      -4.319  -5.874 -15.661  1.00  0.00     0.014 A 
ATOM     46  C   UNL     1      -5.173  -6.329 -18.282  1.00  0.00     0.010 A 
ATOM     47  C   UNL     1      -5.521  -5.328 -16.104  1.00  0.00     0.010 A 
ATOM     48  C   UNL     1      -5.959  -5.549 -17.419  1.00  0.00    -0.014 A 
BRANCH  48  49
ATOM     49  C   UNL     1      -7.244  -4.960 -17.871  1.00  0.00     0.031 A 
ATOM     50  C   UNL     1      -7.406  -3.468 -17.962  1.00  0.00     0.074 A 
ATOM     51  C   UNL     1      -8.286  -5.769 -18.140  1.00  0.00     0.049 A 
ATOM     52  N   UNL     1      -8.469  -2.771 -18.276  1.00  0.00    -0.248 NA
ATOM     53  C   UNL     1      -6.227  -2.651 -17.634  1.00  0.00     0.031 C 
ATOM     54  C   UNL     1      -8.269  -7.231 -18.057  1.00  0.00     0.029 A 
ATOM     55  N   UNL     1      -9.568  -5.474 -18.531  1.00  0.00    -0.354 N 
ATOM     56  C   UNL     1      -8.092  -1.439 -18.169  1.00  0.00     0.074 A 
ATOM     57  C   UNL     1      -6.718  -1.423 -17.716  1.00  0.00     0.031 C 
ATOM     58  C   UNL     1      -9.475  -7.705 -18.410  1.00  0.00     0.029 A 
ATOM     59  C   UNL     1     -10.359  -6.583 -18.705  1.00  0.00     0.049 A 
ATOM     60  H   UNL     1      -9.890  -4.554 -18.673  1.00  0.00     0.167 HD
ATOM     61  C   UNL     1      -8.818  -0.327 -18.438  1.00  0.00     0.031 A 
ATOM     62  C   UNL     1     -11.654  -6.686 -19.057  1.00  0.00     0.031 A 
ATOM     63  C   UNL     1     -10.181  -0.342 -18.897  1.00  0.00     0.049 A 
ATOM     64  C   UNL     1     -12.443  -5.437 -19.335  1.00  0.00     0.074 A 
ATOM     65  C   UNL     1     -10.984   0.730 -19.250  1.00  0.00     0.029 A 
ATOM     66  N   UNL     1     -10.945  -1.486 -19.064  1.00  0.00    -0.354 N 
ATOM     67  N   UNL     1     -12.053  -4.187 -19.289  1.00  0.00    -0.248 NA
ATOM     68  C   UNL     1     -13.849  -5.617 -19.723  1.00  0.00     0.031 C 
ATOM     69  C   UNL     1     -12.249   0.236 -19.585  1.00  0.00     0.029 A 
ATOM     70  C   UNL     1     -12.218  -1.145 -19.491  1.00  0.00     0.049 A 
ATOM     71  H   UNL     1     -10.630  -2.405 -18.903  1.00  0.00     0.167 HD
ATOM     72  C   UNL     1     -13.156  -3.433 -19.666  1.00  0.00     0.074 A 
ATOM     73  C   UNL     1     -14.226  -4.367 -19.952  1.00  0.00     0.031 C 
ATOM     74  C   UNL     1     -13.272  -2.086 -19.767  1.00  0.00     0.031 A 
BRANCH  61  75
ATOM     75  C   UNL     1      -8.148   1.003 -18.234  1.00  0.00    -0.014 A 
ATOM     76  C   UNL     1      -7.127   1.442 -19.093  1.00  0.00     0.009 A 
ATOM     77  C   UNL     1      -8.566   1.844 -17.191  1.00  0.00     0.009 A 
ATOM     78  C   UNL     1      -6.513   2.680 -18.888  1.00  0.00     0.001 A 
ATOM     79  C   UNL     1      -7.970   3.093 -17.006  1.00  0.00     0.001 A 
ATOM     80  C   UNL     1      -6.938   3.506 -17.848  1.00  0.00     0.000 A 
ENDBRANCH  61  75
BRANCH  62  81
ATOM     81  C   UNL     1     -12.286  -8.025 -19.181  1.00  0.00    -0.014 A 
ATOM     82  C   UNL     1     -12.620  -8.538 -20.444  1.00  0.00     0.009 A 
ATOM     83  C   UNL     1     -12.561  -8.795 -18.041  1.00  0.00     0.009 A 
ATOM     84  C   UNL     1     -13.240  -9.784 -20.560  1.00  0.00     0.001 A 
ATOM     85  C   UNL     1     -13.155 -10.053 -18.162  1.00  0.00     0.001 A 
ATOM     86  C   UNL     1     -13.502 -10.542 -19.419  1.00  0.00     0.000 A 
ENDBRANCH  62  81
BRANCH  74  87
ATOM     87  C   UNL     1     -14.594  -1.546 -20.232  1.00  0.00    -0.014 A 
ATOM     88  C   UNL     1     -15.720  -1.555 -19.394  1.00  0.00     0.009 A 
ATOM     89  C   UNL     1     -14.703  -0.986 -21.515  1.00  0.00     0.009 A 
ATOM     90  C   UNL     1     -16.938  -1.041 -19.845  1.00  0.00     0.001 A 
ATOM     91  C   UNL     1     -15.914  -0.449 -21.952  1.00  0.00     0.001 A 
ATOM     92  C   UNL     1     -17.032  -0.485 -21.120  1.00  0.00     0.000 A 
ENDBRANCH  74  87
ENDBRANCH  48  49
ENDBRANCH  40  43
ENDBRANCH  38  39
ENDBRANCH  37  38
ENDBRANCH  36  37
ENDBRANCH  35  36
ENDBRANCH  34  35
ENDBRANCH  33  34
ENDBRANCH   3  33
TORSDOF 23
