REMARK SMILES C[C@@H](Nc1ccc(C(=O)NCCCCCCNC(=O)c2ccc(-c3c4nc(c(-c5ccccc5)c5ccc([nH]5)c(-c5ccccc5)c5nc(c(-c6ccccc6)c6ccc3[nH]6)C=C5)C=C4)cc2)cc1)C1CC[NH+](C)CC1
REMARK SMILES IDX 13 1 12 2 11 3 10 4 8 5 9 6 7 8 4 9 5 10 69 11 6 12 68 13
REMARK SMILES IDX 3 14 2 16 1 17 70 18 71 19 76 20 72 21 75 22 73 23 74 24
REMARK SMILES IDX 14 26 15 27 16 28 17 29 18 30 19 32 20 33 21 34 67 35 22 36
REMARK SMILES IDX 66 37 23 38 24 39 25 40 60 41 26 42 65 43 59 44 61 45 27 46
REMARK SMILES IDX 64 47 58 48 57 49 28 51 50 52 35 53 49 54 36 55 39 56 48 57
REMARK SMILES IDX 62 58 37 59 38 60 47 62 63 63 40 64 29 65 30 66 34 67 31 68
REMARK SMILES IDX 33 69 32 70 51 71 52 72 56 73 53 74 55 75 54 76 41 77 42 78
REMARK SMILES IDX 46 79 43 80 45 81 44 82
REMARK H PARENT 10 7 3 15 73 25 17 31 61 50 39 61
REMARK Flexibility Score: inf
ROOT
ATOM      1  C   UNL     1      -5.601  -2.172  -7.619  1.00  0.00     0.002 C 
ENDROOT
BRANCH   1   2
ATOM      2  C   UNL     1      -4.468  -1.601  -6.753  1.00  0.00     0.021 C 
BRANCH   2   3
ATOM      3  C   UNL     1      -4.383  -2.255  -5.372  1.00  0.00     0.116 C 
BRANCH   3   4
ATOM      4  N   UNL     1      -3.839  -3.593  -5.502  1.00  0.00    -0.352 N 
ATOM      5  C   UNL     1      -2.592  -4.102  -5.251  1.00  0.00     0.251 C 
ATOM      6  O   UNL     1      -2.386  -5.289  -5.499  1.00  0.00    -0.269 OA
ATOM      7  H   UNL     1      -4.485  -4.258  -5.832  1.00  0.00     0.163 HD
BRANCH   5   8
ATOM      8  C   UNL     1      -1.531  -3.303  -4.590  1.00  0.00     0.039 A 
ATOM      9  C   UNL     1       0.260  -1.877  -2.949  1.00  0.00     0.034 A 
ATOM     10  C   UNL     1       0.130  -3.264  -2.832  1.00  0.00     0.026 A 
ATOM     11  C   UNL     1      -0.414  -1.239  -3.994  1.00  0.00     0.026 A 
ATOM     12  C   UNL     1      -0.762  -3.971  -3.634  1.00  0.00     0.016 A 
ATOM     13  C   UNL     1      -1.286  -1.950  -4.828  1.00  0.00     0.016 A 
BRANCH   9  14
ATOM     14  N   UNL     1       0.920  -1.211  -1.939  1.00  0.00    -0.382 N 
ATOM     15  H   UNL     1       1.694  -1.670  -1.541  1.00  0.00     0.160 HD
BRANCH  14  16
ATOM     16  C   UNL     1       0.588   0.111  -1.396  1.00  0.00     0.079 C 
ATOM     17  C   UNL     1       1.498   0.294  -0.174  1.00  0.00     0.031 C 
BRANCH  16  18
ATOM     18  C   UNL     1      -0.948   0.270  -1.115  1.00  0.00     0.022 C 
ATOM     19  C   UNL     1      -1.436   1.708  -1.344  1.00  0.00     0.067 C 
ATOM     20  C   UNL     1      -1.472  -0.229   0.240  1.00  0.00     0.067 C 
ATOM     21  C   UNL     1      -1.129   2.634  -0.175  1.00  0.00     0.262 C 
ATOM     22  C   UNL     1      -1.291   0.759   1.396  1.00  0.00     0.262 C 
ATOM     23  N   UNL     1      -1.707   2.129   1.073  1.00  0.00    -0.337 N 
ATOM     24  C   UNL     1      -1.368   3.029   2.179  1.00  0.00     0.332 C 
ATOM     25  H   UNL     1      -2.717   2.102   0.937  1.00  0.00     0.347 HD
ENDBRANCH  16  18
ENDBRANCH  14  16
ENDBRANCH   9  14
ENDBRANCH   5   8
ENDBRANCH   3   4
ENDBRANCH   2   3
ENDBRANCH   1   2
BRANCH   1  26
ATOM     26  C   UNL     1      -7.013  -1.908  -7.083  1.00  0.00     0.002 C 
BRANCH  26  27
ATOM     27  C   UNL     1      -7.345  -0.433  -6.844  1.00  0.00     0.021 C 
BRANCH  27  28
ATOM     28  C   UNL     1      -7.237   0.444  -8.087  1.00  0.00     0.116 C 
BRANCH  28  29
ATOM     29  N   UNL     1      -8.219   0.075  -9.095  1.00  0.00    -0.352 N 
ATOM     30  C   UNL     1      -9.167   0.853  -9.710  1.00  0.00     0.251 C 
ATOM     31  H   UNL     1      -8.200  -0.868  -9.376  1.00  0.00     0.163 HD
ATOM     32  O   UNL     1     -10.057   0.335 -10.374  1.00  0.00    -0.269 OA
BRANCH  30  33
ATOM     33  C   UNL     1      -9.120   2.323  -9.560  1.00  0.00     0.039 A 
ATOM     34  C   UNL     1     -10.308   3.015  -9.311  1.00  0.00     0.014 A 
ATOM     35  C   UNL     1      -7.914   3.017  -9.689  1.00  0.00     0.014 A 
ATOM     36  C   UNL     1     -10.278   4.400  -9.145  1.00  0.00     0.010 A 
ATOM     37  C   UNL     1      -7.875   4.389  -9.453  1.00  0.00     0.010 A 
ATOM     38  C   UNL     1      -9.058   5.095  -9.190  1.00  0.00    -0.014 A 
BRANCH  38  39
ATOM     39  C   UNL     1      -9.005   6.563  -8.980  1.00  0.00     0.031 A 
ATOM     40  C   UNL     1      -8.572   7.472 -10.097  1.00  0.00     0.074 A 
ATOM     41  C   UNL     1      -9.298   7.074  -7.768  1.00  0.00     0.049 A 
ATOM     42  N   UNL     1      -8.426   8.773 -10.093  1.00  0.00    -0.248 NA
ATOM     43  C   UNL     1      -8.236   6.834 -11.381  1.00  0.00     0.031 C 
ATOM     44  C   UNL     1      -9.693   6.297  -6.592  1.00  0.00     0.029 A 
ATOM     45  N   UNL     1      -9.304   8.373  -7.325  1.00  0.00    -0.354 N 
ATOM     46  C   UNL     1      -7.967   9.105 -11.362  1.00  0.00     0.074 A 
ATOM     47  C   UNL     1      -7.811   7.867 -12.093  1.00  0.00     0.031 C 
ATOM     48  C   UNL     1      -9.931   7.136  -5.571  1.00  0.00     0.029 A 
ATOM     49  C   UNL     1      -9.669   8.504  -6.008  1.00  0.00     0.049 A 
ATOM     50  H   UNL     1      -9.069   9.139  -7.898  1.00  0.00     0.167 HD
ATOM     51  C   UNL     1      -7.717  10.331 -11.880  1.00  0.00     0.031 A 
ATOM     52  C   UNL     1      -9.778   9.602  -5.237  1.00  0.00     0.031 A 
ATOM     53  C   UNL     1      -7.885  11.563 -11.158  1.00  0.00     0.049 A 
ATOM     54  C   UNL     1      -9.487  10.950  -5.833  1.00  0.00     0.074 A 
ATOM     55  C   UNL     1      -7.713  12.859 -11.613  1.00  0.00     0.029 A 
ATOM     56  N   UNL     1      -8.264  11.652  -9.828  1.00  0.00    -0.354 N 
ATOM     57  N   UNL     1      -9.121  11.252  -7.055  1.00  0.00    -0.248 NA
ATOM     58  C   UNL     1      -9.636  12.112  -4.945  1.00  0.00     0.031 C 
ATOM     59  C   UNL     1      -7.941  13.731 -10.543  1.00  0.00     0.029 A 
ATOM     60  C   UNL     1      -8.309  12.980  -9.438  1.00  0.00     0.049 A 
ATOM     61  H   UNL     1      -8.471  10.885  -9.246  1.00  0.00     0.167 HD
ATOM     62  C   UNL     1      -9.025  12.637  -7.091  1.00  0.00     0.074 A 
ATOM     63  C   UNL     1      -9.386  13.117  -5.773  1.00  0.00     0.031 C 
ATOM     64  C   UNL     1      -8.671  13.440  -8.123  1.00  0.00     0.031 A 
BRANCH  51  65
ATOM     65  C   UNL     1      -7.229  10.397 -13.300  1.00  0.00    -0.014 A 
ATOM     66  C   UNL     1      -8.077  10.090 -14.376  1.00  0.00     0.009 A 
ATOM     67  C   UNL     1      -5.913  10.806 -13.569  1.00  0.00     0.009 A 
ATOM     68  C   UNL     1      -7.608  10.157 -15.690  1.00  0.00     0.001 A 
ATOM     69  C   UNL     1      -5.455  10.901 -14.885  1.00  0.00     0.001 A 
ATOM     70  C   UNL     1      -6.300  10.567 -15.943  1.00  0.00     0.000 A 
ENDBRANCH  51  65
BRANCH  52  71
ATOM     71  C   UNL     1     -10.201   9.477  -3.817  1.00  0.00    -0.014 A 
ATOM     72  C   UNL     1     -11.464   9.933  -3.408  1.00  0.00     0.009 A 
ATOM     73  C   UNL     1      -9.341   8.913  -2.862  1.00  0.00     0.009 A 
ATOM     74  C   UNL     1     -11.845   9.854  -2.067  1.00  0.00     0.001 A 
ATOM     75  C   UNL     1      -9.737   8.808  -1.527  1.00  0.00     0.001 A 
ATOM     76  C   UNL     1     -10.983   9.287  -1.128  1.00  0.00     0.000 A 
ENDBRANCH  52  71
BRANCH  64  77
ATOM     77  C   UNL     1      -8.691  14.923  -7.879  1.00  0.00    -0.014 A 
ATOM     78  C   UNL     1      -7.717  15.544  -7.083  1.00  0.00     0.009 A 
ATOM     79  C   UNL     1      -9.678  15.713  -8.489  1.00  0.00     0.009 A 
ATOM     80  C   UNL     1      -7.750  16.925  -6.878  1.00  0.00     0.001 A 
ATOM     81  C   UNL     1      -9.692  17.096  -8.306  1.00  0.00     0.001 A 
ATOM     82  C   UNL     1      -8.734  17.699  -7.493  1.00  0.00     0.000 A 
ENDBRANCH  64  77
ENDBRANCH  38  39
ENDBRANCH  30  33
ENDBRANCH  28  29
ENDBRANCH  27  28
ENDBRANCH  26  27
ENDBRANCH   1  26
TORSDOF 16
