REMARK SMILES C[C@H](NC(=O)[C@@H]1CCCN(S(=O)(=O)c2ccc(Cl)cc2)C1)C(=O)NCCCCCCNC(=O)c1ccc(-c2c3nc(c(-c4ccccc4)c4ccc([nH]4)c(-c4ccccc4)c4nc(c(-c5ccccc5)c5ccc2[nH]5)C=C4)C=C3)cc1
REMARK SMILES IDX 26 1 25 2 24 3 22 4 23 5 2 7 1 8 3 9 4 10 5 12 6 13 7 14
REMARK SMILES IDX 21 15 8 16 10 17 9 18 11 19 12 20 13 21 14 22 15 23 20 24
REMARK SMILES IDX 16 25 19 26 17 27 18 28 27 29 28 30 29 31 30 32 31 33 32 34
REMARK SMILES IDX 33 36 34 37 35 38 81 39 36 40 80 41 37 42 38 43 39 44 74 45
REMARK SMILES IDX 40 46 79 47 73 48 75 49 41 50 78 51 72 52 71 53 42 55 64 56
REMARK SMILES IDX 49 57 63 58 50 59 53 60 62 61 76 62 51 63 52 64 61 66 77 67
REMARK SMILES IDX 54 68 43 69 44 70 48 71 45 72 47 73 46 74 65 75 66 76 70 77
REMARK SMILES IDX 67 78 69 79 68 80 55 81 56 82 60 83 57 84 59 85 58 86
REMARK H PARENT 24 6 3 11 31 35 75 54 53 65
REMARK Flexibility Score: inf
ROOT
ATOM      1  C   UNL     1      -1.582   1.346   2.266  1.00  0.00     0.021 C 
ENDROOT
BRANCH   1   2
ATOM      2  C   UNL     1      -1.056  -0.086   2.280  1.00  0.00     0.116 C 
BRANCH   2   3
ATOM      3  N   UNL     1      -1.792  -0.892   1.329  1.00  0.00    -0.354 N 
ATOM      4  C   UNL     1      -1.382  -1.680   0.309  1.00  0.00     0.242 C 
ATOM      5  O   UNL     1      -2.253  -2.239  -0.363  1.00  0.00    -0.273 OA
ATOM      6  H   UNL     1      -2.769  -0.860   1.445  1.00  0.00     0.163 HD
BRANCH   4   7
ATOM      7  C   UNL     1       0.097  -1.978   0.069  1.00  0.00     0.168 C 
ATOM      8  C   UNL     1       0.678  -2.797   1.224  1.00  0.00     0.041 C 
BRANCH   7   9
ATOM      9  N   UNL     1       0.927  -0.807  -0.198  1.00  0.00    -0.344 N 
ATOM     10  C   UNL     1       2.154  -0.806  -0.804  1.00  0.00     0.225 C 
ATOM     11  H   UNL     1       0.570   0.065   0.086  1.00  0.00     0.164 HD
ATOM     12  O   UNL     1       2.867   0.188  -0.685  1.00  0.00    -0.275 OA
BRANCH  10  13
ATOM     13  C   UNL     1       2.545  -2.024  -1.639  1.00  0.00     0.094 C 
ATOM     14  C   UNL     1       3.951  -2.531  -1.346  1.00  0.00     0.016 C 
ATOM     15  C   UNL     1       2.273  -1.718  -3.112  1.00  0.00     0.116 C 
ATOM     16  C   UNL     1       5.018  -1.744  -2.077  1.00  0.00     0.018 C 
ATOM     17  N   UNL     1       3.381  -0.946  -3.757  1.00  0.00    -0.197 NA
ATOM     18  C   UNL     1       4.695  -1.616  -3.557  1.00  0.00     0.102 C 
BRANCH  17  19
ATOM     19  S   UNL     1       2.993  -0.562  -5.395  1.00  0.00     0.243 S 
ATOM     20  O   UNL     1       3.153  -1.778  -6.172  1.00  0.00    -0.207 OA
ATOM     21  O   UNL     1       1.737   0.152  -5.393  1.00  0.00    -0.207 OA
BRANCH  19  22
ATOM     22  C   UNL     1       4.266   0.572  -5.899  1.00  0.00     0.082 A 
ATOM     23  C   UNL     1       5.526   0.076  -6.255  1.00  0.00     0.023 A 
ATOM     24  C   UNL     1       3.994   1.940  -5.991  1.00  0.00     0.023 A 
ATOM     25  C   UNL     1       6.552   0.960  -6.587  1.00  0.00     0.022 A 
ATOM     26  C   UNL     1       5.013   2.819  -6.370  1.00  0.00     0.022 A 
ATOM     27  C   UNL     1       6.292   2.328  -6.639  1.00  0.00     0.041 A 
ATOM     28  Cl  UNL     1       7.561   3.416  -7.044  1.00  0.00    -0.084 Cl
ENDBRANCH  19  22
ENDBRANCH  17  19
ENDBRANCH  10  13
ENDBRANCH   7   9
ENDBRANCH   4   7
ENDBRANCH   2   3
ENDBRANCH   1   2
BRANCH   1  29
ATOM     29  C   UNL     1      -3.089   1.450   2.544  1.00  0.00     0.002 C 
BRANCH  29  30
ATOM     30  C   UNL     1      -3.557   0.710   3.802  1.00  0.00     0.002 C 
BRANCH  30  31
ATOM     31  C   UNL     1      -2.839   1.132   5.083  1.00  0.00     0.021 C 
BRANCH  31  32
ATOM     32  C   UNL     1      -2.919   2.624   5.367  1.00  0.00     0.116 C 
BRANCH  32  33
ATOM     33  N   UNL     1      -4.293   3.068   5.533  1.00  0.00    -0.352 N 
ATOM     34  C   UNL     1      -4.833   3.817   6.544  1.00  0.00     0.251 C 
ATOM     35  H   UNL     1      -4.918   2.794   4.824  1.00  0.00     0.163 HD
ATOM     36  O   UNL     1      -6.049   3.930   6.656  1.00  0.00    -0.269 OA
BRANCH  34  37
ATOM     37  C   UNL     1      -3.932   4.476   7.510  1.00  0.00     0.039 A 
ATOM     38  C   UNL     1      -4.242   4.418   8.869  1.00  0.00     0.014 A 
ATOM     39  C   UNL     1      -2.784   5.143   7.072  1.00  0.00     0.014 A 
ATOM     40  C   UNL     1      -3.379   5.002   9.794  1.00  0.00     0.010 A 
ATOM     41  C   UNL     1      -1.880   5.644   8.000  1.00  0.00     0.010 A 
ATOM     42  C   UNL     1      -2.180   5.600   9.369  1.00  0.00    -0.014 A 
BRANCH  42  43
ATOM     43  C   UNL     1      -1.251   6.222  10.343  1.00  0.00     0.031 A 
ATOM     44  C   UNL     1      -0.980   7.702  10.281  1.00  0.00     0.074 A 
ATOM     45  C   UNL     1      -0.632   5.456  11.262  1.00  0.00     0.049 A 
ATOM     46  N   UNL     1      -0.182   8.426  11.024  1.00  0.00    -0.248 NA
ATOM     47  C   UNL     1      -1.679   8.465   9.233  1.00  0.00     0.031 C 
ATOM     48  C   UNL     1      -0.783   4.006  11.400  1.00  0.00     0.029 A 
ATOM     49  N   UNL     1       0.250   5.795  12.257  1.00  0.00    -0.354 N 
ATOM     50  C   UNL     1      -0.285   9.722  10.534  1.00  0.00     0.074 A 
ATOM     51  C   UNL     1      -1.162   9.674   9.386  1.00  0.00     0.031 C 
ATOM     52  C   UNL     1      -0.044   3.585  12.440  1.00  0.00     0.029 A 
ATOM     53  C   UNL     1       0.663   4.725  13.013  1.00  0.00     0.049 A 
ATOM     54  H   UNL     1       0.557   6.716  12.414  1.00  0.00     0.167 HD
ATOM     55  C   UNL     1       0.273  10.858  11.013  1.00  0.00     0.031 A 
ATOM     56  C   UNL     1       1.521   4.670  14.049  1.00  0.00     0.031 A 
ATOM     57  C   UNL     1       1.148  10.907  12.154  1.00  0.00     0.049 A 
ATOM     58  C   UNL     1       2.155   5.944  14.540  1.00  0.00     0.074 A 
ATOM     59  C   UNL     1       1.752  12.010  12.730  1.00  0.00     0.029 A 
ATOM     60  N   UNL     1       1.539   9.802  12.893  1.00  0.00    -0.354 N 
ATOM     61  N   UNL     1       2.006   7.169  14.097  1.00  0.00    -0.248 NA
ATOM     62  C   UNL     1       3.063   5.827  15.690  1.00  0.00     0.031 C 
ATOM     63  C   UNL     1       2.549  11.566  13.790  1.00  0.00     0.029 A 
ATOM     64  C   UNL     1       2.386  10.196  13.915  1.00  0.00     0.049 A 
ATOM     65  H   UNL     1       1.257   8.876  12.718  1.00  0.00     0.167 HD
ATOM     66  C   UNL     1       2.766   7.971  14.938  1.00  0.00     0.074 A 
ATOM     67  C   UNL     1       3.359   7.096  15.928  1.00  0.00     0.031 C 
ATOM     68  C   UNL     1       2.958   9.312  14.898  1.00  0.00     0.031 A 
BRANCH  55  69
ATOM     69  C   UNL     1      -0.058  12.143  10.306  1.00  0.00    -0.014 A 
ATOM     70  C   UNL     1      -1.352  12.688  10.363  1.00  0.00     0.009 A 
ATOM     71  C   UNL     1       0.939  12.839   9.605  1.00  0.00     0.009 A 
ATOM     72  C   UNL     1      -1.649  13.883   9.705  1.00  0.00     0.001 A 
ATOM     73  C   UNL     1       0.647  14.051   8.976  1.00  0.00     0.001 A 
ATOM     74  C   UNL     1      -0.647  14.567   9.018  1.00  0.00     0.000 A 
ENDBRANCH  55  69
BRANCH  56  75
ATOM     75  C   UNL     1       1.835   3.370  14.700  1.00  0.00    -0.014 A 
ATOM     76  C   UNL     1       1.447   3.116  16.025  1.00  0.00     0.009 A 
ATOM     77  C   UNL     1       2.565   2.388  14.011  1.00  0.00     0.009 A 
ATOM     78  C   UNL     1       1.825   1.931  16.660  1.00  0.00     0.001 A 
ATOM     79  C   UNL     1       2.909   1.188  14.636  1.00  0.00     0.001 A 
ATOM     80  C   UNL     1       2.554   0.968  15.965  1.00  0.00     0.000 A 
ENDBRANCH  56  75
BRANCH  68  81
ATOM     81  C   UNL     1       3.791   9.921  15.993  1.00  0.00    -0.014 A 
ATOM     82  C   UNL     1       5.173   9.696  16.080  1.00  0.00     0.009 A 
ATOM     83  C   UNL     1       3.177  10.754  16.942  1.00  0.00     0.009 A 
ATOM     84  C   UNL     1       5.914  10.254  17.124  1.00  0.00     0.001 A 
ATOM     85  C   UNL     1       3.926  11.340  17.962  1.00  0.00     0.001 A 
ATOM     86  C   UNL     1       5.291  11.078  18.061  1.00  0.00     0.000 A 
ENDBRANCH  68  81
ENDBRANCH  42  43
ENDBRANCH  34  37
ENDBRANCH  32  33
ENDBRANCH  31  32
ENDBRANCH  30  31
ENDBRANCH  29  30
ENDBRANCH   1  29
TORSDOF 17
