REMARK SMILES C[C@]([NH3+])(C(=O)N1[C@@H](C(=O)NCCCCCCNC(=O)c2ccc(-c3c4nc(c(-c5ccccc5)c5ccc([nH]5)c(-c5ccccc5)c5nc(c(-c6ccccc6)c6ccc3[nH]6)C=C5)C=C4)cc2)C[C@H]2CCCC[C@@H]21)C(F)(F)F
REMARK SMILES IDX 13 1 12 2 11 3 10 4 8 5 9 6 7 8 6 9 74 10 68 11 69 12 73 13
REMARK SMILES IDX 70 14 72 15 71 16 4 17 5 18 2 19 1 20 75 21 76 22 77 23
REMARK SMILES IDX 78 24 3 25 14 29 15 30 16 31 17 32 18 33 19 35 20 36 21 37
REMARK SMILES IDX 67 38 22 39 66 40 23 41 24 42 25 43 60 44 26 45 65 46 59 47
REMARK SMILES IDX 61 48 27 49 64 50 58 51 57 52 28 54 50 55 35 56 49 57 36 58
REMARK SMILES IDX 39 59 48 60 62 61 37 62 38 63 47 65 63 66 40 67 29 68 30 69
REMARK SMILES IDX 34 70 31 71 33 72 32 73 51 74 52 75 56 76 53 77 55 78 54 79
REMARK SMILES IDX 41 80 42 81 46 82 43 83 45 84 44 85
REMARK H PARENT 10 7 3 26 3 27 3 28 17 34 61 53 39 64
REMARK Flexibility Score: inf
ROOT
ATOM      1  C   UNL     1      -4.588   5.317  -0.131  1.00  0.00     0.002 C 
ENDROOT
BRANCH   1   2
ATOM      2  C   UNL     1      -3.962   4.524   1.025  1.00  0.00     0.021 C 
BRANCH   2   3
ATOM      3  C   UNL     1      -4.125   3.009   0.885  1.00  0.00     0.116 C 
BRANCH   3   4
ATOM      4  N   UNL     1      -3.117   2.457   0.005  1.00  0.00    -0.354 N 
ATOM      5  C   UNL     1      -1.901   1.892   0.209  1.00  0.00     0.242 C 
ATOM      6  O   UNL     1      -1.282   1.596  -0.825  1.00  0.00    -0.273 OA
ATOM      7  H   UNL     1      -3.368   2.501  -0.946  1.00  0.00     0.163 HD
BRANCH   5   8
ATOM      8  C   UNL     1      -1.312   1.438   1.578  1.00  0.00     0.175 C 
ATOM      9  N   UNL     1      -1.617   0.004   1.745  1.00  0.00    -0.322 N 
ATOM     10  C   UNL     1      -2.791  -0.117   2.584  1.00  0.00     0.089 C 
ATOM     11  C   UNL     1      -1.802   2.096   2.871  1.00  0.00     0.041 C 
ATOM     12  C   UNL     1      -2.503   0.966   3.631  1.00  0.00     0.014 C 
ATOM     13  C   UNL     1      -3.062  -1.422   3.334  1.00  0.00     0.025 C 
ATOM     14  C   UNL     1      -3.758   1.269   4.429  1.00  0.00     0.006 C 
ATOM     15  C   UNL     1      -4.262  -1.244   4.278  1.00  0.00     0.002 C 
ATOM     16  C   UNL     1      -4.173  -0.003   5.181  1.00  0.00     0.000 C 
BRANCH   9  17
ATOM     17  C   UNL     1      -1.107  -1.053   1.007  1.00  0.00     0.294 C 
ATOM     18  O   UNL     1      -1.861  -1.968   0.670  1.00  0.00    -0.267 OA
BRANCH  17  19
ATOM     19  C   UNL     1       0.428  -1.131   0.765  1.00  0.00     0.267 C 
ATOM     20  C   UNL     1       1.140  -1.045   2.129  1.00  0.00     0.100 C 
BRANCH  19  21
ATOM     21  C   UNL     1       0.723  -2.537   0.165  1.00  0.00     0.453 C 
ATOM     22  F   UNL     1       0.169  -2.718  -1.055  1.00  0.00    -0.164 F 
ATOM     23  F   UNL     1       2.066  -2.712   0.010  1.00  0.00    -0.164 F 
ATOM     24  F   UNL     1       0.312  -3.543   0.973  1.00  0.00    -0.164 F 
ENDBRANCH  19  21
BRANCH  19  25
ATOM     25  N   UNL     1       0.928  -0.024  -0.110  1.00  0.00    -0.337 N 
ATOM     26  H   UNL     1       0.463  -0.071  -1.017  1.00  0.00     0.345 HD
ATOM     27  H   UNL     1       1.935  -0.122  -0.239  1.00  0.00     0.345 HD
ATOM     28  H   UNL     1       0.727   0.874   0.329  1.00  0.00     0.345 HD
ENDBRANCH  19  25
ENDBRANCH  17  19
ENDBRANCH   9  17
ENDBRANCH   5   8
ENDBRANCH   3   4
ENDBRANCH   2   3
ENDBRANCH   1   2
BRANCH   1  29
ATOM     29  C   UNL     1      -6.107   5.158  -0.280  1.00  0.00     0.002 C 
BRANCH  29  30
ATOM     30  C   UNL     1      -6.924   5.474   0.976  1.00  0.00     0.021 C 
BRANCH  30  31
ATOM     31  C   UNL     1      -6.797   6.911   1.471  1.00  0.00     0.116 C 
BRANCH  31  32
ATOM     32  N   UNL     1      -7.340   7.862   0.516  1.00  0.00    -0.352 N 
ATOM     33  C   UNL     1      -8.274   8.850   0.699  1.00  0.00     0.251 C 
ATOM     34  H   UNL     1      -6.985   7.786  -0.398  1.00  0.00     0.163 HD
ATOM     35  O   UNL     1      -8.764   9.415  -0.273  1.00  0.00    -0.269 OA
BRANCH  33  36
ATOM     36  C   UNL     1      -8.699   9.236   2.063  1.00  0.00     0.039 A 
ATOM     37  C   UNL     1     -10.049   9.522   2.290  1.00  0.00     0.014 A 
ATOM     38  C   UNL     1      -7.771   9.378   3.099  1.00  0.00     0.014 A 
ATOM     39  C   UNL     1     -10.470   9.923   3.560  1.00  0.00     0.010 A 
ATOM     40  C   UNL     1      -8.203   9.708   4.381  1.00  0.00     0.010 A 
ATOM     41  C   UNL     1      -9.553  10.008   4.619  1.00  0.00    -0.014 A 
BRANCH  41  42
ATOM     42  C   UNL     1      -9.982  10.465   5.965  1.00  0.00     0.031 A 
ATOM     43  C   UNL     1      -9.464  11.768   6.515  1.00  0.00     0.074 A 
ATOM     44  C   UNL     1     -10.816   9.706   6.701  1.00  0.00     0.049 A 
ATOM     45  N   UNL     1      -9.698  12.328   7.676  1.00  0.00    -0.248 NA
ATOM     46  C   UNL     1      -8.545  12.534   5.656  1.00  0.00     0.031 C 
ATOM     47  C   UNL     1     -11.370   8.413   6.295  1.00  0.00     0.029 A 
ATOM     48  N   UNL     1     -11.347   9.918   7.948  1.00  0.00    -0.354 N 
ATOM     49  C   UNL     1      -8.955  13.502   7.686  1.00  0.00     0.074 A 
ATOM     50  C   UNL     1      -8.213  13.544   6.445  1.00  0.00     0.031 C 
ATOM     51  C   UNL     1     -12.189   7.964   7.261  1.00  0.00     0.029 A 
ATOM     52  C   UNL     1     -12.191   8.918   8.365  1.00  0.00     0.049 A 
ATOM     53  H   UNL     1     -11.142  10.712   8.493  1.00  0.00     0.167 HD
ATOM     54  C   UNL     1      -8.912  14.475   8.628  1.00  0.00     0.031 A 
ATOM     55  C   UNL     1     -12.892   8.789   9.507  1.00  0.00     0.031 A 
ATOM     56  C   UNL     1      -9.654  14.441   9.859  1.00  0.00     0.049 A 
ATOM     57  C   UNL     1     -12.812   9.876  10.544  1.00  0.00     0.074 A 
ATOM     58  C   UNL     1      -9.688  15.382  10.874  1.00  0.00     0.029 A 
ATOM     59  N   UNL     1     -10.504  13.414  10.237  1.00  0.00    -0.354 N 
ATOM     60  N   UNL     1     -12.132  10.996  10.521  1.00  0.00    -0.248 NA
ATOM     61  C   UNL     1     -13.618   9.685  11.759  1.00  0.00     0.031 C 
ATOM     62  C   UNL     1     -10.535  14.909  11.882  1.00  0.00     0.029 A 
ATOM     63  C   UNL     1     -11.067  13.698  11.470  1.00  0.00     0.049 A 
ATOM     64  H   UNL     1     -10.680  12.603   9.708  1.00  0.00     0.167 HD
ATOM     65  C   UNL     1     -12.463  11.664  11.693  1.00  0.00     0.074 A 
ATOM     66  C   UNL     1     -13.413  10.828  12.398  1.00  0.00     0.031 C 
ATOM     67  C   UNL     1     -12.024  12.863  12.147  1.00  0.00     0.031 A 
BRANCH  54  68
ATOM     68  C   UNL     1      -8.038  15.665   8.349  1.00  0.00    -0.014 A 
ATOM     69  C   UNL     1      -8.384  16.598   7.357  1.00  0.00     0.009 A 
ATOM     70  C   UNL     1      -6.872  15.877   9.101  1.00  0.00     0.009 A 
ATOM     71  C   UNL     1      -7.562  17.697   7.099  1.00  0.00     0.001 A 
ATOM     72  C   UNL     1      -6.068  16.993   8.861  1.00  0.00     0.001 A 
ATOM     73  C   UNL     1      -6.408  17.896   7.855  1.00  0.00     0.000 A 
ENDBRANCH  54  68
BRANCH  55  74
ATOM     74  C   UNL     1     -13.759   7.602   9.731  1.00  0.00    -0.014 A 
ATOM     75  C   UNL     1     -15.156   7.737   9.755  1.00  0.00     0.009 A 
ATOM     76  C   UNL     1     -13.196   6.338   9.964  1.00  0.00     0.009 A 
ATOM     77  C   UNL     1     -15.970   6.641  10.053  1.00  0.00     0.001 A 
ATOM     78  C   UNL     1     -14.014   5.237  10.230  1.00  0.00     0.001 A 
ATOM     79  C   UNL     1     -15.398   5.393  10.289  1.00  0.00     0.000 A 
ENDBRANCH  55  74
BRANCH  67  80
ATOM     80  C   UNL     1     -12.620  13.368  13.430  1.00  0.00    -0.014 A 
ATOM     81  C   UNL     1     -12.309  12.783  14.667  1.00  0.00     0.009 A 
ATOM     82  C   UNL     1     -13.501  14.461  13.396  1.00  0.00     0.009 A 
ATOM     83  C   UNL     1     -12.906  13.253  15.839  1.00  0.00     0.001 A 
ATOM     84  C   UNL     1     -14.072  14.948  14.572  1.00  0.00     0.001 A 
ATOM     85  C   UNL     1     -13.784  14.335  15.790  1.00  0.00     0.000 A 
ENDBRANCH  67  80
ENDBRANCH  41  42
ENDBRANCH  33  36
ENDBRANCH  31  32
ENDBRANCH  30  31
ENDBRANCH  29  30
ENDBRANCH   1  29
TORSDOF 17
