REMARK SMILES Cc1cc(C)c2c(=O)n(CCCC(=O)NCCCCCCNC(=O)c3ccc(-c4c5nc(c(-c6ccccc6)c6ccc([nH]6)c(-c6ccccc6)c6nc(c(-c7ccccc7)c7ccc4[nH]7)C=C6)C=C5)cc3)sc2n1
REMARK SMILES IDX 18 1 17 2 16 3 15 4 13 5 14 6 12 8 11 9 10 10 9 11 1 12 2 13
REMARK SMILES IDX 3 14 75 15 4 16 74 17 5 18 6 19 73 20 7 21 8 22 19 23 20 24
REMARK SMILES IDX 21 25 22 26 23 27 24 29 25 30 26 31 72 32 27 33 71 34 28 35
REMARK SMILES IDX 29 36 30 37 65 38 31 39 70 40 64 41 66 42 32 43 69 44 63 45
REMARK SMILES IDX 62 46 33 48 55 49 40 50 54 51 41 52 44 53 53 54 67 55 42 56
REMARK SMILES IDX 43 57 52 59 68 60 45 61 34 62 35 63 39 64 36 65 38 66 37 67
REMARK SMILES IDX 56 68 57 69 61 70 58 71 60 72 59 73 46 74 47 75 51 76 48 77
REMARK SMILES IDX 50 78 49 79
REMARK H PARENT 15 7 22 28 66 47 44 58
REMARK Flexibility Score: inf
ROOT
ATOM      1  C   UNL     1       3.333   7.609  -3.509  1.00  0.00     0.002 C 
ENDROOT
BRANCH   1   2
ATOM      2  C   UNL     1       2.376   7.460  -2.323  1.00  0.00     0.021 C 
BRANCH   2   3
ATOM      3  C   UNL     1       2.996   6.713  -1.142  1.00  0.00     0.116 C 
BRANCH   3   4
ATOM      4  N   UNL     1       3.812   7.607  -0.356  1.00  0.00    -0.356 N 
ATOM      5  C   UNL     1       3.635   8.098   0.896  1.00  0.00     0.220 C 
ATOM      6  O   UNL     1       4.439   8.945   1.294  1.00  0.00    -0.275 OA
ATOM      7  H   UNL     1       4.635   7.911  -0.803  1.00  0.00     0.163 HD
BRANCH   5   8
ATOM      8  C   UNL     1       2.573   7.549   1.829  1.00  0.00     0.102 C 
BRANCH   8   9
ATOM      9  C   UNL     1       1.104   7.959   1.661  1.00  0.00     0.033 C 
BRANCH   9  10
ATOM     10  C   UNL     1       0.183   7.290   0.625  1.00  0.00     0.139 C 
BRANCH  10  11
ATOM     11  N   UNL     1      -0.037   5.847   0.627  1.00  0.00    -0.262 N 
ATOM     12  C   UNL     1       0.852  -0.160  -0.145  1.00  0.00     0.067 C 
ATOM     13  C   UNL     1       0.272   1.221  -0.212  1.00  0.00     0.039 A 
ATOM     14  C   UNL     1      -0.893   1.484  -0.947  1.00  0.00     0.027 A 
ATOM     15  N   UNL     1       0.891   2.165   0.532  1.00  0.00    -0.241 NA
ATOM     16  C   UNL     1      -1.417   2.789  -0.994  1.00  0.00    -0.033 A 
ATOM     17  C   UNL     1       0.362   3.398   0.471  1.00  0.00     0.146 A 
ATOM     18  C   UNL     1      -2.697   3.076  -1.713  1.00  0.00     0.045 C 
ATOM     19  C   UNL     1      -0.716   3.772  -0.307  1.00  0.00     0.081 A 
ATOM     20  S   UNL     1       0.940   4.731   1.474  1.00  0.00    -0.035 S 
ATOM     21  C   UNL     1      -0.912   5.241  -0.282  1.00  0.00     0.270 A 
ATOM     22  O   UNL     1      -1.677   5.818  -1.040  1.00  0.00    -0.268 OA
ENDBRANCH  10  11
ENDBRANCH   9  10
ENDBRANCH   8   9
ENDBRANCH   5   8
ENDBRANCH   3   4
ENDBRANCH   2   3
ENDBRANCH   1   2
BRANCH   1  23
ATOM     23  C   UNL     1       3.820   6.285  -4.120  1.00  0.00     0.002 C 
BRANCH  23  24
ATOM     24  C   UNL     1       2.728   5.310  -4.584  1.00  0.00     0.021 C 
BRANCH  24  25
ATOM     25  C   UNL     1       1.907   5.849  -5.740  1.00  0.00     0.116 C 
BRANCH  25  26
ATOM     26  N   UNL     1       2.713   6.066  -6.946  1.00  0.00    -0.352 N 
ATOM     27  C   UNL     1       2.305   6.499  -8.196  1.00  0.00     0.251 C 
ATOM     28  H   UNL     1       3.675   5.878  -6.854  1.00  0.00     0.163 HD
ATOM     29  O   UNL     1       2.997   6.347  -9.184  1.00  0.00    -0.269 OA
BRANCH  27  30
ATOM     30  C   UNL     1       1.004   7.181  -8.289  1.00  0.00     0.039 A 
ATOM     31  C   UNL     1       0.123   6.986  -9.356  1.00  0.00     0.014 A 
ATOM     32  C   UNL     1       0.676   8.023  -7.235  1.00  0.00     0.014 A 
ATOM     33  C   UNL     1      -1.111   7.630  -9.318  1.00  0.00     0.010 A 
ATOM     34  C   UNL     1      -0.611   8.430  -7.076  1.00  0.00     0.010 A 
ATOM     35  C   UNL     1      -1.458   8.354  -8.169  1.00  0.00    -0.014 A 
BRANCH  35  36
ATOM     36  C   UNL     1      -2.709   9.073  -8.036  1.00  0.00     0.031 A 
ATOM     37  C   UNL     1      -3.925   8.227  -8.045  1.00  0.00     0.074 A 
ATOM     38  C   UNL     1      -2.722  10.372  -7.660  1.00  0.00     0.049 A 
ATOM     39  N   UNL     1      -4.885   8.245  -8.905  1.00  0.00    -0.248 NA
ATOM     40  C   UNL     1      -4.038   7.154  -7.043  1.00  0.00     0.031 C 
ATOM     41  C   UNL     1      -1.596  11.240  -7.277  1.00  0.00     0.029 A 
ATOM     42  N   UNL     1      -3.792  11.163  -7.412  1.00  0.00    -0.354 N 
ATOM     43  C   UNL     1      -5.808   7.296  -8.480  1.00  0.00     0.074 A 
ATOM     44  C   UNL     1      -5.169   6.555  -7.421  1.00  0.00     0.031 C 
ATOM     45  C   UNL     1      -2.062  12.330  -6.624  1.00  0.00     0.029 A 
ATOM     46  C   UNL     1      -3.509  12.328  -6.710  1.00  0.00     0.049 A 
ATOM     47  H   UNL     1      -4.702  10.931  -7.707  1.00  0.00     0.167 HD
ATOM     48  C   UNL     1      -7.103   7.324  -8.901  1.00  0.00     0.031 A 
ATOM     49  C   UNL     1      -4.418  13.203  -6.215  1.00  0.00     0.031 A 
ATOM     50  C   UNL     1      -7.276   8.218 -10.017  1.00  0.00     0.049 A 
ATOM     51  C   UNL     1      -5.687  12.960  -6.941  1.00  0.00     0.074 A 
ATOM     52  C   UNL     1      -6.812   8.242 -11.317  1.00  0.00     0.029 A 
ATOM     53  N   UNL     1      -7.672   9.505  -9.735  1.00  0.00    -0.354 N 
ATOM     54  N   UNL     1      -5.834  13.185  -8.215  1.00  0.00    -0.248 NA
ATOM     55  C   UNL     1      -6.629  12.017  -6.359  1.00  0.00     0.031 C 
ATOM     56  C   UNL     1      -6.493   9.611 -11.566  1.00  0.00     0.029 A 
ATOM     57  C   UNL     1      -6.854  10.354 -10.440  1.00  0.00     0.049 A 
ATOM     58  H   UNL     1      -8.408   9.769  -9.137  1.00  0.00     0.167 HD
ATOM     59  C   UNL     1      -6.571  12.106  -8.682  1.00  0.00     0.074 A 
ATOM     60  C   UNL     1      -7.113  11.470  -7.480  1.00  0.00     0.031 C 
ATOM     61  C   UNL     1      -6.434  11.658  -9.967  1.00  0.00     0.031 A 
BRANCH  48  62
ATOM     62  C   UNL     1      -8.265   6.812  -8.096  1.00  0.00    -0.014 A 
ATOM     63  C   UNL     1      -9.543   6.791  -8.684  1.00  0.00     0.009 A 
ATOM     64  C   UNL     1      -8.203   6.583  -6.708  1.00  0.00     0.009 A 
ATOM     65  C   UNL     1     -10.697   6.605  -7.912  1.00  0.00     0.001 A 
ATOM     66  C   UNL     1      -9.349   6.358  -5.941  1.00  0.00     0.001 A 
ATOM     67  C   UNL     1     -10.600   6.394  -6.541  1.00  0.00     0.000 A 
ENDBRANCH  48  62
BRANCH  49  68
ATOM     68  C   UNL     1      -4.368  13.992  -4.966  1.00  0.00    -0.014 A 
ATOM     69  C   UNL     1      -5.234  15.080  -4.774  1.00  0.00     0.009 A 
ATOM     70  C   UNL     1      -3.689  13.487  -3.842  1.00  0.00     0.009 A 
ATOM     71  C   UNL     1      -5.453  15.609  -3.494  1.00  0.00     0.001 A 
ATOM     72  C   UNL     1      -3.908  14.015  -2.564  1.00  0.00     0.001 A 
ATOM     73  C   UNL     1      -4.805  15.064  -2.388  1.00  0.00     0.000 A 
ENDBRANCH  49  68
BRANCH  61  74
ATOM     74  C   UNL     1      -5.568  12.476 -10.904  1.00  0.00    -0.014 A 
ATOM     75  C   UNL     1      -4.196  12.705 -10.685  1.00  0.00     0.009 A 
ATOM     76  C   UNL     1      -6.118  12.909 -12.117  1.00  0.00     0.009 A 
ATOM     77  C   UNL     1      -3.412  13.376 -11.631  1.00  0.00     0.001 A 
ATOM     78  C   UNL     1      -5.332  13.562 -13.072  1.00  0.00     0.001 A 
ATOM     79  C   UNL     1      -3.982  13.802 -12.827  1.00  0.00     0.000 A 
ENDBRANCH  61  74
ENDBRANCH  35  36
ENDBRANCH  27  30
ENDBRANCH  25  26
ENDBRANCH  24  25
ENDBRANCH  23  24
ENDBRANCH   1  23
TORSDOF 16
