REMARK SMILES C[C@@]1(CN2C(=O)c3ccc(C(=O)NCCCCCCNC(=O)c4ccc(-c5c6nc(c(-c7ccccc7)c7ccc([nH]7)c(-c7ccccc7)c7nc(c(-c8ccccc8)c8ccc5[nH]8)C=C7)C=C6)cc4)cc3C2=O)CCCO1
REMARK SMILES IDX 16 1 15 2 14 3 13 4 11 5 12 6 10 8 4 9 5 10 73 11 6 12 7 13
REMARK SMILES IDX 72 14 74 15 8 16 71 17 9 18 3 19 2 20 1 21 75 22 78 23 76 24
REMARK SMILES IDX 77 25 17 26 18 27 19 28 20 29 21 30 22 32 23 33 24 34 70 35
REMARK SMILES IDX 25 36 69 37 26 38 27 39 28 40 63 41 29 42 68 43 62 44 64 45
REMARK SMILES IDX 30 46 67 47 61 48 60 49 31 51 53 52 38 53 52 54 39 55 42 56
REMARK SMILES IDX 51 57 65 58 40 59 41 60 50 62 66 63 43 64 32 65 33 66 37 67
REMARK SMILES IDX 34 68 36 69 35 70 54 71 55 72 59 73 56 74 58 75 57 76 44 77
REMARK SMILES IDX 45 78 49 79 46 80 48 81 47 82
REMARK H PARENT 13 7 20 31 64 50 42 61
REMARK Flexibility Score: inf
ROOT
ATOM      1  C   UNL     1      -3.933   7.475   6.333  1.00  0.00     0.002 C 
ENDROOT
BRANCH   1   2
ATOM      2  C   UNL     1      -3.193   6.655   5.268  1.00  0.00     0.021 C 
BRANCH   2   3
ATOM      3  C   UNL     1      -2.386   5.496   5.859  1.00  0.00     0.116 C 
BRANCH   3   4
ATOM      4  N   UNL     1      -3.254   4.366   6.112  1.00  0.00    -0.352 N 
ATOM      5  C   UNL     1      -3.510   3.211   5.425  1.00  0.00     0.251 C 
ATOM      6  O   UNL     1      -4.324   2.431   5.918  1.00  0.00    -0.269 OA
ATOM      7  H   UNL     1      -3.764   4.444   6.950  1.00  0.00     0.163 HD
BRANCH   5   8
ATOM      8  C   UNL     1      -2.841   2.831   4.145  1.00  0.00     0.040 A 
ATOM      9  N   UNL     1      -1.360  -0.070   0.890  1.00  0.00    -0.271 N 
ATOM     10  C   UNL     1      -1.133   1.253   0.648  1.00  0.00     0.261 C 
ATOM     11  C   UNL     1      -2.069  -0.262   2.048  1.00  0.00     0.261 C 
ATOM     12  O   UNL     1      -0.618   1.790  -0.316  1.00  0.00    -0.269 OA
ATOM     13  C   UNL     1      -1.653   1.978   1.796  1.00  0.00     0.053 A 
ATOM     14  C   UNL     1      -2.232   1.063   2.651  1.00  0.00     0.054 A 
ATOM     15  O   UNL     1      -2.535  -1.282   2.511  1.00  0.00    -0.269 OA
ATOM     16  C   UNL     1      -1.643   3.329   2.060  1.00  0.00     0.015 A 
ATOM     17  C   UNL     1      -2.833   1.456   3.831  1.00  0.00     0.028 A 
ATOM     18  C   UNL     1      -2.274   3.752   3.234  1.00  0.00     0.015 A 
BRANCH   9  19
ATOM     19  C   UNL     1      -0.911  -1.137   0.013  1.00  0.00     0.164 C 
BRANCH  19  20
ATOM     20  C   UNL     1       0.574  -1.538   0.247  1.00  0.00     0.084 C 
ATOM     21  C   UNL     1       1.546  -0.371   0.066  1.00  0.00     0.044 C 
ATOM     22  C   UNL     1       0.968  -2.708  -0.657  1.00  0.00     0.039 C 
ATOM     23  O   UNL     1       0.721  -2.034   1.595  1.00  0.00    -0.373 OA
ATOM     24  C   UNL     1       0.530  -3.910   0.143  1.00  0.00     0.031 C 
ATOM     25  C   UNL     1       0.782  -3.466   1.568  1.00  0.00     0.161 C 
ENDBRANCH  19  20
ENDBRANCH   9  19
ENDBRANCH   5   8
ENDBRANCH   3   4
ENDBRANCH   2   3
ENDBRANCH   1   2
BRANCH   1  26
ATOM     26  C   UNL     1      -3.022   8.143   7.370  1.00  0.00     0.002 C 
BRANCH  26  27
ATOM     27  C   UNL     1      -1.917   9.018   6.776  1.00  0.00     0.021 C 
BRANCH  27  28
ATOM     28  C   UNL     1      -2.441  10.207   5.981  1.00  0.00     0.116 C 
BRANCH  28  29
ATOM     29  N   UNL     1      -3.158  11.142   6.837  1.00  0.00    -0.352 N 
ATOM     30  C   UNL     1      -2.893  12.467   7.073  1.00  0.00     0.251 C 
ATOM     31  H   UNL     1      -3.938  10.773   7.311  1.00  0.00     0.163 HD
ATOM     32  O   UNL     1      -3.420  13.054   8.011  1.00  0.00    -0.269 OA
BRANCH  30  33
ATOM     33  C   UNL     1      -1.956  13.178   6.183  1.00  0.00     0.039 A 
ATOM     34  C   UNL     1      -0.965  13.989   6.738  1.00  0.00     0.014 A 
ATOM     35  C   UNL     1      -2.057  13.025   4.798  1.00  0.00     0.014 A 
ATOM     36  C   UNL     1      -0.034  14.605   5.900  1.00  0.00     0.010 A 
ATOM     37  C   UNL     1      -1.084  13.572   3.973  1.00  0.00     0.010 A 
ATOM     38  C   UNL     1      -0.068  14.374   4.515  1.00  0.00    -0.014 A 
BRANCH  38  39
ATOM     39  C   UNL     1       0.935  14.973   3.601  1.00  0.00     0.031 A 
ATOM     40  C   UNL     1       0.489  15.940   2.538  1.00  0.00     0.074 A 
ATOM     41  C   UNL     1       2.224  14.591   3.675  1.00  0.00     0.049 A 
ATOM     42  N   UNL     1       1.186  16.487   1.575  1.00  0.00    -0.248 NA
ATOM     43  C   UNL     1      -0.933  16.322   2.544  1.00  0.00     0.031 C 
ATOM     44  C   UNL     1       2.776  13.646   4.648  1.00  0.00     0.029 A 
ATOM     45  N   UNL     1       3.305  14.948   2.909  1.00  0.00    -0.354 N 
ATOM     46  C   UNL     1       0.285  17.262   0.855  1.00  0.00     0.074 A 
ATOM     47  C   UNL     1      -1.016  17.069   1.454  1.00  0.00     0.031 C 
ATOM     48  C   UNL     1       4.096  13.517   4.434  1.00  0.00     0.029 A 
ATOM     49  C   UNL     1       4.473  14.328   3.281  1.00  0.00     0.049 A 
ATOM     50  H   UNL     1       3.249  15.587   2.162  1.00  0.00     0.167 HD
ATOM     51  C   UNL     1       0.524  18.078  -0.199  1.00  0.00     0.031 A 
ATOM     52  C   UNL     1       5.706  14.394   2.744  1.00  0.00     0.031 A 
ATOM     53  C   UNL     1       1.820  18.270  -0.790  1.00  0.00     0.049 A 
ATOM     54  C   UNL     1       5.933  15.269   1.540  1.00  0.00     0.074 A 
ATOM     55  C   UNL     1       2.174  19.103  -1.837  1.00  0.00     0.029 A 
ATOM     56  N   UNL     1       2.975  17.620  -0.386  1.00  0.00    -0.354 N 
ATOM     57  N   UNL     1       5.082  16.036   0.902  1.00  0.00    -0.248 NA
ATOM     58  C   UNL     1       7.295  15.292   0.988  1.00  0.00     0.031 C 
ATOM     59  C   UNL     1       3.533  18.913  -2.104  1.00  0.00     0.029 A 
ATOM     60  C   UNL     1       4.039  18.015  -1.178  1.00  0.00     0.049 A 
ATOM     61  H   UNL     1       3.031  16.973   0.355  1.00  0.00     0.167 HD
ATOM     62  C   UNL     1       5.814  16.662  -0.099  1.00  0.00     0.074 A 
ATOM     63  C   UNL     1       7.178  16.194   0.023  1.00  0.00     0.031 C 
ATOM     64  C   UNL     1       5.394  17.550  -1.033  1.00  0.00     0.031 A 
BRANCH  51  65
ATOM     65  C   UNL     1      -0.647  18.820  -0.781  1.00  0.00    -0.014 A 
ATOM     66  C   UNL     1      -1.285  19.848  -0.067  1.00  0.00     0.009 A 
ATOM     67  C   UNL     1      -1.095  18.516  -2.076  1.00  0.00     0.009 A 
ATOM     68  C   UNL     1      -2.369  20.529  -0.623  1.00  0.00     0.001 A 
ATOM     69  C   UNL     1      -2.158  19.222  -2.642  1.00  0.00     0.001 A 
ATOM     70  C   UNL     1      -2.801  20.220  -1.912  1.00  0.00     0.000 A 
ENDBRANCH  51  65
BRANCH  52  71
ATOM     71  C   UNL     1       6.828  13.616   3.334  1.00  0.00    -0.014 A 
ATOM     72  C   UNL     1       7.897  14.274   3.962  1.00  0.00     0.009 A 
ATOM     73  C   UNL     1       6.852  12.215   3.252  1.00  0.00     0.009 A 
ATOM     74  C   UNL     1       8.983  13.550   4.458  1.00  0.00     0.001 A 
ATOM     75  C   UNL     1       7.923  11.491   3.780  1.00  0.00     0.001 A 
ATOM     76  C   UNL     1       8.993  12.159   4.370  1.00  0.00     0.000 A 
ENDBRANCH  52  71
BRANCH  64  77
ATOM     77  C   UNL     1       6.428  18.121  -1.962  1.00  0.00    -0.014 A 
ATOM     78  C   UNL     1       7.008  17.350  -2.980  1.00  0.00     0.009 A 
ATOM     79  C   UNL     1       6.779  19.477  -1.852  1.00  0.00     0.009 A 
ATOM     80  C   UNL     1       7.940  17.919  -3.851  1.00  0.00     0.001 A 
ATOM     81  C   UNL     1       7.684  20.051  -2.744  1.00  0.00     0.001 A 
ATOM     82  C   UNL     1       8.270  19.269  -3.738  1.00  0.00     0.000 A 
ENDBRANCH  64  77
ENDBRANCH  38  39
ENDBRANCH  30  33
ENDBRANCH  28  29
ENDBRANCH  27  28
ENDBRANCH  26  27
ENDBRANCH   1  26
TORSDOF 15
