REMARK SMILES C[C@H]1[C@H](C(=O)NCCCCCCNC(=O)c2ccc(-c3c4nc(c(-c5ccccc5)c5ccc([nH]5)c(-c5ccccc5)c5nc(c(-c6ccccc6)c6ccc3[nH]6)C=C5)C=C4)cc2)CCN1C(=O)[C@](C)([NH3+])C1CC1
REMARK SMILES IDX 9 1 8 2 7 3 6 4 4 5 5 6 3 8 1 9 2 10 66 11 64 12 65 13 67 14
REMARK SMILES IDX 68 15 69 16 70 17 71 18 72 22 73 23 74 24 10 25 11 26 12 27
REMARK SMILES IDX 13 28 14 29 15 31 16 32 17 33 63 34 18 35 62 36 19 37 20 38
REMARK SMILES IDX 21 39 56 40 22 41 61 42 55 43 57 44 23 45 60 46 54 47 53 48
REMARK SMILES IDX 24 50 46 51 31 52 45 53 32 54 35 55 44 56 58 57 33 58 34 59
REMARK SMILES IDX 43 61 59 62 36 63 25 64 26 65 30 66 27 67 29 68 28 69 47 70
REMARK SMILES IDX 48 71 52 72 49 73 51 74 50 75 37 76 38 77 42 78 39 79 41 80
REMARK SMILES IDX 40 81
REMARK H PARENT 6 7 71 19 71 20 71 21 13 30 57 49 35 60
REMARK Flexibility Score: inf
ROOT
ATOM      1  C   UNL     1       5.941  -4.990   4.513  1.00  0.00     0.002 C 
ENDROOT
BRANCH   1   2
ATOM      2  C   UNL     1       5.127  -4.411   3.354  1.00  0.00     0.021 C 
BRANCH   2   3
ATOM      3  C   UNL     1       5.888  -4.308   2.037  1.00  0.00     0.116 C 
BRANCH   3   4
ATOM      4  N   UNL     1       6.149  -5.615   1.469  1.00  0.00    -0.356 N 
ATOM      5  C   UNL     1       5.857  -6.140   0.253  1.00  0.00     0.225 C 
ATOM      6  O   UNL     1       6.192  -7.311   0.050  1.00  0.00    -0.275 OA
ATOM      7  H   UNL     1       6.622  -6.232   2.074  1.00  0.00     0.163 HD
BRANCH   5   8
ATOM      8  C   UNL     1       5.139  -5.360  -0.838  1.00  0.00     0.102 C 
ATOM      9  C   UNL     1       2.736  -5.516  -1.544  1.00  0.00     0.032 C 
ATOM     10  C   UNL     1       3.688  -4.991  -0.466  1.00  0.00     0.094 C 
ATOM     11  N   UNL     1       3.666  -3.532  -0.434  1.00  0.00    -0.334 N 
ATOM     12  C   UNL     1       5.833  -4.061  -1.246  1.00  0.00     0.037 C 
ATOM     13  C   UNL     1       4.731  -3.016  -1.283  1.00  0.00     0.121 C 
BRANCH  11  14
ATOM     14  C   UNL     1       2.883  -2.652   0.275  1.00  0.00     0.284 C 
ATOM     15  O   UNL     1       3.167  -1.439   0.200  1.00  0.00    -0.268 OA
BRANCH  14  16
ATOM     16  C   UNL     1       1.621  -3.015   1.156  1.00  0.00     0.174 C 
ATOM     17  C   UNL     1       0.372  -2.628   0.352  1.00  0.00     0.090 C 
BRANCH  16  18
ATOM     18  N   UNL     1       1.666  -2.033   2.301  1.00  0.00    -0.345 N 
ATOM     19  H   UNL     1       0.877  -2.200   2.924  1.00  0.00     0.345 HD
ATOM     20  H   UNL     1       1.615  -1.082   1.935  1.00  0.00     0.345 HD
ATOM     21  H   UNL     1       2.538  -2.152   2.817  1.00  0.00     0.345 HD
ENDBRANCH  16  18
BRANCH  16  22
ATOM     22  C   UNL     1       1.506  -4.333   1.915  1.00  0.00     0.060 C 
ATOM     23  C   UNL     1       0.131  -4.951   2.171  1.00  0.00     0.011 C 
ATOM     24  C   UNL     1       1.146  -5.708   1.387  1.00  0.00     0.011 C 
ENDBRANCH  16  22
ENDBRANCH  14  16
ENDBRANCH  11  14
ENDBRANCH   5   8
ENDBRANCH   3   4
ENDBRANCH   2   3
ENDBRANCH   1   2
BRANCH   1  25
ATOM     25  C   UNL     1       7.256  -4.263   4.810  1.00  0.00     0.002 C 
BRANCH  25  26
ATOM     26  C   UNL     1       7.127  -2.755   5.040  1.00  0.00     0.021 C 
BRANCH  26  27
ATOM     27  C   UNL     1       6.197  -2.364   6.183  1.00  0.00     0.116 C 
BRANCH  27  28
ATOM     28  N   UNL     1       6.667  -2.863   7.465  1.00  0.00    -0.352 N 
ATOM     29  C   UNL     1       6.934  -2.177   8.623  1.00  0.00     0.251 C 
ATOM     30  H   UNL     1       6.815  -3.835   7.508  1.00  0.00     0.163 HD
ATOM     31  O   UNL     1       7.515  -2.732   9.549  1.00  0.00    -0.269 OA
BRANCH  29  32
ATOM     32  C   UNL     1       6.536  -0.759   8.747  1.00  0.00     0.039 A 
ATOM     33  C   UNL     1       7.443   0.150   9.298  1.00  0.00     0.014 A 
ATOM     34  C   UNL     1       5.272  -0.328   8.333  1.00  0.00     0.014 A 
ATOM     35  C   UNL     1       7.103   1.502   9.380  1.00  0.00     0.010 A 
ATOM     36  C   UNL     1       4.965   1.029   8.346  1.00  0.00     0.010 A 
ATOM     37  C   UNL     1       5.875   1.957   8.873  1.00  0.00    -0.014 A 
BRANCH  37  38
ATOM     38  C   UNL     1       5.528   3.401   8.885  1.00  0.00     0.031 A 
ATOM     39  C   UNL     1       4.366   3.896   9.701  1.00  0.00     0.074 A 
ATOM     40  C   UNL     1       6.226   4.258   8.115  1.00  0.00     0.049 A 
ATOM     41  N   UNL     1       3.887   5.110   9.802  1.00  0.00    -0.248 NA
ATOM     42  C   UNL     1       3.633   2.893  10.489  1.00  0.00     0.031 C 
ATOM     43  C   UNL     1       7.351   3.899   7.250  1.00  0.00     0.029 A 
ATOM     44  N   UNL     1       6.086   5.611   7.934  1.00  0.00    -0.354 N 
ATOM     45  C   UNL     1       2.792   5.014  10.651  1.00  0.00     0.074 A 
ATOM     46  C   UNL     1       2.645   3.616  10.995  1.00  0.00     0.031 C 
ATOM     47  C   UNL     1       7.818   5.008   6.654  1.00  0.00     0.029 A 
ATOM     48  C   UNL     1       7.000   6.146   7.059  1.00  0.00     0.049 A 
ATOM     49  H   UNL     1       5.396   6.148   8.387  1.00  0.00     0.167 HD
ATOM     50  C   UNL     1       1.990   6.001  11.118  1.00  0.00     0.031 A 
ATOM     51  C   UNL     1       7.159   7.411   6.625  1.00  0.00     0.031 A 
ATOM     52  C   UNL     1       2.136   7.391  10.777  1.00  0.00     0.049 A 
ATOM     53  C   UNL     1       6.238   8.484   7.136  1.00  0.00     0.074 A 
ATOM     54  C   UNL     1       1.408   8.473  11.240  1.00  0.00     0.029 A 
ATOM     55  N   UNL     1       3.070   7.890   9.882  1.00  0.00    -0.354 N 
ATOM     56  N   UNL     1       5.252   8.387   7.994  1.00  0.00    -0.248 NA
ATOM     57  C   UNL     1       6.461   9.843   6.623  1.00  0.00     0.031 C 
ATOM     58  C   UNL     1       1.864   9.620  10.582  1.00  0.00     0.029 A 
ATOM     59  C   UNL     1       2.918   9.261   9.757  1.00  0.00     0.049 A 
ATOM     60  H   UNL     1       3.742   7.350   9.407  1.00  0.00     0.167 HD
ATOM     61  C   UNL     1       4.754   9.675   8.144  1.00  0.00     0.074 A 
ATOM     62  C   UNL     1       5.559  10.537   7.303  1.00  0.00     0.031 C 
ATOM     63  C   UNL     1       3.723  10.105   8.911  1.00  0.00     0.031 A 
BRANCH  50  64
ATOM     64  C   UNL     1       0.872   5.604  12.043  1.00  0.00    -0.014 A 
ATOM     65  C   UNL     1       1.132   5.143  13.344  1.00  0.00     0.009 A 
ATOM     66  C   UNL     1      -0.461   5.722  11.620  1.00  0.00     0.009 A 
ATOM     67  C   UNL     1       0.082   4.769  14.186  1.00  0.00     0.001 A 
ATOM     68  C   UNL     1      -1.510   5.378  12.475  1.00  0.00     0.001 A 
ATOM     69  C   UNL     1      -1.237   4.891  13.752  1.00  0.00     0.000 A 
ENDBRANCH  50  64
BRANCH  51  70
ATOM     70  C   UNL     1       8.244   7.737   5.662  1.00  0.00    -0.014 A 
ATOM     71  C   UNL     1       9.348   8.502   6.067  1.00  0.00     0.009 A 
ATOM     72  C   UNL     1       8.178   7.292   4.333  1.00  0.00     0.009 A 
ATOM     73  C   UNL     1      10.351   8.838   5.154  1.00  0.00     0.001 A 
ATOM     74  C   UNL     1       9.197   7.603   3.430  1.00  0.00     0.001 A 
ATOM     75  C   UNL     1      10.277   8.383   3.838  1.00  0.00     0.000 A 
ENDBRANCH  51  70
BRANCH  63  76
ATOM     76  C   UNL     1       3.425  11.579   8.900  1.00  0.00    -0.014 A 
ATOM     77  C   UNL     1       2.851  12.199   7.780  1.00  0.00     0.009 A 
ATOM     78  C   UNL     1       3.690  12.349  10.043  1.00  0.00     0.009 A 
ATOM     79  C   UNL     1       2.579  13.569   7.794  1.00  0.00     0.001 A 
ATOM     80  C   UNL     1       3.389  13.711  10.065  1.00  0.00     0.001 A 
ATOM     81  C   UNL     1       2.843  14.322   8.938  1.00  0.00     0.000 A 
ENDBRANCH  63  76
ENDBRANCH  37  38
ENDBRANCH  29  32
ENDBRANCH  27  28
ENDBRANCH  26  27
ENDBRANCH  25  26
ENDBRANCH   1  25
TORSDOF 17
