REMARK SMILES [NH3+]Cc1c(-c2ccccc2)c(C(=O)NCCCCCCNC(=O)c2ccc(-c3c4nc(c(-c5ccccc5)c5ccc([nH]5)c(-c5ccccc5)c5nc(c(-c6ccccc6)c6ccc3[nH]6)C=C5)C=C4)cc2)c2ccccn12
REMARK SMILES IDX 17 1 16 2 15 3 14 4 12 5 13 6 11 8 3 9 4 10 77 11 72 12
REMARK SMILES IDX 76 13 73 14 75 15 74 16 2 17 1 18 5 22 6 23 10 24 7 25 9 26
REMARK SMILES IDX 8 27 18 28 19 29 20 30 21 31 22 32 23 34 24 35 25 36 71 37
REMARK SMILES IDX 26 38 70 39 27 40 28 41 29 42 64 43 30 44 69 45 63 46 65 47
REMARK SMILES IDX 31 48 68 49 62 50 61 51 32 53 54 54 39 55 53 56 40 57 43 58
REMARK SMILES IDX 52 59 66 60 41 61 42 62 51 64 67 65 44 66 33 67 34 68 38 69
REMARK SMILES IDX 35 70 37 71 36 72 55 73 56 74 60 75 57 76 59 77 58 78 45 79
REMARK SMILES IDX 46 80 50 81 47 82 49 83 48 84
REMARK H PARENT 14 7 1 19 1 20 1 21 21 33 65 52 43 63
REMARK Flexibility Score: inf
ROOT
ATOM      1  C   UNL     1       1.959   8.168   5.434  1.00  0.00     0.002 C 
ENDROOT
BRANCH   1   2
ATOM      2  C   UNL     1       0.947   7.126   4.951  1.00  0.00     0.021 C 
BRANCH   2   3
ATOM      3  C   UNL     1       1.375   6.226   3.797  1.00  0.00     0.116 C 
BRANCH   3   4
ATOM      4  N   UNL     1       2.532   5.403   4.053  1.00  0.00    -0.352 N 
ATOM      5  C   UNL     1       2.897   4.180   3.535  1.00  0.00     0.254 C 
ATOM      6  O   UNL     1       4.011   3.768   3.865  1.00  0.00    -0.269 OA
ATOM      7  H   UNL     1       3.166   5.778   4.707  1.00  0.00     0.163 HD
BRANCH   5   8
ATOM      8  C   UNL     1       1.991   3.374   2.705  1.00  0.00     0.073 A 
ATOM      9  C   UNL     1       0.938   1.512   1.840  1.00  0.00     0.086 A 
ATOM     10  C   UNL     1       1.932   1.929   2.718  1.00  0.00     0.022 A 
ATOM     11  N   UNL     1       0.354   2.653   1.319  1.00  0.00    -0.314 N 
ATOM     12  C   UNL     1       1.120   3.760   1.690  1.00  0.00     0.059 A 
ATOM     13  C   UNL     1      -0.789   2.764   0.515  1.00  0.00     0.092 A 
ATOM     14  C   UNL     1       0.834   4.980   1.000  1.00  0.00     0.027 A 
ATOM     15  C   UNL     1      -1.143   3.956   0.013  1.00  0.00     0.018 A 
ATOM     16  C   UNL     1      -0.266   5.087   0.233  1.00  0.00     0.004 A 
BRANCH   9  17
ATOM     17  C   UNL     1       0.487   0.140   1.462  1.00  0.00     0.315 C 
BRANCH  17  18
ATOM     18  N   UNL     1       0.978  -0.203   0.132  1.00  0.00    -0.353 N 
ATOM     19  H   UNL     1       0.664  -1.141  -0.115  1.00  0.00     0.344 HD
ATOM     20  H   UNL     1       1.997  -0.174   0.128  1.00  0.00     0.344 HD
ATOM     21  H   UNL     1       0.616   0.466  -0.547  1.00  0.00     0.344 HD
ENDBRANCH  17  18
ENDBRANCH   9  17
BRANCH  10  22
ATOM     22  C   UNL     1       2.756   0.998   3.480  1.00  0.00    -0.016 A 
ATOM     23  C   UNL     1       2.675   0.956   4.876  1.00  0.00     0.009 A 
ATOM     24  C   UNL     1       3.677   0.173   2.821  1.00  0.00     0.009 A 
ATOM     25  C   UNL     1       3.513   0.106   5.603  1.00  0.00     0.001 A 
ATOM     26  C   UNL     1       4.508  -0.681   3.548  1.00  0.00     0.001 A 
ATOM     27  C   UNL     1       4.429  -0.710   4.939  1.00  0.00     0.000 A 
ENDBRANCH  10  22
ENDBRANCH   5   8
ENDBRANCH   3   4
ENDBRANCH   2   3
ENDBRANCH   1   2
BRANCH   1  28
ATOM     28  C   UNL     1       2.611   9.061   4.375  1.00  0.00     0.002 C 
BRANCH  28  29
ATOM     29  C   UNL     1       1.675   9.791   3.409  1.00  0.00     0.021 C 
BRANCH  29  30
ATOM     30  C   UNL     1       0.548  10.598   4.044  1.00  0.00     0.116 C 
BRANCH  30  31
ATOM     31  N   UNL     1       1.023  11.635   4.943  1.00  0.00    -0.352 N 
ATOM     32  C   UNL     1       0.734  12.978   4.968  1.00  0.00     0.251 C 
ATOM     33  H   UNL     1       1.647  11.329   5.640  1.00  0.00     0.163 HD
ATOM     34  O   UNL     1       1.337  13.723   5.730  1.00  0.00    -0.269 OA
BRANCH  32  35
ATOM     35  C   UNL     1      -0.285  13.537   4.051  1.00  0.00     0.039 A 
ATOM     36  C   UNL     1       0.010  14.714   3.358  1.00  0.00     0.014 A 
ATOM     37  C   UNL     1      -1.523  12.913   3.875  1.00  0.00     0.014 A 
ATOM     38  C   UNL     1      -0.904  15.224   2.434  1.00  0.00     0.010 A 
ATOM     39  C   UNL     1      -2.404  13.383   2.902  1.00  0.00     0.010 A 
ATOM     40  C   UNL     1      -2.101  14.539   2.167  1.00  0.00    -0.014 A 
BRANCH  40  41
ATOM     41  C   UNL     1      -3.033  15.003   1.108  1.00  0.00     0.031 A 
ATOM     42  C   UNL     1      -4.423  15.456   1.460  1.00  0.00     0.074 A 
ATOM     43  C   UNL     1      -2.650  14.950  -0.183  1.00  0.00     0.049 A 
ATOM     44  N   UNL     1      -5.395  15.830   0.667  1.00  0.00    -0.248 NA
ATOM     45  C   UNL     1      -4.774  15.469   2.889  1.00  0.00     0.031 C 
ATOM     46  C   UNL     1      -1.341  14.501  -0.661  1.00  0.00     0.029 A 
ATOM     47  N   UNL     1      -3.330  15.271  -1.332  1.00  0.00    -0.354 N 
ATOM     48  C   UNL     1      -6.473  16.109   1.497  1.00  0.00     0.074 A 
ATOM     49  C   UNL     1      -6.053  15.814   2.849  1.00  0.00     0.031 C 
ATOM     50  C   UNL     1      -1.304  14.600  -1.999  1.00  0.00     0.029 A 
ATOM     51  C   UNL     1      -2.599  15.072  -2.478  1.00  0.00     0.049 A 
ATOM     52  H   UNL     1      -4.254  15.611  -1.334  1.00  0.00     0.167 HD
ATOM     53  C   UNL     1      -7.698  16.583   1.166  1.00  0.00     0.031 A 
ATOM     54  C   UNL     1      -2.935  15.238  -3.771  1.00  0.00     0.031 A 
ATOM     55  C   UNL     1      -8.117  16.876  -0.180  1.00  0.00     0.049 A 
ATOM     56  C   UNL     1      -4.314  15.729  -4.115  1.00  0.00     0.074 A 
ATOM     57  C   UNL     1      -9.319  17.409  -0.611  1.00  0.00     0.029 A 
ATOM     58  N   UNL     1      -7.350  16.651  -1.312  1.00  0.00    -0.354 N 
ATOM     59  N   UNL     1      -5.299  16.052  -3.313  1.00  0.00    -0.248 NA
ATOM     60  C   UNL     1      -4.623  15.884  -5.544  1.00  0.00     0.031 C 
ATOM     61  C   UNL     1      -9.303  17.450  -2.009  1.00  0.00     0.029 A 
ATOM     62  C   UNL     1      -8.066  17.004  -2.445  1.00  0.00     0.049 A 
ATOM     63  H   UNL     1      -6.432  16.295  -1.312  1.00  0.00     0.167 HD
ATOM     64  C   UNL     1      -6.335  16.474  -4.137  1.00  0.00     0.074 A 
ATOM     65  C   UNL     1      -5.851  16.381  -5.500  1.00  0.00     0.031 C 
ATOM     66  C   UNL     1      -7.575  16.901  -3.795  1.00  0.00     0.031 A 
BRANCH  53  67
ATOM     67  C   UNL     1      -8.682  16.801   2.283  1.00  0.00    -0.014 A 
ATOM     68  C   UNL     1      -8.496  17.821   3.231  1.00  0.00     0.009 A 
ATOM     69  C   UNL     1      -9.830  15.998   2.370  1.00  0.00     0.009 A 
ATOM     70  C   UNL     1      -9.417  18.004   4.265  1.00  0.00     0.001 A 
ATOM     71  C   UNL     1     -10.765  16.203   3.386  1.00  0.00     0.001 A 
ATOM     72  C   UNL     1     -10.553  17.198   4.339  1.00  0.00     0.000 A 
ENDBRANCH  53  67
BRANCH  54  73
ATOM     73  C   UNL     1      -1.946  14.943  -4.841  1.00  0.00    -0.014 A 
ATOM     74  C   UNL     1      -1.392  15.981  -5.606  1.00  0.00     0.009 A 
ATOM     75  C   UNL     1      -1.552  13.622  -5.106  1.00  0.00     0.009 A 
ATOM     76  C   UNL     1      -0.485  15.700  -6.631  1.00  0.00     0.001 A 
ATOM     77  C   UNL     1      -0.621  13.346  -6.110  1.00  0.00     0.001 A 
ATOM     78  C   UNL     1      -0.096  14.384  -6.878  1.00  0.00     0.000 A 
ENDBRANCH  54  73
BRANCH  66  79
ATOM     79  C   UNL     1      -8.488  17.330  -4.910  1.00  0.00    -0.014 A 
ATOM     80  C   UNL     1      -9.057  16.396  -5.789  1.00  0.00     0.009 A 
ATOM     81  C   UNL     1      -8.818  18.687  -5.053  1.00  0.00     0.009 A 
ATOM     82  C   UNL     1      -9.915  16.817  -6.808  1.00  0.00     0.001 A 
ATOM     83  C   UNL     1      -9.700  19.101  -6.052  1.00  0.00     0.001 A 
ATOM     84  C   UNL     1     -10.240  18.167  -6.934  1.00  0.00     0.000 A 
ENDBRANCH  66  79
ENDBRANCH  40  41
ENDBRANCH  32  35
ENDBRANCH  30  31
ENDBRANCH  29  30
ENDBRANCH  28  29
ENDBRANCH   1  28
TORSDOF 16
