REMARK SMILES O=C(NCCCCCCNC(=O)c1c(F)cccc1NC(=O)C1CCCCC1)c1ccc(-c2c3nc(c(-c4ccccc4)c4ccc([nH]4)c(-c4ccccc4)c4nc(c(-c5ccccc5)c5ccc2[nH]5)C=C4)C=C3)cc1
REMARK SMILES IDX 6 1 5 2 4 3 3 4 1 5 2 6 29 8 30 9 76 10 31 11 75 12 32 13
REMARK SMILES IDX 33 14 34 15 69 16 35 17 74 18 68 19 70 20 36 21 73 22 67 23
REMARK SMILES IDX 66 24 37 26 59 27 44 28 58 29 45 30 48 31 57 32 71 33 46 34
REMARK SMILES IDX 47 35 56 37 72 38 49 39 38 40 39 41 43 42 40 43 42 44 41 45
REMARK SMILES IDX 60 46 61 47 65 48 62 49 64 50 63 51 50 52 51 53 55 54 52 55
REMARK SMILES IDX 54 56 53 57 7 58 8 59 9 60 10 61 11 62 12 64 13 65 14 66
REMARK SMILES IDX 19 67 15 68 16 69 18 70 17 71 20 72 21 73 22 75 23 76 24 77
REMARK SMILES IDX 28 78 25 79 27 80 26 81
REMARK H PARENT 3 7 70 25 48 36 10 63 20 74
REMARK Flexibility Score: inf
ROOT
ATOM      1  C   UNL     1       4.079  -2.703  -2.936  1.00  0.00     0.002 C 
ENDROOT
BRANCH   1   2
ATOM      2  C   UNL     1       4.580  -2.344  -1.536  1.00  0.00     0.021 C 
BRANCH   2   3
ATOM      3  C   UNL     1       4.410  -0.886  -1.129  1.00  0.00     0.116 C 
BRANCH   3   4
ATOM      4  N   UNL     1       3.019  -0.474  -1.058  1.00  0.00    -0.352 N 
ATOM      5  O   UNL     1       1.141   0.342  -0.113  1.00  0.00    -0.269 OA
ATOM      6  C   UNL     1       2.356   0.183  -0.050  1.00  0.00     0.251 C 
ATOM      7  H   UNL     1       2.473  -0.698  -1.845  1.00  0.00     0.163 HD
BRANCH   6   8
ATOM      8  C   UNL     1       3.099   0.675   1.132  1.00  0.00     0.039 A 
ATOM      9  C   UNL     1       4.311   1.355   0.991  1.00  0.00     0.014 A 
ATOM     10  C   UNL     1       2.563   0.459   2.405  1.00  0.00     0.014 A 
ATOM     11  C   UNL     1       5.049   1.695   2.121  1.00  0.00     0.010 A 
ATOM     12  C   UNL     1       3.271   0.868   3.539  1.00  0.00     0.010 A 
ATOM     13  C   UNL     1       4.537   1.458   3.407  1.00  0.00    -0.014 A 
BRANCH  13  14
ATOM     14  C   UNL     1       5.328   1.873   4.593  1.00  0.00     0.031 A 
ATOM     15  C   UNL     1       5.905   0.857   5.539  1.00  0.00     0.074 A 
ATOM     16  C   UNL     1       5.561   3.185   4.792  1.00  0.00     0.049 A 
ATOM     17  N   UNL     1       6.679   1.049   6.579  1.00  0.00    -0.248 NA
ATOM     18  C   UNL     1       5.569  -0.554   5.295  1.00  0.00     0.031 C 
ATOM     19  C   UNL     1       5.049   4.269   3.950  1.00  0.00     0.029 A 
ATOM     20  N   UNL     1       6.312   3.826   5.743  1.00  0.00    -0.354 N 
ATOM     21  C   UNL     1       6.902  -0.209   7.125  1.00  0.00     0.074 A 
ATOM     22  C   UNL     1       6.169  -1.156   6.313  1.00  0.00     0.031 C 
ATOM     23  C   UNL     1       5.551   5.434   4.385  1.00  0.00     0.029 A 
ATOM     24  C   UNL     1       6.377   5.186   5.561  1.00  0.00     0.049 A 
ATOM     25  H   UNL     1       6.761   3.358   6.483  1.00  0.00     0.167 HD
ATOM     26  C   UNL     1       7.653  -0.545   8.202  1.00  0.00     0.031 A 
ATOM     27  C   UNL     1       7.030   6.131   6.261  1.00  0.00     0.031 A 
ATOM     28  C   UNL     1       8.393   0.392   9.005  1.00  0.00     0.049 A 
ATOM     29  C   UNL     1       7.846   5.731   7.453  1.00  0.00     0.074 A 
ATOM     30  C   UNL     1       9.217   0.138  10.089  1.00  0.00     0.029 A 
ATOM     31  N   UNL     1       8.396   1.765   8.815  1.00  0.00    -0.354 N 
ATOM     32  N   UNL     1       8.078   4.533   7.929  1.00  0.00    -0.248 NA
ATOM     33  C   UNL     1       8.489   6.818   8.205  1.00  0.00     0.031 C 
ATOM     34  C   UNL     1       9.687   1.362  10.579  1.00  0.00     0.029 A 
ATOM     35  C   UNL     1       9.189   2.373   9.775  1.00  0.00     0.049 A 
ATOM     36  H   UNL     1       7.907   2.237   8.103  1.00  0.00     0.167 HD
ATOM     37  C   UNL     1       8.903   4.719   9.029  1.00  0.00     0.074 A 
ATOM     38  C   UNL     1       9.147   6.143   9.136  1.00  0.00     0.031 C 
ATOM     39  C   UNL     1       9.413   3.791   9.875  1.00  0.00     0.031 A 
BRANCH  26  40
ATOM     40  C   UNL     1       7.689  -1.995   8.593  1.00  0.00    -0.014 A 
ATOM     41  C   UNL     1       8.432  -2.931   7.856  1.00  0.00     0.009 A 
ATOM     42  C   UNL     1       7.002  -2.423   9.740  1.00  0.00     0.009 A 
ATOM     43  C   UNL     1       8.460  -4.273   8.245  1.00  0.00     0.001 A 
ATOM     44  C   UNL     1       7.050  -3.760  10.137  1.00  0.00     0.001 A 
ATOM     45  C   UNL     1       7.772  -4.685   9.386  1.00  0.00     0.000 A 
ENDBRANCH  26  40
BRANCH  27  46
ATOM     46  C   UNL     1       6.946   7.550   5.835  1.00  0.00    -0.014 A 
ATOM     47  C   UNL     1       8.049   8.176   5.235  1.00  0.00     0.009 A 
ATOM     48  C   UNL     1       5.759   8.278   6.008  1.00  0.00     0.009 A 
ATOM     49  C   UNL     1       7.967   9.509   4.829  1.00  0.00     0.001 A 
ATOM     50  C   UNL     1       5.673   9.603   5.579  1.00  0.00     0.001 A 
ATOM     51  C   UNL     1       6.778  10.219   4.995  1.00  0.00     0.000 A 
ENDBRANCH  27  46
BRANCH  39  52
ATOM     52  C   UNL     1      10.297   4.294  10.977  1.00  0.00    -0.014 A 
ATOM     53  C   UNL     1       9.757   4.944  12.098  1.00  0.00     0.009 A 
ATOM     54  C   UNL     1      11.685   4.104  10.899  1.00  0.00     0.009 A 
ATOM     55  C   UNL     1      10.596   5.423  13.105  1.00  0.00     0.001 A 
ATOM     56  C   UNL     1      12.519   4.565  11.919  1.00  0.00     0.001 A 
ATOM     57  C   UNL     1      11.975   5.232  13.016  1.00  0.00     0.000 A 
ENDBRANCH  39  52
ENDBRANCH  13  14
ENDBRANCH   6   8
ENDBRANCH   3   4
ENDBRANCH   2   3
ENDBRANCH   1   2
BRANCH   1  58
ATOM     58  C   UNL     1       4.640  -1.863  -4.087  1.00  0.00     0.002 C 
BRANCH  58  59
ATOM     59  C   UNL     1       6.164  -1.740  -4.144  1.00  0.00     0.021 C 
BRANCH  59  60
ATOM     60  C   UNL     1       6.926  -3.060  -4.141  1.00  0.00     0.116 C 
BRANCH  60  61
ATOM     61  N   UNL     1       6.701  -3.844  -5.343  1.00  0.00    -0.352 N 
ATOM     62  C   UNL     1       7.639  -4.494  -6.110  1.00  0.00     0.256 C 
ATOM     63  H   UNL     1       5.766  -3.919  -5.645  1.00  0.00     0.163 HD
ATOM     64  O   UNL     1       7.334  -5.042  -7.162  1.00  0.00    -0.269 OA
BRANCH  62  65
ATOM     65  C   UNL     1       9.051  -4.424  -5.701  1.00  0.00     0.099 A 
ATOM     66  C   UNL     1       9.409  -5.004  -4.479  1.00  0.00     0.138 A 
ATOM     67  C   UNL     1       9.989  -3.713  -6.474  1.00  0.00     0.057 A 
ATOM     68  F   UNL     1       8.524  -5.727  -3.777  1.00  0.00    -0.206 F 
ATOM     69  C   UNL     1      10.669  -4.798  -3.939  1.00  0.00     0.040 A 
ATOM     70  C   UNL     1      11.214  -3.445  -5.865  1.00  0.00     0.027 A 
ATOM     71  C   UNL     1      11.562  -3.982  -4.618  1.00  0.00     0.005 A 
BRANCH  67  72
ATOM     72  N   UNL     1       9.644  -3.312  -7.786  1.00  0.00    -0.325 N 
ATOM     73  C   UNL     1      10.289  -2.846  -8.891  1.00  0.00     0.227 C 
ATOM     74  H   UNL     1       8.675  -3.392  -7.943  1.00  0.00     0.169 HD
ATOM     75  O   UNL     1       9.565  -2.558  -9.856  1.00  0.00    -0.274 OA
BRANCH  73  76
ATOM     76  C   UNL     1      11.795  -2.639  -9.043  1.00  0.00     0.079 C 
ATOM     77  C   UNL     1      12.212  -1.289  -8.447  1.00  0.00     0.013 C 
ATOM     78  C   UNL     1      12.643  -3.873  -8.704  1.00  0.00     0.013 C 
ATOM     79  C   UNL     1      13.721  -1.119  -8.334  1.00  0.00     0.001 C 
ATOM     80  C   UNL     1      14.120  -3.592  -8.430  1.00  0.00     0.001 C 
ATOM     81  C   UNL     1      14.379  -2.308  -7.654  1.00  0.00     0.000 C 
ENDBRANCH  73  76
ENDBRANCH  67  72
ENDBRANCH  62  65
ENDBRANCH  60  61
ENDBRANCH  59  60
ENDBRANCH  58  59
ENDBRANCH   1  58
TORSDOF 15
