REMARK SMILES CO[C@H]1C[C@@H](C(=O)NCCCCCCNC(=O)c2ccc(-c3c4nc(c(-c5ccccc5)c5ccc([nH]5)c(-c5ccccc5)c5nc(c(-c6ccccc6)c6ccc3[nH]6)C=C5)C=C4)cc2)N(C(=O)c2cc(SC)ccc2C)C1
REMARK SMILES IDX 11 1 10 2 9 3 8 4 6 5 7 6 5 8 3 9 4 10 78 11 66 12 2 13 1 14
REMARK SMILES IDX 67 15 68 16 69 17 70 18 76 19 71 20 75 21 77 22 74 23 72 24
REMARK SMILES IDX 73 25 12 26 13 27 14 28 15 29 16 30 17 32 18 33 19 34 65 35
REMARK SMILES IDX 20 36 64 37 21 38 22 39 23 40 58 41 24 42 63 43 57 44 59 45
REMARK SMILES IDX 25 46 62 47 56 48 55 49 26 51 48 52 33 53 47 54 34 55 37 56
REMARK SMILES IDX 46 57 60 58 35 59 36 60 45 62 61 63 38 64 27 65 28 66 32 67
REMARK SMILES IDX 29 68 31 69 30 70 49 71 50 72 54 73 51 74 53 75 52 76 39 77
REMARK SMILES IDX 40 78 44 79 41 80 43 81 42 82
REMARK H PARENT 8 7 15 31 59 50 37 61
REMARK Flexibility Score: inf
ROOT
ATOM      1  C   UNL     1       4.064   6.543  -1.113  1.00  0.00     0.002 C 
ENDROOT
BRANCH   1   2
ATOM      2  C   UNL     1       3.239   5.567  -1.950  1.00  0.00     0.021 C 
BRANCH   2   3
ATOM      3  C   UNL     1       3.674   4.105  -1.998  1.00  0.00     0.116 C 
BRANCH   3   4
ATOM      4  N   UNL     1       3.983   3.438  -0.752  1.00  0.00    -0.354 N 
ATOM      5  C   UNL     1       3.229   2.760   0.148  1.00  0.00     0.242 C 
ATOM      6  O   UNL     1       3.856   2.042   0.941  1.00  0.00    -0.273 OA
ATOM      7  H   UNL     1       4.935   3.487  -0.508  1.00  0.00     0.163 HD
BRANCH   5   8
ATOM      8  C   UNL     1       1.687   2.767   0.219  1.00  0.00     0.177 C 
ATOM      9  C   UNL     1       0.580   1.898  -1.789  1.00  0.00     0.139 C 
ATOM     10  C   UNL     1       1.220   1.468  -0.475  1.00  0.00     0.069 C 
ATOM     11  C   UNL     1       0.114   3.324  -1.502  1.00  0.00     0.152 C 
ATOM     12  N   UNL     1       0.868   3.836  -0.345  1.00  0.00    -0.324 N 
BRANCH   9  13
ATOM     13  O   UNL     1       1.450   1.921  -2.919  1.00  0.00    -0.380 OA
ATOM     14  C   UNL     1       2.060   0.686  -3.255  1.00  0.00     0.195 C 
ENDBRANCH   9  13
BRANCH  12  15
ATOM     15  C   UNL     1       0.467   5.105   0.105  1.00  0.00     0.254 C 
ATOM     16  O   UNL     1      -0.319   5.711  -0.646  1.00  0.00    -0.269 OA
BRANCH  15  17
ATOM     17  C   UNL     1       0.826   5.888   1.365  1.00  0.00     0.044 A 
ATOM     18  C   UNL     1      -0.110   6.939   1.626  1.00  0.00     0.029 A 
ATOM     19  C   UNL     1       1.953   5.862   2.209  1.00  0.00    -0.038 A 
ATOM     20  C   UNL     1       0.066   7.935   2.602  1.00  0.00     0.008 A 
ATOM     21  C   UNL     1       2.098   6.840   3.227  1.00  0.00     0.005 A 
ATOM     22  C   UNL     1       3.097   4.916   2.144  1.00  0.00     0.045 C 
ATOM     23  C   UNL     1       1.182   7.865   3.414  1.00  0.00     0.015 A 
BRANCH  20  24
ATOM     24  S   UNL     1      -1.156   9.235   2.734  1.00  0.00    -0.130 SA
ATOM     25  C   UNL     1      -0.185  10.614   3.412  1.00  0.00     0.091 C 
ENDBRANCH  20  24
ENDBRANCH  15  17
ENDBRANCH  12  15
ENDBRANCH   5   8
ENDBRANCH   3   4
ENDBRANCH   2   3
ENDBRANCH   1   2
BRANCH   1  26
ATOM     26  C   UNL     1       5.570   6.514  -1.343  1.00  0.00     0.002 C 
BRANCH  26  27
ATOM     27  C   UNL     1       5.993   6.832  -2.773  1.00  0.00     0.021 C 
BRANCH  27  28
ATOM     28  C   UNL     1       5.548   8.201  -3.270  1.00  0.00     0.116 C 
BRANCH  28  29
ATOM     29  N   UNL     1       6.198   9.296  -2.564  1.00  0.00    -0.352 N 
ATOM     30  C   UNL     1       6.763  10.427  -3.104  1.00  0.00     0.251 C 
ATOM     31  H   UNL     1       6.238   9.217  -1.583  1.00  0.00     0.163 HD
ATOM     32  O   UNL     1       7.399  11.216  -2.415  1.00  0.00    -0.269 OA
BRANCH  30  33
ATOM     33  C   UNL     1       6.616  10.652  -4.554  1.00  0.00     0.039 A 
ATOM     34  C   UNL     1       7.761  10.792  -5.340  1.00  0.00     0.014 A 
ATOM     35  C   UNL     1       5.345  10.624  -5.135  1.00  0.00     0.014 A 
ATOM     36  C   UNL     1       7.634  10.834  -6.729  1.00  0.00     0.010 A 
ATOM     37  C   UNL     1       5.228  10.597  -6.520  1.00  0.00     0.010 A 
ATOM     38  C   UNL     1       6.370  10.700  -7.329  1.00  0.00    -0.014 A 
BRANCH  38  39
ATOM     39  C   UNL     1       6.220  10.661  -8.804  1.00  0.00     0.031 A 
ATOM     40  C   UNL     1       5.471  11.757  -9.509  1.00  0.00     0.074 A 
ATOM     41  C   UNL     1       6.690   9.607  -9.499  1.00  0.00     0.049 A 
ATOM     42  N   UNL     1       5.179  11.872 -10.779  1.00  0.00    -0.248 NA
ATOM     43  C   UNL     1       4.960  12.854  -8.671  1.00  0.00     0.031 C 
ATOM     44  C   UNL     1       7.390   8.455  -8.927  1.00  0.00     0.029 A 
ATOM     45  N   UNL     1       6.640   9.331 -10.842  1.00  0.00    -0.354 N 
ATOM     46  C   UNL     1       4.433  13.038 -10.888  1.00  0.00     0.074 A 
ATOM     47  C   UNL     1       4.277  13.570  -9.552  1.00  0.00     0.031 C 
ATOM     48  C   UNL     1       7.725   7.609  -9.915  1.00  0.00     0.029 A 
ATOM     49  C   UNL     1       7.236   8.142 -11.183  1.00  0.00     0.049 A 
ATOM     50  H   UNL     1       6.217   9.930 -11.500  1.00  0.00     0.167 HD
ATOM     51  C   UNL     1       3.938  13.626 -12.002  1.00  0.00     0.031 A 
ATOM     52  C   UNL     1       7.372   7.545 -12.383  1.00  0.00     0.031 A 
ATOM     53  C   UNL     1       4.108  13.109 -13.333  1.00  0.00     0.049 A 
ATOM     54  C   UNL     1       6.821   8.223 -13.606  1.00  0.00     0.074 A 
ATOM     55  C   UNL     1       3.701  13.665 -14.533  1.00  0.00     0.029 A 
ATOM     56  N   UNL     1       4.738  11.913 -13.637  1.00  0.00    -0.354 N 
ATOM     57  N   UNL     1       6.183   9.363 -13.702  1.00  0.00    -0.248 NA
ATOM     58  C   UNL     1       7.022   7.535 -14.890  1.00  0.00     0.031 C 
ATOM     59  C   UNL     1       4.049  12.784 -15.562  1.00  0.00     0.029 A 
ATOM     60  C   UNL     1       4.715  11.703 -15.005  1.00  0.00     0.049 A 
ATOM     61  H   UNL     1       5.142  11.303 -12.979  1.00  0.00     0.167 HD
ATOM     62  C   UNL     1       5.928   9.542 -15.055  1.00  0.00     0.074 A 
ATOM     63  C   UNL     1       6.494   8.400 -15.744  1.00  0.00     0.031 C 
ATOM     64  C   UNL     1       5.284  10.562 -15.672  1.00  0.00     0.031 A 
BRANCH  51  65
ATOM     65  C   UNL     1       3.160  14.898 -11.821  1.00  0.00    -0.014 A 
ATOM     66  C   UNL     1       3.798  16.093 -11.453  1.00  0.00     0.009 A 
ATOM     67  C   UNL     1       1.774  14.908 -12.043  1.00  0.00     0.009 A 
ATOM     68  C   UNL     1       3.059  17.264 -11.274  1.00  0.00     0.001 A 
ATOM     69  C   UNL     1       1.042  16.086 -11.890  1.00  0.00     0.001 A 
ATOM     70  C   UNL     1       1.682  17.260 -11.496  1.00  0.00     0.000 A 
ENDBRANCH  51  65
BRANCH  52  71
ATOM     71  C   UNL     1       8.079   6.244 -12.492  1.00  0.00    -0.014 A 
ATOM     72  C   UNL     1       9.355   6.176 -13.071  1.00  0.00     0.009 A 
ATOM     73  C   UNL     1       7.482   5.063 -12.024  1.00  0.00     0.009 A 
ATOM     74  C   UNL     1      10.009   4.949 -13.203  1.00  0.00     0.001 A 
ATOM     75  C   UNL     1       8.149   3.841 -12.134  1.00  0.00     0.001 A 
ATOM     76  C   UNL     1       9.408   3.783 -12.731  1.00  0.00     0.000 A 
ENDBRANCH  52  71
BRANCH  64  77
ATOM     77  C   UNL     1       5.184  10.505 -17.170  1.00  0.00    -0.014 A 
ATOM     78  C   UNL     1       4.303   9.618 -17.806  1.00  0.00     0.009 A 
ATOM     79  C   UNL     1       5.950  11.384 -17.950  1.00  0.00     0.009 A 
ATOM     80  C   UNL     1       4.212   9.594 -19.199  1.00  0.00     0.001 A 
ATOM     81  C   UNL     1       5.839  11.376 -19.341  1.00  0.00     0.001 A 
ATOM     82  C   UNL     1       4.976  10.476 -19.964  1.00  0.00     0.000 A 
ENDBRANCH  64  77
ENDBRANCH  38  39
ENDBRANCH  30  33
ENDBRANCH  28  29
ENDBRANCH  27  28
ENDBRANCH  26  27
ENDBRANCH   1  26
TORSDOF 17
