REMARK SMILES O=C(CCCCc1nc(C[C@H]2CCCO2)no1)NCCCCCCNC(=O)c1ccc(-c2c3nc(c(-c4ccccc4)c4ccc([nH]4)c(-c4ccccc4)c4nc(c(-c5ccccc5)c5ccc2[nH]5)C=C4)C=C3)cc1
REMARK SMILES IDX 19 1 18 2 1 3 2 4 3 6 4 7 5 8 6 9 7 10 8 11 17 12 9 13 16 14
REMARK SMILES IDX 10 15 11 16 12 17 15 18 13 19 14 20 20 21 21 22 22 23 23 24
REMARK SMILES IDX 24 25 25 26 26 27 27 29 28 30 29 31 75 32 30 33 74 34 31 35
REMARK SMILES IDX 32 36 33 37 68 38 34 39 73 40 67 41 69 42 35 43 72 44 66 45
REMARK SMILES IDX 65 46 36 48 58 49 43 50 57 51 44 52 47 53 56 54 70 55 45 56
REMARK SMILES IDX 46 57 55 59 71 60 48 61 37 62 38 63 42 64 39 65 41 66 40 67
REMARK SMILES IDX 59 68 60 69 64 70 61 71 63 72 62 73 49 74 50 75 54 76 51 77
REMARK SMILES IDX 53 78 52 79
REMARK H PARENT 18 5 25 28 69 47 47 58
REMARK Flexibility Score: inf
ROOT
ATOM      1  C   UNL     1       4.458 -13.541   5.847  1.00  0.00     0.116 C 
ENDROOT
BRANCH   1   2
ATOM      2  N   UNL     1       5.098 -12.715   4.851  1.00  0.00    -0.356 N 
ATOM      3  O   UNL     1       4.667 -14.040   3.029  1.00  0.00    -0.275 OA
ATOM      4  C   UNL     1       5.124 -13.012   3.512  1.00  0.00     0.219 C 
ATOM      5  H   UNL     1       5.543 -11.889   5.151  1.00  0.00     0.163 HD
BRANCH   4   6
ATOM      6  C   UNL     1       5.784 -11.934   2.675  1.00  0.00     0.100 C 
BRANCH   6   7
ATOM      7  C   UNL     1       4.902 -10.694   2.514  1.00  0.00     0.010 C 
BRANCH   7   8
ATOM      8  C   UNL     1       4.807  -9.732   3.714  1.00  0.00     0.010 C 
BRANCH   8   9
ATOM      9  C   UNL     1       6.128  -9.266   4.339  1.00  0.00     0.100 C 
BRANCH   9  10
ATOM     10  C   UNL     1       6.982  -8.497   3.409  1.00  0.00     0.226 A 
ATOM     11  N   UNL     1       6.796  -8.191   2.148  1.00  0.00    -0.196 NA
ATOM     12  O   UNL     1       8.181  -8.068   3.899  1.00  0.00    -0.339 OA
ATOM     13  C   UNL     1       7.964  -7.556   1.827  1.00  0.00     0.174 A 
ATOM     14  N   UNL     1       8.840  -7.452   2.834  1.00  0.00    -0.062 NA
BRANCH  13  15
ATOM     15  C   UNL     1       8.248  -7.105   0.446  1.00  0.00     0.113 C 
BRANCH  15  16
ATOM     16  C   UNL     1       8.347  -5.585   0.300  1.00  0.00     0.126 C 
ATOM     17  C   UNL     1       9.638  -4.977   0.835  1.00  0.00     0.035 C 
ATOM     18  O   UNL     1       8.332  -5.276  -1.114  1.00  0.00    -0.378 OA
ATOM     19  C   UNL     1      10.562  -5.074  -0.352  1.00  0.00     0.031 C 
ATOM     20  C   UNL     1       9.621  -4.774  -1.495  1.00  0.00     0.160 C 
ENDBRANCH  15  16
ENDBRANCH  13  15
ENDBRANCH   9  10
ENDBRANCH   8   9
ENDBRANCH   7   8
ENDBRANCH   6   7
ENDBRANCH   4   6
ENDBRANCH   1   2
BRANCH   1  21
ATOM     21  C   UNL     1       5.268 -13.555   7.142  1.00  0.00     0.021 C 
BRANCH  21  22
ATOM     22  C   UNL     1       5.479 -12.176   7.790  1.00  0.00     0.002 C 
BRANCH  22  23
ATOM     23  C   UNL     1       4.202 -11.430   8.183  1.00  0.00     0.002 C 
BRANCH  23  24
ATOM     24  C   UNL     1       3.281 -12.187   9.141  1.00  0.00     0.021 C 
BRANCH  24  25
ATOM     25  C   UNL     1       3.943 -12.654  10.433  1.00  0.00     0.116 C 
BRANCH  25  26
ATOM     26  N   UNL     1       4.396 -11.548  11.263  1.00  0.00    -0.352 N 
ATOM     27  C   UNL     1       4.174 -11.318  12.598  1.00  0.00     0.251 C 
ATOM     28  H   UNL     1       4.939 -10.868  10.802  1.00  0.00     0.163 HD
ATOM     29  O   UNL     1       4.500 -10.247  13.104  1.00  0.00    -0.269 OA
BRANCH  27  30
ATOM     30  C   UNL     1       3.509 -12.349  13.423  1.00  0.00     0.039 A 
ATOM     31  C   UNL     1       2.479 -11.963  14.284  1.00  0.00     0.014 A 
ATOM     32  C   UNL     1       3.886 -13.692  13.337  1.00  0.00     0.014 A 
ATOM     33  C   UNL     1       1.778 -12.933  15.002  1.00  0.00     0.010 A 
ATOM     34  C   UNL     1       3.137 -14.665  13.994  1.00  0.00     0.010 A 
ATOM     35  C   UNL     1       2.072 -14.296  14.829  1.00  0.00    -0.014 A 
BRANCH  35  36
ATOM     36  C   UNL     1       1.253 -15.346  15.487  1.00  0.00     0.031 A 
ATOM     37  C   UNL     1       1.865 -16.277  16.494  1.00  0.00     0.074 A 
ATOM     38  C   UNL     1      -0.035 -15.504  15.124  1.00  0.00     0.049 A 
ATOM     39  N   UNL     1       1.314 -17.277  17.136  1.00  0.00    -0.248 NA
ATOM     40  C   UNL     1       3.289 -16.076  16.801  1.00  0.00     0.031 C 
ATOM     41  C   UNL     1      -0.737 -14.699  14.123  1.00  0.00     0.029 A 
ATOM     42  N   UNL     1      -0.980 -16.404  15.549  1.00  0.00    -0.354 N 
ATOM     43  C   UNL     1       2.324 -17.827  17.915  1.00  0.00     0.074 A 
ATOM     44  C   UNL     1       3.533 -17.089  17.620  1.00  0.00     0.031 C 
ATOM     45  C   UNL     1      -2.007 -15.124  14.029  1.00  0.00     0.029 A 
ATOM     46  C   UNL     1      -2.196 -16.258  14.928  1.00  0.00     0.049 A 
ATOM     47  H   UNL     1      -0.803 -17.089  16.234  1.00  0.00     0.167 HD
ATOM     48  C   UNL     1       2.249 -18.843  18.809  1.00  0.00     0.031 A 
ATOM     49  C   UNL     1      -3.336 -16.964  15.055  1.00  0.00     0.031 A 
ATOM     50  C   UNL     1       1.050 -19.588  19.090  1.00  0.00     0.049 A 
ATOM     51  C   UNL     1      -3.390 -18.106  16.029  1.00  0.00     0.074 A 
ATOM     52  C   UNL     1       0.860 -20.600  20.016  1.00  0.00     0.029 A 
ATOM     53  N   UNL     1      -0.161 -19.411  18.438  1.00  0.00    -0.354 N 
ATOM     54  N   UNL     1      -2.447 -18.563  16.817  1.00  0.00    -0.248 NA
ATOM     55  C   UNL     1      -4.668 -18.822  16.137  1.00  0.00     0.031 C 
ATOM     56  C   UNL     1      -0.448 -21.079  19.877  1.00  0.00     0.029 A 
ATOM     57  C   UNL     1      -1.093 -20.320  18.914  1.00  0.00     0.049 A 
ATOM     58  H   UNL     1      -0.334 -18.739  17.739  1.00  0.00     0.167 HD
ATOM     59  C   UNL     1      -3.022 -19.609  17.528  1.00  0.00     0.074 A 
ATOM     60  C   UNL     1      -4.401 -19.702  17.092  1.00  0.00     0.031 C 
ATOM     61  C   UNL     1      -2.457 -20.418  18.458  1.00  0.00     0.031 A 
BRANCH  48  62
ATOM     62  C   UNL     1       3.517 -19.215  19.530  1.00  0.00    -0.014 A 
ATOM     63  C   UNL     1       4.116 -18.342  20.454  1.00  0.00     0.009 A 
ATOM     64  C   UNL     1       4.120 -20.460  19.290  1.00  0.00     0.009 A 
ATOM     65  C   UNL     1       5.318 -18.684  21.078  1.00  0.00     0.001 A 
ATOM     66  C   UNL     1       5.302 -20.814  19.943  1.00  0.00     0.001 A 
ATOM     67  C   UNL     1       5.908 -19.921  20.825  1.00  0.00     0.000 A 
ENDBRANCH  48  62
BRANCH  49  68
ATOM     68  C   UNL     1      -4.520 -16.598  14.234  1.00  0.00    -0.014 A 
ATOM     69  C   UNL     1      -5.643 -16.001  14.824  1.00  0.00     0.009 A 
ATOM     70  C   UNL     1      -4.520 -16.821  12.847  1.00  0.00     0.009 A 
ATOM     71  C   UNL     1      -6.748 -15.649  14.045  1.00  0.00     0.001 A 
ATOM     72  C   UNL     1      -5.613 -16.441  12.067  1.00  0.00     0.001 A 
ATOM     73  C   UNL     1      -6.729 -15.861  12.667  1.00  0.00     0.000 A 
ENDBRANCH  49  68
BRANCH  61  74
ATOM     74  C   UNL     1      -3.336 -21.469  19.079  1.00  0.00    -0.014 A 
ATOM     75  C   UNL     1      -3.765 -22.587  18.346  1.00  0.00     0.009 A 
ATOM     76  C   UNL     1      -3.711 -21.357  20.427  1.00  0.00     0.009 A 
ATOM     77  C   UNL     1      -4.579 -23.553  18.943  1.00  0.00     0.001 A 
ATOM     78  C   UNL     1      -4.497 -22.340  21.029  1.00  0.00     0.001 A 
ATOM     79  C   UNL     1      -4.939 -23.432  20.284  1.00  0.00     0.000 A 
ENDBRANCH  61  74
ENDBRANCH  35  36
ENDBRANCH  27  30
ENDBRANCH  25  26
ENDBRANCH  24  25
ENDBRANCH  23  24
ENDBRANCH  22  23
ENDBRANCH  21  22
ENDBRANCH   1  21
TORSDOF 19
