REMARK SMILES [NH3+][C@H]1C=C[C@@H](C(=O)N2CCC(CC(=O)NCCCCCCNC(=O)c3ccc(-c4c5nc(c(-c6ccccc6)c6ccc([nH]6)c(-c6ccccc6)c6nc(c(-c7ccccc7)c7ccc4[nH]7)C=C6)C=C5)cc3)CC2)C1
REMARK SMILES IDX 18 1 17 2 16 3 15 4 13 5 14 6 12 8 11 9 6 10 7 11 8 12 9 13
REMARK SMILES IDX 74 14 10 15 73 16 5 17 2 18 3 19 75 20 4 21 1 22 19 26 20 27
REMARK SMILES IDX 21 28 22 29 23 30 24 32 25 33 26 34 72 35 27 36 71 37 28 38
REMARK SMILES IDX 29 39 30 40 65 41 31 42 70 43 64 44 66 45 32 46 69 47 63 48
REMARK SMILES IDX 62 49 33 51 55 52 40 53 54 54 41 55 44 56 53 57 67 58 42 59
REMARK SMILES IDX 43 60 52 62 68 63 45 64 34 65 35 66 39 67 36 68 38 69 37 70
REMARK SMILES IDX 56 71 57 72 61 73 58 74 60 75 59 76 46 77 47 78 51 79 48 80
REMARK SMILES IDX 50 81 49 82
REMARK H PARENT 15 7 1 23 1 24 1 25 22 31 66 50 44 61
REMARK Flexibility Score: inf
ROOT
ATOM      1  C   UNL     1      -5.601   8.611  -1.172  1.00  0.00     0.002 C 
ENDROOT
BRANCH   1   2
ATOM      2  C   UNL     1      -5.255   7.124  -1.087  1.00  0.00     0.021 C 
BRANCH   2   3
ATOM      3  C   UNL     1      -6.405   6.183  -1.462  1.00  0.00     0.116 C 
BRANCH   3   4
ATOM      4  N   UNL     1      -6.335   5.824  -2.868  1.00  0.00    -0.356 N 
ATOM      5  C   UNL     1      -6.004   4.640  -3.458  1.00  0.00     0.220 C 
ATOM      6  O   UNL     1      -5.878   4.610  -4.684  1.00  0.00    -0.275 OA
ATOM      7  H   UNL     1      -6.561   6.550  -3.493  1.00  0.00     0.163 HD
BRANCH   5   8
ATOM      8  C   UNL     1      -5.804   3.387  -2.625  1.00  0.00     0.103 C 
BRANCH   8   9
ATOM      9  C   UNL     1      -4.329   3.066  -2.320  1.00  0.00     0.002 C 
ATOM     10  C   UNL     1      -2.490   2.301   1.047  1.00  0.00     0.229 C 
ATOM     11  O   UNL     1      -3.451   2.842   1.596  1.00  0.00    -0.274 OA
ATOM     12  N   UNL     1      -2.297   2.382  -0.328  1.00  0.00    -0.342 N 
ATOM     13  C   UNL     1      -2.303   3.708  -0.915  1.00  0.00     0.120 C 
ATOM     14  C   UNL     1      -2.815   1.337  -1.197  1.00  0.00     0.120 C 
ATOM     15  C   UNL     1      -3.694   4.106  -1.389  1.00  0.00     0.026 C 
ATOM     16  C   UNL     1      -4.225   1.662  -1.696  1.00  0.00     0.026 C 
BRANCH  10  17
ATOM     17  C   UNL     1      -1.322   1.735   1.869  1.00  0.00     0.107 C 
ATOM     18  C   UNL     1       0.706   0.473   1.244  1.00  0.00     0.205 C 
ATOM     19  C   UNL     1       0.973   1.933   1.364  1.00  0.00     0.033 C 
ATOM     20  C   UNL     1      -0.807   0.346   1.482  1.00  0.00     0.087 C 
ATOM     21  C   UNL     1      -0.115   2.618   1.726  1.00  0.00    -0.012 C 
BRANCH  18  22
ATOM     22  N   UNL     1       1.087  -0.034  -0.062  1.00  0.00    -0.352 N 
ATOM     23  H   UNL     1       2.094   0.066  -0.185  1.00  0.00     0.345 HD
ATOM     24  H   UNL     1       0.601   0.496  -0.786  1.00  0.00     0.345 HD
ATOM     25  H   UNL     1       0.831  -1.019  -0.133  1.00  0.00     0.345 HD
ENDBRANCH  18  22
ENDBRANCH  10  17
ENDBRANCH   8   9
ENDBRANCH   5   8
ENDBRANCH   3   4
ENDBRANCH   2   3
ENDBRANCH   1   2
BRANCH   1  26
ATOM     26  C   UNL     1      -6.565   9.114  -0.095  1.00  0.00     0.002 C 
BRANCH  26  27
ATOM     27  C   UNL     1      -6.151   8.833   1.353  1.00  0.00     0.021 C 
BRANCH  27  28
ATOM     28  C   UNL     1      -4.741   9.281   1.736  1.00  0.00     0.116 C 
BRANCH  28  29
ATOM     29  N   UNL     1      -4.545  10.708   1.545  1.00  0.00    -0.352 N 
ATOM     30  C   UNL     1      -4.210  11.683   2.449  1.00  0.00     0.251 C 
ATOM     31  H   UNL     1      -4.672  11.024   0.621  1.00  0.00     0.163 HD
ATOM     32  O   UNL     1      -4.279  12.865   2.125  1.00  0.00    -0.269 OA
BRANCH  30  33
ATOM     33  C   UNL     1      -3.776  11.326   3.817  1.00  0.00     0.039 A 
ATOM     34  C   UNL     1      -4.269  12.074   4.890  1.00  0.00     0.014 A 
ATOM     35  C   UNL     1      -2.848  10.306   4.044  1.00  0.00     0.014 A 
ATOM     36  C   UNL     1      -3.866  11.771   6.192  1.00  0.00     0.010 A 
ATOM     37  C   UNL     1      -2.493   9.964   5.348  1.00  0.00     0.010 A 
ATOM     38  C   UNL     1      -2.990  10.701   6.434  1.00  0.00    -0.014 A 
BRANCH  38  39
ATOM     39  C   UNL     1      -2.579  10.355   7.818  1.00  0.00     0.031 A 
ATOM     40  C   UNL     1      -1.154  10.541   8.259  1.00  0.00     0.074 A 
ATOM     41  C   UNL     1      -3.485   9.839   8.671  1.00  0.00     0.049 A 
ATOM     42  N   UNL     1      -0.611  10.290   9.424  1.00  0.00    -0.248 NA
ATOM     43  C   UNL     1      -0.209  11.057   7.255  1.00  0.00     0.031 C 
ATOM     44  C   UNL     1      -4.889   9.569   8.355  1.00  0.00     0.029 A 
ATOM     45  N   UNL     1      -3.356   9.447   9.980  1.00  0.00    -0.354 N 
ATOM     46  C   UNL     1       0.736  10.602   9.288  1.00  0.00     0.074 A 
ATOM     47  C   UNL     1       0.938  11.018   7.917  1.00  0.00     0.031 C 
ATOM     48  C   UNL     1      -5.498   9.084   9.449  1.00  0.00     0.029 A 
ATOM     49  C   UNL     1      -4.524   8.980  10.531  1.00  0.00     0.049 A 
ATOM     50  H   UNL     1      -2.507   9.496  10.476  1.00  0.00     0.167 HD
ATOM     51  C   UNL     1       1.715  10.563  10.223  1.00  0.00     0.031 A 
ATOM     52  C   UNL     1      -4.784   8.524  11.770  1.00  0.00     0.031 A 
ATOM     53  C   UNL     1       1.516  10.163  11.591  1.00  0.00     0.049 A 
ATOM     54  C   UNL     1      -3.683   8.499  12.792  1.00  0.00     0.074 A 
ATOM     55  C   UNL     1       2.434  10.146  12.627  1.00  0.00     0.029 A 
ATOM     56  N   UNL     1       0.315   9.709  12.112  1.00  0.00    -0.354 N 
ATOM     57  N   UNL     1      -2.431   8.864  12.666  1.00  0.00    -0.248 NA
ATOM     58  C   UNL     1      -4.039   8.014  14.133  1.00  0.00     0.031 C 
ATOM     59  C   UNL     1       1.797   9.642  13.767  1.00  0.00     0.029 A 
ATOM     60  C   UNL     1       0.472   9.390  13.450  1.00  0.00     0.049 A 
ATOM     61  H   UNL     1      -0.525   9.625  11.605  1.00  0.00     0.167 HD
ATOM     62  C   UNL     1      -1.855   8.676  13.916  1.00  0.00     0.074 A 
ATOM     63  C   UNL     1      -2.899   8.181  14.789  1.00  0.00     0.031 C 
ATOM     64  C   UNL     1      -0.575   8.896  14.305  1.00  0.00     0.031 A 
BRANCH  51  65
ATOM     65  C   UNL     1       3.098  10.963   9.791  1.00  0.00    -0.014 A 
ATOM     66  C   UNL     1       3.412  12.303   9.510  1.00  0.00     0.009 A 
ATOM     67  C   UNL     1       4.109   9.994   9.695  1.00  0.00     0.009 A 
ATOM     68  C   UNL     1       4.701  12.657   9.105  1.00  0.00     0.001 A 
ATOM     69  C   UNL     1       5.403  10.356   9.316  1.00  0.00     0.001 A 
ATOM     70  C   UNL     1       5.696  11.685   9.012  1.00  0.00     0.000 A 
ENDBRANCH  51  65
BRANCH  52  71
ATOM     71  C   UNL     1      -6.156   8.079  12.124  1.00  0.00    -0.014 A 
ATOM     72  C   UNL     1      -6.960   8.860  12.969  1.00  0.00     0.009 A 
ATOM     73  C   UNL     1      -6.668   6.873  11.622  1.00  0.00     0.009 A 
ATOM     74  C   UNL     1      -8.240   8.430  13.323  1.00  0.00     0.001 A 
ATOM     75  C   UNL     1      -7.958   6.459  11.957  1.00  0.00     0.001 A 
ATOM     76  C   UNL     1      -8.740   7.232  12.814  1.00  0.00     0.000 A 
ENDBRANCH  52  71
BRANCH  64  77
ATOM     77  C   UNL     1      -0.244   8.628  15.745  1.00  0.00    -0.014 A 
ATOM     78  C   UNL     1      -0.139   7.317  16.235  1.00  0.00     0.009 A 
ATOM     79  C   UNL     1      -0.007   9.703  16.615  1.00  0.00     0.009 A 
ATOM     80  C   UNL     1       0.165   7.090  17.579  1.00  0.00     0.001 A 
ATOM     81  C   UNL     1       0.322   9.472  17.951  1.00  0.00     0.001 A 
ATOM     82  C   UNL     1       0.398   8.167  18.434  1.00  0.00     0.000 A 
ENDBRANCH  64  77
ENDBRANCH  38  39
ENDBRANCH  30  33
ENDBRANCH  28  29
ENDBRANCH  27  28
ENDBRANCH  26  27
ENDBRANCH   1  26
TORSDOF 16
