REMARK SMILES Cc1ccc(C(=O)N2CCC(CC(=O)NCCCCCCNC(=O)c3ccc(-c4c5nc(c(-c6ccccc6)c6ccc([nH]6)c(-c6ccccc6)c6nc(c(-c7ccccc7)c7ccc4[nH]7)C=C6)C=C5)cc3)CC2)cn1
REMARK SMILES IDX 18 1 17 2 16 3 15 4 13 5 14 6 12 8 11 9 6 10 7 11 8 12 9 13
REMARK SMILES IDX 74 14 10 15 73 16 5 17 1 18 2 19 3 20 76 21 4 22 75 23 19 24
REMARK SMILES IDX 20 25 21 26 22 27 23 28 24 30 25 31 26 32 72 33 27 34 71 35
REMARK SMILES IDX 28 36 29 37 30 38 65 39 31 40 70 41 64 42 66 43 32 44 69 45
REMARK SMILES IDX 63 46 62 47 33 49 55 50 40 51 54 52 41 53 44 54 53 55 67 56
REMARK SMILES IDX 42 57 43 58 52 60 68 61 45 62 34 63 35 64 39 65 36 66 38 67
REMARK SMILES IDX 37 68 56 69 57 70 61 71 58 72 60 73 59 74 46 75 47 76 51 77
REMARK SMILES IDX 48 78 50 79 49 80
REMARK H PARENT 15 7 22 29 66 48 44 59
REMARK Flexibility Score: inf
ROOT
ATOM      1  C   UNL     1      -8.241  -0.574  -4.907  1.00  0.00     0.002 C 
ENDROOT
BRANCH   1   2
ATOM      2  C   UNL     1      -7.613  -0.784  -3.531  1.00  0.00     0.021 C 
BRANCH   2   3
ATOM      3  C   UNL     1      -8.610  -0.864  -2.368  1.00  0.00     0.116 C 
BRANCH   3   4
ATOM      4  N   UNL     1      -8.961  -2.246  -2.079  1.00  0.00    -0.356 N 
ATOM      5  C   UNL     1      -8.630  -3.049  -1.027  1.00  0.00     0.220 C 
ATOM      6  O   UNL     1      -8.965  -4.235  -1.072  1.00  0.00    -0.275 OA
ATOM      7  H   UNL     1      -9.534  -2.673  -2.756  1.00  0.00     0.163 HD
BRANCH   5   8
ATOM      8  C   UNL     1      -7.868  -2.505   0.172  1.00  0.00     0.103 C 
BRANCH   8   9
ATOM      9  C   UNL     1      -6.340  -2.698   0.090  1.00  0.00     0.002 C 
ATOM     10  C   UNL     1      -3.135  -0.245   0.276  1.00  0.00     0.255 C 
ATOM     11  O   UNL     1      -3.798   0.788   0.274  1.00  0.00    -0.269 OA
ATOM     12  N   UNL     1      -3.692  -1.503   0.154  1.00  0.00    -0.339 N 
ATOM     13  C   UNL     1      -4.237  -1.898  -1.121  1.00  0.00     0.120 C 
ATOM     14  C   UNL     1      -4.143  -2.246   1.317  1.00  0.00     0.120 C 
ATOM     15  C   UNL     1      -5.749  -1.906  -1.078  1.00  0.00     0.026 C 
ATOM     16  C   UNL     1      -5.670  -2.276   1.414  1.00  0.00     0.026 C 
BRANCH  10  17
ATOM     17  C   UNL     1      -1.651  -0.219   0.267  1.00  0.00     0.058 A 
ATOM     18  C   UNL     1       2.582   0.083   0.012  1.00  0.00     0.066 C 
ATOM     19  C   UNL     1       1.093  -0.049   0.119  1.00  0.00     0.037 A 
ATOM     20  C   UNL     1       0.496  -1.304   0.113  1.00  0.00     0.024 A 
ATOM     21  N   UNL     1       0.376   1.099   0.201  1.00  0.00    -0.261 NA
ATOM     22  C   UNL     1      -0.890  -1.388   0.189  1.00  0.00     0.017 A 
ATOM     23  C   UNL     1      -0.977   0.991   0.271  1.00  0.00     0.125 A 
ENDBRANCH  10  17
ENDBRANCH   8   9
ENDBRANCH   5   8
ENDBRANCH   3   4
ENDBRANCH   2   3
ENDBRANCH   1   2
BRANCH   1  24
ATOM     24  C   UNL     1      -8.853   0.809  -5.130  1.00  0.00     0.002 C 
BRANCH  24  25
ATOM     25  C   UNL     1      -7.914   1.993  -4.881  1.00  0.00     0.021 C 
BRANCH  25  26
ATOM     26  C   UNL     1      -6.593   1.946  -5.646  1.00  0.00     0.116 C 
BRANCH  26  27
ATOM     27  N   UNL     1      -6.798   1.929  -7.085  1.00  0.00    -0.352 N 
ATOM     28  C   UNL     1      -6.426   2.852  -8.034  1.00  0.00     0.251 C 
ATOM     29  H   UNL     1      -7.274   1.140  -7.432  1.00  0.00     0.163 HD
ATOM     30  O   UNL     1      -6.878   2.790  -9.166  1.00  0.00    -0.269 OA
BRANCH  28  31
ATOM     31  C   UNL     1      -5.475   3.927  -7.675  1.00  0.00     0.039 A 
ATOM     32  C   UNL     1      -5.741   5.233  -8.095  1.00  0.00     0.014 A 
ATOM     33  C   UNL     1      -4.311   3.640  -6.958  1.00  0.00     0.014 A 
ATOM     34  C   UNL     1      -4.859   6.261  -7.754  1.00  0.00     0.010 A 
ATOM     35  C   UNL     1      -3.471   4.676  -6.559  1.00  0.00     0.010 A 
ATOM     36  C   UNL     1      -3.729   5.994  -6.965  1.00  0.00    -0.014 A 
BRANCH  36  37
ATOM     37  C   UNL     1      -2.787   7.074  -6.578  1.00  0.00     0.031 A 
ATOM     38  C   UNL     1      -1.370   7.052  -7.083  1.00  0.00     0.074 A 
ATOM     39  C   UNL     1      -3.189   8.046  -5.736  1.00  0.00     0.049 A 
ATOM     40  N   UNL     1      -0.383   7.869  -6.814  1.00  0.00    -0.248 NA
ATOM     41  C   UNL     1      -1.008   5.954  -7.995  1.00  0.00     0.031 C 
ATOM     42  C   UNL     1      -4.528   8.166  -5.154  1.00  0.00     0.029 A 
ATOM     43  N   UNL     1      -2.506   9.118  -5.219  1.00  0.00    -0.354 N 
ATOM     44  C   UNL     1       0.715   7.376  -7.508  1.00  0.00     0.074 A 
ATOM     45  C   UNL     1       0.289   6.162  -8.168  1.00  0.00     0.031 C 
ATOM     46  C   UNL     1      -4.575   9.265  -4.383  1.00  0.00     0.029 A 
ATOM     47  C   UNL     1      -3.262   9.902  -4.383  1.00  0.00     0.049 A 
ATOM     48  H   UNL     1      -1.562   9.307  -5.428  1.00  0.00     0.167 HD
ATOM     49  C   UNL     1       1.961   7.897  -7.606  1.00  0.00     0.031 A 
ATOM     50  C   UNL     1      -2.932  11.008  -3.689  1.00  0.00     0.031 A 
ATOM     51  C   UNL     1       2.384   9.109  -6.957  1.00  0.00     0.049 A 
ATOM     52  C   UNL     1      -1.533  11.550  -3.794  1.00  0.00     0.074 A 
ATOM     53  C   UNL     1       3.613   9.740  -7.026  1.00  0.00     0.029 A 
ATOM     54  N   UNL     1       1.586   9.873  -6.120  1.00  0.00    -0.354 N 
ATOM     55  N   UNL     1      -0.523  11.103  -4.500  1.00  0.00    -0.248 NA
ATOM     56  C   UNL     1      -1.233  12.759  -3.013  1.00  0.00     0.031 C 
ATOM     57  C   UNL     1       3.574  10.863  -6.194  1.00  0.00     0.029 A 
ATOM     58  C   UNL     1       2.302  10.962  -5.653  1.00  0.00     0.049 A 
ATOM     59  H   UNL     1       0.650   9.671  -5.891  1.00  0.00     0.167 HD
ATOM     60  C   UNL     1       0.518  11.995  -4.278  1.00  0.00     0.074 A 
ATOM     61  C   UNL     1       0.013  13.015  -3.383  1.00  0.00     0.031 C 
ATOM     62  C   UNL     1       1.780  11.973  -4.772  1.00  0.00     0.031 A 
BRANCH  49  63
ATOM     63  C   UNL     1       2.958   7.154  -8.452  1.00  0.00    -0.014 A 
ATOM     64  C   UNL     1       2.833   7.110  -9.850  1.00  0.00     0.009 A 
ATOM     65  C   UNL     1       4.056   6.522  -7.849  1.00  0.00     0.009 A 
ATOM     66  C   UNL     1       3.768   6.418 -10.623  1.00  0.00     0.001 A 
ATOM     67  C   UNL     1       5.006   5.856  -8.627  1.00  0.00     0.001 A 
ATOM     68  C   UNL     1       4.856   5.797 -10.012  1.00  0.00     0.000 A 
ENDBRANCH  49  63
BRANCH  50  69
ATOM     69  C   UNL     1      -3.944  11.693  -2.842  1.00  0.00    -0.014 A 
ATOM     70  C   UNL     1      -4.432  12.959  -3.201  1.00  0.00     0.009 A 
ATOM     71  C   UNL     1      -4.407  11.100  -1.657  1.00  0.00     0.009 A 
ATOM     72  C   UNL     1      -5.335  13.632  -2.374  1.00  0.00     0.001 A 
ATOM     73  C   UNL     1      -5.334  11.761  -0.849  1.00  0.00     0.001 A 
ATOM     74  C   UNL     1      -5.787  13.032  -1.201  1.00  0.00     0.000 A 
ENDBRANCH  50  69
BRANCH  62  75
ATOM     75  C   UNL     1       2.685  13.114  -4.399  1.00  0.00    -0.014 A 
ATOM     76  C   UNL     1       3.207  13.242  -3.103  1.00  0.00     0.009 A 
ATOM     77  C   UNL     1       3.051  14.053  -5.377  1.00  0.00     0.009 A 
ATOM     78  C   UNL     1       4.050  14.309  -2.785  1.00  0.00     0.001 A 
ATOM     79  C   UNL     1       3.918  15.100  -5.064  1.00  0.00     0.001 A 
ATOM     80  C   UNL     1       4.409  15.233  -3.767  1.00  0.00     0.000 A 
ENDBRANCH  62  75
ENDBRANCH  36  37
ENDBRANCH  28  31
ENDBRANCH  26  27
ENDBRANCH  25  26
ENDBRANCH  24  25
ENDBRANCH   1  24
TORSDOF 15
