REMARK SMILES CC[NH2+][C@]1(C(=O)NCCCCCCNC(=O)c2ccc(-c3c4nc(c(-c5ccccc5)c5ccc([nH]5)c(-c5ccccc5)c5nc(c(-c6ccccc6)c6ccc3[nH]6)C=C5)C=C4)cc2)CC[C@@H](Sc2ccc(OC)cc2)C1
REMARK SMILES IDX 10 1 9 2 8 3 7 4 5 5 6 6 4 8 65 9 77 10 66 11 67 12 3 13
REMARK SMILES IDX 2 16 1 17 68 18 69 19 70 20 76 21 71 22 75 23 72 24 73 25
REMARK SMILES IDX 74 26 11 27 12 28 13 29 14 30 15 31 16 33 17 34 18 35 64 36
REMARK SMILES IDX 19 37 63 38 20 39 21 40 22 41 57 42 23 43 62 44 56 45 58 46
REMARK SMILES IDX 24 47 61 48 55 49 54 50 25 52 47 53 32 54 46 55 33 56 36 57
REMARK SMILES IDX 45 58 59 59 34 60 35 61 44 63 60 64 37 65 26 66 27 67 31 68
REMARK SMILES IDX 28 69 30 70 29 71 48 72 49 73 53 74 50 75 52 76 51 77 38 78
REMARK SMILES IDX 39 79 43 80 40 81 42 82 41 83
REMARK H PARENT 7 7 3 14 3 15 14 32 58 51 36 62
REMARK Flexibility Score: inf
ROOT
ATOM      1  C   UNL     1       1.736   1.326  -2.159  1.00  0.00     0.002 C 
ENDROOT
BRANCH   1   2
ATOM      2  C   UNL     1       1.055   0.058  -2.672  1.00  0.00     0.021 C 
BRANCH   2   3
ATOM      3  C   UNL     1       1.700  -1.255  -2.248  1.00  0.00     0.116 C 
BRANCH   3   4
ATOM      4  N   UNL     1       1.612  -1.501  -0.826  1.00  0.00    -0.351 N 
ATOM      5  C   UNL     1       1.264  -2.635  -0.143  1.00  0.00     0.281 C 
ATOM      6  O   UNL     1       1.383  -2.590   1.085  1.00  0.00    -0.268 OA
ATOM      7  H   UNL     1       1.838  -0.729  -0.258  1.00  0.00     0.163 HD
BRANCH   5   8
ATOM      8  C   UNL     1       0.644  -3.869  -0.899  1.00  0.00     0.176 C 
ATOM      9  C   UNL     1       1.597  -4.401  -1.990  1.00  0.00     0.080 C 
ATOM     10  C   UNL     1       0.563  -5.072   0.082  1.00  0.00     0.094 C 
ATOM     11  C   UNL     1       1.378  -5.901  -2.088  1.00  0.00     0.022 C 
ATOM     12  C   UNL     1       0.925  -6.337  -0.703  1.00  0.00     0.058 C 
BRANCH   8  13
ATOM     13  N   UNL     1      -0.733  -3.469  -1.279  1.00  0.00    -0.334 N 
ATOM     14  H   UNL     1      -1.336  -3.679  -0.483  1.00  0.00     0.347 HD
ATOM     15  H   UNL     1      -0.642  -2.486  -1.534  1.00  0.00     0.347 HD
BRANCH  13  16
ATOM     16  C   UNL     1      -1.343  -4.078  -2.447  1.00  0.00     0.257 C 
ATOM     17  C   UNL     1      -2.781  -3.587  -2.578  1.00  0.00     0.071 C 
ENDBRANCH  13  16
ENDBRANCH   8  13
BRANCH  12  18
ATOM     18  S   UNL     1       2.105  -7.462   0.156  1.00  0.00    -0.122 SA
BRANCH  18  19
ATOM     19  C   UNL     1       3.660  -6.592   0.053  1.00  0.00     0.008 A 
ATOM     20  C   UNL     1       4.643  -7.030  -0.839  1.00  0.00     0.019 A 
ATOM     21  C   UNL     1       3.963  -5.544   0.924  1.00  0.00     0.019 A 
ATOM     22  C   UNL     1       5.898  -6.410  -0.871  1.00  0.00     0.047 A 
ATOM     23  C   UNL     1       5.215  -4.917   0.886  1.00  0.00     0.047 A 
ATOM     24  C   UNL     1       6.191  -5.351  -0.009  1.00  0.00     0.118 A 
BRANCH  24  25
ATOM     25  O   UNL     1       7.455  -4.844  -0.126  1.00  0.00    -0.497 OA
ATOM     26  C   UNL     1       7.803  -3.782   0.755  1.00  0.00     0.278 C 
ENDBRANCH  24  25
ENDBRANCH  18  19
ENDBRANCH  12  18
ENDBRANCH   5   8
ENDBRANCH   3   4
ENDBRANCH   2   3
ENDBRANCH   1   2
BRANCH   1  27
ATOM     27  C   UNL     1       3.228   1.458  -2.476  1.00  0.00     0.002 C 
BRANCH  27  28
ATOM     28  C   UNL     1       3.616   1.273  -3.945  1.00  0.00     0.021 C 
BRANCH  28  29
ATOM     29  C   UNL     1       2.883   2.176  -4.930  1.00  0.00     0.116 C 
BRANCH  29  30
ATOM     30  N   UNL     1       3.123   3.587  -4.676  1.00  0.00    -0.352 N 
ATOM     31  C   UNL     1       3.578   4.562  -5.526  1.00  0.00     0.251 C 
ATOM     32  H   UNL     1       2.931   3.886  -3.758  1.00  0.00     0.163 HD
ATOM     33  O   UNL     1       3.892   5.666  -5.086  1.00  0.00    -0.269 OA
BRANCH  31  34
ATOM     34  C   UNL     1       3.715   4.283  -6.971  1.00  0.00     0.039 A 
ATOM     35  C   UNL     1       4.869   4.709  -7.632  1.00  0.00     0.014 A 
ATOM     36  C   UNL     1       2.710   3.611  -7.674  1.00  0.00     0.014 A 
ATOM     37  C   UNL     1       5.044   4.407  -8.984  1.00  0.00     0.010 A 
ATOM     38  C   UNL     1       2.920   3.243  -9.000  1.00  0.00     0.010 A 
ATOM     39  C   UNL     1       4.088   3.639  -9.669  1.00  0.00    -0.014 A 
BRANCH  39  40
ATOM     40  C   UNL     1       4.309   3.223 -11.077  1.00  0.00     0.031 A 
ATOM     41  C   UNL     1       3.387   3.692 -12.167  1.00  0.00     0.074 A 
ATOM     42  C   UNL     1       5.304   2.362 -11.364  1.00  0.00     0.049 A 
ATOM     43  N   UNL     1       3.405   3.403 -13.444  1.00  0.00    -0.248 NA
ATOM     44  C   UNL     1       2.284   4.579 -11.766  1.00  0.00     0.031 C 
ATOM     45  C   UNL     1       6.236   1.792 -10.388  1.00  0.00     0.029 A 
ATOM     46  N   UNL     1       5.693   1.810 -12.558  1.00  0.00    -0.354 N 
ATOM     47  C   UNL     1       2.309   4.056 -13.994  1.00  0.00     0.074 A 
ATOM     48  C   UNL     1       1.619   4.711 -12.904  1.00  0.00     0.031 C 
ATOM     49  C   UNL     1       7.103   0.992 -11.027  1.00  0.00     0.029 A 
ATOM     50  C   UNL     1       6.763   0.957 -12.445  1.00  0.00     0.049 A 
ATOM     51  H   UNL     1       5.247   2.007 -13.414  1.00  0.00     0.167 HD
ATOM     52  C   UNL     1       1.920   4.116 -15.290  1.00  0.00     0.031 A 
ATOM     53  C   UNL     1       7.396   0.218 -13.376  1.00  0.00     0.031 A 
ATOM     54  C   UNL     1       2.606   3.459 -16.372  1.00  0.00     0.049 A 
ATOM     55  C   UNL     1       6.944   0.291 -14.806  1.00  0.00     0.074 A 
ATOM     56  C   UNL     1       2.335   3.518 -17.728  1.00  0.00     0.029 A 
ATOM     57  N   UNL     1       3.691   2.607 -16.218  1.00  0.00    -0.354 N 
ATOM     58  N   UNL     1       5.961   0.985 -15.325  1.00  0.00    -0.248 NA
ATOM     59  C   UNL     1       7.696  -0.512 -15.779  1.00  0.00     0.031 C 
ATOM     60  C   UNL     1       3.209   2.646 -18.386  1.00  0.00     0.029 A 
ATOM     61  C   UNL     1       4.073   2.100 -17.450  1.00  0.00     0.049 A 
ATOM     62  H   UNL     1       4.125   2.395 -15.361  1.00  0.00     0.167 HD
ATOM     63  C   UNL     1       5.986   0.718 -16.688  1.00  0.00     0.074 A 
ATOM     64  C   UNL     1       7.096  -0.186 -16.915  1.00  0.00     0.031 C 
ATOM     65  C   UNL     1       5.165   1.183 -17.662  1.00  0.00     0.031 A 
BRANCH  52  66
ATOM     66  C   UNL     1       0.671   4.900 -15.598  1.00  0.00    -0.014 A 
ATOM     67  C   UNL     1       0.619   6.295 -15.437  1.00  0.00     0.009 A 
ATOM     68  C   UNL     1      -0.472   4.231 -16.064  1.00  0.00     0.009 A 
ATOM     69  C   UNL     1      -0.566   6.993 -15.681  1.00  0.00     0.001 A 
ATOM     70  C   UNL     1      -1.645   4.936 -16.342  1.00  0.00     0.001 A 
ATOM     71  C   UNL     1      -1.696   6.314 -16.136  1.00  0.00     0.000 A 
ENDBRANCH  52  66
BRANCH  53  72
ATOM     72  C   UNL     1       8.535  -0.647 -12.970  1.00  0.00    -0.014 A 
ATOM     73  C   UNL     1       9.850  -0.311 -13.323  1.00  0.00     0.009 A 
ATOM     74  C   UNL     1       8.313  -1.794 -12.192  1.00  0.00     0.009 A 
ATOM     75  C   UNL     1      10.918  -1.113 -12.915  1.00  0.00     0.001 A 
ATOM     76  C   UNL     1       9.385  -2.577 -11.760  1.00  0.00     0.001 A 
ATOM     77  C   UNL     1      10.686  -2.240 -12.127  1.00  0.00     0.000 A 
ENDBRANCH  53  72
BRANCH  65  78
ATOM     78  C   UNL     1       5.445   0.732 -19.070  1.00  0.00    -0.014 A 
ATOM     79  C   UNL     1       5.204  -0.591 -19.475  1.00  0.00     0.009 A 
ATOM     80  C   UNL     1       5.919   1.655 -20.015  1.00  0.00     0.009 A 
ATOM     81  C   UNL     1       5.467  -0.986 -20.788  1.00  0.00     0.001 A 
ATOM     82  C   UNL     1       6.150   1.265 -21.335  1.00  0.00     0.001 A 
ATOM     83  C   UNL     1       5.933  -0.057 -21.718  1.00  0.00     0.000 A 
ENDBRANCH  65  78
ENDBRANCH  39  40
ENDBRANCH  31  34
ENDBRANCH  29  30
ENDBRANCH  28  29
ENDBRANCH  27  28
ENDBRANCH   1  27
TORSDOF 18
