REMARK SMILES Cc1cc(Nc2nc3c(c(OCC(=O)NCCCCCCNC(=O)c4ccc(-c5c6nc(c(-c7ccccc7)c7ccc([nH]7)c(-c7ccccc7)c7nc(c(-c8ccccc8)c8ccc5[nH]8)C=C7)C=C6)cc4)n2)CCCC3)ccc1Br
REMARK SMILES IDX 17 1 16 2 15 3 13 4 14 5 12 7 11 8 10 9 6 10 7 11 73 12 8 13
REMARK SMILES IDX 9 14 77 15 74 16 76 17 75 18 5 19 4 21 1 22 2 23 3 24 80 25
REMARK SMILES IDX 79 26 81 27 78 28 18 29 19 30 20 31 21 32 22 33 23 34 24 36
REMARK SMILES IDX 25 37 26 38 72 39 27 40 71 41 28 42 29 43 30 44 65 45 31 46
REMARK SMILES IDX 70 47 64 48 66 49 32 50 69 51 63 52 62 53 33 55 55 56 40 57
REMARK SMILES IDX 54 58 41 59 44 60 53 61 67 62 42 63 43 64 52 66 68 67 45 68
REMARK SMILES IDX 34 69 35 70 39 71 36 72 38 73 37 74 56 75 57 76 61 77 58 78
REMARK SMILES IDX 60 79 59 80 46 81 47 82 51 83 48 84 50 85 49 86
REMARK H PARENT 15 6 5 20 22 35 66 54 44 65
REMARK Flexibility Score: inf
ROOT
ATOM      1  C   UNL     1      10.519   2.654  -0.228  1.00  0.00     0.021 C 
ENDROOT
BRANCH   1   2
ATOM      2  C   UNL     1      10.412   2.534  -1.748  1.00  0.00     0.116 C 
BRANCH   2   3
ATOM      3  N   UNL     1       9.704   1.331  -2.137  1.00  0.00    -0.353 N 
ATOM      4  C   UNL     1       8.453   1.204  -2.673  1.00  0.00     0.258 C 
ATOM      5  O   UNL     1       8.038   0.073  -2.933  1.00  0.00    -0.271 OA
ATOM      6  H   UNL     1      10.191   0.488  -1.994  1.00  0.00     0.163 HD
BRANCH   4   7
ATOM      7  C   UNL     1       7.658   2.464  -3.032  1.00  0.00     0.331 C 
BRANCH   7   8
ATOM      8  O   UNL     1       7.561   3.465  -2.030  1.00  0.00    -0.467 OA
BRANCH   8   9
ATOM      9  C   UNL     1       6.722   3.145  -0.982  1.00  0.00     0.222 A 
ATOM     10  C   UNL     1       5.227   1.730  -0.011  1.00  0.00     0.230 A 
ATOM     11  N   UNL     1       5.018   2.580   1.006  1.00  0.00    -0.217 NA
ATOM     12  N   UNL     1       6.107   1.954  -0.989  1.00  0.00    -0.177 NA
ATOM     13  C   UNL     1       5.710   3.736   1.025  1.00  0.00     0.053 A 
ATOM     14  C   UNL     1       6.562   4.100   0.001  1.00  0.00     0.036 A 
ATOM     15  C   UNL     1       5.439   4.650   2.190  1.00  0.00     0.057 C 
ATOM     16  C   UNL     1       7.300   5.405  -0.011  1.00  0.00     0.043 C 
ATOM     17  C   UNL     1       6.477   5.762   2.332  1.00  0.00     0.007 C 
ATOM     18  C   UNL     1       6.731   6.420   0.981  1.00  0.00     0.005 C 
BRANCH  10  19
ATOM     19  N   UNL     1       4.461   0.573  -0.129  1.00  0.00    -0.324 N 
ATOM     20  H   UNL     1       4.959  -0.260  -0.294  1.00  0.00     0.170 HD
BRANCH  19  21
ATOM     21  C   UNL     1       3.065   0.450  -0.040  1.00  0.00     0.041 A 
ATOM     22  C   UNL     1       0.517  -2.391   0.000  1.00  0.00     0.045 C 
ATOM     23  C   UNL     1       1.085  -1.000   0.013  1.00  0.00    -0.035 A 
ATOM     24  C   UNL     1       2.482  -0.826  -0.037  1.00  0.00     0.030 A 
ATOM     25  C   UNL     1       0.268   0.138   0.064  1.00  0.00     0.021 A 
ATOM     26  C   UNL     1       0.834   1.411   0.095  1.00  0.00     0.018 A 
ATOM     27  Br  UNL     1      -1.628   0.024   0.084  1.00  0.00    -0.051 Br
ATOM     28  C   UNL     1       2.220   1.561   0.060  1.00  0.00     0.027 A 
ENDBRANCH  19  21
ENDBRANCH  10  19
ENDBRANCH   8   9
ENDBRANCH   7   8
ENDBRANCH   4   7
ENDBRANCH   2   3
ENDBRANCH   1   2
BRANCH   1  29
ATOM     29  C   UNL     1      11.316   1.522   0.436  1.00  0.00     0.002 C 
BRANCH  29  30
ATOM     30  C   UNL     1      12.745   1.337  -0.087  1.00  0.00     0.002 C 
BRANCH  30  31
ATOM     31  C   UNL     1      13.631   2.580   0.003  1.00  0.00     0.021 C 
BRANCH  31  32
ATOM     32  C   UNL     1      13.800   3.136   1.412  1.00  0.00     0.116 C 
BRANCH  32  33
ATOM     33  N   UNL     1      14.486   2.204   2.293  1.00  0.00    -0.352 N 
ATOM     34  C   UNL     1      15.638   2.380   3.018  1.00  0.00     0.251 C 
ATOM     35  H   UNL     1      14.063   1.319   2.382  1.00  0.00     0.163 HD
ATOM     36  O   UNL     1      16.180   1.425   3.568  1.00  0.00    -0.269 OA
BRANCH  34  37
ATOM     37  C   UNL     1      16.241   3.725   3.118  1.00  0.00     0.039 A 
ATOM     38  C   UNL     1      17.616   3.866   2.921  1.00  0.00     0.014 A 
ATOM     39  C   UNL     1      15.450   4.843   3.403  1.00  0.00     0.014 A 
ATOM     40  C   UNL     1      18.190   5.138   2.949  1.00  0.00     0.010 A 
ATOM     41  C   UNL     1      16.010   6.115   3.356  1.00  0.00     0.010 A 
ATOM     42  C   UNL     1      17.386   6.275   3.135  1.00  0.00    -0.014 A 
BRANCH  42  43
ATOM     43  C   UNL     1      17.974   7.638   3.117  1.00  0.00     0.031 A 
ATOM     44  C   UNL     1      17.959   8.480   4.363  1.00  0.00     0.074 A 
ATOM     45  C   UNL     1      18.489   8.129   1.974  1.00  0.00     0.049 A 
ATOM     46  N   UNL     1      18.398   9.701   4.536  1.00  0.00    -0.248 NA
ATOM     47  C   UNL     1      17.359   7.881   5.566  1.00  0.00     0.031 C 
ATOM     48  C   UNL     1      18.544   7.419   0.694  1.00  0.00     0.029 A 
ATOM     49  N   UNL     1      19.072   9.343   1.705  1.00  0.00    -0.354 N 
ATOM     50  C   UNL     1      18.127  10.013   5.862  1.00  0.00     0.074 A 
ATOM     51  C   UNL     1      17.432   8.881   6.432  1.00  0.00     0.031 C 
ATOM     52  C   UNL     1      19.163   8.193  -0.211  1.00  0.00     0.029 A 
ATOM     53  C   UNL     1      19.510   9.468   0.408  1.00  0.00     0.049 A 
ATOM     54  H   UNL     1      19.167  10.056   2.377  1.00  0.00     0.167 HD
ATOM     55  C   UNL     1      18.452  11.131   6.551  1.00  0.00     0.031 A 
ATOM     56  C   UNL     1      20.123  10.494  -0.212  1.00  0.00     0.031 A 
ATOM     57  C   UNL     1      19.149  12.255   5.987  1.00  0.00     0.049 A 
ATOM     58  C   UNL     1      20.427  11.746   0.564  1.00  0.00     0.074 A 
ATOM     59  C   UNL     1      19.553  13.419   6.616  1.00  0.00     0.029 A 
ATOM     60  N   UNL     1      19.546  12.354   4.663  1.00  0.00    -0.354 N 
ATOM     61  N   UNL     1      20.208  12.006   1.830  1.00  0.00    -0.248 NA
ATOM     62  C   UNL     1      21.069  12.844  -0.173  1.00  0.00     0.031 C 
ATOM     63  C   UNL     1      20.144  14.248   5.659  1.00  0.00     0.029 A 
ATOM     64  C   UNL     1      20.165  13.573   4.448  1.00  0.00     0.049 A 
ATOM     65  H   UNL     1      19.408  11.661   3.977  1.00  0.00     0.167 HD
ATOM     66  C   UNL     1      20.705  13.284   2.047  1.00  0.00     0.074 A 
ATOM     67  C   UNL     1      21.254  13.740   0.787  1.00  0.00     0.031 C 
ATOM     68  C   UNL     1      20.705  14.014   3.188  1.00  0.00     0.031 A 
BRANCH  55  69
ATOM     69  C   UNL     1      18.065  11.194   8.002  1.00  0.00    -0.014 A 
ATOM     70  C   UNL     1      18.713  10.396   8.958  1.00  0.00     0.009 A 
ATOM     71  C   UNL     1      17.090  12.108   8.430  1.00  0.00     0.009 A 
ATOM     72  C   UNL     1      18.376  10.495  10.309  1.00  0.00     0.001 A 
ATOM     73  C   UNL     1      16.776  12.227   9.785  1.00  0.00     0.001 A 
ATOM     74  C   UNL     1      17.414  11.416  10.722  1.00  0.00     0.000 A 
ENDBRANCH  55  69
BRANCH  56  75
ATOM     75  C   UNL     1      20.513  10.372  -1.642  1.00  0.00    -0.014 A 
ATOM     76  C   UNL     1      21.866  10.289  -2.005  1.00  0.00     0.009 A 
ATOM     77  C   UNL     1      19.538  10.328  -2.652  1.00  0.00     0.009 A 
ATOM     78  C   UNL     1      22.236  10.184  -3.348  1.00  0.00     0.001 A 
ATOM     79  C   UNL     1      19.909  10.193  -3.991  1.00  0.00     0.001 A 
ATOM     80  C   UNL     1      21.257  10.129  -4.339  1.00  0.00     0.000 A 
ENDBRANCH  56  75
BRANCH  68  81
ATOM     81  C   UNL     1      21.332  15.380   3.143  1.00  0.00    -0.014 A 
ATOM     82  C   UNL     1      20.700  16.446   2.485  1.00  0.00     0.009 A 
ATOM     83  C   UNL     1      22.528  15.621   3.838  1.00  0.00     0.009 A 
ATOM     84  C   UNL     1      21.265  17.723   2.507  1.00  0.00     0.001 A 
ATOM     85  C   UNL     1      23.073  16.904   3.885  1.00  0.00     0.001 A 
ATOM     86  C   UNL     1      22.445  17.953   3.214  1.00  0.00     0.000 A 
ENDBRANCH  68  81
ENDBRANCH  42  43
ENDBRANCH  34  37
ENDBRANCH  32  33
ENDBRANCH  31  32
ENDBRANCH  30  31
ENDBRANCH  29  30
ENDBRANCH   1  29
TORSDOF 17
