REMARK SMILES COc1cc(S(=O)(=O)CCO)cc(C(=O)NCCCCCCNC(=O)c2ccc(-c3c4nc(c(-c5ccccc5)c5ccc([nH]5)c(-c5ccccc5)c5nc(c(-c6ccccc6)c6ccc3[nH]6)C=C5)C=C4)cc2)c1OC
REMARK SMILES IDX 18 1 17 2 16 3 14 4 15 5 13 7 3 8 4 9 74 10 5 11 12 12 2 13
REMARK SMILES IDX 1 14 75 15 76 16 6 17 7 18 8 19 9 20 10 21 11 22 19 24 20 25
REMARK SMILES IDX 21 26 22 27 23 28 24 29 25 31 26 32 27 33 73 34 28 35 72 36
REMARK SMILES IDX 29 37 30 38 31 39 66 40 32 41 71 42 65 43 67 44 33 45 70 46
REMARK SMILES IDX 64 47 63 48 34 50 56 51 41 52 55 53 42 54 45 55 54 56 68 57
REMARK SMILES IDX 43 58 44 59 53 61 69 62 46 63 35 64 36 65 40 66 37 67 39 68
REMARK SMILES IDX 38 69 57 70 58 71 62 72 59 73 61 74 60 75 47 76 48 77 52 78
REMARK SMILES IDX 49 79 51 80 50 81
REMARK H PARENT 16 6 11 23 23 30 67 49 45 60
REMARK Flexibility Score: inf
ROOT
ATOM      1  C   UNL     1       6.185  -2.868  -0.187  1.00  0.00     0.021 C 
ENDROOT
BRANCH   1   2
ATOM      2  C   UNL     1       4.950  -2.381  -0.927  1.00  0.00     0.116 C 
BRANCH   2   3
ATOM      3  N   UNL     1       4.825  -2.793  -2.299  1.00  0.00    -0.352 N 
ATOM      4  C   UNL     1       3.683  -2.834  -3.067  1.00  0.00     0.255 C 
ATOM      5  O   UNL     1       3.800  -3.031  -4.276  1.00  0.00    -0.269 OA
ATOM      6  H   UNL     1       5.656  -3.079  -2.743  1.00  0.00     0.163 HD
BRANCH   4   7
ATOM      7  C   UNL     1       2.312  -2.795  -2.475  1.00  0.00     0.086 A 
ATOM      8  C   UNL     1       0.518  -1.982  -1.062  1.00  0.00     0.162 A 
ATOM      9  C   UNL     1      -0.307  -3.016  -1.528  1.00  0.00     0.070 A 
ATOM     10  C   UNL     1       1.826  -1.828  -1.565  1.00  0.00     0.173 A 
ATOM     11  C   UNL     1       0.157  -3.917  -2.490  1.00  0.00     0.072 A 
ATOM     12  C   UNL     1       1.474  -3.838  -2.922  1.00  0.00     0.038 A 
BRANCH   8  13
ATOM     13  O   UNL     1       0.012  -1.279  -0.000  1.00  0.00    -0.493 OA
ATOM     14  C   UNL     1      -0.331   0.074  -0.278  1.00  0.00     0.278 C 
ENDBRANCH   8  13
BRANCH  10  15
ATOM     15  O   UNL     1       2.626  -0.742  -1.320  1.00  0.00    -0.492 OA
ATOM     16  C   UNL     1       2.703  -0.258   0.018  1.00  0.00     0.278 C 
ENDBRANCH  10  15
BRANCH  11  17
ATOM     17  S   UNL     1      -0.986  -5.139  -3.094  1.00  0.00     0.180 S 
ATOM     18  O   UNL     1      -1.146  -6.083  -2.008  1.00  0.00    -0.224 OA
ATOM     19  O   UNL     1      -2.139  -4.401  -3.592  1.00  0.00    -0.224 OA
BRANCH  17  20
ATOM     20  C   UNL     1      -0.287  -6.032  -4.459  1.00  0.00     0.170 C 
BRANCH  20  21
ATOM     21  C   UNL     1      -0.292  -5.255  -5.758  1.00  0.00     0.172 C 
BRANCH  21  22
ATOM     22  O   UNL     1       0.746  -4.291  -5.753  1.00  0.00    -0.395 OA
ATOM     23  H   UNL     1       0.611  -3.674  -5.018  1.00  0.00     0.210 HD
ENDBRANCH  21  22
ENDBRANCH  20  21
ENDBRANCH  17  20
ENDBRANCH  11  17
ENDBRANCH   4   7
ENDBRANCH   2   3
ENDBRANCH   1   2
BRANCH   1  24
ATOM     24  C   UNL     1       7.532  -2.347  -0.693  1.00  0.00     0.002 C 
BRANCH  24  25
ATOM     25  C   UNL     1       7.658  -0.844  -0.965  1.00  0.00     0.002 C 
BRANCH  25  26
ATOM     26  C   UNL     1       7.240   0.122   0.147  1.00  0.00     0.021 C 
BRANCH  26  27
ATOM     27  C   UNL     1       7.818  -0.131   1.535  1.00  0.00     0.116 C 
BRANCH  27  28
ATOM     28  N   UNL     1       9.266  -0.166   1.555  1.00  0.00    -0.352 N 
ATOM     29  C   UNL     1      10.161   0.440   2.400  1.00  0.00     0.251 C 
ATOM     30  H   UNL     1       9.675  -0.713   0.846  1.00  0.00     0.163 HD
ATOM     31  O   UNL     1      11.363   0.351   2.162  1.00  0.00    -0.269 OA
BRANCH  29  32
ATOM     32  C   UNL     1       9.710   1.223   3.576  1.00  0.00     0.039 A 
ATOM     33  C   UNL     1      10.415   2.388   3.896  1.00  0.00     0.014 A 
ATOM     34  C   UNL     1       8.654   0.811   4.394  1.00  0.00     0.014 A 
ATOM     35  C   UNL     1      10.042   3.153   5.002  1.00  0.00     0.010 A 
ATOM     36  C   UNL     1       8.233   1.616   5.456  1.00  0.00     0.010 A 
ATOM     37  C   UNL     1       8.931   2.787   5.780  1.00  0.00    -0.014 A 
BRANCH  37  38
ATOM     38  C   UNL     1       8.512   3.632   6.928  1.00  0.00     0.031 A 
ATOM     39  C   UNL     1       8.610   3.121   8.340  1.00  0.00     0.074 A 
ATOM     40  C   UNL     1       8.034   4.870   6.699  1.00  0.00     0.049 A 
ATOM     41  N   UNL     1       8.374   3.752   9.464  1.00  0.00    -0.248 NA
ATOM     42  C   UNL     1       9.001   1.714   8.513  1.00  0.00     0.031 C 
ATOM     43  C   UNL     1       7.846   5.472   5.377  1.00  0.00     0.029 A 
ATOM     44  N   UNL     1       7.639   5.853   7.572  1.00  0.00    -0.354 N 
ATOM     45  C   UNL     1       8.580   2.819  10.473  1.00  0.00     0.074 A 
ATOM     46  C   UNL     1       8.904   1.566   9.825  1.00  0.00     0.031 C 
ATOM     47  C   UNL     1       7.432   6.740   5.528  1.00  0.00     0.029 A 
ATOM     48  C   UNL     1       7.295   7.029   6.952  1.00  0.00     0.049 A 
ATOM     49  H   UNL     1       7.606   5.726   8.548  1.00  0.00     0.167 HD
ATOM     50  C   UNL     1       8.526   2.990  11.816  1.00  0.00     0.031 A 
ATOM     51  C   UNL     1       6.934   8.218   7.471  1.00  0.00     0.031 A 
ATOM     52  C   UNL     1       8.204   4.236  12.463  1.00  0.00     0.049 A 
ATOM     53  C   UNL     1       6.880   8.386   8.963  1.00  0.00     0.074 A 
ATOM     54  C   UNL     1       8.181   4.527  13.816  1.00  0.00     0.029 A 
ATOM     55  N   UNL     1       7.839   5.397  11.799  1.00  0.00    -0.354 N 
ATOM     56  N   UNL     1       7.159   7.517   9.904  1.00  0.00    -0.248 NA
ATOM     57  C   UNL     1       6.477   9.709   9.459  1.00  0.00     0.031 C 
ATOM     58  C   UNL     1       7.751   5.850  13.973  1.00  0.00     0.029 A 
ATOM     59  C   UNL     1       7.562   6.400  12.715  1.00  0.00     0.049 A 
ATOM     60  H   UNL     1       7.784   5.495  10.821  1.00  0.00     0.167 HD
ATOM     61  C   UNL     1       6.997   8.197  11.104  1.00  0.00     0.074 A 
ATOM     62  C   UNL     1       6.608   9.552  10.769  1.00  0.00     0.031 C 
ATOM     63  C   UNL     1       7.163   7.740  12.370  1.00  0.00     0.031 A 
BRANCH  50  64
ATOM     64  C   UNL     1       8.807   1.784  12.673  1.00  0.00    -0.014 A 
ATOM     65  C   UNL     1      10.091   1.218  12.739  1.00  0.00     0.009 A 
ATOM     66  C   UNL     1       7.774   1.207  13.427  1.00  0.00     0.009 A 
ATOM     67  C   UNL     1      10.320   0.068  13.499  1.00  0.00     0.001 A 
ATOM     68  C   UNL     1       8.013   0.077  14.211  1.00  0.00     0.001 A 
ATOM     69  C   UNL     1       9.282  -0.499  14.236  1.00  0.00     0.000 A 
ENDBRANCH  50  64
BRANCH  51  70
ATOM     70  C   UNL     1       6.662   9.365   6.567  1.00  0.00    -0.014 A 
ATOM     71  C   UNL     1       7.578  10.425   6.479  1.00  0.00     0.009 A 
ATOM     72  C   UNL     1       5.501   9.402   5.780  1.00  0.00     0.009 A 
ATOM     73  C   UNL     1       7.328  11.507   5.633  1.00  0.00     0.001 A 
ATOM     74  C   UNL     1       5.267  10.474   4.916  1.00  0.00     0.001 A 
ATOM     75  C   UNL     1       6.177  11.528   4.849  1.00  0.00     0.000 A 
ENDBRANCH  51  70
BRANCH  63  76
ATOM     76  C   UNL     1       6.956   8.730  13.484  1.00  0.00    -0.014 A 
ATOM     77  C   UNL     1       5.677   9.209  13.810  1.00  0.00     0.009 A 
ATOM     78  C   UNL     1       8.059   9.181  14.224  1.00  0.00     0.009 A 
ATOM     79  C   UNL     1       5.515  10.155  14.824  1.00  0.00     0.001 A 
ATOM     80  C   UNL     1       7.890  10.103  15.258  1.00  0.00     0.001 A 
ATOM     81  C   UNL     1       6.620  10.599  15.549  1.00  0.00     0.000 A 
ENDBRANCH  63  76
ENDBRANCH  37  38
ENDBRANCH  29  32
ENDBRANCH  27  28
ENDBRANCH  26  27
ENDBRANCH  25  26
ENDBRANCH  24  25
ENDBRANCH   1  24
TORSDOF 19
