REMARK SMILES Cc1nsc(N(C)C(=O)[C@@H](C)NC(N)=O)c1C(=O)NCCCCCCNC(=O)c1ccc(-c2c3nc(c(-c4ccccc4)c4ccc([nH]4)c(-c4ccccc4)c4nc(c(-c5ccccc5)c5ccc2[nH]5)C=C4)C=C3)cc1
REMARK SMILES IDX 21 1 20 2 19 3 17 4 18 5 16 7 1 8 2 9 3 10 4 11 5 12 6 13
REMARK SMILES IDX 7 14 8 15 9 16 10 17 11 18 12 19 13 20 14 22 15 23 22 26
REMARK SMILES IDX 23 27 24 28 25 29 26 30 27 31 28 33 29 34 30 35 76 36 31 37
REMARK SMILES IDX 75 38 32 39 33 40 34 41 69 42 35 43 74 44 68 45 70 46 36 47
REMARK SMILES IDX 73 48 67 49 66 50 37 52 59 53 44 54 58 55 45 56 48 57 57 58
REMARK SMILES IDX 71 59 46 60 47 61 56 63 72 64 49 65 38 66 39 67 43 68 40 69
REMARK SMILES IDX 42 70 41 71 60 72 61 73 65 74 62 75 64 76 63 77 50 78 51 79
REMARK SMILES IDX 55 80 52 81 54 82 53 83
REMARK H PARENT 19 6 12 21 14 24 14 25 26 32 70 51 48 62
REMARK Flexibility Score: inf
ROOT
ATOM      1  C   UNL     1       3.029   2.288   0.855  1.00  0.00     0.021 C 
ENDROOT
BRANCH   1   2
ATOM      2  C   UNL     1       1.784   1.673   0.225  1.00  0.00     0.116 C 
BRANCH   2   3
ATOM      3  N   UNL     1       0.851   2.559  -0.427  1.00  0.00    -0.352 N 
ATOM      4  C   UNL     1      -0.091   2.284  -1.401  1.00  0.00     0.256 C 
ATOM      5  O   UNL     1      -0.970   3.126  -1.593  1.00  0.00    -0.269 OA
ATOM      6  H   UNL     1       0.889   3.499  -0.134  1.00  0.00     0.163 HD
BRANCH   4   7
ATOM      7  C   UNL     1      -0.049   1.048  -2.192  1.00  0.00     0.097 A 
ATOM      8  C   UNL     1       0.066  -0.827  -0.295  1.00  0.00     0.069 C 
ATOM      9  C   UNL     1       0.028  -0.328  -1.700  1.00  0.00     0.066 A 
ATOM     10  N   UNL     1       0.028  -1.288  -2.621  1.00  0.00    -0.195 NA
ATOM     11  S   UNL     1      -0.204  -0.622  -4.090  1.00  0.00    -0.017 S 
ATOM     12  C   UNL     1      -0.271   1.015  -3.582  1.00  0.00     0.131 A 
BRANCH  12  13
ATOM     13  N   UNL     1      -0.509   1.999  -4.584  1.00  0.00    -0.303 N 
ATOM     14  C   UNL     1      -1.107   1.680  -5.881  1.00  0.00     0.154 C 
BRANCH  13  15
ATOM     15  C   UNL     1       0.017   3.281  -4.352  1.00  0.00     0.249 C 
ATOM     16  O   UNL     1       1.062   3.421  -3.697  1.00  0.00    -0.272 OA
BRANCH  15  17
ATOM     17  C   UNL     1      -0.540   4.532  -5.114  1.00  0.00     0.170 C 
ATOM     18  C   UNL     1       0.256   4.793  -6.393  1.00  0.00     0.041 C 
BRANCH  17  19
ATOM     19  N   UNL     1      -1.973   4.616  -5.402  1.00  0.00    -0.327 N 
ATOM     20  C   UNL     1      -2.725   5.697  -5.054  1.00  0.00     0.312 C 
ATOM     21  H   UNL     1      -2.409   3.863  -5.864  1.00  0.00     0.166 HD
ATOM     22  N   UNL     1      -4.020   5.582  -5.440  1.00  0.00    -0.352 N 
ATOM     23  O   UNL     1      -2.322   6.696  -4.483  1.00  0.00    -0.249 OA
ATOM     24  H   UNL     1      -4.326   4.768  -5.900  1.00  0.00     0.161 HD
ATOM     25  H   UNL     1      -4.654   6.314  -5.260  1.00  0.00     0.161 HD
ENDBRANCH  17  19
ENDBRANCH  15  17
ENDBRANCH  13  15
ENDBRANCH  12  13
ENDBRANCH   4   7
ENDBRANCH   2   3
ENDBRANCH   1   2
BRANCH   1  26
ATOM     26  C   UNL     1       2.864   3.472   1.808  1.00  0.00     0.002 C 
BRANCH  26  27
ATOM     27  C   UNL     1       1.761   3.439   2.875  1.00  0.00     0.002 C 
BRANCH  27  28
ATOM     28  C   UNL     1       1.676   2.250   3.841  1.00  0.00     0.021 C 
BRANCH  28  29
ATOM     29  C   UNL     1       2.940   1.925   4.618  1.00  0.00     0.116 C 
BRANCH  29  30
ATOM     30  N   UNL     1       3.414   3.005   5.489  1.00  0.00    -0.352 N 
ATOM     31  C   UNL     1       4.584   3.065   6.240  1.00  0.00     0.251 C 
ATOM     32  H   UNL     1       2.826   3.792   5.551  1.00  0.00     0.163 HD
ATOM     33  O   UNL     1       4.686   3.816   7.194  1.00  0.00    -0.269 OA
BRANCH  31  34
ATOM     34  C   UNL     1       5.717   2.203   5.847  1.00  0.00     0.039 A 
ATOM     35  C   UNL     1       6.611   1.641   6.764  1.00  0.00     0.014 A 
ATOM     36  C   UNL     1       5.857   1.949   4.491  1.00  0.00     0.014 A 
ATOM     37  C   UNL     1       7.603   0.786   6.283  1.00  0.00     0.010 A 
ATOM     38  C   UNL     1       6.612   0.898   4.072  1.00  0.00     0.010 A 
ATOM     39  C   UNL     1       7.584   0.422   4.928  1.00  0.00    -0.014 A 
BRANCH  39  40
ATOM     40  C   UNL     1       8.548  -0.479   4.330  1.00  0.00     0.031 A 
ATOM     41  C   UNL     1       8.554  -1.838   4.904  1.00  0.00     0.074 A 
ATOM     42  C   UNL     1       9.212  -0.189   3.191  1.00  0.00     0.049 A 
ATOM     43  N   UNL     1       9.435  -2.324   5.707  1.00  0.00    -0.248 NA
ATOM     44  C   UNL     1       7.389  -2.707   4.689  1.00  0.00     0.031 C 
ATOM     45  C   UNL     1       9.066   0.967   2.294  1.00  0.00     0.029 A 
ATOM     46  N   UNL     1      10.108  -0.961   2.528  1.00  0.00    -0.354 N 
ATOM     47  C   UNL     1       9.054  -3.635   5.945  1.00  0.00     0.074 A 
ATOM     48  C   UNL     1       7.701  -3.752   5.459  1.00  0.00     0.031 C 
ATOM     49  C   UNL     1       9.669   0.702   1.111  1.00  0.00     0.029 A 
ATOM     50  C   UNL     1      10.382  -0.556   1.229  1.00  0.00     0.049 A 
ATOM     51  H   UNL     1      10.531  -1.750   2.937  1.00  0.00     0.167 HD
ATOM     52  C   UNL     1       9.974  -4.575   6.298  1.00  0.00     0.031 A 
ATOM     53  C   UNL     1      11.123  -1.238   0.320  1.00  0.00     0.031 A 
ATOM     54  C   UNL     1      11.254  -3.971   6.591  1.00  0.00     0.049 A 
ATOM     55  C   UNL     1      11.978  -2.183   1.080  1.00  0.00     0.074 A 
ATOM     56  C   UNL     1      11.699  -3.031   7.498  1.00  0.00     0.029 A 
ATOM     57  N   UNL     1      12.198  -4.008   5.588  1.00  0.00    -0.354 N 
ATOM     58  N   UNL     1      12.937  -1.794   1.872  1.00  0.00    -0.248 NA
ATOM     59  C   UNL     1      11.462  -3.519   1.340  1.00  0.00     0.031 C 
ATOM     60  C   UNL     1      12.604  -2.212   6.759  1.00  0.00     0.029 A 
ATOM     61  C   UNL     1      12.727  -2.748   5.475  1.00  0.00     0.049 A 
ATOM     62  H   UNL     1      12.448  -4.795   5.052  1.00  0.00     0.167 HD
ATOM     63  C   UNL     1      12.828  -2.614   2.987  1.00  0.00     0.074 A 
ATOM     64  C   UNL     1      11.974  -3.722   2.559  1.00  0.00     0.031 C 
ATOM     65  C   UNL     1      13.187  -2.171   4.229  1.00  0.00     0.031 A 
BRANCH  52  66
ATOM     66  C   UNL     1       9.858  -6.041   5.986  1.00  0.00    -0.014 A 
ATOM     67  C   UNL     1      10.863  -6.903   6.463  1.00  0.00     0.009 A 
ATOM     68  C   UNL     1       8.974  -6.567   5.027  1.00  0.00     0.009 A 
ATOM     69  C   UNL     1      11.027  -8.190   5.941  1.00  0.00     0.001 A 
ATOM     70  C   UNL     1       9.109  -7.867   4.534  1.00  0.00     0.001 A 
ATOM     71  C   UNL     1      10.156  -8.667   4.968  1.00  0.00     0.000 A 
ENDBRANCH  52  66
BRANCH  53  72
ATOM     72  C   UNL     1      10.946  -1.329  -1.146  1.00  0.00    -0.014 A 
ATOM     73  C   UNL     1      11.952  -1.877  -1.958  1.00  0.00     0.009 A 
ATOM     74  C   UNL     1       9.674  -1.144  -1.719  1.00  0.00     0.009 A 
ATOM     75  C   UNL     1      11.680  -2.276  -3.275  1.00  0.00     0.001 A 
ATOM     76  C   UNL     1       9.403  -1.539  -3.034  1.00  0.00     0.001 A 
ATOM     77  C   UNL     1      10.402  -2.123  -3.806  1.00  0.00     0.000 A 
ENDBRANCH  53  72
BRANCH  65  78
ATOM     78  C   UNL     1      13.901  -0.843   4.332  1.00  0.00    -0.014 A 
ATOM     79  C   UNL     1      13.339   0.372   3.899  1.00  0.00     0.009 A 
ATOM     80  C   UNL     1      15.110  -0.795   5.042  1.00  0.00     0.009 A 
ATOM     81  C   UNL     1      13.984   1.591   4.144  1.00  0.00     0.001 A 
ATOM     82  C   UNL     1      15.742   0.422   5.305  1.00  0.00     0.001 A 
ATOM     83  C   UNL     1      15.183   1.614   4.851  1.00  0.00     0.000 A 
ENDBRANCH  65  78
ENDBRANCH  39  40
ENDBRANCH  31  34
ENDBRANCH  29  30
ENDBRANCH  28  29
ENDBRANCH  27  28
ENDBRANCH  26  27
ENDBRANCH   1  26
TORSDOF 17
