REMARK SMILES CC[C@](C)(NC(=O)CCSc1ccccc1Cl)C(=O)NCCCCCCNC(=O)c1ccc(-c2c3nc(c(-c4ccccc4)c4ccc([nH]4)c(-c4ccccc4)c4nc(c(-c5ccccc5)c5ccc2[nH]5)C=C4)C=C3)cc1
REMARK SMILES IDX 22 1 21 2 20 3 18 4 19 5 3 7 4 8 2 9 1 10 5 11 6 12 7 14
REMARK SMILES IDX 8 15 9 16 10 17 11 18 12 19 16 20 13 21 15 22 17 23 14 24
REMARK SMILES IDX 23 25 24 26 25 27 26 28 27 29 28 30 29 32 30 33 31 34 77 35
REMARK SMILES IDX 32 36 76 37 33 38 34 39 35 40 70 41 36 42 75 43 69 44 71 45
REMARK SMILES IDX 37 46 74 47 68 48 67 49 38 51 60 52 45 53 59 54 46 55 49 56
REMARK SMILES IDX 58 57 72 58 47 59 48 60 57 62 73 63 50 64 39 65 40 66 44 67
REMARK SMILES IDX 41 68 43 69 42 70 61 71 62 72 66 73 63 74 65 75 64 76 51 77
REMARK SMILES IDX 52 78 56 79 53 80 55 81 54 82
REMARK H PARENT 20 6 5 13 27 31 71 50 49 61
REMARK Flexibility Score: inf
ROOT
ATOM      1  C   UNL     1       3.069  -5.161   3.192  1.00  0.00     0.021 C 
ENDROOT
BRANCH   1   2
ATOM      2  C   UNL     1       2.536  -3.765   3.514  1.00  0.00     0.116 C 
BRANCH   2   3
ATOM      3  N   UNL     1       3.244  -2.723   2.787  1.00  0.00    -0.354 N 
ATOM      4  C   UNL     1       2.833  -1.812   1.861  1.00  0.00     0.245 C 
ATOM      5  O   UNL     1       3.686  -1.012   1.464  1.00  0.00    -0.272 OA
ATOM      6  H   UNL     1       4.203  -2.666   3.005  1.00  0.00     0.163 HD
BRANCH   4   7
ATOM      7  C   UNL     1       1.346  -1.699   1.425  1.00  0.00     0.116 C 
ATOM      8  C   UNL     1       1.181  -0.729   0.251  1.00  0.00     0.045 C 
BRANCH   7   9
ATOM      9  C   UNL     1       0.537  -1.132   2.646  1.00  0.00     0.035 C 
ATOM     10  C   UNL     1       0.598   0.379   2.851  1.00  0.00     0.007 C 
ENDBRANCH   7   9
BRANCH   7  11
ATOM     11  N   UNL     1       0.787  -3.039   1.128  1.00  0.00    -0.342 N 
ATOM     12  C   UNL     1       1.162  -4.114   0.400  1.00  0.00     0.221 C 
ATOM     13  H   UNL     1      -0.078  -3.182   1.575  1.00  0.00     0.164 HD
ATOM     14  O   UNL     1       0.462  -5.120   0.574  1.00  0.00    -0.275 OA
BRANCH  12  15
ATOM     15  C   UNL     1       2.415  -4.221  -0.439  1.00  0.00     0.111 C 
BRANCH  15  16
ATOM     16  C   UNL     1       2.565  -3.402  -1.710  1.00  0.00     0.085 C 
BRANCH  16  17
ATOM     17  S   UNL     1       1.364  -3.556  -3.095  1.00  0.00    -0.124 SA
BRANCH  17  18
ATOM     18  C   UNL     1      -0.231  -3.546  -2.288  1.00  0.00     0.026 A 
ATOM     19  C   UNL     1      -0.813  -2.318  -1.940  1.00  0.00     0.016 A 
ATOM     20  C   UNL     1      -0.943  -4.726  -2.011  1.00  0.00     0.054 A 
ATOM     21  C   UNL     1      -2.021  -2.270  -1.235  1.00  0.00     0.001 A 
ATOM     22  C   UNL     1      -2.148  -4.674  -1.300  1.00  0.00     0.022 A 
ATOM     23  Cl  UNL     1      -0.367  -6.289  -2.485  1.00  0.00    -0.083 Cl
ATOM     24  C   UNL     1      -2.677  -3.449  -0.895  1.00  0.00     0.002 A 
ENDBRANCH  17  18
ENDBRANCH  16  17
ENDBRANCH  15  16
ENDBRANCH  12  15
ENDBRANCH   7  11
ENDBRANCH   4   7
ENDBRANCH   2   3
ENDBRANCH   1   2
BRANCH   1  25
ATOM     25  C   UNL     1       4.588  -5.316   3.330  1.00  0.00     0.002 C 
BRANCH  25  26
ATOM     26  C   UNL     1       5.167  -4.867   4.674  1.00  0.00     0.002 C 
BRANCH  26  27
ATOM     27  C   UNL     1       4.512  -5.499   5.902  1.00  0.00     0.021 C 
BRANCH  27  28
ATOM     28  C   UNL     1       4.504  -7.020   5.896  1.00  0.00     0.116 C 
BRANCH  28  29
ATOM     29  N   UNL     1       5.846  -7.572   5.931  1.00  0.00    -0.352 N 
ATOM     30  C   UNL     1       6.351  -8.530   6.772  1.00  0.00     0.251 C 
ATOM     31  H   UNL     1       6.476  -7.212   5.264  1.00  0.00     0.163 HD
ATOM     32  O   UNL     1       7.553  -8.761   6.811  1.00  0.00    -0.269 OA
BRANCH  30  33
ATOM     33  C   UNL     1       5.423  -9.272   7.650  1.00  0.00     0.039 A 
ATOM     34  C   UNL     1       5.744  -9.421   9.000  1.00  0.00     0.014 A 
ATOM     35  C   UNL     1       4.242  -9.816   7.136  1.00  0.00     0.014 A 
ATOM     36  C   UNL     1       4.861 -10.092   9.846  1.00  0.00     0.010 A 
ATOM     37  C   UNL     1       3.330 -10.421   7.994  1.00  0.00     0.010 A 
ATOM     38  C   UNL     1       3.642 -10.585   9.351  1.00  0.00    -0.014 A 
BRANCH  38  39
ATOM     39  C   UNL     1       2.711 -11.333  10.229  1.00  0.00     0.031 A 
ATOM     40  C   UNL     1       2.459 -12.794   9.971  1.00  0.00     0.074 A 
ATOM     41  C   UNL     1       2.073 -10.700  11.231  1.00  0.00     0.049 A 
ATOM     42  N   UNL     1       1.656 -13.617  10.597  1.00  0.00    -0.248 NA
ATOM     43  C   UNL     1       3.188 -13.406   8.847  1.00  0.00     0.031 C 
ATOM     44  C   UNL     1       2.205  -9.279  11.561  1.00  0.00     0.029 A 
ATOM     45  N   UNL     1       1.181 -11.175  12.159  1.00  0.00    -0.354 N 
ATOM     46  C   UNL     1       1.779 -14.834   9.939  1.00  0.00     0.074 A 
ATOM     47  C   UNL     1       2.684 -14.630   8.830  1.00  0.00     0.031 C 
ATOM     48  C   UNL     1       1.440  -9.004  12.630  1.00  0.00     0.029 A 
ATOM     49  C   UNL     1       0.743 -10.219  13.042  1.00  0.00     0.049 A 
ATOM     50  H   UNL     1       0.883 -12.113  12.189  1.00  0.00     0.167 HD
ATOM     51  C   UNL     1       1.213 -16.025  10.245  1.00  0.00     0.031 A 
ATOM     52  C   UNL     1      -0.122 -10.314  14.069  1.00  0.00     0.031 A 
ATOM     53  C   UNL     1       0.321 -16.234  11.352  1.00  0.00     0.049 A 
ATOM     54  C   UNL     1      -0.734 -11.649  14.390  1.00  0.00     0.074 A 
ATOM     55  C   UNL     1      -0.295 -17.406  11.757  1.00  0.00     0.029 A 
ATOM     56  N   UNL     1      -0.072 -15.246  12.240  1.00  0.00    -0.354 N 
ATOM     57  N   UNL     1      -0.574 -12.800  13.783  1.00  0.00    -0.248 NA
ATOM     58  C   UNL     1      -1.630 -11.702  15.554  1.00  0.00     0.031 C 
ATOM     59  C   UNL     1      -1.084 -17.119  12.876  1.00  0.00     0.029 A 
ATOM     60  C   UNL     1      -0.920 -15.780  13.194  1.00  0.00     0.049 A 
ATOM     61  H   UNL     1       0.211 -14.304  12.199  1.00  0.00     0.167 HD
ATOM     62  C   UNL     1      -1.318 -13.719  14.512  1.00  0.00     0.074 A 
ATOM     63  C   UNL     1      -1.917 -12.995  15.613  1.00  0.00     0.031 C 
ATOM     64  C   UNL     1      -1.491 -15.045  14.291  1.00  0.00     0.031 A 
BRANCH  51  65
ATOM     65  C   UNL     1       1.559 -17.197   9.369  1.00  0.00    -0.014 A 
ATOM     66  C   UNL     1       2.840 -17.770   9.408  1.00  0.00     0.009 A 
ATOM     67  C   UNL     1       0.591 -17.752   8.519  1.00  0.00     0.009 A 
ATOM     68  C   UNL     1       3.155 -18.855   8.588  1.00  0.00     0.001 A 
ATOM     69  C   UNL     1       0.900 -18.855   7.721  1.00  0.00     0.001 A 
ATOM     70  C   UNL     1       2.183 -19.400   7.749  1.00  0.00     0.000 A 
ENDBRANCH  51  65
BRANCH  52  71
ATOM     71  C   UNL     1      -0.449  -9.117  14.888  1.00  0.00    -0.014 A 
ATOM     72  C   UNL     1      -0.002  -9.015  16.215  1.00  0.00     0.009 A 
ATOM     73  C   UNL     1      -1.237  -8.085  14.357  1.00  0.00     0.009 A 
ATOM     74  C   UNL     1      -0.370  -7.924  17.004  1.00  0.00     0.001 A 
ATOM     75  C   UNL     1      -1.578  -6.980  15.139  1.00  0.00     0.001 A 
ATOM     76  C   UNL     1      -1.156  -6.906  16.466  1.00  0.00     0.000 A 
ENDBRANCH  52  71
BRANCH  64  77
ATOM     77  C   UNL     1      -2.313 -15.805  15.292  1.00  0.00    -0.014 A 
ATOM     78  C   UNL     1      -3.706 -15.655  15.361  1.00  0.00     0.009 A 
ATOM     79  C   UNL     1      -1.680 -16.708  16.160  1.00  0.00     0.009 A 
ATOM     80  C   UNL     1      -4.445 -16.366  16.308  1.00  0.00     0.001 A 
ATOM     81  C   UNL     1      -2.424 -17.439  17.087  1.00  0.00     0.001 A 
ATOM     82  C   UNL     1      -3.804 -17.259  17.167  1.00  0.00     0.000 A 
ENDBRANCH  64  77
ENDBRANCH  38  39
ENDBRANCH  30  33
ENDBRANCH  28  29
ENDBRANCH  27  28
ENDBRANCH  26  27
ENDBRANCH  25  26
ENDBRANCH   1  25
TORSDOF 19
