REMARK SMILES C[C@H]1CC[C@@](NC(=O)C(F)(F)F)(C(=O)NCCCCCCNC(=O)c2ccc(-c3c4nc(c(-c5ccccc5)c5ccc([nH]5)c(-c5ccccc5)c5nc(c(-c6ccccc6)c6ccc3[nH]6)C=C5)C=C4)cc2)CC1
REMARK SMILES IDX 18 1 17 2 16 3 15 4 13 5 14 6 5 8 1 9 2 10 74 11 3 12 73 13
REMARK SMILES IDX 4 14 6 15 7 16 8 18 9 19 10 20 11 21 12 22 19 23 20 24 21 25
REMARK SMILES IDX 22 26 23 27 24 29 25 30 26 31 72 32 27 33 71 34 28 35 29 36
REMARK SMILES IDX 30 37 65 38 31 39 70 40 64 41 66 42 32 43 69 44 63 45 62 46
REMARK SMILES IDX 33 48 55 49 40 50 54 51 41 52 44 53 53 54 67 55 42 56 43 57
REMARK SMILES IDX 52 59 68 60 45 61 34 62 35 63 39 64 36 65 38 66 37 67 56 68
REMARK SMILES IDX 57 69 61 70 58 71 60 72 59 73 46 74 47 75 51 76 48 77 50 78
REMARK SMILES IDX 49 79
REMARK H PARENT 15 7 6 17 22 28 66 47 44 58
REMARK Flexibility Score: inf
ROOT
ATOM      1  C   UNL     1      -2.561   3.973  -3.969  1.00  0.00     0.002 C 
ENDROOT
BRANCH   1   2
ATOM      2  C   UNL     1      -2.380   3.795  -2.456  1.00  0.00     0.021 C 
BRANCH   2   3
ATOM      3  C   UNL     1      -2.947   2.483  -1.924  1.00  0.00     0.116 C 
BRANCH   3   4
ATOM      4  N   UNL     1      -2.195   1.368  -2.458  1.00  0.00    -0.354 N 
ATOM      5  C   UNL     1      -1.654   0.271  -1.872  1.00  0.00     0.245 C 
ATOM      6  O   UNL     1      -1.013  -0.474  -2.617  1.00  0.00    -0.272 OA
ATOM      7  H   UNL     1      -2.047   1.414  -3.430  1.00  0.00     0.163 HD
BRANCH   5   8
ATOM      8  C   UNL     1      -1.784   0.009  -0.342  1.00  0.00     0.119 C 
ATOM      9  C   UNL     1       2.576  -0.343   0.041  1.00  0.00     0.007 C 
ATOM     10  C   UNL     1       1.114  -0.309   0.489  1.00  0.00    -0.014 C 
ATOM     11  C   UNL     1       0.326  -1.478  -0.121  1.00  0.00     0.006 C 
ATOM     12  C   UNL     1       0.507   1.047   0.136  1.00  0.00     0.006 C 
ATOM     13  C   UNL     1      -1.200  -1.369   0.050  1.00  0.00     0.039 C 
ATOM     14  C   UNL     1      -0.981   1.080   0.445  1.00  0.00     0.039 C 
BRANCH   8  15
ATOM     15  N   UNL     1      -3.204   0.118   0.095  1.00  0.00    -0.334 N 
ATOM     16  C   UNL     1      -4.360  -0.458  -0.377  1.00  0.00     0.326 C 
ATOM     17  H   UNL     1      -3.340   0.714   0.866  1.00  0.00     0.164 HD
ATOM     18  O   UNL     1      -5.349  -0.322   0.358  1.00  0.00    -0.265 OA
BRANCH  16  19
ATOM     19  C   UNL     1      -4.467  -1.120  -1.774  1.00  0.00     0.471 C 
ATOM     20  F   UNL     1      -4.495  -0.195  -2.776  1.00  0.00    -0.162 F 
ATOM     21  F   UNL     1      -3.441  -1.966  -2.046  1.00  0.00    -0.162 F 
ATOM     22  F   UNL     1      -5.609  -1.851  -1.917  1.00  0.00    -0.162 F 
ENDBRANCH  16  19
ENDBRANCH   8  15
ENDBRANCH   5   8
ENDBRANCH   3   4
ENDBRANCH   2   3
ENDBRANCH   1   2
BRANCH   1  23
ATOM     23  C   UNL     1      -4.009   3.858  -4.457  1.00  0.00     0.002 C 
BRANCH  23  24
ATOM     24  C   UNL     1      -4.995   4.806  -3.768  1.00  0.00     0.021 C 
BRANCH  24  25
ATOM     25  C   UNL     1      -4.595   6.277  -3.805  1.00  0.00     0.116 C 
BRANCH  25  26
ATOM     26  N   UNL     1      -4.394   6.761  -5.159  1.00  0.00    -0.352 N 
ATOM     27  C   UNL     1      -4.738   7.965  -5.712  1.00  0.00     0.251 C 
ATOM     28  H   UNL     1      -3.946   6.131  -5.768  1.00  0.00     0.163 HD
ATOM     29  O   UNL     1      -4.614   8.144  -6.918  1.00  0.00    -0.269 OA
BRANCH  27  30
ATOM     30  C   UNL     1      -5.285   9.041  -4.860  1.00  0.00     0.039 A 
ATOM     31  C   UNL     1      -6.385   9.760  -5.332  1.00  0.00     0.014 A 
ATOM     32  C   UNL     1      -4.713   9.360  -3.624  1.00  0.00     0.014 A 
ATOM     33  C   UNL     1      -6.934  10.774  -4.549  1.00  0.00     0.010 A 
ATOM     34  C   UNL     1      -5.302  10.328  -2.814  1.00  0.00     0.010 A 
ATOM     35  C   UNL     1      -6.412  11.050  -3.275  1.00  0.00    -0.014 A 
BRANCH  35  36
ATOM     36  C   UNL     1      -7.037  12.094  -2.428  1.00  0.00     0.031 A 
ATOM     37  C   UNL     1      -6.302  13.365  -2.109  1.00  0.00     0.074 A 
ATOM     38  C   UNL     1      -8.275  11.888  -1.940  1.00  0.00     0.049 A 
ATOM     39  N   UNL     1      -6.726  14.417  -1.454  1.00  0.00    -0.248 NA
ATOM     40  C   UNL     1      -4.906  13.462  -2.564  1.00  0.00     0.031 C 
ATOM     41  C   UNL     1      -9.068  10.671  -2.132  1.00  0.00     0.029 A 
ATOM     42  N   UNL     1      -9.088  12.703  -1.196  1.00  0.00    -0.354 N 
ATOM     43  C   UNL     1      -5.651  15.296  -1.417  1.00  0.00     0.074 A 
ATOM     44  C   UNL     1      -4.540  14.634  -2.066  1.00  0.00     0.031 C 
ATOM     45  C   UNL     1     -10.272  10.839  -1.562  1.00  0.00     0.029 A 
ATOM     46  C   UNL     1     -10.326  12.161  -0.948  1.00  0.00     0.049 A 
ATOM     47  H   UNL     1      -8.812  13.591  -0.872  1.00  0.00     0.167 HD
ATOM     48  C   UNL     1      -5.599  16.550  -0.908  1.00  0.00     0.031 A 
ATOM     49  C   UNL     1     -11.392  12.680  -0.312  1.00  0.00     0.031 A 
ATOM     50  C   UNL     1      -6.705  17.211  -0.268  1.00  0.00     0.049 A 
ATOM     51  C   UNL     1     -11.315  14.079   0.227  1.00  0.00     0.074 A 
ATOM     52  C   UNL     1      -6.770  18.502   0.229  1.00  0.00     0.029 A 
ATOM     53  N   UNL     1      -7.941  16.629  -0.032  1.00  0.00    -0.354 N 
ATOM     54  N   UNL     1     -10.319  14.930   0.179  1.00  0.00    -0.248 NA
ATOM     55  C   UNL     1     -12.520  14.596   0.890  1.00  0.00     0.031 C 
ATOM     56  C   UNL     1      -8.033  18.685   0.805  1.00  0.00     0.029 A 
ATOM     57  C   UNL     1      -8.768  17.525   0.623  1.00  0.00     0.049 A 
ATOM     58  H   UNL     1      -8.192  15.713  -0.292  1.00  0.00     0.167 HD
ATOM     59  C   UNL     1     -10.781  16.087   0.790  1.00  0.00     0.074 A 
ATOM     60  C   UNL     1     -12.155  15.837   1.176  1.00  0.00     0.031 C 
ATOM     61  C   UNL     1     -10.127  17.253   1.015  1.00  0.00     0.031 A 
BRANCH  48  62
ATOM     62  C   UNL     1      -4.294  17.288  -1.025  1.00  0.00    -0.014 A 
ATOM     63  C   UNL     1      -3.833  17.755  -2.267  1.00  0.00     0.009 A 
ATOM     64  C   UNL     1      -3.530  17.546   0.123  1.00  0.00     0.009 A 
ATOM     65  C   UNL     1      -2.616  18.434  -2.361  1.00  0.00     0.001 A 
ATOM     66  C   UNL     1      -2.326  18.248   0.030  1.00  0.00     0.001 A 
ATOM     67  C   UNL     1      -1.866  18.683  -1.212  1.00  0.00     0.000 A 
ENDBRANCH  48  62
BRANCH  49  68
ATOM     68  C   UNL     1     -12.640  11.885  -0.188  1.00  0.00    -0.014 A 
ATOM     69  C   UNL     1     -13.775  12.222  -0.941  1.00  0.00     0.009 A 
ATOM     70  C   UNL     1     -12.703  10.786   0.682  1.00  0.00     0.009 A 
ATOM     71  C   UNL     1     -14.957  11.490  -0.805  1.00  0.00     0.001 A 
ATOM     72  C   UNL     1     -13.877  10.040   0.796  1.00  0.00     0.001 A 
ATOM     73  C   UNL     1     -15.005  10.398   0.060  1.00  0.00     0.000 A 
ENDBRANCH  49  68
BRANCH  61  74
ATOM     74  C   UNL     1     -10.901  18.343   1.700  1.00  0.00    -0.014 A 
ATOM     75  C   UNL     1     -11.222  18.256   3.064  1.00  0.00     0.009 A 
ATOM     76  C   UNL     1     -11.306  19.474   0.975  1.00  0.00     0.009 A 
ATOM     77  C   UNL     1     -11.971  19.262   3.677  1.00  0.00     0.001 A 
ATOM     78  C   UNL     1     -12.030  20.491   1.597  1.00  0.00     0.001 A 
ATOM     79  C   UNL     1     -12.372  20.379   2.944  1.00  0.00     0.000 A 
ENDBRANCH  61  74
ENDBRANCH  35  36
ENDBRANCH  27  30
ENDBRANCH  25  26
ENDBRANCH  24  25
ENDBRANCH  23  24
ENDBRANCH   1  23
TORSDOF 15
