REMARK SMILES C[C@@H](Oc1ccc(-c2ccccc2)cc1)C(=O)N1CCC[C@H](C(=O)NCCCCCCNC(=O)c2ccc(-c3c4nc(c(-c5ccccc5)c5ccc([nH]5)c(-c5ccccc5)c5nc(c(-c6ccccc6)c6ccc3[nH]6)C=C5)C=C4)cc2)C1
REMARK SMILES IDX 27 1 26 2 25 3 23 4 24 5 22 7 18 8 19 9 83 10 20 11 21 12
REMARK SMILES IDX 16 13 17 14 2 15 1 16 3 17 4 18 5 19 15 20 6 21 14 22 7 23
REMARK SMILES IDX 8 24 9 25 13 26 10 27 12 28 11 29 28 30 29 31 30 32 31 33
REMARK SMILES IDX 32 34 33 35 34 37 35 38 36 39 82 40 37 41 81 42 38 43 39 44
REMARK SMILES IDX 40 45 75 46 41 47 80 48 74 49 76 50 42 51 79 52 73 53 72 54
REMARK SMILES IDX 43 56 65 57 50 58 64 59 51 60 54 61 63 62 77 63 52 64 53 65
REMARK SMILES IDX 62 67 78 68 55 69 44 70 45 71 49 72 46 73 48 74 47 75 66 76
REMARK SMILES IDX 67 77 71 78 68 79 70 80 69 81 56 82 57 83 61 84 58 85 60 86
REMARK SMILES IDX 59 87
REMARK H PARENT 25 6 32 36 76 55 54 66
REMARK Flexibility Score: inf
ROOT
ATOM      1  C   UNL     1      -4.832   0.224   1.566  1.00  0.00     0.021 C 
ENDROOT
BRANCH   1   2
ATOM      2  C   UNL     1      -3.444  -0.027   0.982  1.00  0.00     0.116 C 
BRANCH   2   3
ATOM      3  N   UNL     1      -3.347  -1.260   0.235  1.00  0.00    -0.356 N 
ATOM      4  C   UNL     1      -2.909  -1.520  -1.022  1.00  0.00     0.224 C 
ATOM      5  O   UNL     1      -2.756  -2.716  -1.303  1.00  0.00    -0.275 OA
ATOM      6  H   UNL     1      -3.655  -2.055   0.727  1.00  0.00     0.163 HD
BRANCH   4   7
ATOM      7  C   UNL     1      -2.606  -0.461  -2.092  1.00  0.00     0.098 C 
ATOM      8  N   UNL     1      -1.569   1.579  -1.113  1.00  0.00    -0.339 N 
ATOM      9  C   UNL     1      -2.606   2.454  -1.661  1.00  0.00     0.119 C 
ATOM     10  C   UNL     1      -1.331   0.353  -1.861  1.00  0.00     0.133 C 
ATOM     11  C   UNL     1      -3.938   1.750  -1.914  1.00  0.00     0.022 C 
ATOM     12  C   UNL     1      -3.804   0.372  -2.553  1.00  0.00     0.017 C 
BRANCH   8  13
ATOM     13  C   UNL     1      -0.857   1.999   0.009  1.00  0.00     0.263 C 
ATOM     14  O   UNL     1      -1.378   2.768   0.827  1.00  0.00    -0.271 OA
BRANCH  13  15
ATOM     15  C   UNL     1       0.616   1.577   0.211  1.00  0.00     0.259 C 
ATOM     16  C   UNL     1       0.854   0.104   0.526  1.00  0.00     0.064 C 
BRANCH  15  17
ATOM     17  O   UNL     1       1.292   1.976  -0.989  1.00  0.00    -0.481 OA
BRANCH  17  18
ATOM     18  C   UNL     1       2.599   2.313  -0.781  1.00  0.00     0.120 A 
ATOM     19  C   UNL     1       2.962   3.620  -0.464  1.00  0.00     0.047 A 
ATOM     20  C   UNL     1       3.568   1.361  -1.065  1.00  0.00     0.047 A 
ATOM     21  C   UNL     1       4.318   3.980  -0.460  1.00  0.00     0.012 A 
ATOM     22  C   UNL     1       4.913   1.720  -1.050  1.00  0.00     0.012 A 
ATOM     23  C   UNL     1       5.312   3.042  -0.787  1.00  0.00    -0.018 A 
BRANCH  23  24
ATOM     24  C   UNL     1       6.727   3.420  -0.945  1.00  0.00    -0.018 A 
ATOM     25  C   UNL     1       7.445   4.081   0.062  1.00  0.00     0.009 A 
ATOM     26  C   UNL     1       7.406   3.100  -2.137  1.00  0.00     0.009 A 
ATOM     27  C   UNL     1       8.800   4.389  -0.112  1.00  0.00     0.001 A 
ATOM     28  C   UNL     1       8.756   3.405  -2.311  1.00  0.00     0.001 A 
ATOM     29  C   UNL     1       9.454   4.047  -1.294  1.00  0.00     0.000 A 
ENDBRANCH  23  24
ENDBRANCH  17  18
ENDBRANCH  15  17
ENDBRANCH  13  15
ENDBRANCH   8  13
ENDBRANCH   4   7
ENDBRANCH   2   3
ENDBRANCH   1   2
BRANCH   1  30
ATOM     30  C   UNL     1      -4.956  -0.107   3.055  1.00  0.00     0.002 C 
BRANCH  30  31
ATOM     31  C   UNL     1      -3.982   0.631   3.983  1.00  0.00     0.002 C 
BRANCH  31  32
ATOM     32  C   UNL     1      -3.958   2.158   3.859  1.00  0.00     0.021 C 
BRANCH  32  33
ATOM     33  C   UNL     1      -5.300   2.853   4.074  1.00  0.00     0.116 C 
BRANCH  33  34
ATOM     34  N   UNL     1      -5.898   2.514   5.357  1.00  0.00    -0.352 N 
ATOM     35  C   UNL     1      -6.307   3.323   6.386  1.00  0.00     0.251 C 
ATOM     36  H   UNL     1      -6.031   1.551   5.510  1.00  0.00     0.163 HD
ATOM     37  O   UNL     1      -6.616   2.830   7.466  1.00  0.00    -0.269 OA
BRANCH  35  38
ATOM     38  C   UNL     1      -6.372   4.789   6.207  1.00  0.00     0.039 A 
ATOM     39  C   UNL     1      -5.909   5.612   7.238  1.00  0.00     0.014 A 
ATOM     40  C   UNL     1      -6.925   5.353   5.055  1.00  0.00     0.014 A 
ATOM     41  C   UNL     1      -5.949   7.000   7.090  1.00  0.00     0.010 A 
ATOM     42  C   UNL     1      -6.907   6.735   4.882  1.00  0.00     0.010 A 
ATOM     43  C   UNL     1      -6.422   7.571   5.899  1.00  0.00    -0.014 A 
BRANCH  43  44
ATOM     44  C   UNL     1      -6.414   9.041   5.695  1.00  0.00     0.031 A 
ATOM     45  C   UNL     1      -7.706   9.795   5.556  1.00  0.00     0.074 A 
ATOM     46  C   UNL     1      -5.238   9.686   5.570  1.00  0.00     0.049 A 
ATOM     47  N   UNL     1      -7.898  11.066   5.304  1.00  0.00    -0.248 NA
ATOM     48  C   UNL     1      -8.947   9.016   5.696  1.00  0.00     0.031 C 
ATOM     49  C   UNL     1      -3.916   9.063   5.652  1.00  0.00     0.029 A 
ATOM     50  N   UNL     1      -4.968  11.011   5.336  1.00  0.00    -0.354 N 
ATOM     51  C   UNL     1      -9.275  11.233   5.237  1.00  0.00     0.074 A 
ATOM     52  C   UNL     1      -9.870   9.929   5.432  1.00  0.00     0.031 C 
ATOM     53  C   UNL     1      -2.975  10.007   5.492  1.00  0.00     0.029 A 
ATOM     54  C   UNL     1      -3.626  11.292   5.257  1.00  0.00     0.049 A 
ATOM     55  H   UNL     1      -5.669  11.695   5.235  1.00  0.00     0.167 HD
ATOM     56  C   UNL     1      -9.982  12.373   5.045  1.00  0.00     0.031 A 
ATOM     57  C   UNL     1      -2.989  12.453   5.012  1.00  0.00     0.031 A 
ATOM     58  C   UNL     1      -9.390  13.671   4.859  1.00  0.00     0.049 A 
ATOM     59  C   UNL     1      -3.796  13.700   4.787  1.00  0.00     0.074 A 
ATOM     60  C   UNL     1     -10.022  14.894   4.712  1.00  0.00     0.029 A 
ATOM     61  N   UNL     1      -8.027  13.914   4.792  1.00  0.00    -0.354 N 
ATOM     62  N   UNL     1      -5.098  13.852   4.788  1.00  0.00    -0.248 NA
ATOM     63  C   UNL     1      -3.044  14.937   4.535  1.00  0.00     0.031 C 
ATOM     64  C   UNL     1      -9.042  15.870   4.507  1.00  0.00     0.029 A 
ATOM     65  C   UNL     1      -7.798  15.263   4.582  1.00  0.00     0.049 A 
ATOM     66  H   UNL     1      -7.326  13.229   4.881  1.00  0.00     0.167 HD
ATOM     67  C   UNL     1      -5.321  15.205   4.564  1.00  0.00     0.074 A 
ATOM     68  C   UNL     1      -4.019  15.830   4.448  1.00  0.00     0.031 C 
ATOM     69  C   UNL     1      -6.497  15.869   4.465  1.00  0.00     0.031 A 
BRANCH  56  70
ATOM     70  C   UNL     1     -11.481  12.261   5.017  1.00  0.00    -0.014 A 
ATOM     71  C   UNL     1     -12.212  11.981   6.183  1.00  0.00     0.009 A 
ATOM     72  C   UNL     1     -12.175  12.470   3.815  1.00  0.00     0.009 A 
ATOM     73  C   UNL     1     -13.604  11.877   6.137  1.00  0.00     0.001 A 
ATOM     74  C   UNL     1     -13.569  12.394   3.778  1.00  0.00     0.001 A 
ATOM     75  C   UNL     1     -14.281  12.088   4.937  1.00  0.00     0.000 A 
ENDBRANCH  56  70
BRANCH  57  76
ATOM     76  C   UNL     1      -1.504  12.493   4.980  1.00  0.00    -0.014 A 
ATOM     77  C   UNL     1      -0.788  13.124   6.008  1.00  0.00     0.009 A 
ATOM     78  C   UNL     1      -0.796  11.905   3.921  1.00  0.00     0.009 A 
ATOM     79  C   UNL     1       0.606  13.187   5.964  1.00  0.00     0.001 A 
ATOM     80  C   UNL     1       0.600  11.945   3.893  1.00  0.00     0.001 A 
ATOM     81  C   UNL     1       1.299  12.594   4.910  1.00  0.00     0.000 A 
ENDBRANCH  57  76
BRANCH  69  82
ATOM     82  C   UNL     1      -6.429  17.355   4.250  1.00  0.00    -0.014 A 
ATOM     83  C   UNL     1      -6.045  17.895   3.014  1.00  0.00     0.009 A 
ATOM     84  C   UNL     1      -6.791  18.224   5.292  1.00  0.00     0.009 A 
ATOM     85  C   UNL     1      -5.993  19.279   2.836  1.00  0.00     0.001 A 
ATOM     86  C   UNL     1      -6.765  19.605   5.102  1.00  0.00     0.001 A 
ATOM     87  C   UNL     1      -6.357  20.132   3.877  1.00  0.00     0.000 A 
ENDBRANCH  69  82
ENDBRANCH  43  44
ENDBRANCH  35  38
ENDBRANCH  33  34
ENDBRANCH  32  33
ENDBRANCH  31  32
ENDBRANCH  30  31
ENDBRANCH   1  30
TORSDOF 18
