REMARK SMILES O=C(COc1ccc(N2C[C@@H](C(=O)NCCCCCCNC(=O)c3ccc(-c4c5nc(c(-c6ccccc6)c6ccc([nH]6)c(-c6ccccc6)c6nc(c(-c7ccccc7)c7ccc4[nH]7)C=C6)C=C5)cc3)CC2=O)cc1)Nc1ccc(Cl)cc1Cl
REMARK SMILES IDX 16 1 15 2 14 3 12 4 13 5 11 7 9 8 10 9 73 10 72 11 74 12
REMARK SMILES IDX 8 13 5 14 6 15 76 16 7 17 75 18 4 19 3 20 2 21 1 22 77 23
REMARK SMILES IDX 78 25 79 26 84 27 80 28 83 29 85 30 81 31 82 32 17 33 18 34
REMARK SMILES IDX 19 35 20 36 21 37 22 38 23 40 24 41 25 42 71 43 26 44 70 45
REMARK SMILES IDX 27 46 28 47 29 48 64 49 30 50 69 51 63 52 65 53 31 54 68 55
REMARK SMILES IDX 62 56 61 57 32 59 54 60 39 61 53 62 40 63 43 64 52 65 66 66
REMARK SMILES IDX 41 67 42 68 51 70 67 71 44 72 33 73 34 74 38 75 35 76 37 77
REMARK SMILES IDX 36 78 55 79 56 80 60 81 57 82 59 83 58 84 45 85 46 86 50 87
REMARK SMILES IDX 47 88 49 89 48 90
REMARK H PARENT 14 6 77 24 21 39 65 58 43 69
REMARK Flexibility Score: inf
ROOT
ATOM      1  C   UNL     1      -2.647  -5.989   4.516  1.00  0.00     0.021 C 
ENDROOT
BRANCH   1   2
ATOM      2  C   UNL     1      -1.677  -4.992   5.152  1.00  0.00     0.116 C 
BRANCH   2   3
ATOM      3  N   UNL     1      -1.354  -5.371   6.517  1.00  0.00    -0.356 N 
ATOM      4  C   UNL     1      -0.192  -5.737   7.112  1.00  0.00     0.225 C 
ATOM      5  O   UNL     1      -0.241  -6.046   8.305  1.00  0.00    -0.275 OA
ATOM      6  H   UNL     1      -2.127  -5.359   7.127  1.00  0.00     0.163 HD
BRANCH   4   7
ATOM      7  C   UNL     1       1.141  -5.739   6.393  1.00  0.00     0.107 C 
ATOM      8  N   UNL     1       1.986  -4.441   4.621  1.00  0.00    -0.312 N 
ATOM      9  C   UNL     1       1.583  -4.341   5.998  1.00  0.00     0.139 C 
ATOM     10  C   UNL     1       1.748  -5.699   4.074  1.00  0.00     0.227 C 
ATOM     11  C   UNL     1       1.193  -6.600   5.141  1.00  0.00     0.116 C 
ATOM     12  O   UNL     1       1.951  -6.076   2.926  1.00  0.00    -0.274 OA
BRANCH   8  13
ATOM     13  C   UNL     1       2.429  -3.321   3.885  1.00  0.00     0.044 A 
ATOM     14  C   UNL     1       3.358  -1.167   2.327  1.00  0.00     0.120 A 
ATOM     15  C   UNL     1       3.789  -1.317   3.644  1.00  0.00     0.048 A 
ATOM     16  C   UNL     1       2.451  -2.082   1.802  1.00  0.00     0.048 A 
ATOM     17  C   UNL     1       3.298  -2.370   4.435  1.00  0.00     0.030 A 
ATOM     18  C   UNL     1       2.005  -3.156   2.568  1.00  0.00     0.030 A 
BRANCH  14  19
ATOM     19  O   UNL     1       3.976  -0.224   1.548  1.00  0.00    -0.484 OA
BRANCH  19  20
ATOM     20  C   UNL     1       3.103   0.761   0.996  1.00  0.00     0.329 C 
BRANCH  20  21
ATOM     21  C   UNL     1       2.195   0.307  -0.154  1.00  0.00     0.262 C 
ATOM     22  O   UNL     1       0.997   0.576  -0.152  1.00  0.00    -0.271 OA
ATOM     23  N   UNL     1       2.854  -0.504  -1.073  1.00  0.00    -0.322 N 
ATOM     24  H   UNL     1       3.833  -0.577  -1.004  1.00  0.00     0.170 HD
BRANCH  23  25
ATOM     25  C   UNL     1       2.205  -1.232  -2.100  1.00  0.00     0.060 A 
ATOM     26  C   UNL     1       2.631  -2.561  -2.264  1.00  0.00     0.029 A 
ATOM     27  C   UNL     1       1.164  -0.751  -2.916  1.00  0.00     0.066 A 
ATOM     28  C   UNL     1       1.967  -3.420  -3.145  1.00  0.00     0.023 A 
ATOM     29  C   UNL     1       0.499  -1.616  -3.794  1.00  0.00     0.043 A 
ATOM     30  Cl  UNL     1       0.760   0.927  -3.046  1.00  0.00    -0.082 Cl
ATOM     31  C   UNL     1       0.891  -2.948  -3.891  1.00  0.00     0.042 A 
ATOM     32  Cl  UNL     1       0.060  -4.011  -4.957  1.00  0.00    -0.084 Cl
ENDBRANCH  23  25
ENDBRANCH  20  21
ENDBRANCH  19  20
ENDBRANCH  14  19
ENDBRANCH   8  13
ENDBRANCH   4   7
ENDBRANCH   2   3
ENDBRANCH   1   2
BRANCH   1  33
ATOM     33  C   UNL     1      -4.037  -6.022   5.166  1.00  0.00     0.002 C 
BRANCH  33  34
ATOM     34  C   UNL     1      -4.780  -4.683   5.184  1.00  0.00     0.002 C 
BRANCH  34  35
ATOM     35  C   UNL     1      -4.942  -4.015   3.818  1.00  0.00     0.021 C 
BRANCH  35  36
ATOM     36  C   UNL     1      -5.678  -4.859   2.784  1.00  0.00     0.116 C 
BRANCH  36  37
ATOM     37  N   UNL     1      -7.063  -5.106   3.158  1.00  0.00    -0.352 N 
ATOM     38  C   UNL     1      -8.208  -4.862   2.440  1.00  0.00     0.251 C 
ATOM     39  H   UNL     1      -7.197  -5.502   4.049  1.00  0.00     0.163 HD
ATOM     40  O   UNL     1      -9.309  -4.954   2.970  1.00  0.00    -0.269 OA
BRANCH  38  41
ATOM     41  C   UNL     1      -8.101  -4.464   1.021  1.00  0.00     0.039 A 
ATOM     42  C   UNL     1      -8.829  -3.362   0.566  1.00  0.00     0.014 A 
ATOM     43  C   UNL     1      -7.261  -5.165   0.151  1.00  0.00     0.014 A 
ATOM     44  C   UNL     1      -8.659  -2.918  -0.748  1.00  0.00     0.010 A 
ATOM     45  C   UNL     1      -7.038  -4.678  -1.132  1.00  0.00     0.010 A 
ATOM     46  C   UNL     1      -7.733  -3.548  -1.594  1.00  0.00    -0.014 A 
BRANCH  46  47
ATOM     47  C   UNL     1      -7.460  -3.046  -2.964  1.00  0.00     0.031 A 
ATOM     48  C   UNL     1      -7.752  -3.918  -4.155  1.00  0.00     0.074 A 
ATOM     49  C   UNL     1      -6.859  -1.851  -3.132  1.00  0.00     0.049 A 
ATOM     50  N   UNL     1      -7.468  -3.715  -5.416  1.00  0.00    -0.248 NA
ATOM     51  C   UNL     1      -8.427  -5.199  -3.889  1.00  0.00     0.031 C 
ATOM     52  C   UNL     1      -6.492  -0.925  -2.058  1.00  0.00     0.029 A 
ATOM     53  N   UNL     1      -6.429  -1.219  -4.274  1.00  0.00    -0.354 N 
ATOM     54  C   UNL     1      -7.899  -4.852  -6.087  1.00  0.00     0.074 A 
ATOM     55  C   UNL     1      -8.433  -5.756  -5.092  1.00  0.00     0.031 C 
ATOM     56  C   UNL     1      -5.900   0.156  -2.591  1.00  0.00     0.029 A 
ATOM     57  C   UNL     1      -5.799  -0.020  -4.036  1.00  0.00     0.049 A 
ATOM     58  H   UNL     1      -6.560  -1.589  -5.176  1.00  0.00     0.167 HD
ATOM     59  C   UNL     1      -7.862  -5.116  -7.414  1.00  0.00     0.031 A 
ATOM     60  C   UNL     1      -5.186   0.830  -4.882  1.00  0.00     0.031 A 
ATOM     61  C   UNL     1      -7.348  -4.207  -8.403  1.00  0.00     0.049 A 
ATOM     62  C   UNL     1      -5.146   0.503  -6.351  1.00  0.00     0.074 A 
ATOM     63  C   UNL     1      -7.340  -4.352  -9.780  1.00  0.00     0.029 A 
ATOM     64  N   UNL     1      -6.744  -2.992  -8.123  1.00  0.00    -0.354 N 
ATOM     65  N   UNL     1      -5.637  -0.537  -6.979  1.00  0.00    -0.248 NA
ATOM     66  C   UNL     1      -4.474   1.473  -7.229  1.00  0.00     0.031 C 
ATOM     67  C   UNL     1      -6.670  -3.256 -10.328  1.00  0.00     0.029 A 
ATOM     68  C   UNL     1      -6.326  -2.394  -9.299  1.00  0.00     0.049 A 
ATOM     69  H   UNL     1      -6.629  -2.611  -7.222  1.00  0.00     0.167 HD
ATOM     70  C   UNL     1      -5.363  -0.331  -8.326  1.00  0.00     0.074 A 
ATOM     71  C   UNL     1      -4.676   0.940  -8.425  1.00  0.00     0.031 C 
ATOM     72  C   UNL     1      -5.656  -1.123  -9.385  1.00  0.00     0.031 A 
BRANCH  59  73
ATOM     73  C   UNL     1      -8.373  -6.450  -7.881  1.00  0.00    -0.014 A 
ATOM     74  C   UNL     1      -9.741  -6.763  -7.849  1.00  0.00     0.009 A 
ATOM     75  C   UNL     1      -7.476  -7.382  -8.427  1.00  0.00     0.009 A 
ATOM     76  C   UNL     1     -10.195  -7.995  -8.328  1.00  0.00     0.001 A 
ATOM     77  C   UNL     1      -7.936  -8.599  -8.933  1.00  0.00     0.001 A 
ATOM     78  C   UNL     1      -9.294  -8.907  -8.876  1.00  0.00     0.000 A 
ENDBRANCH  59  73
BRANCH  60  79
ATOM     79  C   UNL     1      -4.540   2.067  -4.367  1.00  0.00    -0.014 A 
ATOM     80  C   UNL     1      -5.054   3.332  -4.691  1.00  0.00     0.009 A 
ATOM     81  C   UNL     1      -3.384   1.991  -3.574  1.00  0.00     0.009 A 
ATOM     82  C   UNL     1      -4.404   4.493  -4.265  1.00  0.00     0.001 A 
ATOM     83  C   UNL     1      -2.755   3.152  -3.120  1.00  0.00     0.001 A 
ATOM     84  C   UNL     1      -3.257   4.402  -3.478  1.00  0.00     0.000 A 
ENDBRANCH  60  79
BRANCH  72  85
ATOM     85  C   UNL     1      -5.285  -0.624 -10.753  1.00  0.00    -0.014 A 
ATOM     86  C   UNL     1      -3.950  -0.585 -11.182  1.00  0.00     0.009 A 
ATOM     87  C   UNL     1      -6.300  -0.256 -11.651  1.00  0.00     0.009 A 
ATOM     88  C   UNL     1      -3.638  -0.164 -12.477  1.00  0.00     0.001 A 
ATOM     89  C   UNL     1      -5.988   0.133 -12.954  1.00  0.00     0.001 A 
ATOM     90  C   UNL     1      -4.657   0.186 -13.363  1.00  0.00     0.000 A 
ENDBRANCH  72  85
ENDBRANCH  46  47
ENDBRANCH  38  41
ENDBRANCH  36  37
ENDBRANCH  35  36
ENDBRANCH  34  35
ENDBRANCH  33  34
ENDBRANCH   1  33
TORSDOF 18
