REMARK SMILES O=C(NCCCCCCNC(=O)C1(C/C=C/c2ccccc2)Cc2ccccc2C1)c1ccc(-c2c3nc(c(-c4ccccc4)c4ccc([nH]4)c(-c4ccccc4)c4nc(c(-c5ccccc5)c5ccc2[nH]5)C=C4)C=C3)cc1
REMARK SMILES IDX 7 1 6 2 5 3 4 4 3 5 1 6 2 7 31 9 32 10 78 11 33 12 77 13
REMARK SMILES IDX 34 14 35 15 36 16 71 17 37 18 76 19 70 20 72 21 38 22 75 23
REMARK SMILES IDX 69 24 68 25 39 27 61 28 46 29 60 30 47 31 50 32 59 33 73 34
REMARK SMILES IDX 48 35 49 36 58 38 74 39 51 40 40 41 41 42 45 43 42 44 44 45
REMARK SMILES IDX 43 46 62 47 63 48 67 49 64 50 66 51 65 52 52 53 53 54 57 55
REMARK SMILES IDX 54 56 56 57 55 58 8 59 9 60 10 61 11 62 12 64 13 65 23 66
REMARK SMILES IDX 30 67 24 68 29 69 25 70 28 71 26 72 27 73 14 74 15 75 16 76
REMARK SMILES IDX 17 77 18 78 22 79 19 80 21 81 20 82
REMARK H PARENT 3 8 72 26 50 37 10 63
REMARK Flexibility Score: inf
ROOT
ATOM      1  C   UNL     1       4.635  -2.866   3.200  1.00  0.00     0.002 C 
ENDROOT
BRANCH   1   2
ATOM      2  C   UNL     1       4.006  -1.493   3.449  1.00  0.00     0.002 C 
BRANCH   2   3
ATOM      3  C   UNL     1       4.500  -0.378   2.525  1.00  0.00     0.021 C 
BRANCH   3   4
ATOM      4  C   UNL     1       4.350  -0.677   1.036  1.00  0.00     0.116 C 
BRANCH   4   5
ATOM      5  N   UNL     1       2.956  -0.823   0.655  1.00  0.00    -0.352 N 
ATOM      6  O   UNL     1       0.973  -0.155  -0.186  1.00  0.00    -0.269 OA
ATOM      7  C   UNL     1       2.192  -0.028  -0.160  1.00  0.00     0.251 C 
ATOM      8  H   UNL     1       2.494  -1.605   1.036  1.00  0.00     0.163 HD
BRANCH   7   9
ATOM      9  C   UNL     1       2.843   0.994  -1.004  1.00  0.00     0.039 A 
ATOM     10  C   UNL     1       3.968   0.674  -1.772  1.00  0.00     0.014 A 
ATOM     11  C   UNL     1       2.293   2.276  -1.055  1.00  0.00     0.014 A 
ATOM     12  C   UNL     1       4.604   1.665  -2.513  1.00  0.00     0.010 A 
ATOM     13  C   UNL     1       2.894   3.252  -1.850  1.00  0.00     0.010 A 
ATOM     14  C   UNL     1       4.064   2.958  -2.571  1.00  0.00    -0.014 A 
BRANCH  14  15
ATOM     15  C   UNL     1       4.685   3.993  -3.431  1.00  0.00     0.031 A 
ATOM     16  C   UNL     1       5.303   5.220  -2.828  1.00  0.00     0.074 A 
ATOM     17  C   UNL     1       4.643   3.842  -4.767  1.00  0.00     0.049 A 
ATOM     18  N   UNL     1       5.797   6.273  -3.427  1.00  0.00    -0.248 NA
ATOM     19  C   UNL     1       5.364   5.276  -1.359  1.00  0.00     0.031 C 
ATOM     20  C   UNL     1       4.071   2.691  -5.469  1.00  0.00     0.029 A 
ATOM     21  N   UNL     1       5.072   4.668  -5.774  1.00  0.00    -0.354 N 
ATOM     22  C   UNL     1       6.202   7.130  -2.412  1.00  0.00     0.074 A 
ATOM     23  C   UNL     1       5.879   6.481  -1.159  1.00  0.00     0.031 C 
ATOM     24  C   UNL     1       4.189   2.881  -6.791  1.00  0.00     0.029 A 
ATOM     25  C   UNL     1       4.785   4.191  -7.028  1.00  0.00     0.049 A 
ATOM     26  H   UNL     1       5.541   5.519  -5.612  1.00  0.00     0.167 HD
ATOM     27  C   UNL     1       6.786   8.347  -2.517  1.00  0.00     0.031 A 
ATOM     28  C   UNL     1       4.946   4.758  -8.238  1.00  0.00     0.031 A 
ATOM     29  C   UNL     1       7.092   8.991  -3.768  1.00  0.00     0.049 A 
ATOM     30  C   UNL     1       5.550   6.127  -8.331  1.00  0.00     0.074 A 
ATOM     31  C   UNL     1       7.717  10.208  -3.982  1.00  0.00     0.029 A 
ATOM     32  N   UNL     1       6.781   8.476  -5.018  1.00  0.00    -0.354 N 
ATOM     33  N   UNL     1       5.964   6.911  -7.365  1.00  0.00    -0.248 NA
ATOM     34  C   UNL     1       5.713   6.690  -9.678  1.00  0.00     0.031 C 
ATOM     35  C   UNL     1       7.732  10.454  -5.359  1.00  0.00     0.029 A 
ATOM     36  C   UNL     1       7.174   9.363  -6.006  1.00  0.00     0.049 A 
ATOM     37  H   UNL     1       6.345   7.608  -5.179  1.00  0.00     0.167 HD
ATOM     38  C   UNL     1       6.461   8.048  -7.986  1.00  0.00     0.074 A 
ATOM     39  C   UNL     1       6.300   7.850  -9.413  1.00  0.00     0.031 C 
ATOM     40  C   UNL     1       7.009   9.152  -7.423  1.00  0.00     0.031 A 
BRANCH  27  41
ATOM     41  C   UNL     1       7.088   9.081  -1.239  1.00  0.00    -0.014 A 
ATOM     42  C   UNL     1       8.095   8.648  -0.362  1.00  0.00     0.009 A 
ATOM     43  C   UNL     1       6.358  10.235  -0.914  1.00  0.00     0.009 A 
ATOM     44  C   UNL     1       8.332   9.328   0.835  1.00  0.00     0.001 A 
ATOM     45  C   UNL     1       6.617  10.930   0.269  1.00  0.00     0.001 A 
ATOM     46  C   UNL     1       7.594  10.469   1.148  1.00  0.00     0.000 A 
ENDBRANCH  27  41
BRANCH  28  47
ATOM     47  C   UNL     1       4.502   4.020  -9.447  1.00  0.00    -0.014 A 
ATOM     48  C   UNL     1       5.439   3.449 -10.320  1.00  0.00     0.009 A 
ATOM     49  C   UNL     1       3.133   3.833  -9.700  1.00  0.00     0.009 A 
ATOM     50  C   UNL     1       5.012   2.710 -11.426  1.00  0.00     0.001 A 
ATOM     51  C   UNL     1       2.711   3.071 -10.790  1.00  0.00     0.001 A 
ATOM     52  C   UNL     1       3.651   2.514 -11.655  1.00  0.00     0.000 A 
ENDBRANCH  28  47
BRANCH  40  53
ATOM     53  C   UNL     1       7.520  10.219  -8.348  1.00  0.00    -0.014 A 
ATOM     54  C   UNL     1       6.644  11.079  -9.027  1.00  0.00     0.009 A 
ATOM     55  C   UNL     1       8.905  10.409  -8.482  1.00  0.00     0.009 A 
ATOM     56  C   UNL     1       7.148  12.098  -9.839  1.00  0.00     0.001 A 
ATOM     57  C   UNL     1       9.404  11.444  -9.273  1.00  0.00     0.001 A 
ATOM     58  C   UNL     1       8.526  12.284  -9.954  1.00  0.00     0.000 A 
ENDBRANCH  40  53
ENDBRANCH  14  15
ENDBRANCH   7   9
ENDBRANCH   4   5
ENDBRANCH   3   4
ENDBRANCH   2   3
ENDBRANCH   1   2
BRANCH   1  59
ATOM     59  C   UNL     1       6.167  -2.883   3.197  1.00  0.00     0.021 C 
BRANCH  59  60
ATOM     60  C   UNL     1       6.801  -2.526   4.540  1.00  0.00     0.116 C 
BRANCH  60  61
ATOM     61  N   UNL     1       6.674  -3.624   5.476  1.00  0.00    -0.356 N 
ATOM     62  C   UNL     1       7.579  -4.515   5.963  1.00  0.00     0.227 C 
ATOM     63  H   UNL     1       5.762  -3.748   5.826  1.00  0.00     0.163 HD
ATOM     64  O   UNL     1       7.115  -5.452   6.620  1.00  0.00    -0.274 OA
BRANCH  62  65
ATOM     65  C   UNL     1       9.091  -4.370   5.726  1.00  0.00     0.061 C 
ATOM     66  C   UNL     1       9.592  -2.998   6.273  1.00  0.00     0.053 C 
ATOM     67  C   UNL     1       9.854  -5.410   6.620  1.00  0.00     0.053 C 
ATOM     68  C   UNL     1      10.973  -3.317   6.755  1.00  0.00    -0.044 A 
ATOM     69  C   UNL     1      11.134  -4.693   6.918  1.00  0.00    -0.044 A 
ATOM     70  C   UNL     1      12.006  -2.441   7.034  1.00  0.00     0.004 A 
ATOM     71  C   UNL     1      12.339  -5.232   7.330  1.00  0.00     0.004 A 
ATOM     72  C   UNL     1      13.230  -2.972   7.446  1.00  0.00     0.000 A 
ATOM     73  C   UNL     1      13.398  -4.359   7.583  1.00  0.00     0.000 A 
BRANCH  65  74
ATOM     74  C   UNL     1       9.486  -4.573   4.230  1.00  0.00     0.045 C 
BRANCH  74  75
ATOM     75  C   UNL     1       8.958  -5.850   3.628  1.00  0.00    -0.025 C 
ATOM     76  C   UNL     1       8.261  -5.922   2.483  1.00  0.00     0.004 C 
BRANCH  76  77
ATOM     77  C   UNL     1       7.624  -7.152   1.989  1.00  0.00    -0.026 A 
ATOM     78  C   UNL     1       7.375  -7.293   0.618  1.00  0.00     0.008 A 
ATOM     79  C   UNL     1       7.170  -8.154   2.860  1.00  0.00     0.008 A 
ATOM     80  C   UNL     1       6.719  -8.426   0.128  1.00  0.00     0.001 A 
ATOM     81  C   UNL     1       6.521  -9.288   2.370  1.00  0.00     0.001 A 
ATOM     82  C   UNL     1       6.298  -9.425   1.003  1.00  0.00     0.000 A 
ENDBRANCH  76  77
ENDBRANCH  74  75
ENDBRANCH  65  74
ENDBRANCH  62  65
ENDBRANCH  60  61
ENDBRANCH  59  60
ENDBRANCH   1  59
TORSDOF 16
