REMARK SMILES CC(C)CCn1nc(C(=O)NCCCCCCNC(=O)c2ccc(-c3c4nc(c(-c5ccccc5)c5ccc([nH]5)c(-c5ccccc5)c5nc(c(-c6ccccc6)c6ccc3[nH]6)C=C5)C=C4)cc2)c2c1CCN(C(=O)[C@@H]1CCc3nn(C)c(=O)n3C1)C2
REMARK SMILES IDX 14 1 13 2 12 3 11 4 9 5 10 6 8 8 6 9 7 10 70 11 69 12 71 13
REMARK SMILES IDX 87 14 72 15 73 16 5 17 4 18 2 19 1 20 3 21 74 22 75 23 76 24
REMARK SMILES IDX 77 25 86 26 78 27 85 28 79 29 83 30 80 31 81 32 84 33 82 34
REMARK SMILES IDX 15 35 16 36 17 37 18 38 19 39 20 41 21 42 22 43 68 44 23 45
REMARK SMILES IDX 67 46 24 47 25 48 26 49 61 50 27 51 66 52 60 53 62 54 28 55
REMARK SMILES IDX 65 56 59 57 58 58 29 60 51 61 36 62 50 63 37 64 40 65 49 66
REMARK SMILES IDX 63 67 38 68 39 69 48 71 64 72 41 73 30 74 31 75 35 76 32 77
REMARK SMILES IDX 34 78 33 79 52 80 53 81 57 82 54 83 56 84 55 85 42 86 43 87
REMARK SMILES IDX 47 88 44 89 46 90 45 91
REMARK H PARENT 11 7 18 40 62 59 40 70
REMARK Flexibility Score: inf
ROOT
ATOM      1  C   UNL     1      -0.210  -5.893  -8.776  1.00  0.00     0.002 C 
ENDROOT
BRANCH   1   2
ATOM      2  C   UNL     1      -0.539  -5.151  -7.484  1.00  0.00     0.021 C 
BRANCH   2   3
ATOM      3  C   UNL     1       0.592  -4.261  -6.936  1.00  0.00     0.116 C 
BRANCH   3   4
ATOM      4  N   UNL     1       0.224  -2.857  -6.935  1.00  0.00    -0.351 N 
ATOM      5  C   UNL     1      -0.176  -1.947  -5.982  1.00  0.00     0.272 C 
ATOM      6  O   UNL     1      -0.198  -0.776  -6.379  1.00  0.00    -0.267 OA
ATOM      7  H   UNL     1       0.271  -2.458  -7.834  1.00  0.00     0.163 HD
BRANCH   5   8
ATOM      8  C   UNL     1      -0.540  -2.295  -4.585  1.00  0.00     0.155 A 
ATOM      9  N   UNL     1      -0.945  -1.881  -2.503  1.00  0.00    -0.268 N 
ATOM     10  N   UNL     1      -0.509  -1.318  -3.644  1.00  0.00    -0.167 NA
ATOM     11  C   UNL     1      -1.068  -3.227  -2.627  1.00  0.00     0.046 A 
ATOM     12  C   UNL     1      -1.020  -3.492  -3.981  1.00  0.00     0.026 A 
ATOM     13  C   UNL     1      -1.311  -4.251  -1.585  1.00  0.00     0.078 C 
ATOM     14  C   UNL     1      -1.404  -4.807  -4.541  1.00  0.00     0.159 C 
ATOM     15  C   UNL     1      -1.157  -5.629  -2.261  1.00  0.00     0.126 C 
ATOM     16  N   UNL     1      -1.914  -5.726  -3.518  1.00  0.00    -0.338 N 
BRANCH   9  17
ATOM     17  C   UNL     1      -1.424  -1.022  -1.432  1.00  0.00     0.145 C 
BRANCH  17  18
ATOM     18  C   UNL     1      -0.951  -1.365  -0.018  1.00  0.00     0.027 C 
BRANCH  18  19
ATOM     19  C   UNL     1       0.577  -1.403   0.143  1.00  0.00    -0.016 C 
ATOM     20  C   UNL     1       1.181  -0.002   0.054  1.00  0.00     0.007 C 
ATOM     21  C   UNL     1       0.947  -2.056   1.475  1.00  0.00     0.007 C 
ENDBRANCH  18  19
ENDBRANCH  17  18
ENDBRANCH   9  17
BRANCH  16  22
ATOM     22  C   UNL     1      -2.705  -6.758  -3.992  1.00  0.00     0.227 C 
ATOM     23  O   UNL     1      -2.848  -6.898  -5.219  1.00  0.00    -0.274 OA
BRANCH  22  24
ATOM     24  C   UNL     1      -3.489  -7.748  -3.116  1.00  0.00     0.099 C 
ATOM     25  C   UNL     1      -4.615  -7.150  -2.271  1.00  0.00     0.023 C 
ATOM     26  C   UNL     1      -2.667  -8.771  -2.354  1.00  0.00     0.142 C 
ATOM     27  C   UNL     1      -4.173  -6.620  -0.916  1.00  0.00     0.078 C 
ATOM     28  N   UNL     1      -2.421  -8.374  -0.991  1.00  0.00    -0.278 N 
ATOM     29  C   UNL     1      -3.028  -7.380  -0.312  1.00  0.00     0.133 A 
ATOM     30  C   UNL     1      -1.295  -8.697  -0.281  1.00  0.00     0.345 A 
ATOM     31  N   UNL     1      -2.423  -7.024   0.784  1.00  0.00    -0.155 NA
ATOM     32  N   UNL     1      -1.309  -7.842   0.823  1.00  0.00    -0.216 N 
ATOM     33  O   UNL     1      -0.402  -9.462  -0.628  1.00  0.00    -0.246 OA
ATOM     34  C   UNL     1      -0.178  -7.573   1.668  1.00  0.00     0.179 C 
ENDBRANCH  22  24
ENDBRANCH  16  22
ENDBRANCH   5   8
ENDBRANCH   3   4
ENDBRANCH   2   3
ENDBRANCH   1   2
BRANCH   1  35
ATOM     35  C   UNL     1       0.934  -6.914  -8.659  1.00  0.00     0.002 C 
BRANCH  35  36
ATOM     36  C   UNL     1       0.737  -8.090  -7.685  1.00  0.00     0.021 C 
BRANCH  36  37
ATOM     37  C   UNL     1      -0.390  -9.035  -8.072  1.00  0.00     0.116 C 
BRANCH  37  38
ATOM     38  N   UNL     1      -0.185  -9.673  -9.384  1.00  0.00    -0.352 N 
ATOM     39  C   UNL     1      -0.987 -10.564 -10.083  1.00  0.00     0.251 C 
ATOM     40  H   UNL     1       0.654  -9.428  -9.837  1.00  0.00     0.163 HD
ATOM     41  O   UNL     1      -0.524 -11.248 -10.989  1.00  0.00    -0.269 OA
BRANCH  39  42
ATOM     42  C   UNL     1      -2.414 -10.671  -9.733  1.00  0.00     0.039 A 
ATOM     43  C   UNL     1      -3.172 -11.839  -9.866  1.00  0.00     0.014 A 
ATOM     44  C   UNL     1      -2.996  -9.532  -9.214  1.00  0.00     0.014 A 
ATOM     45  C   UNL     1      -4.513 -11.798  -9.479  1.00  0.00     0.010 A 
ATOM     46  C   UNL     1      -4.104  -9.656  -8.447  1.00  0.00     0.010 A 
ATOM     47  C   UNL     1      -4.970 -10.666  -8.793  1.00  0.00    -0.014 A 
BRANCH  47  48
ATOM     48  C   UNL     1      -6.327 -10.472  -8.323  1.00  0.00     0.031 A 
ATOM     49  C   UNL     1      -6.702 -11.427  -7.267  1.00  0.00     0.074 A 
ATOM     50  C   UNL     1      -7.043  -9.353  -8.588  1.00  0.00     0.049 A 
ATOM     51  N   UNL     1      -7.451 -12.468  -7.392  1.00  0.00    -0.248 NA
ATOM     52  C   UNL     1      -5.997 -11.336  -5.977  1.00  0.00     0.031 C 
ATOM     53  C   UNL     1      -6.633  -8.136  -9.308  1.00  0.00     0.029 A 
ATOM     54  N   UNL     1      -8.290  -9.024  -8.160  1.00  0.00    -0.354 N 
ATOM     55  C   UNL     1      -7.506 -13.028  -6.125  1.00  0.00     0.074 A 
ATOM     56  C   UNL     1      -6.410 -12.457  -5.385  1.00  0.00     0.031 C 
ATOM     57  C   UNL     1      -7.526  -7.143  -9.078  1.00  0.00     0.029 A 
ATOM     58  C   UNL     1      -8.647  -7.691  -8.339  1.00  0.00     0.049 A 
ATOM     59  H   UNL     1      -8.898  -9.682  -7.753  1.00  0.00     0.167 HD
ATOM     60  C   UNL     1      -8.633 -13.656  -5.692  1.00  0.00     0.031 A 
ATOM     61  C   UNL     1      -9.778  -7.092  -7.885  1.00  0.00     0.031 A 
ATOM     62  C   UNL     1      -9.555 -13.882  -6.781  1.00  0.00     0.049 A 
ATOM     63  C   UNL     1     -10.746  -8.172  -7.578  1.00  0.00     0.074 A 
ATOM     64  C   UNL     1      -9.511 -14.573  -7.975  1.00  0.00     0.029 A 
ATOM     65  N   UNL     1     -10.579 -12.970  -6.906  1.00  0.00    -0.354 N 
ATOM     66  N   UNL     1     -11.267  -8.946  -8.486  1.00  0.00    -0.248 NA
ATOM     67  C   UNL     1     -10.768  -8.699  -6.223  1.00  0.00     0.031 C 
ATOM     68  C   UNL     1     -10.197 -13.740  -8.910  1.00  0.00     0.029 A 
ATOM     69  C   UNL     1     -10.695 -12.627  -8.228  1.00  0.00     0.049 A 
ATOM     70  H   UNL     1     -11.133 -12.622  -6.171  1.00  0.00     0.167 HD
ATOM     71  C   UNL     1     -11.263 -10.211  -7.916  1.00  0.00     0.074 A 
ATOM     72  C   UNL     1     -11.047  -9.979  -6.488  1.00  0.00     0.031 C 
ATOM     73  C   UNL     1     -11.138 -11.328  -8.693  1.00  0.00     0.031 A 
BRANCH  60  74
ATOM     74  C   UNL     1      -9.099 -13.633  -4.257  1.00  0.00    -0.014 A 
ATOM     75  C   UNL     1     -10.264 -14.345  -3.926  1.00  0.00     0.009 A 
ATOM     76  C   UNL     1      -8.613 -12.734  -3.288  1.00  0.00     0.009 A 
ATOM     77  C   UNL     1     -10.946 -14.108  -2.727  1.00  0.00     0.001 A 
ATOM     78  C   UNL     1      -9.267 -12.525  -2.072  1.00  0.00     0.001 A 
ATOM     79  C   UNL     1     -10.452 -13.192  -1.805  1.00  0.00     0.000 A 
ENDBRANCH  60  74
BRANCH  61  80
ATOM     80  C   UNL     1      -9.996  -5.704  -7.416  1.00  0.00    -0.014 A 
ATOM     81  C   UNL     1     -11.292  -5.167  -7.324  1.00  0.00     0.009 A 
ATOM     82  C   UNL     1      -8.957  -5.013  -6.768  1.00  0.00     0.009 A 
ATOM     83  C   UNL     1     -11.543  -4.006  -6.575  1.00  0.00     0.001 A 
ATOM     84  C   UNL     1      -9.208  -3.856  -6.019  1.00  0.00     0.001 A 
ATOM     85  C   UNL     1     -10.504  -3.362  -5.909  1.00  0.00     0.000 A 
ENDBRANCH  61  80
BRANCH  73  86
ATOM     86  C   UNL     1     -11.255 -11.154 -10.191  1.00  0.00    -0.014 A 
ATOM     87  C   UNL     1     -10.354 -10.394 -10.961  1.00  0.00     0.009 A 
ATOM     88  C   UNL     1     -12.233 -11.899 -10.864  1.00  0.00     0.009 A 
ATOM     89  C   UNL     1     -10.451 -10.363 -12.358  1.00  0.00     0.001 A 
ATOM     90  C   UNL     1     -12.317 -11.885 -12.258  1.00  0.00     0.001 A 
ATOM     91  C   UNL     1     -11.431 -11.113 -13.005  1.00  0.00     0.000 A 
ENDBRANCH  73  86
ENDBRANCH  47  48
ENDBRANCH  39  42
ENDBRANCH  37  38
ENDBRANCH  36  37
ENDBRANCH  35  36
ENDBRANCH   1  35
TORSDOF 18
