REMARK SMILES N#Cc1ccc(/C=C/C(=O)N2C[C@@H](O)C[C@H]2C(=O)NCCCCCCNC(=O)c2ccc(-c3c4nc(c(-c5ccccc5)c5ccc([nH]5)c(-c5ccccc5)c5nc(c(-c6ccccc6)c6ccc3[nH]6)C=C5)C=C4)cc2)cc1
REMARK SMILES IDX 21 1 20 2 19 3 17 4 18 5 16 7 11 8 12 9 13 10 15 11 9 12
REMARK SMILES IDX 10 13 8 14 7 15 6 16 3 17 4 18 78 19 5 20 77 21 2 22 1 23
REMARK SMILES IDX 14 24 22 26 23 27 24 28 25 29 26 30 27 31 28 33 29 34 30 35
REMARK SMILES IDX 76 36 31 37 75 38 32 39 33 40 34 41 69 42 35 43 74 44 68 45
REMARK SMILES IDX 70 46 36 47 73 48 67 49 66 50 37 52 59 53 44 54 58 55 45 56
REMARK SMILES IDX 48 57 57 58 71 59 46 60 47 61 56 63 72 64 49 65 38 66 39 67
REMARK SMILES IDX 43 68 40 69 42 70 41 71 60 72 61 73 65 74 62 75 64 76 63 77
REMARK SMILES IDX 50 78 51 79 55 80 52 81 54 82 53 83
REMARK H PARENT 19 6 14 25 26 32 70 51 48 62
REMARK Flexibility Score: inf
ROOT
ATOM      1  C   UNL     1       9.104   0.564  -2.370  1.00  0.00     0.021 C 
ENDROOT
BRANCH   1   2
ATOM      2  C   UNL     1       9.466  -0.401  -1.251  1.00  0.00     0.116 C 
BRANCH   2   3
ATOM      3  N   UNL     1       9.735   0.287  -0.015  1.00  0.00    -0.354 N 
ATOM      4  C   UNL     1       9.043   0.281   1.160  1.00  0.00     0.242 C 
ATOM      5  O   UNL     1       9.599   0.797   2.135  1.00  0.00    -0.273 OA
ATOM      6  H   UNL     1      10.543   0.849  -0.018  1.00  0.00     0.163 HD
BRANCH   4   7
ATOM      7  C   UNL     1       7.732  -0.518   1.334  1.00  0.00     0.177 C 
ATOM      8  N   UNL     1       6.647  -0.275   0.374  1.00  0.00    -0.324 N 
ATOM      9  C   UNL     1       6.266  -1.488  -0.332  1.00  0.00     0.152 C 
ATOM     10  C   UNL     1       6.812  -2.622   0.528  1.00  0.00     0.136 C 
ATOM     11  C   UNL     1       8.006  -2.026   1.271  1.00  0.00     0.069 C 
BRANCH   8  12
ATOM     12  C   UNL     1       5.978   0.926   0.434  1.00  0.00     0.247 C 
ATOM     13  O   UNL     1       6.482   1.947   0.893  1.00  0.00    -0.270 OA
BRANCH  12  14
ATOM     14  C   UNL     1       4.572   0.989  -0.034  1.00  0.00     0.072 C 
ATOM     15  C   UNL     1       3.666   0.120   0.444  1.00  0.00     0.014 C 
BRANCH  15  16
ATOM     16  C   UNL     1       2.226   0.131   0.170  1.00  0.00    -0.025 A 
ATOM     17  C   UNL     1      -0.573   0.046  -0.069  1.00  0.00     0.052 A 
ATOM     18  C   UNL     1       0.094   1.274  -0.025  1.00  0.00     0.020 A 
ATOM     19  C   UNL     1       0.160  -1.141  -0.021  1.00  0.00     0.020 A 
ATOM     20  C   UNL     1       1.487   1.316   0.096  1.00  0.00     0.009 A 
ATOM     21  C   UNL     1       1.552  -1.097   0.102  1.00  0.00     0.009 A 
BRANCH  17  22
ATOM     22  C   UNL     1      -2.007   0.004  -0.131  1.00  0.00     0.099 C 
ATOM     23  N   UNL     1      -3.163  -0.035  -0.167  1.00  0.00    -0.192 NA
ENDBRANCH  17  22
ENDBRANCH  15  16
ENDBRANCH  12  14
ENDBRANCH   8  12
BRANCH  10  24
ATOM     24  O   UNL     1       7.189  -3.748  -0.249  1.00  0.00    -0.391 OA
ATOM     25  H   UNL     1       7.868  -3.486  -0.889  1.00  0.00     0.211 HD
ENDBRANCH  10  24
ENDBRANCH   4   7
ENDBRANCH   2   3
ENDBRANCH   1   2
BRANCH   1  26
ATOM     26  C   UNL     1      10.325   1.308  -2.920  1.00  0.00     0.002 C 
BRANCH  26  27
ATOM     27  C   UNL     1      11.452   0.395  -3.423  1.00  0.00     0.002 C 
BRANCH  27  28
ATOM     28  C   UNL     1      11.012  -0.641  -4.458  1.00  0.00     0.021 C 
BRANCH  28  29
ATOM     29  C   UNL     1      10.438  -0.023  -5.724  1.00  0.00     0.116 C 
BRANCH  29  30
ATOM     30  N   UNL     1      11.433   0.771  -6.430  1.00  0.00    -0.352 N 
ATOM     31  C   UNL     1      11.869   0.641  -7.724  1.00  0.00     0.251 C 
ATOM     32  H   UNL     1      11.849   1.496  -5.910  1.00  0.00     0.163 HD
ATOM     33  O   UNL     1      12.877   1.218  -8.113  1.00  0.00    -0.269 OA
BRANCH  31  34
ATOM     34  C   UNL     1      11.103  -0.226  -8.639  1.00  0.00     0.039 A 
ATOM     35  C   UNL     1      11.774  -1.171  -9.415  1.00  0.00     0.014 A 
ATOM     36  C   UNL     1       9.710  -0.126  -8.679  1.00  0.00     0.014 A 
ATOM     37  C   UNL     1      11.035  -2.067 -10.189  1.00  0.00     0.010 A 
ATOM     38  C   UNL     1       8.977  -1.074  -9.375  1.00  0.00     0.010 A 
ATOM     39  C   UNL     1       9.631  -2.049 -10.145  1.00  0.00    -0.014 A 
BRANCH  39  40
ATOM     40  C   UNL     1       8.807  -3.010 -10.918  1.00  0.00     0.031 A 
ATOM     41  C   UNL     1       7.861  -2.489 -11.966  1.00  0.00     0.074 A 
ATOM     42  C   UNL     1       8.846  -4.326 -10.631  1.00  0.00     0.049 A 
ATOM     43  N   UNL     1       6.948  -3.132 -12.648  1.00  0.00    -0.248 NA
ATOM     44  C   UNL     1       7.931  -1.048 -12.266  1.00  0.00     0.031 C 
ATOM     45  C   UNL     1       9.713  -4.956  -9.632  1.00  0.00     0.029 A 
ATOM     46  N   UNL     1       8.124  -5.372 -11.148  1.00  0.00    -0.354 N 
ATOM     47  C   UNL     1       6.337  -2.175 -13.448  1.00  0.00     0.074 A 
ATOM     48  C   UNL     1       6.928  -0.899 -13.117  1.00  0.00     0.031 C 
ATOM     49  C   UNL     1       9.487  -6.280  -9.626  1.00  0.00     0.029 A 
ATOM     50  C   UNL     1       8.421  -6.586 -10.575  1.00  0.00     0.049 A 
ATOM     51  H   UNL     1       7.456  -5.263 -11.863  1.00  0.00     0.167 HD
ATOM     52  C   UNL     1       5.387  -2.346 -14.397  1.00  0.00     0.031 A 
ATOM     53  C   UNL     1       7.877  -7.802 -10.777  1.00  0.00     0.031 A 
ATOM     54  C   UNL     1       4.798  -3.614 -14.726  1.00  0.00     0.049 A 
ATOM     55  C   UNL     1       6.760  -7.947 -11.779  1.00  0.00     0.074 A 
ATOM     56  C   UNL     1       3.836  -3.894 -15.680  1.00  0.00     0.029 A 
ATOM     57  N   UNL     1       5.120  -4.815 -14.114  1.00  0.00    -0.354 N 
ATOM     58  N   UNL     1       6.218  -7.038 -12.553  1.00  0.00    -0.248 NA
ATOM     59  C   UNL     1       6.184  -9.290 -11.939  1.00  0.00     0.031 C 
ATOM     60  C   UNL     1       3.533  -5.256 -15.605  1.00  0.00     0.029 A 
ATOM     61  C   UNL     1       4.363  -5.836 -14.660  1.00  0.00     0.049 A 
ATOM     62  H   UNL     1       5.787  -4.925 -13.398  1.00  0.00     0.167 HD
ATOM     63  C   UNL     1       5.281  -7.711 -13.329  1.00  0.00     0.074 A 
ATOM     64  C   UNL     1       5.333  -9.103 -12.937  1.00  0.00     0.031 C 
ATOM     65  C   UNL     1       4.453  -7.222 -14.283  1.00  0.00     0.031 A 
BRANCH  52  66
ATOM     66  C   UNL     1       4.935  -1.130 -15.155  1.00  0.00    -0.014 A 
ATOM     67  C   UNL     1       5.794  -0.479 -16.055  1.00  0.00     0.009 A 
ATOM     68  C   UNL     1       3.620  -0.661 -15.012  1.00  0.00     0.009 A 
ATOM     69  C   UNL     1       5.356   0.634 -16.773  1.00  0.00     0.001 A 
ATOM     70  C   UNL     1       3.174   0.432 -15.758  1.00  0.00     0.001 A 
ATOM     71  C   UNL     1       4.044   1.083 -16.631  1.00  0.00     0.000 A 
ENDBRANCH  52  66
BRANCH  53  72
ATOM     72  C   UNL     1       8.355  -8.990 -10.015  1.00  0.00    -0.014 A 
ATOM     73  C   UNL     1       8.954 -10.071 -10.682  1.00  0.00     0.009 A 
ATOM     74  C   UNL     1       8.150  -9.084  -8.630  1.00  0.00     0.009 A 
ATOM     75  C   UNL     1       9.279 -11.241  -9.992  1.00  0.00     0.001 A 
ATOM     76  C   UNL     1       8.515 -10.239  -7.934  1.00  0.00     0.001 A 
ATOM     77  C   UNL     1       9.060 -11.324  -8.618  1.00  0.00     0.000 A 
ENDBRANCH  53  72
BRANCH  65  78
ATOM     78  C   UNL     1       3.596  -8.201 -15.036  1.00  0.00    -0.014 A 
ATOM     79  C   UNL     1       2.506  -8.848 -14.435  1.00  0.00     0.009 A 
ATOM     80  C   UNL     1       3.849  -8.421 -16.401  1.00  0.00     0.009 A 
ATOM     81  C   UNL     1       1.705  -9.718 -15.180  1.00  0.00     0.001 A 
ATOM     82  C   UNL     1       3.025  -9.260 -17.150  1.00  0.00     0.001 A 
ATOM     83  C   UNL     1       1.960  -9.915 -16.537  1.00  0.00     0.000 A 
ENDBRANCH  65  78
ENDBRANCH  39  40
ENDBRANCH  31  34
ENDBRANCH  29  30
ENDBRANCH  28  29
ENDBRANCH  27  28
ENDBRANCH  26  27
ENDBRANCH   1  26
TORSDOF 18
