REMARK SMILES O=C(NCCCCCCNC(=O)[C@H]1CC[C@@H]2CCCC[C@H]2[NH2+]1)c1ccc(-c2c3nc(c(-c4ccccc4)c4ccc([nH]4)c(-c4ccccc4)c4nc(c(-c5ccccc5)c5ccc2[nH]5)C=C4)C=C3)cc1
REMARK SMILES IDX 5 1 4 2 3 3 1 4 2 5 23 7 24 8 70 9 25 10 69 11 26 12 27 13
REMARK SMILES IDX 28 14 63 15 29 16 68 17 62 18 64 19 30 20 67 21 61 22 60 23
REMARK SMILES IDX 31 25 53 26 38 27 52 28 39 29 42 30 51 31 65 32 40 33 41 34
REMARK SMILES IDX 50 36 66 37 43 38 32 39 33 40 37 41 34 42 36 43 35 44 54 45
REMARK SMILES IDX 55 46 59 47 56 48 58 49 57 50 44 51 45 52 49 53 46 54 48 55
REMARK SMILES IDX 47 56 6 57 7 58 8 59 9 60 10 61 11 62 12 64 13 65 14 66
REMARK SMILES IDX 22 67 15 68 21 69 16 72 20 73 17 74 19 75 18 76
REMARK H PARENT 3 6 64 24 42 35 10 63 22 70 22 71
REMARK Flexibility Score: inf
ROOT
ATOM      1  C   UNL     1      12.411   4.682   3.098  1.00  0.00     0.021 C 
ENDROOT
BRANCH   1   2
ATOM      2  C   UNL     1      11.675   5.297   1.916  1.00  0.00     0.116 C 
BRANCH   2   3
ATOM      3  N   UNL     1      12.001   6.706   1.759  1.00  0.00    -0.352 N 
ATOM      4  O   UNL     1      13.020   8.486   0.817  1.00  0.00    -0.269 OA
ATOM      5  C   UNL     1      12.596   7.340   0.700  1.00  0.00     0.251 C 
ATOM      6  H   UNL     1      11.760   7.284   2.518  1.00  0.00     0.163 HD
BRANCH   5   7
ATOM      7  C   UNL     1      12.728   6.630  -0.587  1.00  0.00     0.039 A 
ATOM      8  C   UNL     1      11.654   5.897  -1.098  1.00  0.00     0.014 A 
ATOM      9  C   UNL     1      13.928   6.715  -1.298  1.00  0.00     0.014 A 
ATOM     10  C   UNL     1      11.818   5.150  -2.256  1.00  0.00     0.010 A 
ATOM     11  C   UNL     1      14.060   6.036  -2.511  1.00  0.00     0.010 A 
ATOM     12  C   UNL     1      13.011   5.236  -2.990  1.00  0.00    -0.014 A 
BRANCH  12  13
ATOM     13  C   UNL     1      13.101   4.553  -4.303  1.00  0.00     0.031 A 
ATOM     14  C   UNL     1      14.076   3.438  -4.539  1.00  0.00     0.074 A 
ATOM     15  C   UNL     1      12.271   4.953  -5.286  1.00  0.00     0.049 A 
ATOM     16  N   UNL     1      14.270   2.735  -5.626  1.00  0.00    -0.248 NA
ATOM     17  C   UNL     1      14.953   3.066  -3.418  1.00  0.00     0.031 C 
ATOM     18  C   UNL     1      11.288   6.035  -5.172  1.00  0.00     0.029 A 
ATOM     19  N   UNL     1      12.109   4.492  -6.566  1.00  0.00    -0.354 N 
ATOM     20  C   UNL     1      15.301   1.853  -5.330  1.00  0.00     0.074 A 
ATOM     21  C   UNL     1      15.709   2.125  -3.968  1.00  0.00     0.031 C 
ATOM     22  C   UNL     1      10.598   6.125  -6.316  1.00  0.00     0.029 A 
ATOM     23  C   UNL     1      11.134   5.159  -7.266  1.00  0.00     0.049 A 
ATOM     24  H   UNL     1      12.640   3.755  -6.946  1.00  0.00     0.167 HD
ATOM     25  C   UNL     1      15.853   0.903  -6.123  1.00  0.00     0.031 A 
ATOM     26  C   UNL     1      10.729   5.028  -8.542  1.00  0.00     0.031 A 
ATOM     27  C   UNL     1      15.447   0.647  -7.481  1.00  0.00     0.049 A 
ATOM     28  C   UNL     1      11.387   3.996  -9.408  1.00  0.00     0.074 A 
ATOM     29  C   UNL     1      15.920  -0.317  -8.355  1.00  0.00     0.029 A 
ATOM     30  N   UNL     1      14.479   1.366  -8.167  1.00  0.00    -0.354 N 
ATOM     31  N   UNL     1      12.328   3.138  -9.098  1.00  0.00    -0.248 NA
ATOM     32  C   UNL     1      10.925   3.913 -10.799  1.00  0.00     0.031 C 
ATOM     33  C   UNL     1      15.282  -0.141  -9.588  1.00  0.00     0.029 A 
ATOM     34  C   UNL     1      14.364   0.889  -9.463  1.00  0.00     0.049 A 
ATOM     35  H   UNL     1      13.951   2.106  -7.789  1.00  0.00     0.167 HD
ATOM     36  C   UNL     1      12.560   2.400 -10.249  1.00  0.00     0.074 A 
ATOM     37  C   UNL     1      11.643   2.897 -11.256  1.00  0.00     0.031 C 
ATOM     38  C   UNL     1      13.453   1.402 -10.455  1.00  0.00     0.031 A 
BRANCH  25  39
ATOM     39  C   UNL     1      16.986   0.093  -5.553  1.00  0.00    -0.014 A 
ATOM     40  C   UNL     1      16.772  -0.860  -4.544  1.00  0.00     0.009 A 
ATOM     41  C   UNL     1      18.283   0.257  -6.065  1.00  0.00     0.009 A 
ATOM     42  C   UNL     1      17.840  -1.604  -4.035  1.00  0.00     0.001 A 
ATOM     43  C   UNL     1      19.343  -0.508  -5.575  1.00  0.00     0.001 A 
ATOM     44  C   UNL     1      19.123  -1.431  -4.554  1.00  0.00     0.000 A 
ENDBRANCH  25  39
BRANCH  26  45
ATOM     45  C   UNL     1       9.665   5.918  -9.072  1.00  0.00    -0.014 A 
ATOM     46  C   UNL     1       8.399   5.410  -9.395  1.00  0.00     0.009 A 
ATOM     47  C   UNL     1       9.908   7.292  -9.238  1.00  0.00     0.009 A 
ATOM     48  C   UNL     1       7.405   6.255  -9.893  1.00  0.00     0.001 A 
ATOM     49  C   UNL     1       8.903   8.140  -9.704  1.00  0.00     0.001 A 
ATOM     50  C   UNL     1       7.655   7.619 -10.040  1.00  0.00     0.000 A 
ENDBRANCH  26  45
BRANCH  38  51
ATOM     51  C   UNL     1      13.458   0.764 -11.816  1.00  0.00    -0.014 A 
ATOM     52  C   UNL     1      13.952   1.444 -12.940  1.00  0.00     0.009 A 
ATOM     53  C   UNL     1      12.983  -0.548 -11.968  1.00  0.00     0.009 A 
ATOM     54  C   UNL     1      13.936   0.835 -14.196  1.00  0.00     0.001 A 
ATOM     55  C   UNL     1      12.998  -1.166 -13.219  1.00  0.00     0.001 A 
ATOM     56  C   UNL     1      13.464  -0.470 -14.333  1.00  0.00     0.000 A 
ENDBRANCH  38  51
ENDBRANCH  12  13
ENDBRANCH   5   7
ENDBRANCH   2   3
ENDBRANCH   1   2
BRANCH   1  57
ATOM     57  C   UNL     1      12.018   5.279   4.451  1.00  0.00     0.002 C 
BRANCH  57  58
ATOM     58  C   UNL     1      10.530   5.153   4.808  1.00  0.00     0.002 C 
BRANCH  58  59
ATOM     59  C   UNL     1       9.945   3.746   4.648  1.00  0.00     0.021 C 
BRANCH  59  60
ATOM     60  C   UNL     1      10.689   2.689   5.459  1.00  0.00     0.116 C 
BRANCH  60  61
ATOM     61  N   UNL     1      10.217   2.650   6.825  1.00  0.00    -0.351 N 
ATOM     62  C   UNL     1       9.428   1.798   7.521  1.00  0.00     0.278 C 
ATOM     63  H   UNL     1      10.540   3.406   7.366  1.00  0.00     0.163 HD
ATOM     64  O   UNL     1       9.210   2.122   8.700  1.00  0.00    -0.268 OA
BRANCH  62  65
ATOM     65  C   UNL     1       8.857   0.448   7.008  1.00  0.00     0.272 C 
ATOM     66  C   UNL     1       8.834   0.154   5.511  1.00  0.00     0.076 C 
ATOM     67  N   UNL     1       9.568  -0.633   7.738  1.00  0.00    -0.333 N 
ATOM     68  C   UNL     1       8.220  -1.210   5.210  1.00  0.00     0.016 C 
ATOM     69  C   UNL     1       8.980  -1.954   7.483  1.00  0.00     0.186 C 
ATOM     70  H   UNL     1       9.521  -0.440   8.738  1.00  0.00     0.347 HD
ATOM     71  H   UNL     1      10.533  -0.650   7.409  1.00  0.00     0.347 HD
ATOM     72  C   UNL     1       9.021  -2.269   5.975  1.00  0.00     0.048 C 
ATOM     73  C   UNL     1       9.742  -3.015   8.287  1.00  0.00     0.065 C 
ATOM     74  C   UNL     1       8.525  -3.681   5.668  1.00  0.00     0.010 C 
ATOM     75  C   UNL     1       9.251  -4.426   7.963  1.00  0.00     0.006 C 
ATOM     76  C   UNL     1       9.314  -4.715   6.466  1.00  0.00     0.001 C 
ENDBRANCH  62  65
ENDBRANCH  60  61
ENDBRANCH  59  60
ENDBRANCH  58  59
ENDBRANCH  57  58
ENDBRANCH   1  57
TORSDOF 13
