REMARK SMILES CCCCS[C@@H]1CC[C@@]([NH2+]CC)(C(=O)NCCCCCCNC(=O)c2ccc(-c3c4nc(c(-c5ccccc5)c5ccc([nH]5)c(-c5ccccc5)c5nc(c(-c6ccccc6)c6ccc3[nH]6)C=C5)C=C4)cc2)C1
REMARK SMILES IDX 17 1 16 2 15 3 13 4 14 5 9 7 6 8 7 9 73 10 8 11 5 12 4 13
REMARK SMILES IDX 3 14 2 15 1 16 10 17 11 20 12 21 18 22 19 23 20 24 21 25
REMARK SMILES IDX 22 26 23 27 24 29 25 30 26 31 72 32 27 33 71 34 28 35 29 36
REMARK SMILES IDX 30 37 65 38 31 39 70 40 64 41 66 42 32 43 69 44 63 45 62 46
REMARK SMILES IDX 33 48 55 49 40 50 54 51 41 52 44 53 53 54 67 55 42 56 43 57
REMARK SMILES IDX 52 59 68 60 45 61 34 62 35 63 39 64 36 65 38 66 37 67 56 68
REMARK SMILES IDX 57 69 61 70 58 71 60 72 59 73 46 74 47 75 51 76 48 77 50 78
REMARK SMILES IDX 49 79
REMARK H PARENT 15 6 10 18 10 19 22 28 66 47 44 58
REMARK Flexibility Score: inf
ROOT
ATOM      1  C   UNL     1      -3.268  -3.319  -2.941  1.00  0.00     0.021 C 
ENDROOT
BRANCH   1   2
ATOM      2  C   UNL     1      -2.215  -2.228  -3.108  1.00  0.00     0.116 C 
BRANCH   2   3
ATOM      3  N   UNL     1      -2.812  -0.907  -2.991  1.00  0.00    -0.351 N 
ATOM      4  C   UNL     1      -2.608   0.093  -2.078  1.00  0.00     0.281 C 
ATOM      5  O   UNL     1      -3.347   1.078  -2.143  1.00  0.00    -0.268 OA
ATOM      6  H   UNL     1      -3.475  -0.696  -3.688  1.00  0.00     0.163 HD
BRANCH   4   7
ATOM      7  C   UNL     1      -1.452  -0.018  -1.045  1.00  0.00     0.176 C 
ATOM      8  C   UNL     1      -2.105   0.819   1.180  1.00  0.00     0.053 C 
ATOM      9  C   UNL     1      -2.177  -0.698   1.250  1.00  0.00     0.022 C 
ATOM     10  C   UNL     1      -1.360   1.187  -0.091  1.00  0.00     0.093 C 
ATOM     11  C   UNL     1      -1.739  -1.223  -0.113  1.00  0.00     0.080 C 
BRANCH   8  12
ATOM     12  S   UNL     1      -1.505   1.548   2.759  1.00  0.00    -0.158 SA
BRANCH  12  13
ATOM     13  C   UNL     1       0.325   1.679   2.599  1.00  0.00     0.070 C 
BRANCH  13  14
ATOM     14  C   UNL     1       1.145   0.416   2.892  1.00  0.00     0.011 C 
BRANCH  14  15
ATOM     15  C   UNL     1       1.385  -0.537   1.724  1.00  0.00    -0.003 C 
ATOM     16  C   UNL     1       2.329  -0.012   0.656  1.00  0.00     0.004 C 
ENDBRANCH  14  15
ENDBRANCH  13  14
ENDBRANCH  12  13
ENDBRANCH   8  12
BRANCH   7  17
ATOM     17  N   UNL     1      -0.138  -0.162  -1.747  1.00  0.00    -0.334 N 
ATOM     18  H   UNL     1      -0.099  -1.103  -2.139  1.00  0.00     0.347 HD
ATOM     19  H   UNL     1       0.567   0.035  -1.037  1.00  0.00     0.347 HD
BRANCH  17  20
ATOM     20  C   UNL     1       0.139   0.785  -2.836  1.00  0.00     0.257 C 
ATOM     21  C   UNL     1       0.678   2.137  -2.395  1.00  0.00     0.071 C 
ENDBRANCH  17  20
ENDBRANCH   7  17
ENDBRANCH   4   7
ENDBRANCH   2   3
ENDBRANCH   1   2
BRANCH   1  22
ATOM     22  C   UNL     1      -4.311  -3.339  -4.060  1.00  0.00     0.002 C 
BRANCH  22  23
ATOM     23  C   UNL     1      -3.727  -3.510  -5.465  1.00  0.00     0.002 C 
BRANCH  23  24
ATOM     24  C   UNL     1      -2.853  -4.753  -5.644  1.00  0.00     0.021 C 
BRANCH  24  25
ATOM     25  C   UNL     1      -3.546  -6.062  -5.284  1.00  0.00     0.116 C 
BRANCH  25  26
ATOM     26  N   UNL     1      -4.724  -6.295  -6.102  1.00  0.00    -0.352 N 
ATOM     27  C   UNL     1      -5.054  -7.395  -6.854  1.00  0.00     0.251 C 
ATOM     28  H   UNL     1      -5.379  -5.560  -6.120  1.00  0.00     0.163 HD
ATOM     29  O   UNL     1      -5.983  -7.348  -7.649  1.00  0.00    -0.269 OA
BRANCH  27  30
ATOM     30  C   UNL     1      -4.262  -8.633  -6.710  1.00  0.00     0.039 A 
ATOM     31  C   UNL     1      -3.860  -9.313  -7.861  1.00  0.00     0.014 A 
ATOM     32  C   UNL     1      -3.915  -9.115  -5.445  1.00  0.00     0.014 A 
ATOM     33  C   UNL     1      -3.058 -10.449  -7.744  1.00  0.00     0.010 A 
ATOM     34  C   UNL     1      -3.051 -10.199  -5.333  1.00  0.00     0.010 A 
ATOM     35  C   UNL     1      -2.619 -10.880  -6.481  1.00  0.00    -0.014 A 
BRANCH  35  36
ATOM     36  C   UNL     1      -1.701 -12.038  -6.345  1.00  0.00     0.031 A 
ATOM     37  C   UNL     1      -2.142 -13.276  -5.615  1.00  0.00     0.074 A 
ATOM     38  C   UNL     1      -0.447 -11.948  -6.827  1.00  0.00     0.049 A 
ATOM     39  N   UNL     1      -1.467 -14.369  -5.364  1.00  0.00    -0.248 NA
ATOM     40  C   UNL     1      -3.510 -13.276  -5.073  1.00  0.00     0.031 C 
ATOM     41  C   UNL     1       0.117 -10.784  -7.514  1.00  0.00     0.029 A 
ATOM     42  N   UNL     1       0.585 -12.854  -6.807  1.00  0.00    -0.354 N 
ATOM     43  C   UNL     1      -2.320 -15.176  -4.623  1.00  0.00     0.074 A 
ATOM     44  C   UNL     1      -3.541 -14.427  -4.419  1.00  0.00     0.031 C 
ATOM     45  C   UNL     1       1.380 -11.057  -7.876  1.00  0.00     0.029 A 
ATOM     46  C   UNL     1       1.731 -12.394  -7.408  1.00  0.00     0.049 A 
ATOM     47  H   UNL     1       0.510 -13.747  -6.401  1.00  0.00     0.167 HD
ATOM     48  C   UNL     1      -2.113 -16.435  -4.167  1.00  0.00     0.031 A 
ATOM     49  C   UNL     1       2.935 -12.978  -7.559  1.00  0.00     0.031 A 
ATOM     50  C   UNL     1      -0.899 -17.178  -4.373  1.00  0.00     0.049 A 
ATOM     51  C   UNL     1       3.145 -14.369  -7.032  1.00  0.00     0.074 A 
ATOM     52  C   UNL     1      -0.615 -18.483  -4.008  1.00  0.00     0.029 A 
ATOM     53  N   UNL     1       0.238 -16.679  -4.990  1.00  0.00    -0.354 N 
ATOM     54  N   UNL     1       2.301 -15.152  -6.404  1.00  0.00    -0.248 NA
ATOM     55  C   UNL     1       4.473 -14.963  -7.245  1.00  0.00     0.031 C 
ATOM     56  C   UNL     1       0.716 -18.750  -4.344  1.00  0.00     0.029 A 
ATOM     57  C   UNL     1       1.238 -17.637  -4.983  1.00  0.00     0.049 A 
ATOM     58  H   UNL     1       0.322 -15.777  -5.376  1.00  0.00     0.167 HD
ATOM     59  C   UNL     1       2.984 -16.338  -6.172  1.00  0.00     0.074 A 
ATOM     60  C   UNL     1       4.306 -16.178  -6.742  1.00  0.00     0.031 C 
ATOM     61  C   UNL     1       2.554 -17.461  -5.545  1.00  0.00     0.031 A 
BRANCH  48  62
ATOM     62  C   UNL     1      -3.223 -17.078  -3.379  1.00  0.00    -0.014 A 
ATOM     63  C   UNL     1      -4.441 -17.434  -3.982  1.00  0.00     0.009 A 
ATOM     64  C   UNL     1      -3.037 -17.356  -2.015  1.00  0.00     0.009 A 
ATOM     65  C   UNL     1      -5.463 -18.013  -3.226  1.00  0.00     0.001 A 
ATOM     66  C   UNL     1      -4.047 -17.966  -1.270  1.00  0.00     0.001 A 
ATOM     67  C   UNL     1      -5.263 -18.283  -1.873  1.00  0.00     0.000 A 
ENDBRANCH  48  62
BRANCH  49  68
ATOM     68  C   UNL     1       4.031 -12.247  -8.247  1.00  0.00    -0.014 A 
ATOM     69  C   UNL     1       4.477 -12.654  -9.514  1.00  0.00     0.009 A 
ATOM     70  C   UNL     1       4.630 -11.130  -7.644  1.00  0.00     0.009 A 
ATOM     71  C   UNL     1       5.517 -11.972 -10.150  1.00  0.00     0.001 A 
ATOM     72  C   UNL     1       5.648 -10.431  -8.297  1.00  0.00     0.001 A 
ATOM     73  C   UNL     1       6.097 -10.858  -9.545  1.00  0.00     0.000 A 
ENDBRANCH  49  68
BRANCH  61  74
ATOM     74  C   UNL     1       3.512 -18.618  -5.469  1.00  0.00    -0.014 A 
ATOM     75  C   UNL     1       4.647 -18.578  -4.645  1.00  0.00     0.009 A 
ATOM     76  C   UNL     1       3.248 -19.785  -6.205  1.00  0.00     0.009 A 
ATOM     77  C   UNL     1       5.517 -19.668  -4.587  1.00  0.00     0.001 A 
ATOM     78  C   UNL     1       4.101 -20.886  -6.120  1.00  0.00     0.001 A 
ATOM     79  C   UNL     1       5.240 -20.823  -5.319  1.00  0.00     0.000 A 
ENDBRANCH  61  74
ENDBRANCH  35  36
ENDBRANCH  27  30
ENDBRANCH  25  26
ENDBRANCH  24  25
ENDBRANCH  23  24
ENDBRANCH  22  23
ENDBRANCH   1  22
TORSDOF 19
