REMARK SMILES CC(C)[NH2+][C@@]1(C(=O)NCCCCCCNC(=O)c2ccc(-c3c4nc(c(-c5ccccc5)c5ccc([nH]5)c(-c5ccccc5)c5nc(c(-c6ccccc6)c6ccc3[nH]6)C=C5)C=C4)cc2)CC[C@@H](Sc2ccncc2)C1
REMARK SMILES IDX 11 1 10 2 9 3 8 4 6 5 7 6 5 8 66 9 76 10 67 11 68 12 4 13
REMARK SMILES IDX 2 16 1 17 3 18 69 19 70 20 71 21 75 22 72 23 74 24 73 25
REMARK SMILES IDX 12 26 13 27 14 28 15 29 16 30 17 32 18 33 19 34 65 35 20 36
REMARK SMILES IDX 64 37 21 38 22 39 23 40 58 41 24 42 63 43 57 44 59 45 25 46
REMARK SMILES IDX 62 47 56 48 55 49 26 51 48 52 33 53 47 54 34 55 37 56 46 57
REMARK SMILES IDX 60 58 35 59 36 60 45 62 61 63 38 64 27 65 28 66 32 67 29 68
REMARK SMILES IDX 31 69 30 70 49 71 50 72 54 73 51 74 53 75 52 76 39 77 40 78
REMARK SMILES IDX 44 79 41 80 43 81 42 82
REMARK H PARENT 8 7 4 14 4 15 15 31 59 50 37 61
REMARK Flexibility Score: inf
ROOT
ATOM      1  C   UNL     1      -5.634  -4.170  -4.476  1.00  0.00     0.002 C 
ENDROOT
BRANCH   1   2
ATOM      2  C   UNL     1      -4.199  -4.207  -3.944  1.00  0.00     0.021 C 
BRANCH   2   3
ATOM      3  C   UNL     1      -3.408  -2.944  -4.278  1.00  0.00     0.116 C 
BRANCH   3   4
ATOM      4  N   UNL     1      -3.552  -1.963  -3.234  1.00  0.00    -0.351 N 
ATOM      5  C   UNL     1      -2.721  -1.507  -2.266  1.00  0.00     0.281 C 
ATOM      6  O   UNL     1      -3.278  -0.781  -1.427  1.00  0.00    -0.268 OA
ATOM      7  H   UNL     1      -4.439  -1.534  -3.220  1.00  0.00     0.163 HD
BRANCH   5   8
ATOM      8  C   UNL     1      -1.173  -1.874  -2.134  1.00  0.00     0.176 C 
ATOM      9  C   UNL     1      -0.435  -1.771  -3.481  1.00  0.00     0.080 C 
ATOM     10  C   UNL     1      -1.006  -3.335  -1.647  1.00  0.00     0.094 C 
ATOM     11  C   UNL     1       0.113  -3.161  -3.822  1.00  0.00     0.022 C 
ATOM     12  C   UNL     1      -0.527  -4.148  -2.850  1.00  0.00     0.058 C 
BRANCH   8  13
ATOM     13  N   UNL     1      -0.699  -0.914  -1.115  1.00  0.00    -0.332 N 
ATOM     14  H   UNL     1      -1.218  -0.054  -1.292  1.00  0.00     0.347 HD
ATOM     15  H   UNL     1      -0.836  -1.470  -0.271  1.00  0.00     0.347 HD
BRANCH  13  16
ATOM     16  C   UNL     1       0.676  -0.498  -0.922  1.00  0.00     0.176 C 
ATOM     17  C   UNL     1       0.711   0.510   0.233  1.00  0.00     0.075 C 
ATOM     18  C   UNL     1       1.631  -1.635  -0.611  1.00  0.00     0.075 C 
ENDBRANCH  13  16
ENDBRANCH   8  13
BRANCH  12  19
ATOM     19  S   UNL     1       0.418  -5.683  -2.463  1.00  0.00    -0.122 SA
BRANCH  19  20
ATOM     20  C   UNL     1       2.077  -5.101  -2.180  1.00  0.00     0.011 A 
ATOM     21  C   UNL     1       2.514  -4.816  -0.890  1.00  0.00     0.035 A 
ATOM     22  C   UNL     1       2.972  -4.965  -3.241  1.00  0.00     0.035 A 
ATOM     23  C   UNL     1       3.800  -4.326  -0.726  1.00  0.00     0.112 A 
ATOM     24  C   UNL     1       4.237  -4.467  -2.977  1.00  0.00     0.112 A 
ATOM     25  N   UNL     1       4.665  -4.130  -1.743  1.00  0.00    -0.265 NA
ENDBRANCH  19  20
ENDBRANCH  12  19
ENDBRANCH   5   8
ENDBRANCH   3   4
ENDBRANCH   2   3
ENDBRANCH   1   2
BRANCH   1  26
ATOM     26  C   UNL     1      -5.743  -4.017  -5.999  1.00  0.00     0.002 C 
BRANCH  26  27
ATOM     27  C   UNL     1      -4.946  -5.044  -6.809  1.00  0.00     0.021 C 
BRANCH  27  28
ATOM     28  C   UNL     1      -5.344  -6.493  -6.542  1.00  0.00     0.116 C 
BRANCH  28  29
ATOM     29  N   UNL     1      -6.752  -6.721  -6.833  1.00  0.00    -0.352 N 
ATOM     30  C   UNL     1      -7.329  -7.542  -7.763  1.00  0.00     0.251 C 
ATOM     31  H   UNL     1      -7.383  -6.208  -6.277  1.00  0.00     0.163 HD
ATOM     32  O   UNL     1      -8.520  -7.409  -8.051  1.00  0.00    -0.269 OA
BRANCH  30  33
ATOM     33  C   UNL     1      -6.524  -8.582  -8.428  1.00  0.00     0.039 A 
ATOM     34  C   UNL     1      -6.661  -8.767  -9.806  1.00  0.00     0.014 A 
ATOM     35  C   UNL     1      -5.646  -9.382  -7.691  1.00  0.00     0.014 A 
ATOM     36  C   UNL     1      -5.866  -9.712 -10.456  1.00  0.00     0.010 A 
ATOM     37  C   UNL     1      -4.804 -10.272  -8.350  1.00  0.00     0.010 A 
ATOM     38  C   UNL     1      -4.904 -10.442  -9.739  1.00  0.00    -0.014 A 
BRANCH  38  39
ATOM     39  C   UNL     1      -3.962 -11.352 -10.434  1.00  0.00     0.031 A 
ATOM     40  C   UNL     1      -3.977 -12.827 -10.156  1.00  0.00     0.074 A 
ATOM     41  C   UNL     1      -3.033 -10.827 -11.256  1.00  0.00     0.049 A 
ATOM     42  N   UNL     1      -3.192 -13.761 -10.631  1.00  0.00    -0.248 NA
ATOM     43  C   UNL     1      -4.985 -13.313  -9.202  1.00  0.00     0.031 C 
ATOM     44  C   UNL     1      -2.882  -9.402 -11.561  1.00  0.00     0.029 A 
ATOM     45  N   UNL     1      -2.031 -11.429 -11.973  1.00  0.00    -0.354 N 
ATOM     46  C   UNL     1      -3.599 -14.941 -10.021  1.00  0.00     0.074 A 
ATOM     47  C   UNL     1      -4.669 -14.596  -9.109  1.00  0.00     0.031 C 
ATOM     48  C   UNL     1      -1.860  -9.243 -12.415  1.00  0.00     0.029 A 
ATOM     49  C   UNL     1      -1.257 -10.544 -12.682  1.00  0.00     0.049 A 
ATOM     50  H   UNL     1      -1.881 -12.402 -11.978  1.00  0.00     0.167 HD
ATOM     51  C   UNL     1      -3.131 -16.197 -10.211  1.00  0.00     0.031 A 
ATOM     52  C   UNL     1      -0.171 -10.751 -13.449  1.00  0.00     0.031 A 
ATOM     53  C   UNL     1      -2.063 -16.533 -11.116  1.00  0.00     0.049 A 
ATOM     54  C   UNL     1       0.338 -12.150 -13.639  1.00  0.00     0.074 A 
ATOM     55  C   UNL     1      -1.570 -17.784 -11.442  1.00  0.00     0.029 A 
ATOM     56  N   UNL     1      -1.310 -15.610 -11.826  1.00  0.00    -0.354 N 
ATOM     57  N   UNL     1      -0.122 -13.269 -13.133  1.00  0.00    -0.248 NA
ATOM     58  C   UNL     1       1.508 -12.317 -14.511  1.00  0.00     0.031 C 
ATOM     59  C   UNL     1      -0.473 -17.614 -12.293  1.00  0.00     0.029 A 
ATOM     60  C   UNL     1      -0.325 -16.260 -12.552  1.00  0.00     0.049 A 
ATOM     61  H   UNL     1      -1.453 -14.636 -11.816  1.00  0.00     0.167 HD
ATOM     62  C   UNL     1       0.694 -14.275 -13.633  1.00  0.00     0.074 A 
ATOM     63  C   UNL     1       1.661 -13.634 -14.502  1.00  0.00     0.031 C 
ATOM     64  C   UNL     1       0.647 -15.608 -13.393  1.00  0.00     0.031 A 
BRANCH  51  65
ATOM     65  C   UNL     1      -3.756 -17.299  -9.398  1.00  0.00    -0.014 A 
ATOM     66  C   UNL     1      -5.084 -17.703  -9.605  1.00  0.00     0.009 A 
ATOM     67  C   UNL     1      -2.994 -17.958  -8.420  1.00  0.00     0.009 A 
ATOM     68  C   UNL     1      -5.650 -18.710  -8.819  1.00  0.00     0.001 A 
ATOM     69  C   UNL     1      -3.551 -18.986  -7.658  1.00  0.00     0.001 A 
ATOM     70  C   UNL     1      -4.882 -19.353  -7.849  1.00  0.00     0.000 A 
ENDBRANCH  51  65
BRANCH  52  71
ATOM     71  C   UNL     1       0.505  -9.591 -14.086  1.00  0.00    -0.014 A 
ATOM     72  C   UNL     1       0.418  -9.382 -15.470  1.00  0.00     0.009 A 
ATOM     73  C   UNL     1       1.215  -8.666 -13.303  1.00  0.00     0.009 A 
ATOM     74  C   UNL     1       1.039  -8.278 -16.058  1.00  0.00     0.001 A 
ATOM     75  C   UNL     1       1.809  -7.548 -13.889  1.00  0.00     0.001 A 
ATOM     76  C   UNL     1       1.727  -7.358 -15.267  1.00  0.00     0.000 A 
ENDBRANCH  52  71
BRANCH  64  77
ATOM     77  C   UNL     1       1.671 -16.466 -14.084  1.00  0.00    -0.014 A 
ATOM     78  C   UNL     1       3.021 -16.438 -13.699  1.00  0.00     0.009 A 
ATOM     79  C   UNL     1       1.273 -17.344 -15.104  1.00  0.00     0.009 A 
ATOM     80  C   UNL     1       3.956 -17.249 -14.345  1.00  0.00     0.001 A 
ATOM     81  C   UNL     1       2.205 -18.177 -15.726  1.00  0.00     0.001 A 
ATOM     82  C   UNL     1       3.546 -18.122 -15.352  1.00  0.00     0.000 A 
ENDBRANCH  64  77
ENDBRANCH  38  39
ENDBRANCH  30  33
ENDBRANCH  28  29
ENDBRANCH  27  28
ENDBRANCH  26  27
ENDBRANCH   1  26
TORSDOF 17
