REMARK SMILES C[C@@H]1[NH2+]CC[C@H]1C(=O)N[C@@H]1CCC[C@H](C(=O)NCCCCCCNC(=O)c2ccc(-c3c4nc(c(-c5ccccc5)c5ccc([nH]5)c(-c5ccccc5)c5nc(c(-c6ccccc6)c6ccc3[nH]6)C=C5)C=C4)cc2)C1
REMARK SMILES IDX 20 1 19 2 18 3 17 4 15 5 16 6 14 8 10 9 11 10 75 11 12 12
REMARK SMILES IDX 13 13 9 14 7 15 8 16 6 18 1 19 2 20 3 21 4 22 5 25 21 26
REMARK SMILES IDX 22 27 23 28 24 29 25 30 26 32 27 33 28 34 74 35 29 36 73 37
REMARK SMILES IDX 30 38 31 39 32 40 67 41 33 42 72 43 66 44 68 45 34 46 71 47
REMARK SMILES IDX 65 48 64 49 35 51 57 52 42 53 56 54 43 55 46 56 55 57 69 58
REMARK SMILES IDX 44 59 45 60 54 62 70 63 47 64 36 65 37 66 41 67 38 68 40 69
REMARK SMILES IDX 39 70 58 71 59 72 63 73 60 74 62 75 61 76 48 77 49 78 53 79
REMARK SMILES IDX 50 80 52 81 51 82
REMARK H PARENT 17 7 9 17 3 23 3 24 24 31 68 50 46 61
REMARK Flexibility Score: inf
ROOT
ATOM      1  C   UNL     1       3.789  -4.227   1.659  1.00  0.00     0.002 C 
ENDROOT
BRANCH   1   2
ATOM      2  C   UNL     1       2.953  -3.521   2.731  1.00  0.00     0.021 C 
BRANCH   2   3
ATOM      3  C   UNL     1       1.884  -2.595   2.166  1.00  0.00     0.116 C 
BRANCH   3   4
ATOM      4  N   UNL     1       0.758  -3.349   1.635  1.00  0.00    -0.356 N 
ATOM      5  C   UNL     1      -0.578  -3.282   1.892  1.00  0.00     0.223 C 
ATOM      6  O   UNL     1      -1.312  -4.082   1.308  1.00  0.00    -0.275 OA
ATOM      7  H   UNL     1       1.008  -4.031   0.971  1.00  0.00     0.163 HD
BRANCH   5   8
ATOM      8  C   UNL     1      -1.177  -2.207   2.796  1.00  0.00     0.080 C 
ATOM      9  C   UNL     1      -1.143   0.397   3.006  1.00  0.00     0.082 C 
ATOM     10  C   UNL     1      -0.698   0.167   4.464  1.00  0.00     0.025 C 
ATOM     11  C   UNL     1      -0.885  -0.843   2.177  1.00  0.00     0.038 C 
ATOM     12  C   UNL     1      -1.236  -1.128   5.064  1.00  0.00     0.003 C 
ATOM     13  C   UNL     1      -0.794  -2.347   4.264  1.00  0.00     0.013 C 
BRANCH   9  14
ATOM     14  N   UNL     1      -0.453   1.612   2.509  1.00  0.00    -0.353 N 
ATOM     15  C   UNL     1      -0.080   2.186   1.339  1.00  0.00     0.229 C 
ATOM     16  O   UNL     1       0.378   3.332   1.458  1.00  0.00    -0.275 OA
ATOM     17  H   UNL     1      -0.181   2.180   3.265  1.00  0.00     0.163 HD
BRANCH  15  18
ATOM     18  C   UNL     1      -0.102   1.569  -0.058  1.00  0.00     0.142 C 
ATOM     19  C   UNL     1       2.127   0.890  -1.105  1.00  0.00     0.076 C 
ATOM     20  C   UNL     1       0.922   0.458  -0.271  1.00  0.00     0.192 C 
ATOM     21  N   UNL     1       0.251  -0.642  -0.974  1.00  0.00    -0.343 N 
ATOM     22  C   UNL     1      -1.126  -0.249  -1.275  1.00  0.00     0.261 C 
ATOM     23  H   UNL     1       0.248  -1.473  -0.384  1.00  0.00     0.346 HD
ATOM     24  H   UNL     1       0.747  -0.847  -1.842  1.00  0.00     0.346 HD
ATOM     25  C   UNL     1      -1.437   1.045  -0.541  1.00  0.00     0.081 C 
ENDBRANCH  15  18
ENDBRANCH   9  14
ENDBRANCH   5   8
ENDBRANCH   3   4
ENDBRANCH   2   3
ENDBRANCH   1   2
BRANCH   1  26
ATOM     26  C   UNL     1       4.603  -3.301   0.746  1.00  0.00     0.002 C 
BRANCH  26  27
ATOM     27  C   UNL     1       5.513  -2.299   1.461  1.00  0.00     0.021 C 
BRANCH  27  28
ATOM     28  C   UNL     1       6.483  -2.907   2.469  1.00  0.00     0.116 C 
BRANCH  28  29
ATOM     29  N   UNL     1       7.400  -3.856   1.862  1.00  0.00    -0.352 N 
ATOM     30  C   UNL     1       8.743  -4.018   2.070  1.00  0.00     0.251 C 
ATOM     31  H   UNL     1       6.998  -4.470   1.206  1.00  0.00     0.163 HD
ATOM     32  O   UNL     1       9.383  -4.793   1.354  1.00  0.00    -0.269 OA
BRANCH  30  33
ATOM     33  C   UNL     1       9.442  -3.262   3.130  1.00  0.00     0.039 A 
ATOM     34  C   UNL     1      10.710  -2.740   2.855  1.00  0.00     0.014 A 
ATOM     35  C   UNL     1       8.883  -3.100   4.402  1.00  0.00     0.014 A 
ATOM     36  C   UNL     1      11.404  -2.038   3.842  1.00  0.00     0.010 A 
ATOM     37  C   UNL     1       9.545  -2.337   5.362  1.00  0.00     0.010 A 
ATOM     38  C   UNL     1      10.822  -1.819   5.100  1.00  0.00    -0.014 A 
BRANCH  38  39
ATOM     39  C   UNL     1      11.562  -1.095   6.165  1.00  0.00     0.031 A 
ATOM     40  C   UNL     1      11.981  -1.818   7.417  1.00  0.00     0.074 A 
ATOM     41  C   UNL     1      11.833   0.216   6.021  1.00  0.00     0.049 A 
ATOM     42  N   UNL     1      12.630  -1.359   8.458  1.00  0.00    -0.248 NA
ATOM     43  C   UNL     1      11.601  -3.236   7.525  1.00  0.00     0.031 C 
ATOM     44  C   UNL     1      11.449   1.042   4.875  1.00  0.00     0.029 A 
ATOM     45  N   UNL     1      12.501   1.084   6.848  1.00  0.00    -0.354 N 
ATOM     46  C   UNL     1      12.716  -2.423   9.348  1.00  0.00     0.074 A 
ATOM     47  C   UNL     1      12.010  -3.534   8.749  1.00  0.00     0.031 C 
ATOM     48  C   UNL     1      11.919   2.288   5.055  1.00  0.00     0.029 A 
ATOM     49  C   UNL     1      12.608   2.356   6.340  1.00  0.00     0.049 A 
ATOM     50  H   UNL     1      12.870   0.820   7.722  1.00  0.00     0.167 HD
ATOM     51  C   UNL     1      13.345  -2.481  10.546  1.00  0.00     0.031 A 
ATOM     52  C   UNL     1      13.201   3.452   6.849  1.00  0.00     0.031 A 
ATOM     53  C   UNL     1      14.066  -1.384  11.134  1.00  0.00     0.049 A 
ATOM     54  C   UNL     1      13.902   3.360   8.176  1.00  0.00     0.074 A 
ATOM     55  C   UNL     1      14.785  -1.359  12.317  1.00  0.00     0.029 A 
ATOM     56  N   UNL     1      14.161  -0.117  10.581  1.00  0.00    -0.354 N 
ATOM     57  N   UNL     1      14.033   2.327   8.973  1.00  0.00    -0.248 NA
ATOM     58  C   UNL     1      14.555   4.583   8.663  1.00  0.00     0.031 C 
ATOM     59  C   UNL     1      15.279  -0.063  12.500  1.00  0.00     0.029 A 
ATOM     60  C   UNL     1      14.913   0.703  11.405  1.00  0.00     0.049 A 
ATOM     61  H   UNL     1      13.754   0.159   9.728  1.00  0.00     0.167 HD
ATOM     62  C   UNL     1      14.812   2.766  10.036  1.00  0.00     0.074 A 
ATOM     63  C   UNL     1      15.134   4.154   9.775  1.00  0.00     0.031 C 
ATOM     64  C   UNL     1      15.228   2.080  11.129  1.00  0.00     0.031 A 
BRANCH  51  65
ATOM     65  C   UNL     1      13.274  -3.779  11.302  1.00  0.00    -0.014 A 
ATOM     66  C   UNL     1      13.956  -4.922  10.854  1.00  0.00     0.009 A 
ATOM     67  C   UNL     1      12.535  -3.854  12.493  1.00  0.00     0.009 A 
ATOM     68  C   UNL     1      13.865  -6.123  11.560  1.00  0.00     0.001 A 
ATOM     69  C   UNL     1      12.470  -5.048  13.213  1.00  0.00     0.001 A 
ATOM     70  C   UNL     1      13.126  -6.184  12.741  1.00  0.00     0.000 A 
ENDBRANCH  51  65
BRANCH  52  71
ATOM     71  C   UNL     1      13.192   4.727   6.086  1.00  0.00    -0.014 A 
ATOM     72  C   UNL     1      14.372   5.212   5.501  1.00  0.00     0.009 A 
ATOM     73  C   UNL     1      12.010   5.470   5.947  1.00  0.00     0.009 A 
ATOM     74  C   UNL     1      14.374   6.431   4.818  1.00  0.00     0.001 A 
ATOM     75  C   UNL     1      12.009   6.674   5.239  1.00  0.00     0.001 A 
ATOM     76  C   UNL     1      13.193   7.158   4.685  1.00  0.00     0.000 A 
ENDBRANCH  52  71
BRANCH  64  77
ATOM     77  C   UNL     1      16.116   2.808  12.099  1.00  0.00    -0.014 A 
ATOM     78  C   UNL     1      15.615   3.819  12.933  1.00  0.00     0.009 A 
ATOM     79  C   UNL     1      17.470   2.452  12.197  1.00  0.00     0.009 A 
ATOM     80  C   UNL     1      16.464   4.487  13.819  1.00  0.00     0.001 A 
ATOM     81  C   UNL     1      18.309   3.100  13.104  1.00  0.00     0.001 A 
ATOM     82  C   UNL     1      17.808   4.124  13.906  1.00  0.00     0.000 A 
ENDBRANCH  64  77
ENDBRANCH  38  39
ENDBRANCH  30  33
ENDBRANCH  28  29
ENDBRANCH  27  28
ENDBRANCH  26  27
ENDBRANCH   1  26
TORSDOF 15
