REMARK SMILES C[C@H](C(=O)NCCCCCCNC(=O)c1ccc(-c2c3nc(c(-c4ccccc4)c4ccc([nH]4)c(-c4ccccc4)c4nc(c(-c5ccccc5)c5ccc2[nH]5)C=C4)C=C3)cc1)[C@H](C)[NH+]1CCN(c2ccccc2Cl)CC1
REMARK SMILES IDX 8 1 7 2 6 3 5 4 3 5 4 6 2 8 1 9 63 10 64 11 65 12 66 13
REMARK SMILES IDX 77 14 67 16 76 17 68 18 69 19 70 20 74 21 71 22 73 23 75 24
REMARK SMILES IDX 72 25 9 26 10 27 11 28 12 29 13 30 14 32 15 33 16 34 62 35
REMARK SMILES IDX 17 36 61 37 18 38 19 39 20 40 55 41 21 42 60 43 54 44 56 45
REMARK SMILES IDX 22 46 59 47 53 48 52 49 23 51 45 52 30 53 44 54 31 55 34 56
REMARK SMILES IDX 43 57 57 58 32 59 33 60 42 62 58 63 35 64 24 65 25 66 29 67
REMARK SMILES IDX 26 68 28 69 27 70 46 71 47 72 51 73 48 74 50 75 49 76 36 77
REMARK SMILES IDX 37 78 41 79 38 80 40 81 39 82
REMARK H PARENT 5 7 65 15 12 31 56 50 34 61
REMARK Flexibility Score: inf
ROOT
ATOM      1  C   UNL     1      -0.822   5.203   1.843  1.00  0.00     0.002 C 
ENDROOT
BRANCH   1   2
ATOM      2  C   UNL     1      -0.893   4.696   0.397  1.00  0.00     0.021 C 
BRANCH   2   3
ATOM      3  C   UNL     1       0.030   3.511   0.127  1.00  0.00     0.116 C 
BRANCH   3   4
ATOM      4  N   UNL     1      -0.475   2.320   0.765  1.00  0.00    -0.356 N 
ATOM      5  C   UNL     1      -1.196   1.269   0.329  1.00  0.00     0.228 C 
ATOM      6  O   UNL     1      -1.598   0.506   1.220  1.00  0.00    -0.275 OA
ATOM      7  H   UNL     1      -0.243   2.263   1.720  1.00  0.00     0.163 HD
BRANCH   5   8
ATOM      8  C   UNL     1      -1.542   0.962  -1.134  1.00  0.00     0.133 C 
ATOM      9  C   UNL     1      -1.071   1.870  -2.264  1.00  0.00     0.024 C 
BRANCH   8  10
ATOM     10  C   UNL     1      -1.143  -0.531  -1.386  1.00  0.00     0.193 C 
ATOM     11  C   UNL     1       0.396  -0.692  -1.313  1.00  0.00     0.076 C 
BRANCH  10  12
ATOM     12  N   UNL     1      -1.644  -1.107  -2.664  1.00  0.00    -0.329 N 
ATOM     13  C   UNL     1      -1.484  -2.593  -2.696  1.00  0.00     0.284 C 
ATOM     14  C   UNL     1      -3.083  -0.827  -2.928  1.00  0.00     0.284 C 
ATOM     15  H   UNL     1      -1.077  -0.653  -3.380  1.00  0.00     0.348 HD
ATOM     16  C   UNL     1      -2.441  -3.397  -1.773  1.00  0.00     0.178 C 
ATOM     17  C   UNL     1      -4.060  -1.517  -1.953  1.00  0.00     0.178 C 
ATOM     18  N   UNL     1      -3.825  -2.960  -1.981  1.00  0.00    -0.359 N 
BRANCH  18  19
ATOM     19  C   UNL     1      -4.848  -3.873  -2.146  1.00  0.00     0.056 A 
ATOM     20  C   UNL     1      -4.979  -4.923  -1.220  1.00  0.00     0.027 A 
ATOM     21  C   UNL     1      -5.772  -3.845  -3.215  1.00  0.00     0.064 A 
ATOM     22  C   UNL     1      -5.974  -5.897  -1.342  1.00  0.00     0.002 A 
ATOM     23  C   UNL     1      -6.769  -4.822  -3.338  1.00  0.00     0.023 A 
ATOM     24  Cl  UNL     1      -5.691  -2.686  -4.502  1.00  0.00    -0.082 Cl
ATOM     25  C   UNL     1      -6.869  -5.848  -2.404  1.00  0.00     0.002 A 
ENDBRANCH  18  19
ENDBRANCH  10  12
ENDBRANCH   8  10
ENDBRANCH   5   8
ENDBRANCH   3   4
ENDBRANCH   2   3
ENDBRANCH   1   2
BRANCH   1  26
ATOM     26  C   UNL     1       0.592   5.523   2.344  1.00  0.00     0.002 C 
BRANCH  26  27
ATOM     27  C   UNL     1       1.414   6.422   1.416  1.00  0.00     0.021 C 
BRANCH  27  28
ATOM     28  C   UNL     1       0.784   7.783   1.157  1.00  0.00     0.116 C 
BRANCH  28  29
ATOM     29  N   UNL     1       0.714   8.575   2.373  1.00  0.00    -0.352 N 
ATOM     30  C   UNL     1       1.234   9.819   2.619  1.00  0.00     0.251 C 
ATOM     31  H   UNL     1       0.226   8.162   3.121  1.00  0.00     0.163 HD
ATOM     32  O   UNL     1       1.302  10.248   3.765  1.00  0.00    -0.269 OA
BRANCH  30  33
ATOM     33  C   UNL     1       1.721  10.638   1.491  1.00  0.00     0.039 A 
ATOM     34  C   UNL     1       2.933  11.319   1.621  1.00  0.00     0.014 A 
ATOM     35  C   UNL     1       0.974  10.741   0.314  1.00  0.00     0.014 A 
ATOM     36  C   UNL     1       3.415  12.076   0.553  1.00  0.00     0.010 A 
ATOM     37  C   UNL     1       1.492  11.431  -0.775  1.00  0.00     0.010 A 
ATOM     38  C   UNL     1       2.708  12.120  -0.660  1.00  0.00    -0.014 A 
BRANCH  38  39
ATOM     39  C   UNL     1       3.210  12.905  -1.813  1.00  0.00     0.031 A 
ATOM     40  C   UNL     1       2.426  14.085  -2.316  1.00  0.00     0.074 A 
ATOM     41  C   UNL     1       4.336  12.522  -2.443  1.00  0.00     0.049 A 
ATOM     42  N   UNL     1       2.673  14.868  -3.336  1.00  0.00    -0.248 NA
ATOM     43  C   UNL     1       1.185  14.411  -1.595  1.00  0.00     0.031 C 
ATOM     44  C   UNL     1       5.167  11.375  -2.072  1.00  0.00     0.029 A 
ATOM     45  N   UNL     1       4.975  13.059  -3.531  1.00  0.00    -0.354 N 
ATOM     46  C   UNL     1       1.611  15.762  -3.389  1.00  0.00     0.074 A 
ATOM     47  C   UNL     1       0.692  15.391  -2.336  1.00  0.00     0.031 C 
ATOM     48  C   UNL     1       6.224  11.316  -2.898  1.00  0.00     0.029 A 
ATOM     49  C   UNL     1       6.124  12.392  -3.878  1.00  0.00     0.049 A 
ATOM     50  H   UNL     1       4.641  13.848  -4.018  1.00  0.00     0.167 HD
ATOM     51  C   UNL     1       1.426  16.811  -4.226  1.00  0.00     0.031 A 
ATOM     52  C   UNL     1       6.998  12.623  -4.875  1.00  0.00     0.031 A 
ATOM     53  C   UNL     1       2.346  17.182  -5.268  1.00  0.00     0.049 A 
ATOM     54  C   UNL     1       6.764  13.781  -5.803  1.00  0.00     0.074 A 
ATOM     55  C   UNL     1       2.282  18.260  -6.132  1.00  0.00     0.029 A 
ATOM     56  N   UNL     1       3.497  16.478  -5.590  1.00  0.00    -0.354 N 
ATOM     57  N   UNL     1       5.791  14.660  -5.799  1.00  0.00    -0.248 NA
ATOM     58  C   UNL     1       7.757  13.984  -6.867  1.00  0.00     0.031 C 
ATOM     59  C   UNL     1       3.365  18.177  -7.014  1.00  0.00     0.029 A 
ATOM     60  C   UNL     1       4.137  17.082  -6.658  1.00  0.00     0.049 A 
ATOM     61  H   UNL     1       3.812  15.668  -5.127  1.00  0.00     0.167 HD
ATOM     62  C   UNL     1       6.070  15.539  -6.838  1.00  0.00     0.074 A 
ATOM     63  C   UNL     1       7.310  15.092  -7.442  1.00  0.00     0.031 C 
ATOM     64  C   UNL     1       5.367  16.621  -7.251  1.00  0.00     0.031 A 
BRANCH  51  65
ATOM     65  C   UNL     1       0.167  17.615  -4.051  1.00  0.00    -0.014 A 
ATOM     66  C   UNL     1      -0.045  18.407  -2.910  1.00  0.00     0.009 A 
ATOM     67  C   UNL     1      -0.824  17.583  -5.045  1.00  0.00     0.009 A 
ATOM     68  C   UNL     1      -1.242  19.107  -2.744  1.00  0.00     0.001 A 
ATOM     69  C   UNL     1      -2.006  18.311  -4.893  1.00  0.00     0.001 A 
ATOM     70  C   UNL     1      -2.220  19.061  -3.737  1.00  0.00     0.000 A 
ENDBRANCH  51  65
BRANCH  52  71
ATOM     71  C   UNL     1       8.195  11.755  -5.023  1.00  0.00    -0.014 A 
ATOM     72  C   UNL     1       9.470  12.248  -4.706  1.00  0.00     0.009 A 
ATOM     73  C   UNL     1       8.070  10.429  -5.464  1.00  0.00     0.009 A 
ATOM     74  C   UNL     1      10.598  11.437  -4.848  1.00  0.00     0.001 A 
ATOM     75  C   UNL     1       9.197   9.612  -5.579  1.00  0.00     0.001 A 
ATOM     76  C   UNL     1      10.460  10.118  -5.278  1.00  0.00     0.000 A 
ENDBRANCH  52  71
BRANCH  64  77
ATOM     77  C   UNL     1       5.940  17.420  -8.387  1.00  0.00    -0.014 A 
ATOM     78  C   UNL     1       5.940  16.928  -9.702  1.00  0.00     0.009 A 
ATOM     79  C   UNL     1       6.452  18.704  -8.142  1.00  0.00     0.009 A 
ATOM     80  C   UNL     1       6.473  17.694 -10.741  1.00  0.00     0.001 A 
ATOM     81  C   UNL     1       6.955  19.479  -9.187  1.00  0.00     0.001 A 
ATOM     82  C   UNL     1       6.974  18.970 -10.484  1.00  0.00     0.000 A 
ENDBRANCH  64  77
ENDBRANCH  38  39
ENDBRANCH  30  33
ENDBRANCH  28  29
ENDBRANCH  27  28
ENDBRANCH  26  27
ENDBRANCH   1  26
TORSDOF 16
