REMARK SMILES COc1cc(NC(=O)[C@@H]2CC=CC[C@H]2C(=O)NCCCCCCNC(=O)c2ccc(-c3c4nc(c(-c5ccccc5)c5ccc([nH]5)c(-c5ccccc5)c5nc(c(-c6ccccc6)c6ccc3[nH]6)C=C5)C=C4)cc2)c(OC)cc1Cl
REMARK SMILES IDX 20 1 19 2 18 3 17 4 15 5 16 6 14 8 9 9 10 10 11 11 13 12
REMARK SMILES IDX 12 13 7 14 6 15 8 17 5 18 3 19 4 20 79 21 78 22 80 23 75 24
REMARK SMILES IDX 2 25 1 26 76 27 77 28 21 29 22 30 23 31 24 32 25 33 26 35
REMARK SMILES IDX 27 36 28 37 74 38 29 39 73 40 30 41 31 42 32 43 67 44 33 45
REMARK SMILES IDX 72 46 66 47 68 48 34 49 71 50 65 51 64 52 35 54 57 55 42 56
REMARK SMILES IDX 56 57 43 58 46 59 55 60 69 61 44 62 45 63 54 65 70 66 47 67
REMARK SMILES IDX 36 68 37 69 41 70 38 71 40 72 39 73 58 74 59 75 63 76 60 77
REMARK SMILES IDX 62 78 61 79 48 80 49 81 53 82 50 83 52 84 51 85
REMARK H PARENT 17 7 6 16 24 34 68 53 46 64
REMARK Flexibility Score: inf
ROOT
ATOM      1  C   UNL     1      -1.864   7.408  -4.779  1.00  0.00     0.002 C 
ENDROOT
BRANCH   1   2
ATOM      2  C   UNL     1      -1.282   6.053  -4.357  1.00  0.00     0.021 C 
BRANCH   2   3
ATOM      3  C   UNL     1      -1.440   5.729  -2.876  1.00  0.00     0.116 C 
BRANCH   3   4
ATOM      4  N   UNL     1      -2.828   5.624  -2.490  1.00  0.00    -0.356 N 
ATOM      5  C   UNL     1      -3.424   4.674  -1.736  1.00  0.00     0.224 C 
ATOM      6  O   UNL     1      -4.330   5.053  -0.985  1.00  0.00    -0.275 OA
ATOM      7  H   UNL     1      -3.418   6.339  -2.821  1.00  0.00     0.163 HD
BRANCH   5   8
ATOM      8  C   UNL     1      -2.970   3.216  -1.683  1.00  0.00     0.095 C 
ATOM      9  C   UNL     1      -2.428   2.571  -2.979  1.00  0.00     0.095 C 
ATOM     10  C   UNL     1      -1.508   1.343  -2.626  1.00  0.00     0.041 C 
ATOM     11  C   UNL     1      -0.748   1.347  -1.344  1.00  0.00    -0.030 C 
ATOM     12  C   UNL     1      -2.021   3.260  -0.453  1.00  0.00     0.041 C 
ATOM     13  C   UNL     1      -0.983   2.208  -0.357  1.00  0.00    -0.030 C 
BRANCH   9  14
ATOM     14  C   UNL     1      -3.296   2.014  -4.157  1.00  0.00     0.228 C 
ATOM     15  N   UNL     1      -4.494   2.329  -4.679  1.00  0.00    -0.323 N 
ATOM     16  H   UNL     1      -4.620   1.801  -5.500  1.00  0.00     0.170 HD
ATOM     17  O   UNL     1      -2.732   1.174  -4.896  1.00  0.00    -0.274 OA
BRANCH  15  18
ATOM     18  C   UNL     1      -5.631   3.127  -4.494  1.00  0.00     0.087 A 
ATOM     19  C   UNL     1      -6.982   4.740  -3.295  1.00  0.00     0.139 A 
ATOM     20  C   UNL     1      -5.915   3.837  -3.350  1.00  0.00     0.078 A 
ATOM     21  C   UNL     1      -7.851   4.855  -4.374  1.00  0.00     0.086 A 
ATOM     22  C   UNL     1      -7.670   4.046  -5.491  1.00  0.00     0.073 A 
ATOM     23  Cl  UNL     1      -9.180   5.954  -4.346  1.00  0.00    -0.080 Cl
ATOM     24  C   UNL     1      -6.564   3.186  -5.560  1.00  0.00     0.144 A 
BRANCH  19  25
ATOM     25  O   UNL     1      -7.083   5.616  -2.249  1.00  0.00    -0.495 OA
ATOM     26  C   UNL     1      -7.442   4.987  -1.023  1.00  0.00     0.278 C 
ENDBRANCH  19  25
BRANCH  24  27
ATOM     27  O   UNL     1      -6.299   2.372  -6.641  1.00  0.00    -0.495 OA
ATOM     28  C   UNL     1      -7.356   2.204  -7.585  1.00  0.00     0.278 C 
ENDBRANCH  24  27
ENDBRANCH  15  18
ENDBRANCH   9  14
ENDBRANCH   5   8
ENDBRANCH   3   4
ENDBRANCH   2   3
ENDBRANCH   1   2
BRANCH   1  29
ATOM     29  C   UNL     1      -1.426   8.609  -3.935  1.00  0.00     0.002 C 
BRANCH  29  30
ATOM     30  C   UNL     1       0.083   8.747  -3.724  1.00  0.00     0.021 C 
BRANCH  30  31
ATOM     31  C   UNL     1       0.898   8.823  -5.006  1.00  0.00     0.116 C 
BRANCH  31  32
ATOM     32  N   UNL     1       0.609  10.027  -5.766  1.00  0.00    -0.352 N 
ATOM     33  C   UNL     1       1.476  10.988  -6.218  1.00  0.00     0.251 C 
ATOM     34  H   UNL     1      -0.339  10.172  -5.988  1.00  0.00     0.163 HD
ATOM     35  O   UNL     1       1.047  12.046  -6.675  1.00  0.00    -0.269 OA
BRANCH  33  36
ATOM     36  C   UNL     1       2.933  10.760  -6.132  1.00  0.00     0.039 A 
ATOM     37  C   UNL     1       3.752  11.790  -5.663  1.00  0.00     0.014 A 
ATOM     38  C   UNL     1       3.491   9.534  -6.510  1.00  0.00     0.014 A 
ATOM     39  C   UNL     1       5.123  11.571  -5.519  1.00  0.00     0.010 A 
ATOM     40  C   UNL     1       4.843   9.292  -6.290  1.00  0.00     0.010 A 
ATOM     41  C   UNL     1       5.675  10.310  -5.800  1.00  0.00    -0.014 A 
BRANCH  41  42
ATOM     42  C   UNL     1       7.120  10.041  -5.588  1.00  0.00     0.031 A 
ATOM     43  C   UNL     1       8.004   9.692  -6.755  1.00  0.00     0.074 A 
ATOM     44  C   UNL     1       7.627  10.061  -4.340  1.00  0.00     0.049 A 
ATOM     45  N   UNL     1       9.276   9.381  -6.762  1.00  0.00    -0.248 NA
ATOM     46  C   UNL     1       7.373   9.668  -8.085  1.00  0.00     0.031 C 
ATOM     47  C   UNL     1       6.869  10.351  -3.120  1.00  0.00     0.029 A 
ATOM     48  N   UNL     1       8.902   9.829  -3.889  1.00  0.00    -0.354 N 
ATOM     49  C   UNL     1       9.591   9.115  -8.089  1.00  0.00     0.074 A 
ATOM     50  C   UNL     1       8.369   9.246  -8.850  1.00  0.00     0.031 C 
ATOM     51  C   UNL     1       7.699  10.308  -2.066  1.00  0.00     0.029 A 
ATOM     52  C   UNL     1       9.035   9.944  -2.526  1.00  0.00     0.049 A 
ATOM     53  H   UNL     1       9.652   9.602  -4.486  1.00  0.00     0.167 HD
ATOM     54  C   UNL     1      10.795   8.809  -8.629  1.00  0.00     0.031 A 
ATOM     55  C   UNL     1      10.109   9.766  -1.734  1.00  0.00     0.031 A 
ATOM     56  C   UNL     1      12.012   8.682  -7.873  1.00  0.00     0.049 A 
ATOM     57  C   UNL     1      11.426   9.395  -2.357  1.00  0.00     0.074 A 
ATOM     58  C   UNL     1      13.290   8.421  -8.337  1.00  0.00     0.029 A 
ATOM     59  N   UNL     1      12.102   8.803  -6.496  1.00  0.00    -0.354 N 
ATOM     60  N   UNL     1      11.721   9.214  -3.622  1.00  0.00    -0.248 NA
ATOM     61  C   UNL     1      12.563   9.215  -1.443  1.00  0.00     0.031 C 
ATOM     62  C   UNL     1      14.143   8.325  -7.233  1.00  0.00     0.029 A 
ATOM     63  C   UNL     1      13.409   8.595  -6.089  1.00  0.00     0.049 A 
ATOM     64  H   UNL     1      11.349   9.007  -5.895  1.00  0.00     0.167 HD
ATOM     65  C   UNL     1      13.081   8.931  -3.657  1.00  0.00     0.074 A 
ATOM     66  C   UNL     1      13.556   8.984  -2.290  1.00  0.00     0.031 C 
ATOM     67  C   UNL     1      13.867   8.654  -4.725  1.00  0.00     0.031 A 
BRANCH  54  68
ATOM     68  C   UNL     1      10.853   8.585 -10.116  1.00  0.00    -0.014 A 
ATOM     69  C   UNL     1      10.678   9.645 -11.020  1.00  0.00     0.009 A 
ATOM     70  C   UNL     1      11.137   7.305 -10.619  1.00  0.00     0.009 A 
ATOM     71  C   UNL     1      10.752   9.422 -12.396  1.00  0.00     0.001 A 
ATOM     72  C   UNL     1      11.242   7.091 -11.995  1.00  0.00     0.001 A 
ATOM     73  C   UNL     1      11.041   8.147 -12.882  1.00  0.00     0.000 A 
ENDBRANCH  54  68
BRANCH  55  74
ATOM     74  C   UNL     1       9.992   9.937  -0.261  1.00  0.00    -0.014 A 
ATOM     75  C   UNL     1      10.641  10.998   0.391  1.00  0.00     0.009 A 
ATOM     76  C   UNL     1       9.252   9.024   0.507  1.00  0.00     0.009 A 
ATOM     77  C   UNL     1      10.583  11.118   1.781  1.00  0.00     0.001 A 
ATOM     78  C   UNL     1       9.167   9.166   1.893  1.00  0.00     0.001 A 
ATOM     79  C   UNL     1       9.843  10.205   2.531  1.00  0.00     0.000 A 
ENDBRANCH  55  74
BRANCH  67  80
ATOM     80  C   UNL     1      15.331   8.429  -4.465  1.00  0.00    -0.014 A 
ATOM     81  C   UNL     1      15.791   7.274  -3.813  1.00  0.00     0.009 A 
ATOM     82  C   UNL     1      16.267   9.374  -4.915  1.00  0.00     0.009 A 
ATOM     83  C   UNL     1      17.157   7.089  -3.587  1.00  0.00     0.001 A 
ATOM     84  C   UNL     1      17.633   9.169  -4.717  1.00  0.00     0.001 A 
ATOM     85  C   UNL     1      18.076   8.033  -4.043  1.00  0.00     0.000 A 
ENDBRANCH  67  80
ENDBRANCH  41  42
ENDBRANCH  33  36
ENDBRANCH  31  32
ENDBRANCH  30  31
ENDBRANCH  29  30
ENDBRANCH   1  29
TORSDOF 17
