REMARK SMILES CS(=O)(=O)c1ccc(/C=C(/C(=O)NCCCCCCNC(=O)c2ccc(-c3c4nc(c(-c5ccccc5)c5ccc([nH]5)c(-c5ccccc5)c5nc(c(-c6ccccc6)c6ccc3[nH]6)C=C5)C=C4)cc2)c2ccc(O)cc2)cc1
REMARK SMILES IDX 16 1 15 2 14 3 13 4 11 5 12 6 10 8 9 9 8 10 5 11 6 12 79 13
REMARK SMILES IDX 7 14 78 15 2 16 1 17 3 18 4 19 71 20 72 21 77 22 73 23 76 24
REMARK SMILES IDX 74 25 75 26 17 28 18 29 19 30 20 31 21 32 22 34 23 35 24 36
REMARK SMILES IDX 70 37 25 38 69 39 26 40 27 41 28 42 63 43 29 44 68 45 62 46
REMARK SMILES IDX 64 47 30 48 67 49 61 50 60 51 31 53 53 54 38 55 52 56 39 57
REMARK SMILES IDX 42 58 51 59 65 60 40 61 41 62 50 64 66 65 43 66 32 67 33 68
REMARK SMILES IDX 37 69 34 70 36 71 35 72 54 73 55 74 59 75 56 76 58 77 57 78
REMARK SMILES IDX 44 79 45 80 49 81 46 82 48 83 47 84
REMARK H PARENT 13 7 75 27 20 33 64 52 42 63
REMARK Flexibility Score: inf
ROOT
ATOM      1  C   UNL     1       5.236  -1.680 -10.033  1.00  0.00     0.002 C 
ENDROOT
BRANCH   1   2
ATOM      2  C   UNL     1       4.596  -1.571  -8.638  1.00  0.00     0.021 C 
BRANCH   2   3
ATOM      3  C   UNL     1       3.148  -2.069  -8.589  1.00  0.00     0.116 C 
BRANCH   3   4
ATOM      4  N   UNL     1       3.127  -3.512  -8.724  1.00  0.00    -0.352 N 
ATOM      5  C   UNL     1       2.938  -4.545  -7.864  1.00  0.00     0.251 C 
ATOM      6  O   UNL     1       3.099  -5.673  -8.337  1.00  0.00    -0.269 OA
ATOM      7  H   UNL     1       3.286  -3.810  -9.649  1.00  0.00     0.163 HD
BRANCH   5   8
ATOM      8  C   UNL     1       2.456  -4.370  -6.441  1.00  0.00     0.047 C 
ATOM      9  C   UNL     1       2.852  -3.330  -5.672  1.00  0.00     0.022 C 
BRANCH   9  10
ATOM     10  C   UNL     1       2.361  -2.926  -4.336  1.00  0.00    -0.025 A 
ATOM     11  C   UNL     1       1.205  -2.047  -1.931  1.00  0.00     0.067 A 
ATOM     12  C   UNL     1       1.630  -3.371  -2.059  1.00  0.00     0.021 A 
ATOM     13  C   UNL     1       1.395  -1.141  -2.974  1.00  0.00     0.021 A 
ATOM     14  C   UNL     1       2.224  -3.800  -3.251  1.00  0.00     0.009 A 
ATOM     15  C   UNL     1       1.976  -1.584  -4.168  1.00  0.00     0.009 A 
BRANCH  11  16
ATOM     16  S   UNL     1       0.374  -1.536  -0.444  1.00  0.00     0.175 S 
ATOM     17  C   UNL     1       1.109   0.012   0.006  1.00  0.00     0.163 C 
ATOM     18  O   UNL     1       0.725  -2.490   0.595  1.00  0.00    -0.224 OA
ATOM     19  O   UNL     1      -1.007  -1.295  -0.804  1.00  0.00    -0.224 OA
ENDBRANCH  11  16
ENDBRANCH   9  10
BRANCH   8  20
ATOM     20  C   UNL     1       1.665  -5.489  -5.867  1.00  0.00    -0.013 A 
ATOM     21  C   UNL     1       2.304  -6.728  -5.674  1.00  0.00     0.013 A 
ATOM     22  C   UNL     1       0.339  -5.339  -5.440  1.00  0.00     0.013 A 
ATOM     23  C   UNL     1       1.648  -7.780  -5.040  1.00  0.00     0.047 A 
ATOM     24  C   UNL     1      -0.314  -6.390  -4.785  1.00  0.00     0.047 A 
ATOM     25  C   UNL     1       0.352  -7.597  -4.581  1.00  0.00     0.115 A 
BRANCH  25  26
ATOM     26  O   UNL     1      -0.232  -8.633  -3.915  1.00  0.00    -0.508 OA
ATOM     27  H   UNL     1       0.238  -9.434  -3.791  1.00  0.00     0.293 HD
ENDBRANCH  25  26
ENDBRANCH   8  20
ENDBRANCH   5   8
ENDBRANCH   3   4
ENDBRANCH   2   3
ENDBRANCH   1   2
BRANCH   1  28
ATOM     28  C   UNL     1       4.548  -0.858 -11.129  1.00  0.00     0.002 C 
BRANCH  28  29
ATOM     29  C   UNL     1       4.381   0.629 -10.811  1.00  0.00     0.021 C 
BRANCH  29  30
ATOM     30  C   UNL     1       5.690   1.372 -10.567  1.00  0.00     0.116 C 
BRANCH  30  31
ATOM     31  N   UNL     1       6.505   1.450 -11.768  1.00  0.00    -0.352 N 
ATOM     32  C   UNL     1       7.080   2.550 -12.353  1.00  0.00     0.251 C 
ATOM     33  H   UNL     1       6.666   0.593 -12.226  1.00  0.00     0.163 HD
ATOM     34  O   UNL     1       7.572   2.471 -13.474  1.00  0.00    -0.269 OA
BRANCH  32  35
ATOM     35  C   UNL     1       7.091   3.841 -11.634  1.00  0.00     0.039 A 
ATOM     36  C   UNL     1       6.745   5.004 -12.327  1.00  0.00     0.014 A 
ATOM     37  C   UNL     1       7.456   3.906 -10.286  1.00  0.00     0.014 A 
ATOM     38  C   UNL     1       6.716   6.227 -11.654  1.00  0.00     0.010 A 
ATOM     39  C   UNL     1       7.364   5.115  -9.601  1.00  0.00     0.010 A 
ATOM     40  C   UNL     1       7.000   6.288 -10.280  1.00  0.00    -0.014 A 
BRANCH  40  41
ATOM     41  C   UNL     1       6.935   7.571  -9.539  1.00  0.00     0.031 A 
ATOM     42  C   UNL     1       8.182   8.166  -8.947  1.00  0.00     0.074 A 
ATOM     43  C   UNL     1       5.744   8.170  -9.346  1.00  0.00     0.049 A 
ATOM     44  N   UNL     1       8.317   9.246  -8.219  1.00  0.00    -0.248 NA
ATOM     45  C   UNL     1       9.440   7.440  -9.184  1.00  0.00     0.031 C 
ATOM     46  C   UNL     1       4.455   7.676  -9.836  1.00  0.00     0.029 A 
ATOM     47  N   UNL     1       5.425   9.326  -8.678  1.00  0.00    -0.354 N 
ATOM     48  C   UNL     1       9.666   9.317  -7.897  1.00  0.00     0.074 A 
ATOM     49  C   UNL     1      10.300   8.148  -8.467  1.00  0.00     0.031 C 
ATOM     50  C   UNL     1       3.490   8.536  -9.474  1.00  0.00     0.029 A 
ATOM     51  C   UNL     1       4.083   9.620  -8.698  1.00  0.00     0.049 A 
ATOM     52  H   UNL     1       6.094   9.890  -8.227  1.00  0.00     0.167 HD
ATOM     53  C   UNL     1      10.324  10.277  -7.204  1.00  0.00     0.031 A 
ATOM     54  C   UNL     1       3.406  10.647  -8.150  1.00  0.00     0.031 A 
ATOM     55  C   UNL     1       9.698  11.448  -6.651  1.00  0.00     0.049 A 
ATOM     56  C   UNL     1       4.158  11.698  -7.383  1.00  0.00     0.074 A 
ATOM     57  C   UNL     1      10.288  12.507  -5.982  1.00  0.00     0.029 A 
ATOM     58  N   UNL     1       8.339  11.714  -6.703  1.00  0.00    -0.354 N 
ATOM     59  N   UNL     1       5.443  11.782  -7.139  1.00  0.00    -0.248 NA
ATOM     60  C   UNL     1       3.365  12.803  -6.825  1.00  0.00     0.031 C 
ATOM     61  C   UNL     1       9.278  13.392  -5.590  1.00  0.00     0.029 A 
ATOM     62  C   UNL     1       8.068  12.910  -6.061  1.00  0.00     0.049 A 
ATOM     63  H   UNL     1       7.666  11.139  -7.134  1.00  0.00     0.167 HD
ATOM     64  C   UNL     1       5.617  12.960  -6.426  1.00  0.00     0.074 A 
ATOM     65  C   UNL     1       4.307  13.564  -6.288  1.00  0.00     0.031 C 
ATOM     66  C   UNL     1       6.759  13.496  -5.932  1.00  0.00     0.031 A 
BRANCH  53  67
ATOM     67  C   UNL     1      11.802  10.094  -7.002  1.00  0.00    -0.014 A 
ATOM     68  C   UNL     1      12.704  10.223  -8.071  1.00  0.00     0.009 A 
ATOM     69  C   UNL     1      12.304   9.819  -5.721  1.00  0.00     0.009 A 
ATOM     70  C   UNL     1      14.073  10.041  -7.868  1.00  0.00     0.001 A 
ATOM     71  C   UNL     1      13.676   9.667  -5.515  1.00  0.00     0.001 A 
ATOM     72  C   UNL     1      14.558   9.768  -6.590  1.00  0.00     0.000 A 
ENDBRANCH  53  67
BRANCH  54  73
ATOM     73  C   UNL     1       1.934  10.744  -8.324  1.00  0.00    -0.014 A 
ATOM     74  C   UNL     1       1.381  11.724  -9.162  1.00  0.00     0.009 A 
ATOM     75  C   UNL     1       1.075   9.861  -7.653  1.00  0.00     0.009 A 
ATOM     76  C   UNL     1      -0.003  11.835  -9.304  1.00  0.00     0.001 A 
ATOM     77  C   UNL     1      -0.309   9.956  -7.818  1.00  0.00     0.001 A 
ATOM     78  C   UNL     1      -0.847  10.949  -8.636  1.00  0.00     0.000 A 
ENDBRANCH  54  73
BRANCH  66  79
ATOM     79  C   UNL     1       6.648  14.817  -5.225  1.00  0.00    -0.014 A 
ATOM     80  C   UNL     1       6.085  14.912  -3.943  1.00  0.00     0.009 A 
ATOM     81  C   UNL     1       7.151  15.976  -5.837  1.00  0.00     0.009 A 
ATOM     82  C   UNL     1       6.001  16.149  -3.301  1.00  0.00     0.001 A 
ATOM     83  C   UNL     1       7.091  17.206  -5.181  1.00  0.00     0.001 A 
ATOM     84  C   UNL     1       6.508  17.293  -3.918  1.00  0.00     0.000 A 
ENDBRANCH  66  79
ENDBRANCH  40  41
ENDBRANCH  32  35
ENDBRANCH  30  31
ENDBRANCH  29  30
ENDBRANCH  28  29
ENDBRANCH   1  28
TORSDOF 17
