REMARK SMILES CC[C@H]1CCCC[C@@H]1C1(C(=O)NCCCCCCNC(=O)c2ccc(-c3c4nc(c(-c5ccccc5)c5ccc([nH]5)c(-c5ccccc5)c5nc(c(-c6ccccc6)c6ccc3[nH]6)C=C5)C=C4)cc2)CC1
REMARK SMILES IDX 15 1 14 2 13 3 12 4 10 5 11 6 9 8 70 9 71 10 8 11 3 12 4 13
REMARK SMILES IDX 5 14 7 15 6 16 2 17 1 18 16 19 17 20 18 21 19 22 20 23 21 25
REMARK SMILES IDX 22 26 23 27 69 28 24 29 68 30 25 31 26 32 27 33 62 34 28 35
REMARK SMILES IDX 67 36 61 37 63 38 29 39 66 40 60 41 59 42 30 44 52 45 37 46
REMARK SMILES IDX 51 47 38 48 41 49 50 50 64 51 39 52 40 53 49 55 65 56 42 57
REMARK SMILES IDX 31 58 32 59 36 60 33 61 35 62 34 63 53 64 54 65 58 66 55 67
REMARK SMILES IDX 57 68 56 69 43 70 44 71 48 72 45 73 47 74 46 75
REMARK H PARENT 12 7 19 24 63 43 41 54
REMARK Flexibility Score: inf
ROOT
ATOM      1  C   UNL     1      -1.184   8.286   3.607  1.00  0.00     0.002 C 
ENDROOT
BRANCH   1   2
ATOM      2  C   UNL     1      -0.264   7.121   4.006  1.00  0.00     0.021 C 
BRANCH   2   3
ATOM      3  C   UNL     1      -0.941   5.751   4.013  1.00  0.00     0.116 C 
BRANCH   3   4
ATOM      4  N   UNL     1      -1.525   5.428   2.735  1.00  0.00    -0.356 N 
ATOM      5  C   UNL     1      -1.188   4.622   1.690  1.00  0.00     0.226 C 
ATOM      6  O   UNL     1      -2.036   4.527   0.804  1.00  0.00    -0.274 OA
ATOM      7  H   UNL     1      -2.371   5.907   2.579  1.00  0.00     0.163 HD
BRANCH   5   8
ATOM      8  C   UNL     1       0.116   3.838   1.556  1.00  0.00     0.052 C 
ATOM      9  C   UNL     1       0.275   2.743   2.619  1.00  0.00     0.018 C 
ATOM     10  C   UNL     1       1.252   3.871   2.564  1.00  0.00     0.018 C 
BRANCH   8  11
ATOM     11  C   UNL     1       0.516   3.600   0.057  1.00  0.00     0.008 C 
ATOM     12  C   UNL     1       1.364   2.351  -0.319  1.00  0.00    -0.007 C 
ATOM     13  C   UNL     1       2.881   2.572  -0.158  1.00  0.00     0.004 C 
ATOM     14  C   UNL     1       3.383   3.890  -0.743  1.00  0.00     0.000 C 
ATOM     15  C   UNL     1       1.079   4.896  -0.558  1.00  0.00     0.005 C 
ATOM     16  C   UNL     1       2.565   5.093  -0.293  1.00  0.00     0.000 C 
BRANCH  12  17
ATOM     17  C   UNL     1       1.022   1.929  -1.778  1.00  0.00     0.000 C 
ATOM     18  C   UNL     1       1.500   0.531  -2.146  1.00  0.00     0.004 C 
ENDBRANCH  12  17
ENDBRANCH   8  11
ENDBRANCH   5   8
ENDBRANCH   3   4
ENDBRANCH   2   3
ENDBRANCH   1   2
BRANCH   1  19
ATOM     19  C   UNL     1      -2.550   8.329   4.302  1.00  0.00     0.002 C 
BRANCH  19  20
ATOM     20  C   UNL     1      -2.513   8.273   5.829  1.00  0.00     0.021 C 
BRANCH  20  21
ATOM     21  C   UNL     1      -1.735   9.405   6.480  1.00  0.00     0.116 C 
BRANCH  21  22
ATOM     22  N   UNL     1      -2.379  10.693   6.284  1.00  0.00    -0.352 N 
ATOM     23  C   UNL     1      -2.740  11.623   7.227  1.00  0.00     0.251 C 
ATOM     24  H   UNL     1      -2.583  10.930   5.351  1.00  0.00     0.163 HD
ATOM     25  O   UNL     1      -3.452  12.574   6.925  1.00  0.00    -0.269 OA
BRANCH  23  26
ATOM     26  C   UNL     1      -2.279  11.455   8.621  1.00  0.00     0.039 A 
ATOM     27  C   UNL     1      -3.195  11.620   9.663  1.00  0.00     0.014 A 
ATOM     28  C   UNL     1      -0.949  11.122   8.894  1.00  0.00     0.014 A 
ATOM     29  C   UNL     1      -2.786  11.400  10.979  1.00  0.00     0.010 A 
ATOM     30  C   UNL     1      -0.566  10.825  10.197  1.00  0.00     0.010 A 
ATOM     31  C   UNL     1      -1.477  10.973  11.254  1.00  0.00    -0.014 A 
BRANCH  31  32
ATOM     32  C   UNL     1      -1.029  10.699  12.641  1.00  0.00     0.031 A 
ATOM     33  C   UNL     1       0.058  11.536  13.257  1.00  0.00     0.074 A 
ATOM     34  C   UNL     1      -1.554   9.663  13.323  1.00  0.00     0.049 A 
ATOM     35  N   UNL     1       0.633  11.413  14.427  1.00  0.00    -0.248 NA
ATOM     36  C   UNL     1       0.590  12.639  12.439  1.00  0.00     0.031 C 
ATOM     37  C   UNL     1      -2.589   8.755  12.825  1.00  0.00     0.029 A 
ATOM     38  N   UNL     1      -1.281   9.195  14.584  1.00  0.00    -0.354 N 
ATOM     39  C   UNL     1       1.602  12.407  14.475  1.00  0.00     0.074 A 
ATOM     40  C   UNL     1       1.576  13.089  13.200  1.00  0.00     0.031 C 
ATOM     41  C   UNL     1      -2.883   7.858  13.780  1.00  0.00     0.029 A 
ATOM     42  C   UNL     1      -2.029   8.100  14.939  1.00  0.00     0.049 A 
ATOM     43  H   UNL     1      -0.612   9.606  15.178  1.00  0.00     0.167 HD
ATOM     44  C   UNL     1       2.426  12.739  15.497  1.00  0.00     0.031 A 
ATOM     45  C   UNL     1      -2.024   7.368  16.069  1.00  0.00     0.031 A 
ATOM     46  C   UNL     1       2.444  12.069  16.769  1.00  0.00     0.049 A 
ATOM     47  C   UNL     1      -1.087   7.745  17.183  1.00  0.00     0.074 A 
ATOM     48  C   UNL     1       3.203  12.363  17.888  1.00  0.00     0.029 A 
ATOM     49  N   UNL     1       1.666  10.967  17.090  1.00  0.00    -0.354 N 
ATOM     50  N   UNL     1      -0.221   8.728  17.238  1.00  0.00    -0.248 NA
ATOM     51  C   UNL     1      -1.135   6.916  18.396  1.00  0.00     0.031 C 
ATOM     52  C   UNL     1       2.923  11.406  18.869  1.00  0.00     0.029 A 
ATOM     53  C   UNL     1       1.945  10.554  18.382  1.00  0.00     0.049 A 
ATOM     54  H   UNL     1       1.012  10.543  16.489  1.00  0.00     0.167 HD
ATOM     55  C   UNL     1       0.355   8.655  18.500  1.00  0.00     0.074 A 
ATOM     56  C   UNL     1      -0.270   7.541  19.182  1.00  0.00     0.031 C 
ATOM     57  C   UNL     1       1.313   9.443  19.046  1.00  0.00     0.031 A 
BRANCH  44  58
ATOM     58  C   UNL     1       3.386  13.875  15.270  1.00  0.00    -0.014 A 
ATOM     59  C   UNL     1       2.933  15.199  15.150  1.00  0.00     0.009 A 
ATOM     60  C   UNL     1       4.764  13.622  15.201  1.00  0.00     0.009 A 
ATOM     61  C   UNL     1       3.837  16.239  14.924  1.00  0.00     0.001 A 
ATOM     62  C   UNL     1       5.668  14.668  15.007  1.00  0.00     0.001 A 
ATOM     63  C   UNL     1       5.203  15.973  14.857  1.00  0.00     0.000 A 
ENDBRANCH  44  58
BRANCH  45  64
ATOM     64  C   UNL     1      -2.948   6.213  16.214  1.00  0.00    -0.014 A 
ATOM     65  C   UNL     1      -4.030   6.274  17.106  1.00  0.00     0.009 A 
ATOM     66  C   UNL     1      -2.752   5.042  15.465  1.00  0.00     0.009 A 
ATOM     67  C   UNL     1      -4.878   5.177  17.267  1.00  0.00     0.001 A 
ATOM     68  C   UNL     1      -3.621   3.957  15.606  1.00  0.00     0.001 A 
ATOM     69  C   UNL     1      -4.676   4.021  16.514  1.00  0.00     0.000 A 
ENDBRANCH  45  64
BRANCH  57  70
ATOM     70  C   UNL     1       1.717   9.153  20.464  1.00  0.00    -0.014 A 
ATOM     71  C   UNL     1       2.478   8.021  20.791  1.00  0.00     0.009 A 
ATOM     72  C   UNL     1       1.366  10.055  21.482  1.00  0.00     0.009 A 
ATOM     73  C   UNL     1       2.851   7.780  22.115  1.00  0.00     0.001 A 
ATOM     74  C   UNL     1       1.767   9.828  22.799  1.00  0.00     0.001 A 
ATOM     75  C   UNL     1       2.501   8.687  23.116  1.00  0.00     0.000 A 
ENDBRANCH  57  70
ENDBRANCH  31  32
ENDBRANCH  23  26
ENDBRANCH  21  22
ENDBRANCH  20  21
ENDBRANCH  19  20
ENDBRANCH   1  19
TORSDOF 15
