REMARK SMILES N#CCNC(=O)Cn1ccc(C(=O)NCCCCCCNC(=O)c2ccc(-c3c4nc(c(-c5ccccc5)c5ccc([nH]5)c(-c5ccccc5)c5nc(c(-c6ccccc6)c6ccc3[nH]6)C=C5)C=C4)cc2)c1
REMARK SMILES IDX 16 1 15 2 14 3 12 4 13 5 11 7 8 8 9 9 72 10 10 11 7 12 5 13
REMARK SMILES IDX 4 14 6 16 3 17 2 18 1 19 17 20 18 21 19 22 20 23 21 24 22 25
REMARK SMILES IDX 23 27 24 28 25 29 71 30 26 31 70 32 27 33 28 34 29 35 64 36
REMARK SMILES IDX 30 37 69 38 63 39 65 40 31 41 68 42 62 43 61 44 32 46 54 47
REMARK SMILES IDX 39 48 53 49 40 50 43 51 52 52 66 53 41 54 42 55 51 57 67 58
REMARK SMILES IDX 44 59 33 60 34 61 38 62 35 63 37 64 36 65 55 66 56 67 60 68
REMARK SMILES IDX 57 69 59 70 58 71 45 72 46 73 50 74 47 75 49 76 48 77
REMARK H PARENT 14 6 4 15 21 26 65 45 43 56
REMARK Flexibility Score: inf
ROOT
ATOM      1  C   UNL     1       2.419   6.843   2.051  1.00  0.00     0.021 C 
ENDROOT
BRANCH   1   2
ATOM      2  C   UNL     1       2.884   5.996   3.234  1.00  0.00     0.116 C 
BRANCH   2   3
ATOM      3  N   UNL     1       1.780   5.216   3.750  1.00  0.00    -0.352 N 
ATOM      4  C   UNL     1       1.572   3.862   3.821  1.00  0.00     0.252 C 
ATOM      5  O   UNL     1       0.552   3.469   4.375  1.00  0.00    -0.269 OA
ATOM      6  H   UNL     1       1.044   5.755   4.118  1.00  0.00     0.163 HD
BRANCH   4   7
ATOM      7  C   UNL     1       2.586   2.933   3.336  1.00  0.00     0.057 A 
ATOM      8  N   UNL     1       4.367   2.018   2.340  1.00  0.00    -0.344 N 
ATOM      9  C   UNL     1       3.922   1.098   3.248  1.00  0.00     0.087 A 
ATOM     10  C   UNL     1       3.505   3.082   2.314  1.00  0.00     0.100 A 
ATOM     11  C   UNL     1       2.787   1.610   3.834  1.00  0.00     0.033 A 
BRANCH   8  12
ATOM     12  C   UNL     1       5.531   1.881   1.479  1.00  0.00     0.221 C 
BRANCH  12  13
ATOM     13  C   UNL     1       5.167   2.026   0.016  1.00  0.00     0.240 C 
ATOM     14  N   UNL     1       4.302   1.135  -0.549  1.00  0.00    -0.341 N 
ATOM     15  H   UNL     1       4.045   1.308  -1.483  1.00  0.00     0.164 HD
ATOM     16  O   UNL     1       5.644   2.918  -0.686  1.00  0.00    -0.273 OA
BRANCH  14  17
ATOM     17  C   UNL     1       3.720  -0.037   0.070  1.00  0.00     0.236 C 
BRANCH  17  18
ATOM     18  C   UNL     1       2.200  -0.037   0.070  1.00  0.00     0.084 C 
ATOM     19  N   UNL     1       0.939  -0.037   0.070  1.00  0.00    -0.196 NA
ENDBRANCH  17  18
ENDBRANCH  14  17
ENDBRANCH  12  13
ENDBRANCH   8  12
ENDBRANCH   4   7
ENDBRANCH   2   3
ENDBRANCH   1   2
BRANCH   1  20
ATOM     20  C   UNL     1       1.636   8.087   2.489  1.00  0.00     0.002 C 
BRANCH  20  21
ATOM     21  C   UNL     1       2.394   9.009   3.454  1.00  0.00     0.002 C 
BRANCH  21  22
ATOM     22  C   UNL     1       3.795   9.430   2.983  1.00  0.00     0.021 C 
BRANCH  22  23
ATOM     23  C   UNL     1       3.756  10.349   1.769  1.00  0.00     0.116 C 
BRANCH  23  24
ATOM     24  N   UNL     1       3.138  11.616   2.122  1.00  0.00    -0.352 N 
ATOM     25  C   UNL     1       2.866  12.707   1.345  1.00  0.00     0.251 C 
ATOM     26  H   UNL     1       2.874  11.701   3.066  1.00  0.00     0.163 HD
ATOM     27  O   UNL     1       2.665  13.795   1.875  1.00  0.00    -0.269 OA
BRANCH  25  28
ATOM     28  C   UNL     1       2.819  12.591  -0.122  1.00  0.00     0.039 A 
ATOM     29  C   UNL     1       3.333  13.648  -0.880  1.00  0.00     0.014 A 
ATOM     30  C   UNL     1       2.190  11.505  -0.743  1.00  0.00     0.014 A 
ATOM     31  C   UNL     1       3.255  13.595  -2.264  1.00  0.00     0.010 A 
ATOM     32  C   UNL     1       2.147  11.427  -2.125  1.00  0.00     0.010 A 
ATOM     33  C   UNL     1       2.675  12.476  -2.880  1.00  0.00    -0.014 A 
BRANCH  33  34
ATOM     34  C   UNL     1       2.715  12.386  -4.350  1.00  0.00     0.031 A 
ATOM     35  C   UNL     1       4.122  12.011  -4.840  1.00  0.00     0.074 A 
ATOM     36  C   UNL     1       1.560  12.721  -5.002  1.00  0.00     0.049 A 
ATOM     37  N   UNL     1       4.761  12.415  -5.891  1.00  0.00    -0.248 NA
ATOM     38  C   UNL     1       4.984  11.137  -3.996  1.00  0.00     0.031 C 
ATOM     39  C   UNL     1       0.266  13.009  -4.335  1.00  0.00     0.029 A 
ATOM     40  N   UNL     1       1.219  12.902  -6.326  1.00  0.00    -0.354 N 
ATOM     41  C   UNL     1       6.020  11.772  -5.916  1.00  0.00     0.074 A 
ATOM     42  C   UNL     1       6.134  11.065  -4.676  1.00  0.00     0.031 C 
ATOM     43  C   UNL     1      -0.668  13.402  -5.228  1.00  0.00     0.029 A 
ATOM     44  C   UNL     1      -0.082  13.428  -6.551  1.00  0.00     0.049 A 
ATOM     45  H   UNL     1       1.833  12.683  -7.063  1.00  0.00     0.167 HD
ATOM     46  C   UNL     1       6.830  11.778  -7.018  1.00  0.00     0.031 A 
ATOM     47  C   UNL     1      -0.622  13.925  -7.707  1.00  0.00     0.031 A 
ATOM     48  C   UNL     1       6.226  12.544  -8.054  1.00  0.00     0.049 A 
ATOM     49  C   UNL     1       0.409  13.742  -8.737  1.00  0.00     0.074 A 
ATOM     50  C   UNL     1       6.029  13.890  -8.219  1.00  0.00     0.029 A 
ATOM     51  N   UNL     1       5.377  11.855  -8.887  1.00  0.00    -0.354 N 
ATOM     52  N   UNL     1       0.743  12.609  -9.273  1.00  0.00    -0.248 NA
ATOM     53  C   UNL     1       1.212  14.906  -9.133  1.00  0.00     0.031 C 
ATOM     54  C   UNL     1       4.715  13.950  -8.732  1.00  0.00     0.029 A 
ATOM     55  C   UNL     1       4.291  12.666  -9.094  1.00  0.00     0.049 A 
ATOM     56  H   UNL     1       5.521  10.957  -9.262  1.00  0.00     0.167 HD
ATOM     57  C   UNL     1       2.008  12.872  -9.735  1.00  0.00     0.074 A 
ATOM     58  C   UNL     1       2.093  14.304  -9.926  1.00  0.00     0.031 C 
ATOM     59  C   UNL     1       3.030  12.040  -9.407  1.00  0.00     0.031 A 
BRANCH  46  60
ATOM     60  C   UNL     1       8.030  10.960  -7.408  1.00  0.00    -0.014 A 
ATOM     61  C   UNL     1       8.773  11.398  -8.536  1.00  0.00     0.009 A 
ATOM     62  C   UNL     1       8.252   9.654  -6.967  1.00  0.00     0.009 A 
ATOM     63  C   UNL     1       9.587  10.534  -9.270  1.00  0.00     0.001 A 
ATOM     64  C   UNL     1       9.102   8.795  -7.683  1.00  0.00     0.001 A 
ATOM     65  C   UNL     1       9.735   9.221  -8.852  1.00  0.00     0.000 A 
ENDBRANCH  46  60
BRANCH  47  66
ATOM     66  C   UNL     1      -1.845  14.702  -8.128  1.00  0.00    -0.014 A 
ATOM     67  C   UNL     1      -2.995  14.914  -7.365  1.00  0.00     0.009 A 
ATOM     68  C   UNL     1      -1.838  15.337  -9.403  1.00  0.00     0.009 A 
ATOM     69  C   UNL     1      -4.013  15.790  -7.808  1.00  0.00     0.001 A 
ATOM     70  C   UNL     1      -2.816  16.239  -9.828  1.00  0.00     0.001 A 
ATOM     71  C   UNL     1      -3.905  16.479  -9.016  1.00  0.00     0.000 A 
ENDBRANCH  47  66
BRANCH  59  72
ATOM     72  C   UNL     1       2.619  10.628  -9.013  1.00  0.00    -0.014 A 
ATOM     73  C   UNL     1       1.889   9.840  -9.917  1.00  0.00     0.009 A 
ATOM     74  C   UNL     1       2.827  10.094  -7.728  1.00  0.00     0.009 A 
ATOM     75  C   UNL     1       1.369   8.591  -9.549  1.00  0.00     0.001 A 
ATOM     76  C   UNL     1       2.309   8.844  -7.353  1.00  0.00     0.001 A 
ATOM     77  C   UNL     1       1.575   8.093  -8.266  1.00  0.00     0.000 A 
ENDBRANCH  59  72
ENDBRANCH  33  34
ENDBRANCH  25  28
ENDBRANCH  23  24
ENDBRANCH  22  23
ENDBRANCH  21  22
ENDBRANCH  20  21
ENDBRANCH   1  20
TORSDOF 17
