REMARK SMILES O=C(NCCCCCCNC(=O)[C@@H]1CC[C@@H](CS(=O)(=O)c2cccc(F)c2)O1)c1ccc(-c2c3nc(c(-c4ccccc4)c4ccc([nH]4)c(-c4ccccc4)c4nc(c(-c5ccccc5)c5ccc2[nH]5)C=C4)C=C3)cc1
REMARK SMILES IDX 7 1 6 2 5 3 4 4 3 5 1 6 2 7 29 9 30 10 76 11 31 12 75 13
REMARK SMILES IDX 32 14 33 15 34 16 69 17 35 18 74 19 68 20 70 21 36 22 73 23
REMARK SMILES IDX 67 24 66 25 37 27 59 28 44 29 58 30 45 31 48 32 57 33 71 34
REMARK SMILES IDX 46 35 47 36 56 38 72 39 49 40 38 41 39 42 43 43 40 44 42 45
REMARK SMILES IDX 41 46 60 47 61 48 65 49 62 50 64 51 63 52 50 53 51 54 55 55
REMARK SMILES IDX 52 56 54 57 53 58 8 59 9 60 10 61 11 62 12 64 13 65 14 66
REMARK SMILES IDX 28 67 15 68 16 69 17 70 18 71 19 72 20 73 21 74 22 75 27 76
REMARK SMILES IDX 23 77 25 78 24 79 26 80
REMARK H PARENT 3 8 70 26 48 37 10 63
REMARK Flexibility Score: inf
ROOT
ATOM      1  C   UNL     1       4.873   2.850  -3.252  1.00  0.00     0.002 C 
ENDROOT
BRANCH   1   2
ATOM      2  C   UNL     1       4.129   1.558  -3.608  1.00  0.00     0.002 C 
BRANCH   2   3
ATOM      3  C   UNL     1       4.511   0.329  -2.789  1.00  0.00     0.021 C 
BRANCH   3   4
ATOM      4  C   UNL     1       4.340   0.489  -1.289  1.00  0.00     0.116 C 
BRANCH   4   5
ATOM      5  N   UNL     1       2.945   0.569  -0.887  1.00  0.00    -0.352 N 
ATOM      6  O   UNL     1       1.083  -0.071   0.227  1.00  0.00    -0.269 OA
ATOM      7  C   UNL     1       2.300  -0.139   0.100  1.00  0.00     0.251 C 
ATOM      8  H   UNL     1       2.391   1.212  -1.386  1.00  0.00     0.163 HD
BRANCH   7   9
ATOM      9  C   UNL     1       3.093  -1.010   0.995  1.00  0.00     0.039 A 
ATOM     10  C   UNL     1       4.287  -0.546   1.549  1.00  0.00     0.014 A 
ATOM     11  C   UNL     1       2.651  -2.309   1.262  1.00  0.00     0.014 A 
ATOM     12  C   UNL     1       5.111  -1.424   2.239  1.00  0.00     0.010 A 
ATOM     13  C   UNL     1       3.437  -3.163   2.044  1.00  0.00     0.010 A 
ATOM     14  C   UNL     1       4.686  -2.735   2.516  1.00  0.00    -0.014 A 
BRANCH  14  15
ATOM     15  C   UNL     1       5.545  -3.588   3.374  1.00  0.00     0.031 A 
ATOM     16  C   UNL     1       6.200  -4.835   2.851  1.00  0.00     0.074 A 
ATOM     17  C   UNL     1       5.786  -3.174   4.634  1.00  0.00     0.049 A 
ATOM     18  N   UNL     1       7.052  -5.626   3.454  1.00  0.00    -0.248 NA
ATOM     19  C   UNL     1       5.857  -5.255   1.484  1.00  0.00     0.031 C 
ATOM     20  C   UNL     1       5.190  -1.988   5.258  1.00  0.00     0.029 A 
ATOM     21  N   UNL     1       6.622  -3.671   5.599  1.00  0.00    -0.354 N 
ATOM     22  C   UNL     1       7.337  -6.642   2.550  1.00  0.00     0.074 A 
ATOM     23  C   UNL     1       6.548  -6.381   1.364  1.00  0.00     0.031 C 
ATOM     24  C   UNL     1       5.736  -1.807   6.468  1.00  0.00     0.029 A 
ATOM     25  C   UNL     1       6.667  -2.896   6.732  1.00  0.00     0.049 A 
ATOM     26  H   UNL     1       7.140  -4.501   5.490  1.00  0.00     0.167 HD
ATOM     27  C   UNL     1       8.181  -7.692   2.696  1.00  0.00     0.031 A 
ATOM     28  C   UNL     1       7.375  -3.043   7.865  1.00  0.00     0.031 A 
ATOM     29  C   UNL     1       8.960  -7.951   3.879  1.00  0.00     0.049 A 
ATOM     30  C   UNL     1       8.302  -4.213   7.995  1.00  0.00     0.074 A 
ATOM     31  C   UNL     1       9.846  -8.989   4.120  1.00  0.00     0.029 A 
ATOM     32  N   UNL     1       8.950  -7.165   5.021  1.00  0.00    -0.354 N 
ATOM     33  N   UNL     1       8.569  -5.153   7.122  1.00  0.00    -0.248 NA
ATOM     34  C   UNL     1       9.025  -4.342   9.267  1.00  0.00     0.031 C 
ATOM     35  C   UNL     1      10.342  -8.851   5.421  1.00  0.00     0.029 A 
ATOM     36  C   UNL     1       9.802  -7.701   5.973  1.00  0.00     0.049 A 
ATOM     37  H   UNL     1       8.415  -6.346   5.138  1.00  0.00     0.167 HD
ATOM     38  C   UNL     1       9.489  -5.988   7.738  1.00  0.00     0.074 A 
ATOM     39  C   UNL     1       9.763  -5.419   9.043  1.00  0.00     0.031 C 
ATOM     40  C   UNL     1      10.047  -7.131   7.272  1.00  0.00     0.031 A 
BRANCH  27  41
ATOM     41  C   UNL     1       8.297  -8.656   1.548  1.00  0.00    -0.014 A 
ATOM     42  C   UNL     1       9.000  -8.315   0.382  1.00  0.00     0.009 A 
ATOM     43  C   UNL     1       7.751  -9.945   1.659  1.00  0.00     0.009 A 
ATOM     44  C   UNL     1       9.133  -9.238  -0.659  1.00  0.00     0.001 A 
ATOM     45  C   UNL     1       7.905 -10.872   0.627  1.00  0.00     0.001 A 
ATOM     46  C   UNL     1       8.591 -10.517  -0.533  1.00  0.00     0.000 A 
ENDBRANCH  27  41
BRANCH  28  47
ATOM     47  C   UNL     1       7.216  -2.062   8.968  1.00  0.00    -0.014 A 
ATOM     48  C   UNL     1       8.252  -1.177   9.299  1.00  0.00     0.009 A 
ATOM     49  C   UNL     1       6.011  -1.997   9.686  1.00  0.00     0.009 A 
ATOM     50  C   UNL     1       8.091  -0.261  10.341  1.00  0.00     0.001 A 
ATOM     51  C   UNL     1       5.842  -1.060  10.705  1.00  0.00     0.001 A 
ATOM     52  C   UNL     1       6.885  -0.199  11.038  1.00  0.00     0.000 A 
ENDBRANCH  28  47
BRANCH  40  53
ATOM     53  C   UNL     1      11.010  -7.828   8.188  1.00  0.00    -0.014 A 
ATOM     54  C   UNL     1      10.556  -8.519   9.322  1.00  0.00     0.009 A 
ATOM     55  C   UNL     1      12.386  -7.791   7.915  1.00  0.00     0.009 A 
ATOM     56  C   UNL     1      11.466  -9.124  10.190  1.00  0.00     0.001 A 
ATOM     57  C   UNL     1      13.291  -8.419   8.771  1.00  0.00     0.001 A 
ATOM     58  C   UNL     1      12.832  -9.075   9.913  1.00  0.00     0.000 A 
ENDBRANCH  40  53
ENDBRANCH  14  15
ENDBRANCH   7   9
ENDBRANCH   4   5
ENDBRANCH   3   4
ENDBRANCH   2   3
ENDBRANCH   1   2
BRANCH   1  59
ATOM     59  C   UNL     1       6.406   2.767  -3.217  1.00  0.00     0.021 C 
BRANCH  59  60
ATOM     60  C   UNL     1       7.053   2.120  -4.441  1.00  0.00     0.116 C 
BRANCH  60  61
ATOM     61  N   UNL     1       6.587   2.716  -5.673  1.00  0.00    -0.354 N 
ATOM     62  C   UNL     1       7.216   3.621  -6.473  1.00  0.00     0.249 C 
ATOM     63  H   UNL     1       5.694   2.429  -5.974  1.00  0.00     0.163 HD
ATOM     64  O   UNL     1       6.604   4.048  -7.453  1.00  0.00    -0.272 OA
BRANCH  62  65
ATOM     65  C   UNL     1       8.640   4.062  -6.106  1.00  0.00     0.207 C 
ATOM     66  C   UNL     1       9.133   5.201  -6.982  1.00  0.00     0.045 C 
ATOM     67  O   UNL     1       9.566   2.966  -6.271  1.00  0.00    -0.364 OA
ATOM     68  C   UNL     1      10.548   4.805  -7.308  1.00  0.00     0.036 C 
ATOM     69  C   UNL     1      10.487   3.294  -7.334  1.00  0.00     0.134 C 
BRANCH  69  70
ATOM     70  C   UNL     1      11.747   2.442  -7.189  1.00  0.00     0.174 C 
BRANCH  70  71
ATOM     71  S   UNL     1      13.329   3.240  -7.146  1.00  0.00     0.181 S 
ATOM     72  O   UNL     1      13.378   4.094  -5.971  1.00  0.00    -0.224 OA
ATOM     73  O   UNL     1      14.345   2.227  -7.351  1.00  0.00    -0.224 OA
BRANCH  71  74
ATOM     74  C   UNL     1      13.387   4.284  -8.580  1.00  0.00     0.070 A 
ATOM     75  C   UNL     1      13.299   3.702  -9.849  1.00  0.00     0.020 A 
ATOM     76  C   UNL     1      13.437   5.672  -8.426  1.00  0.00     0.059 A 
ATOM     77  C   UNL     1      13.183   4.525 -10.971  1.00  0.00     0.004 A 
ATOM     78  C   UNL     1      13.295   6.472  -9.550  1.00  0.00     0.124 A 
ATOM     79  C   UNL     1      13.156   5.912 -10.817  1.00  0.00     0.039 A 
ATOM     80  F   UNL     1      13.241   7.802  -9.408  1.00  0.00    -0.207 F 
ENDBRANCH  71  74
ENDBRANCH  70  71
ENDBRANCH  69  70
ENDBRANCH  62  65
ENDBRANCH  60  61
ENDBRANCH  59  60
ENDBRANCH   1  59
TORSDOF 16
