REMARK SMILES O=C(Cn1cccc1C(=O)NCCC(=O)NC1CC1)NCCCCCCNC(=O)c1ccc(-c2c3nc(c(-c4ccccc4)c4ccc([nH]4)c(-c4ccccc4)c4nc(c(-c5ccccc5)c5ccc2[nH]5)C=C4)C=C3)cc1
REMARK SMILES IDX 21 1 20 2 1 3 2 4 3 6 4 7 5 8 8 9 6 10 7 11 9 12 10 13 11 14
REMARK SMILES IDX 12 16 13 17 14 18 15 19 16 20 17 22 18 23 19 24 22 25 23 26
REMARK SMILES IDX 24 27 25 28 26 29 27 30 28 31 29 33 30 34 31 35 77 36 32 37
REMARK SMILES IDX 76 38 33 39 34 40 35 41 70 42 36 43 75 44 69 45 71 46 37 47
REMARK SMILES IDX 74 48 68 49 67 50 38 52 60 53 45 54 59 55 46 56 49 57 58 58
REMARK SMILES IDX 72 59 47 60 48 61 57 63 73 64 50 65 39 66 40 67 44 68 41 69
REMARK SMILES IDX 43 70 42 71 61 72 62 73 66 74 63 75 65 76 64 77 51 78 52 79
REMARK SMILES IDX 56 80 53 81 55 82 54 83
REMARK H PARENT 20 5 11 15 16 21 27 32 71 51 49 62
REMARK Flexibility Score: inf
ROOT
ATOM      1  C   UNL     1       4.251  -1.173  -1.097  1.00  0.00     0.116 C 
ENDROOT
BRANCH   1   2
ATOM      2  N   UNL     1       4.604   0.182  -0.738  1.00  0.00    -0.355 N 
ATOM      3  O   UNL     1       2.729   1.431  -1.229  1.00  0.00    -0.273 OA
ATOM      4  C   UNL     1       3.620   1.109  -0.450  1.00  0.00     0.239 C 
ATOM      5  H   UNL     1       5.552   0.447  -0.700  1.00  0.00     0.163 HD
BRANCH   4   6
ATOM      6  C   UNL     1       3.734   1.759   0.897  1.00  0.00     0.222 C 
BRANCH   6   7
ATOM      7  N   UNL     1       3.897   0.830   2.010  1.00  0.00    -0.334 N 
ATOM      8  C   UNL     1       4.854   1.146   2.972  1.00  0.00     0.087 A 
ATOM      9  C   UNL     1       3.316  -0.398   2.314  1.00  0.00     0.107 A 
ATOM     10  C   UNL     1       5.073   0.056   3.763  1.00  0.00     0.020 A 
ATOM     11  C   UNL     1       4.147  -0.903   3.337  1.00  0.00     0.033 A 
BRANCH   9  12
ATOM     12  C   UNL     1       2.190  -1.242   1.901  1.00  0.00     0.267 C 
ATOM     13  O   UNL     1       1.994  -2.289   2.546  1.00  0.00    -0.268 OA
ATOM     14  N   UNL     1       1.239  -1.181   0.934  1.00  0.00    -0.350 N 
ATOM     15  H   UNL     1       0.800  -2.062   0.925  1.00  0.00     0.163 HD
BRANCH  14  16
ATOM     16  C   UNL     1       0.581  -0.391  -0.093  1.00  0.00     0.126 C 
BRANCH  16  17
ATOM     17  C   UNL     1       0.824  -0.723  -1.570  1.00  0.00     0.121 C 
BRANCH  17  18
ATOM     18  C   UNL     1       0.535  -2.026  -2.305  1.00  0.00     0.221 C 
ATOM     19  O   UNL     1       0.146  -1.964  -3.482  1.00  0.00    -0.275 OA
ATOM     20  N   UNL     1       0.819  -3.278  -1.865  1.00  0.00    -0.353 N 
ATOM     21  H   UNL     1       0.805  -3.956  -2.579  1.00  0.00     0.163 HD
BRANCH  20  22
ATOM     22  C   UNL     1       1.131  -3.811  -0.588  1.00  0.00     0.082 C 
ATOM     23  C   UNL     1       1.733  -5.200  -0.527  1.00  0.00     0.027 C 
ATOM     24  C   UNL     1       2.526  -4.021  -0.078  1.00  0.00     0.027 C 
ENDBRANCH  20  22
ENDBRANCH  17  18
ENDBRANCH  16  17
ENDBRANCH  14  16
ENDBRANCH   9  12
ENDBRANCH   6   7
ENDBRANCH   4   6
ENDBRANCH   1   2
BRANCH   1  25
ATOM     25  C   UNL     1       4.292  -1.514  -2.583  1.00  0.00     0.021 C 
BRANCH  25  26
ATOM     26  C   UNL     1       5.528  -2.331  -2.967  1.00  0.00     0.002 C 
BRANCH  26  27
ATOM     27  C   UNL     1       5.618  -3.733  -2.335  1.00  0.00     0.002 C 
BRANCH  27  28
ATOM     28  C   UNL     1       4.559  -4.752  -2.785  1.00  0.00     0.021 C 
BRANCH  28  29
ATOM     29  C   UNL     1       4.716  -5.213  -4.217  1.00  0.00     0.116 C 
BRANCH  29  30
ATOM     30  N   UNL     1       5.990  -5.886  -4.426  1.00  0.00    -0.352 N 
ATOM     31  C   UNL     1       6.388  -6.631  -5.500  1.00  0.00     0.251 C 
ATOM     32  H   UNL     1       6.649  -5.792  -3.701  1.00  0.00     0.163 HD
ATOM     33  O   UNL     1       7.323  -7.431  -5.391  1.00  0.00    -0.269 OA
BRANCH  31  34
ATOM     34  C   UNL     1       5.716  -6.459  -6.794  1.00  0.00     0.039 A 
ATOM     35  C   UNL     1       5.602  -7.546  -7.667  1.00  0.00     0.014 A 
ATOM     36  C   UNL     1       5.270  -5.186  -7.167  1.00  0.00     0.014 A 
ATOM     37  C   UNL     1       5.014  -7.351  -8.906  1.00  0.00     0.010 A 
ATOM     38  C   UNL     1       4.591  -5.008  -8.343  1.00  0.00     0.010 A 
ATOM     39  C   UNL     1       4.507  -6.082  -9.221  1.00  0.00    -0.014 A 
BRANCH  39  40
ATOM     40  C   UNL     1       3.788  -5.860 -10.474  1.00  0.00     0.031 A 
ATOM     41  C   UNL     1       2.374  -6.473 -10.366  1.00  0.00     0.074 A 
ATOM     42  C   UNL     1       4.518  -5.183 -11.420  1.00  0.00     0.049 A 
ATOM     43  N   UNL     1       1.636  -7.011 -11.279  1.00  0.00    -0.248 NA
ATOM     44  C   UNL     1       1.710  -6.589  -9.030  1.00  0.00     0.031 C 
ATOM     45  C   UNL     1       5.879  -4.606 -11.208  1.00  0.00     0.029 A 
ATOM     46  N   UNL     1       4.304  -4.812 -12.725  1.00  0.00    -0.354 N 
ATOM     47  C   UNL     1       0.392  -7.360 -10.702  1.00  0.00     0.074 A 
ATOM     48  C   UNL     1       0.542  -7.186  -9.291  1.00  0.00     0.031 C 
ATOM     49  C   UNL     1       6.384  -4.085 -12.348  1.00  0.00     0.029 A 
ATOM     50  C   UNL     1       5.429  -4.278 -13.414  1.00  0.00     0.049 A 
ATOM     51  H   UNL     1       3.425  -4.909 -13.158  1.00  0.00     0.167 HD
ATOM     52  C   UNL     1      -0.715  -7.620 -11.462  1.00  0.00     0.031 A 
ATOM     53  C   UNL     1       5.594  -4.096 -14.763  1.00  0.00     0.031 A 
ATOM     54  C   UNL     1      -0.361  -7.552 -12.841  1.00  0.00     0.049 A 
ATOM     55  C   UNL     1       4.302  -4.490 -15.340  1.00  0.00     0.074 A 
ATOM     56  C   UNL     1       0.391  -8.387 -13.626  1.00  0.00     0.029 A 
ATOM     57  N   UNL     1      -0.395  -6.297 -13.405  1.00  0.00    -0.354 N 
ATOM     58  N   UNL     1       3.205  -3.806 -15.240  1.00  0.00    -0.248 NA
ATOM     59  C   UNL     1       4.183  -5.830 -15.925  1.00  0.00     0.031 C 
ATOM     60  C   UNL     1       1.244  -7.477 -14.286  1.00  0.00     0.029 A 
ATOM     61  C   UNL     1       0.743  -6.175 -14.162  1.00  0.00     0.049 A 
ATOM     62  H   UNL     1      -1.099  -5.619 -13.287  1.00  0.00     0.167 HD
ATOM     63  C   UNL     1       2.246  -4.779 -15.366  1.00  0.00     0.074 A 
ATOM     64  C   UNL     1       2.864  -5.879 -16.081  1.00  0.00     0.031 C 
ATOM     65  C   UNL     1       1.228  -4.854 -14.467  1.00  0.00     0.031 A 
BRANCH  52  66
ATOM     66  C   UNL     1      -2.184  -7.678 -11.151  1.00  0.00    -0.014 A 
ATOM     67  C   UNL     1      -3.037  -8.161 -12.178  1.00  0.00     0.009 A 
ATOM     68  C   UNL     1      -2.783  -6.988 -10.095  1.00  0.00     0.009 A 
ATOM     69  C   UNL     1      -4.393  -7.839 -12.228  1.00  0.00     0.001 A 
ATOM     70  C   UNL     1      -4.158  -6.699 -10.124  1.00  0.00     0.001 A 
ATOM     71  C   UNL     1      -4.950  -7.086 -11.206  1.00  0.00     0.000 A 
ENDBRANCH  52  66
BRANCH  53  72
ATOM     72  C   UNL     1       6.706  -3.824 -15.747  1.00  0.00    -0.014 A 
ATOM     73  C   UNL     1       7.997  -3.385 -15.449  1.00  0.00     0.009 A 
ATOM     74  C   UNL     1       6.468  -4.117 -17.122  1.00  0.00     0.009 A 
ATOM     75  C   UNL     1       9.006  -3.365 -16.442  1.00  0.00     0.001 A 
ATOM     76  C   UNL     1       7.470  -4.153 -18.095  1.00  0.00     0.001 A 
ATOM     77  C   UNL     1       8.755  -3.792 -17.747  1.00  0.00     0.000 A 
ENDBRANCH  53  72
BRANCH  65  78
ATOM     78  C   UNL     1       0.981  -3.592 -13.641  1.00  0.00    -0.014 A 
ATOM     79  C   UNL     1       0.743  -2.374 -14.301  1.00  0.00     0.009 A 
ATOM     80  C   UNL     1       1.100  -3.534 -12.238  1.00  0.00     0.009 A 
ATOM     81  C   UNL     1       0.659  -1.158 -13.609  1.00  0.00     0.001 A 
ATOM     82  C   UNL     1       1.016  -2.316 -11.537  1.00  0.00     0.001 A 
ATOM     83  C   UNL     1       0.799  -1.126 -12.226  1.00  0.00     0.000 A 
ENDBRANCH  65  78
ENDBRANCH  39  40
ENDBRANCH  31  34
ENDBRANCH  29  30
ENDBRANCH  28  29
ENDBRANCH  27  28
ENDBRANCH  26  27
ENDBRANCH  25  26
ENDBRANCH   1  25
TORSDOF 19
