REMARK SMILES CC(C)C[C@H](NC(=O)[C@@H](NC(=O)[C@H](C)NC(=O)CNC(=O)OCc1ccccc1)C(C)C)C(=O)NCCCCCCNC(=O)c1ccc(-c2c3nc(c(-c4ccccc4)c4ccc([nH]4)c(-c4ccccc4)c4nc(c(-c5ccccc5)c5ccc2[nH]5)C=C4)C=C3)cc1
REMARK SMILES IDX 33 1 34 2 35 3 5 5 4 6 2 7 1 8 3 9 6 10 7 11 8 13 9 14 10 15
REMARK SMILES IDX 11 16 12 18 13 19 14 20 15 21 16 22 17 24 18 25 19 26 20 27
REMARK SMILES IDX 21 29 22 30 23 31 24 32 25 33 29 34 26 35 28 36 27 37 30 38
REMARK SMILES IDX 31 39 32 40 36 41 37 42 38 43 39 44 40 45 41 46 42 47 43 48
REMARK SMILES IDX 44 50 45 51 46 52 92 53 47 54 91 55 48 56 49 57 50 58 85 59
REMARK SMILES IDX 51 60 90 61 84 62 86 63 52 64 89 65 83 66 82 67 53 69 75 70
REMARK SMILES IDX 60 71 74 72 61 73 64 74 73 75 87 76 62 77 63 78 72 80 88 81
REMARK SMILES IDX 65 82 54 83 55 84 59 85 56 86 58 87 57 88 76 89 77 90 81 91
REMARK SMILES IDX 78 92 80 93 79 94 66 95 67 96 71 97 68 98 70 99 69 100
REMARK H PARENT 35 4 6 12 10 17 15 23 19 28 42 49 86 68 64 79
REMARK Flexibility Score: inf
ROOT
ATOM      1  C   UNL     1      -3.773  -0.416   0.685  1.00  0.00     0.242 C 
ATOM      2  O   UNL     1      -4.953  -0.057   0.598  1.00  0.00    -0.273 OA
ATOM      3  N   UNL     1      -2.788   0.552   0.473  1.00  0.00    -0.354 N 
ATOM      4  H   UNL     1      -3.102   1.485   0.464  1.00  0.00     0.163 HD
ENDROOT
BRANCH   1   5
ATOM      5  C   UNL     1      -3.444  -1.957   0.915  1.00  0.00     0.171 C 
BRANCH   5   6
ATOM      6  C   UNL     1      -4.369  -2.817   1.824  1.00  0.00     0.038 C 
BRANCH   6   7
ATOM      7  C   UNL     1      -3.768  -3.674   2.998  1.00  0.00    -0.015 C 
ATOM      8  C   UNL     1      -4.210  -3.104   4.308  1.00  0.00     0.007 C 
ATOM      9  C   UNL     1      -4.248  -5.119   3.073  1.00  0.00     0.007 C 
ENDBRANCH   6   7
ENDBRANCH   5   6
BRANCH   5  10
ATOM     10  N   UNL     1      -2.080  -2.289   1.147  1.00  0.00    -0.343 N 
ATOM     11  C   UNL     1      -1.334  -2.026   2.243  1.00  0.00     0.243 C 
ATOM     12  H   UNL     1      -1.623  -2.770   0.419  1.00  0.00     0.164 HD
ATOM     13  O   UNL     1      -0.155  -2.386   2.139  1.00  0.00    -0.273 OA
BRANCH  11  14
ATOM     14  C   UNL     1      -1.866  -1.234   3.526  1.00  0.00     0.174 C 
BRANCH  14  15
ATOM     15  N   UNL     1      -3.064  -0.229   3.529  1.00  0.00    -0.342 N 
ATOM     16  C   UNL     1      -4.293   0.236   3.890  1.00  0.00     0.242 C 
ATOM     17  H   UNL     1      -2.748   0.474   2.917  1.00  0.00     0.164 HD
ATOM     18  O   UNL     1      -4.462   1.367   3.384  1.00  0.00    -0.273 OA
BRANCH  16  19
ATOM     19  C   UNL     1      -5.573  -0.391   4.653  1.00  0.00     0.168 C 
ATOM     20  C   UNL     1      -6.647   0.715   4.818  1.00  0.00     0.041 C 
BRANCH  19  21
ATOM     21  N   UNL     1      -5.405  -1.006   5.984  1.00  0.00    -0.343 N 
ATOM     22  C   UNL     1      -5.948  -2.094   6.614  1.00  0.00     0.240 C 
ATOM     23  H   UNL     1      -4.755  -0.525   6.546  1.00  0.00     0.164 HD
ATOM     24  O   UNL     1      -5.568  -2.254   7.785  1.00  0.00    -0.273 OA
BRANCH  22  25
ATOM     25  C   UNL     1      -6.832  -3.216   5.971  1.00  0.00     0.219 C 
BRANCH  25  26
ATOM     26  N   UNL     1      -8.014  -2.818   5.233  1.00  0.00    -0.312 N 
ATOM     27  C   UNL     1      -8.331  -2.820   3.913  1.00  0.00     0.407 C 
ATOM     28  H   UNL     1      -8.736  -2.475   5.807  1.00  0.00     0.167 HD
ATOM     29  O   UNL     1      -9.443  -2.406   3.575  1.00  0.00    -0.225 OA
BRANCH  27  30
ATOM     30  O   UNL     1      -7.399  -3.292   3.050  1.00  0.00    -0.445 OA
BRANCH  30  31
ATOM     31  C   UNL     1      -7.760  -3.153   1.652  1.00  0.00     0.270 C 
BRANCH  31  32
ATOM     32  C   UNL     1      -8.333  -4.400   1.015  1.00  0.00    -0.011 A 
ATOM     33  C   UNL     1      -9.155  -5.275   1.734  1.00  0.00     0.007 A 
ATOM     34  C   UNL     1      -8.141  -4.639  -0.358  1.00  0.00     0.007 A 
ATOM     35  C   UNL     1      -9.764  -6.362   1.105  1.00  0.00     0.000 A 
ATOM     36  C   UNL     1      -8.751  -5.729  -0.987  1.00  0.00     0.000 A 
ATOM     37  C   UNL     1      -9.565  -6.588  -0.254  1.00  0.00     0.000 A 
ENDBRANCH  31  32
ENDBRANCH  30  31
ENDBRANCH  27  30
ENDBRANCH  25  26
ENDBRANCH  22  25
ENDBRANCH  19  21
ENDBRANCH  16  19
ENDBRANCH  14  15
BRANCH  14  38
ATOM     38  C   UNL     1      -1.380  -1.876   4.882  1.00  0.00     0.015 C 
ATOM     39  C   UNL     1      -0.321  -2.993   4.746  1.00  0.00     0.010 C 
ATOM     40  C   UNL     1      -0.865  -0.839   5.880  1.00  0.00     0.010 C 
ENDBRANCH  14  38
ENDBRANCH  11  14
ENDBRANCH   5  10
ENDBRANCH   1   5
BRANCH   3  41
ATOM     41  C   UNL     1      -1.364   0.365   0.263  1.00  0.00     0.116 C 
BRANCH  41  42
ATOM     42  C   UNL     1      -0.304   1.451   0.472  1.00  0.00     0.021 C 
BRANCH  42  43
ATOM     43  C   UNL     1      -0.492   2.657   1.386  1.00  0.00     0.002 C 
BRANCH  43  44
ATOM     44  C   UNL     1      -0.716   2.528   2.895  1.00  0.00     0.002 C 
BRANCH  44  45
ATOM     45  C   UNL     1       0.283   1.803   3.796  1.00  0.00     0.021 C 
BRANCH  45  46
ATOM     46  C   UNL     1       1.764   1.919   3.531  1.00  0.00     0.116 C 
BRANCH  46  47
ATOM     47  N   UNL     1       2.259   3.264   3.687  1.00  0.00    -0.352 N 
ATOM     48  C   UNL     1       3.297   3.716   4.463  1.00  0.00     0.251 C 
ATOM     49  H   UNL     1       1.787   3.953   3.166  1.00  0.00     0.163 HD
ATOM     50  O   UNL     1       3.478   4.923   4.594  1.00  0.00    -0.269 OA
BRANCH  48  51
ATOM     51  C   UNL     1       4.180   2.758   5.173  1.00  0.00     0.039 A 
ATOM     52  C   UNL     1       4.573   3.055   6.481  1.00  0.00     0.014 A 
ATOM     53  C   UNL     1       4.631   1.583   4.564  1.00  0.00     0.014 A 
ATOM     54  C   UNL     1       5.376   2.158   7.190  1.00  0.00     0.010 A 
ATOM     55  C   UNL     1       5.354   0.648   5.301  1.00  0.00     0.010 A 
ATOM     56  C   UNL     1       5.750   0.932   6.617  1.00  0.00    -0.014 A 
BRANCH  56  57
ATOM     57  C   UNL     1       6.584  -0.051   7.357  1.00  0.00     0.031 A 
ATOM     58  C   UNL     1       7.944  -0.426   6.828  1.00  0.00     0.074 A 
ATOM     59  C   UNL     1       6.099  -0.650   8.463  1.00  0.00     0.049 A 
ATOM     60  N   UNL     1       8.786  -1.324   7.275  1.00  0.00    -0.248 NA
ATOM     61  C   UNL     1       8.412   0.283   5.624  1.00  0.00     0.031 C 
ATOM     62  C   UNL     1       4.789  -0.394   9.066  1.00  0.00     0.029 A 
ATOM     63  N   UNL     1       6.653  -1.610   9.275  1.00  0.00    -0.354 N 
ATOM     64  C   UNL     1       9.859  -1.308   6.392  1.00  0.00     0.074 A 
ATOM     65  C   UNL     1       9.550  -0.343   5.362  1.00  0.00     0.031 C 
ATOM     66  C   UNL     1       4.650  -1.158  10.162  1.00  0.00     0.029 A 
ATOM     67  C   UNL     1       5.836  -1.995  10.313  1.00  0.00     0.049 A 
ATOM     68  H   UNL     1       7.550  -1.987   9.128  1.00  0.00     0.167 HD
ATOM     69  C   UNL     1      11.007  -2.023   6.442  1.00  0.00     0.031 A 
ATOM     70  C   UNL     1       6.016  -2.929  11.267  1.00  0.00     0.031 A 
ATOM     71  C   UNL     1      11.327  -2.961   7.483  1.00  0.00     0.049 A 
ATOM     72  C   UNL     1       7.294  -3.726  11.279  1.00  0.00     0.074 A 
ATOM     73  C   UNL     1      12.497  -3.679   7.662  1.00  0.00     0.029 A 
ATOM     74  N   UNL     1      10.476  -3.314   8.517  1.00  0.00    -0.354 N 
ATOM     75  N   UNL     1       8.332  -3.639  10.483  1.00  0.00    -0.248 NA
ATOM     76  C   UNL     1       7.429  -4.745  12.331  1.00  0.00     0.031 C 
ATOM     77  C   UNL     1      12.328  -4.518   8.765  1.00  0.00     0.029 A 
ATOM     78  C   UNL     1      11.082  -4.266   9.318  1.00  0.00     0.049 A 
ATOM     79  H   UNL     1       9.575  -2.942   8.662  1.00  0.00     0.167 HD
ATOM     80  C   UNL     1       9.256  -4.558  10.964  1.00  0.00     0.074 A 
ATOM     81  C   UNL     1       8.663  -5.182  12.127  1.00  0.00     0.031 C 
ATOM     82  C   UNL     1      10.487  -4.860  10.485  1.00  0.00     0.031 A 
BRANCH  69  83
ATOM     83  C   UNL     1      12.008  -1.835   5.336  1.00  0.00    -0.014 A 
ATOM     84  C   UNL     1      12.754  -0.653   5.215  1.00  0.00     0.009 A 
ATOM     85  C   UNL     1      12.266  -2.894   4.450  1.00  0.00     0.009 A 
ATOM     86  C   UNL     1      13.723  -0.528   4.216  1.00  0.00     0.001 A 
ATOM     87  C   UNL     1      13.256  -2.778   3.473  1.00  0.00     0.001 A 
ATOM     88  C   UNL     1      13.979  -1.593   3.353  1.00  0.00     0.000 A 
ENDBRANCH  69  83
BRANCH  70  89
ATOM     89  C   UNL     1       4.965  -3.186  12.290  1.00  0.00    -0.014 A 
ATOM     90  C   UNL     1       5.207  -2.918  13.647  1.00  0.00     0.009 A 
ATOM     91  C   UNL     1       3.735  -3.756  11.925  1.00  0.00     0.009 A 
ATOM     92  C   UNL     1       4.265  -3.263  14.619  1.00  0.00     0.001 A 
ATOM     93  C   UNL     1       2.779  -4.065  12.896  1.00  0.00     0.001 A 
ATOM     94  C   UNL     1       3.051  -3.835  14.243  1.00  0.00     0.000 A 
ENDBRANCH  70  89
BRANCH  82  95
ATOM     95  C   UNL     1      11.306  -5.860  11.252  1.00  0.00    -0.014 A 
ATOM     96  C   UNL     1      10.982  -7.225  11.260  1.00  0.00     0.009 A 
ATOM     97  C   UNL     1      12.460  -5.431  11.927  1.00  0.00     0.009 A 
ATOM     98  C   UNL     1      11.781  -8.134  11.956  1.00  0.00     0.001 A 
ATOM     99  C   UNL     1      13.276  -6.346  12.591  1.00  0.00     0.001 A 
ATOM    100  C   UNL     1      12.930  -7.696  12.614  1.00  0.00     0.000 A 
ENDBRANCH  82  95
ENDBRANCH  56  57
ENDBRANCH  48  51
ENDBRANCH  46  47
ENDBRANCH  45  46
ENDBRANCH  44  45
ENDBRANCH  43  44
ENDBRANCH  42  43
ENDBRANCH  41  42
ENDBRANCH   3  41
TORSDOF 26
