REMARK SMILES Cc1cccc(Nc2ccccc2C(=O)NCCCCCCNC(=O)c2ccc(-c3c4nc(c(-c5ccccc5)c5ccc([nH]5)c(-c5ccccc5)c5nc(c(-c6ccccc6)c6ccc3[nH]6)C=C5)C=C4)cc2)c1C
REMARK SMILES IDX 19 1 18 2 17 3 16 4 14 5 15 6 13 8 8 9 9 10 10 11 12 12
REMARK SMILES IDX 11 13 7 14 6 16 1 17 2 18 3 19 74 20 4 21 75 22 5 23 20 24
REMARK SMILES IDX 21 25 22 26 23 27 24 28 25 30 26 31 27 32 73 33 28 34 72 35
REMARK SMILES IDX 29 36 30 37 31 38 66 39 32 40 71 41 65 42 67 43 33 44 70 45
REMARK SMILES IDX 64 46 63 47 34 49 56 50 41 51 55 52 42 53 45 54 54 55 68 56
REMARK SMILES IDX 43 57 44 58 53 60 69 61 46 62 35 63 36 64 40 65 37 66 39 67
REMARK SMILES IDX 38 68 57 69 58 70 62 71 59 72 61 73 60 74 47 75 48 76 52 77
REMARK SMILES IDX 49 78 51 79 50 80
REMARK H PARENT 16 7 7 15 23 29 67 48 45 59
REMARK Flexibility Score: inf
ROOT
ATOM      1  C   UNL     1      -2.979  -0.811   3.155  1.00  0.00     0.002 C 
ENDROOT
BRANCH   1   2
ATOM      2  C   UNL     1      -2.660  -2.180   2.537  1.00  0.00     0.021 C 
BRANCH   2   3
ATOM      3  C   UNL     1      -1.423  -2.256   1.646  1.00  0.00     0.116 C 
BRANCH   3   4
ATOM      4  N   UNL     1      -0.172  -2.093   2.343  1.00  0.00    -0.352 N 
ATOM      5  C   UNL     1       1.087  -2.536   2.018  1.00  0.00     0.253 C 
ATOM      6  O   UNL     1       2.014  -2.161   2.744  1.00  0.00    -0.269 OA
ATOM      7  H   UNL     1      -0.229  -1.584   3.184  1.00  0.00     0.163 HD
BRANCH   5   8
ATOM      8  C   UNL     1       1.388  -3.530   0.939  1.00  0.00     0.063 A 
ATOM      9  C   UNL     1       0.889  -3.579  -0.378  1.00  0.00     0.051 A 
ATOM     10  C   UNL     1       1.289  -4.665  -1.200  1.00  0.00     0.027 A 
ATOM     11  C   UNL     1       2.203  -5.628  -0.777  1.00  0.00     0.002 A 
ATOM     12  C   UNL     1       2.330  -4.509   1.342  1.00  0.00     0.016 A 
ATOM     13  C   UNL     1       2.744  -5.538   0.493  1.00  0.00     0.001 A 
BRANCH   9  14
ATOM     14  N   UNL     1       0.129  -2.600  -1.050  1.00  0.00    -0.355 N 
ATOM     15  H   UNL     1      -0.591  -2.986  -1.601  1.00  0.00     0.167 HD
BRANCH  14  16
ATOM     16  C   UNL     1       0.167  -1.192  -1.109  1.00  0.00     0.042 A 
ATOM     17  C   UNL     1       2.170   1.909  -0.088  1.00  0.00     0.044 C 
ATOM     18  C   UNL     1       1.068   1.015  -0.592  1.00  0.00    -0.046 A 
ATOM     19  C   UNL     1      -0.161   1.598  -0.932  1.00  0.00     0.004 A 
ATOM     20  C   UNL     1       1.262  -0.383  -0.746  1.00  0.00    -0.025 A 
ATOM     21  C   UNL     1      -1.202   0.816  -1.408  1.00  0.00     0.002 A 
ATOM     22  C   UNL     1       2.652  -0.944  -0.577  1.00  0.00     0.047 C 
ATOM     23  C   UNL     1      -1.040  -0.562  -1.484  1.00  0.00     0.026 A 
ENDBRANCH  14  16
ENDBRANCH   9  14
ENDBRANCH   5   8
ENDBRANCH   3   4
ENDBRANCH   2   3
ENDBRANCH   1   2
BRANCH   1  24
ATOM     24  C   UNL     1      -3.062   0.396   2.212  1.00  0.00     0.002 C 
BRANCH  24  25
ATOM     25  C   UNL     1      -3.915   0.234   0.952  1.00  0.00     0.021 C 
BRANCH  25  26
ATOM     26  C   UNL     1      -5.369  -0.164   1.166  1.00  0.00     0.116 C 
BRANCH  26  27
ATOM     27  N   UNL     1      -6.148   0.859   1.840  1.00  0.00    -0.352 N 
ATOM     28  C   UNL     1      -7.303   1.495   1.453  1.00  0.00     0.251 C 
ATOM     29  H   UNL     1      -5.792   1.142   2.714  1.00  0.00     0.163 HD
ATOM     30  O   UNL     1      -7.732   2.434   2.117  1.00  0.00    -0.269 OA
BRANCH  28  31
ATOM     31  C   UNL     1      -8.029   1.081   0.228  1.00  0.00     0.039 A 
ATOM     32  C   UNL     1      -8.566   2.073  -0.602  1.00  0.00     0.014 A 
ATOM     33  C   UNL     1      -8.222  -0.265  -0.091  1.00  0.00     0.014 A 
ATOM     34  C   UNL     1      -9.239   1.718  -1.776  1.00  0.00     0.010 A 
ATOM     35  C   UNL     1      -8.825  -0.616  -1.298  1.00  0.00     0.010 A 
ATOM     36  C   UNL     1      -9.348   0.370  -2.149  1.00  0.00    -0.014 A 
BRANCH  36  37
ATOM     37  C   UNL     1     -10.023  -0.040  -3.409  1.00  0.00     0.031 A 
ATOM     38  C   UNL     1     -11.264  -0.889  -3.355  1.00  0.00     0.074 A 
ATOM     39  C   UNL     1      -9.478   0.274  -4.600  1.00  0.00     0.049 A 
ATOM     40  N   UNL     1     -11.925  -1.453  -4.335  1.00  0.00    -0.248 NA
ATOM     41  C   UNL     1     -11.817  -1.166  -2.019  1.00  0.00     0.031 C 
ATOM     42  C   UNL     1      -8.260   1.063  -4.796  1.00  0.00     0.029 A 
ATOM     43  N   UNL     1      -9.871  -0.052  -5.875  1.00  0.00    -0.354 N 
ATOM     44  C   UNL     1     -12.946  -2.178  -3.732  1.00  0.00     0.074 A 
ATOM     45  C   UNL     1     -12.795  -2.014  -2.303  1.00  0.00     0.031 C 
ATOM     46  C   UNL     1      -8.014   1.171  -6.112  1.00  0.00     0.029 A 
ATOM     47  C   UNL     1      -9.029   0.426  -6.850  1.00  0.00     0.049 A 
ATOM     48  H   UNL     1     -10.680  -0.578  -6.072  1.00  0.00     0.167 HD
ATOM     49  C   UNL     1     -13.929  -2.906  -4.314  1.00  0.00     0.031 A 
ATOM     50  C   UNL     1      -9.060   0.270  -8.187  1.00  0.00     0.031 A 
ATOM     51  C   UNL     1     -14.099  -3.046  -5.736  1.00  0.00     0.049 A 
ATOM     52  C   UNL     1     -10.164  -0.535  -8.813  1.00  0.00     0.074 A 
ATOM     53  C   UNL     1     -15.107  -3.699  -6.423  1.00  0.00     0.029 A 
ATOM     54  N   UNL     1     -13.239  -2.520  -6.687  1.00  0.00    -0.354 N 
ATOM     55  N   UNL     1     -11.155  -1.165  -8.232  1.00  0.00    -0.248 NA
ATOM     56  C   UNL     1     -10.157  -0.644 -10.279  1.00  0.00     0.031 C 
ATOM     57  C   UNL     1     -14.832  -3.608  -7.791  1.00  0.00     0.029 A 
ATOM     58  C   UNL     1     -13.681  -2.856  -7.956  1.00  0.00     0.049 A 
ATOM     59  H   UNL     1     -12.435  -1.988  -6.491  1.00  0.00     0.167 HD
ATOM     60  C   UNL     1     -11.904  -1.722  -9.261  1.00  0.00     0.074 A 
ATOM     61  C   UNL     1     -11.258  -1.349 -10.502  1.00  0.00     0.031 C 
ATOM     62  C   UNL     1     -13.029  -2.474  -9.182  1.00  0.00     0.031 A 
BRANCH  49  63
ATOM     63  C   UNL     1     -14.891  -3.620  -3.406  1.00  0.00    -0.014 A 
ATOM     64  C   UNL     1     -15.836  -2.917  -2.643  1.00  0.00     0.009 A 
ATOM     65  C   UNL     1     -14.865  -5.022  -3.331  1.00  0.00     0.009 A 
ATOM     66  C   UNL     1     -16.706  -3.600  -1.791  1.00  0.00     0.001 A 
ATOM     67  C   UNL     1     -15.757  -5.704  -2.501  1.00  0.00     0.001 A 
ATOM     68  C   UNL     1     -16.668  -4.992  -1.723  1.00  0.00     0.000 A 
ENDBRANCH  49  63
BRANCH  50  69
ATOM     69  C   UNL     1      -8.010   0.902  -9.028  1.00  0.00    -0.014 A 
ATOM     70  C   UNL     1      -8.311   2.022  -9.817  1.00  0.00     0.009 A 
ATOM     71  C   UNL     1      -6.700   0.399  -9.034  1.00  0.00     0.009 A 
ATOM     72  C   UNL     1      -7.325   2.615 -10.609  1.00  0.00     0.001 A 
ATOM     73  C   UNL     1      -5.710   1.009  -9.807  1.00  0.00     0.001 A 
ATOM     74  C   UNL     1      -6.024   2.112 -10.599  1.00  0.00     0.000 A 
ENDBRANCH  50  69
BRANCH  62  75
ATOM     75  C   UNL     1     -13.657  -2.917 -10.472  1.00  0.00    -0.014 A 
ATOM     76  C   UNL     1     -13.096  -3.950 -11.237  1.00  0.00     0.009 A 
ATOM     77  C   UNL     1     -14.862  -2.333 -10.892  1.00  0.00     0.009 A 
ATOM     78  C   UNL     1     -13.722  -4.376 -12.410  1.00  0.00     0.001 A 
ATOM     79  C   UNL     1     -15.498  -2.777 -12.052  1.00  0.00     0.001 A 
ATOM     80  C   UNL     1     -14.924  -3.795 -12.813  1.00  0.00     0.000 A 
ENDBRANCH  62  75
ENDBRANCH  36  37
ENDBRANCH  28  31
ENDBRANCH  26  27
ENDBRANCH  25  26
ENDBRANCH  24  25
ENDBRANCH   1  24
TORSDOF 15
