REMARK SMILES O=C(CNC(=O)c1ccco1)Nc1cccc(C(=O)NCCCCCCNC(=O)c2ccc(-c3c4nc(c(-c5ccccc5)c5ccc([nH]5)c(-c5ccccc5)c5nc(c(-c6ccccc6)c6ccc3[nH]6)C=C5)C=C4)cc2)c1
REMARK SMILES IDX 22 1 21 2 20 3 18 4 19 5 17 7 13 8 14 9 78 10 15 11 16 12
REMARK SMILES IDX 12 13 1 14 2 15 3 17 4 18 5 19 6 21 7 22 8 23 11 24 9 25
REMARK SMILES IDX 10 26 23 27 24 28 25 29 26 30 27 31 28 32 29 34 30 35 31 36
REMARK SMILES IDX 77 37 32 38 76 39 33 40 34 41 35 42 70 43 36 44 75 45 69 46
REMARK SMILES IDX 71 47 37 48 74 49 68 50 67 51 38 53 60 54 45 55 59 56 46 57
REMARK SMILES IDX 49 58 58 59 72 60 47 61 48 62 57 64 73 65 50 66 39 67 40 68
REMARK SMILES IDX 44 69 41 70 43 71 42 72 61 73 62 74 66 75 63 76 65 77 64 78
REMARK SMILES IDX 51 79 52 80 56 81 53 82 55 83 54 84
REMARK H PARENT 20 6 12 16 4 20 27 33 71 52 49 63
REMARK Flexibility Score: inf
ROOT
ATOM      1  C   UNL     1       0.098   4.700   1.385  1.00  0.00     0.021 C 
ENDROOT
BRANCH   1   2
ATOM      2  C   UNL     1      -0.114   3.641   0.308  1.00  0.00     0.116 C 
BRANCH   2   3
ATOM      3  N   UNL     1      -0.828   4.123  -0.865  1.00  0.00    -0.352 N 
ATOM      4  C   UNL     1      -0.612   3.871  -2.204  1.00  0.00     0.251 C 
ATOM      5  O   UNL     1      -1.313   4.432  -3.044  1.00  0.00    -0.269 OA
ATOM      6  H   UNL     1      -1.584   4.723  -0.673  1.00  0.00     0.163 HD
BRANCH   4   7
ATOM      7  C   UNL     1       0.490   2.979  -2.654  1.00  0.00     0.041 A 
ATOM      8  C   UNL     1       1.995   1.121  -2.236  1.00  0.00     0.042 A 
ATOM      9  C   UNL     1       2.744   1.496  -3.356  1.00  0.00     0.026 A 
ATOM     10  C   UNL     1       0.817   1.814  -1.956  1.00  0.00     0.040 A 
ATOM     11  C   UNL     1       2.346   2.581  -4.146  1.00  0.00     0.003 A 
ATOM     12  C   UNL     1       1.232   3.338  -3.781  1.00  0.00     0.014 A 
BRANCH   8  13
ATOM     13  N   UNL     1       2.524   0.131  -1.376  1.00  0.00    -0.325 N 
ATOM     14  O   UNL     1       0.887   0.029   0.287  1.00  0.00    -0.273 OA
ATOM     15  C   UNL     1       1.986  -0.285  -0.167  1.00  0.00     0.243 C 
ATOM     16  H   UNL     1       3.358  -0.305  -1.663  1.00  0.00     0.169 HD
BRANCH  15  17
ATOM     17  C   UNL     1       2.981  -1.013   0.740  1.00  0.00     0.216 C 
BRANCH  17  18
ATOM     18  N   UNL     1       4.040  -1.719   0.043  1.00  0.00    -0.340 N 
ATOM     19  C   UNL     1       5.401  -1.661   0.251  1.00  0.00     0.287 C 
ATOM     20  H   UNL     1       3.746  -2.323  -0.676  1.00  0.00     0.164 HD
ATOM     21  O   UNL     1       6.104  -2.233  -0.579  1.00  0.00    -0.266 OA
BRANCH  19  22
ATOM     22  C   UNL     1       5.927  -0.931   1.387  1.00  0.00     0.191 A 
ATOM     23  C   UNL     1       5.527  -0.796   2.707  1.00  0.00     0.056 A 
ATOM     24  O   UNL     1       7.084  -0.219   1.202  1.00  0.00    -0.459 OA
ATOM     25  C   UNL     1       6.454   0.071   3.335  1.00  0.00     0.043 A 
ATOM     26  C   UNL     1       7.386   0.388   2.377  1.00  0.00     0.196 A 
ENDBRANCH  19  22
ENDBRANCH  17  18
ENDBRANCH  15  17
ENDBRANCH   8  13
ENDBRANCH   4   7
ENDBRANCH   2   3
ENDBRANCH   1   2
BRANCH   1  27
ATOM     27  C   UNL     1      -1.160   5.241   2.064  1.00  0.00     0.002 C 
BRANCH  27  28
ATOM     28  C   UNL     1      -2.094   4.206   2.697  1.00  0.00     0.002 C 
BRANCH  28  29
ATOM     29  C   UNL     1      -1.458   3.219   3.680  1.00  0.00     0.021 C 
BRANCH  29  30
ATOM     30  C   UNL     1      -0.657   3.828   4.829  1.00  0.00     0.116 C 
BRANCH  30  31
ATOM     31  N   UNL     1      -1.442   4.718   5.664  1.00  0.00    -0.352 N 
ATOM     32  C   UNL     1      -1.585   4.765   7.028  1.00  0.00     0.251 C 
ATOM     33  H   UNL     1      -1.956   5.398   5.172  1.00  0.00     0.163 HD
ATOM     34  O   UNL     1      -2.404   5.536   7.523  1.00  0.00    -0.269 OA
BRANCH  32  35
ATOM     35  C   UNL     1      -0.791   3.884   7.918  1.00  0.00     0.039 A 
ATOM     36  C   UNL     1      -1.433   3.309   9.019  1.00  0.00     0.014 A 
ATOM     37  C   UNL     1       0.572   3.653   7.714  1.00  0.00     0.014 A 
ATOM     38  C   UNL     1      -0.727   2.462   9.877  1.00  0.00     0.010 A 
ATOM     39  C   UNL     1       1.261   2.754   8.533  1.00  0.00     0.010 A 
ATOM     40  C   UNL     1       0.619   2.150   9.624  1.00  0.00    -0.014 A 
BRANCH  40  41
ATOM     41  C   UNL     1       1.337   1.171  10.481  1.00  0.00     0.031 A 
ATOM     42  C   UNL     1       2.493   1.593  11.345  1.00  0.00     0.074 A 
ATOM     43  C   UNL     1       0.960  -0.123  10.458  1.00  0.00     0.049 A 
ATOM     44  N   UNL     1       3.201   0.876  12.183  1.00  0.00    -0.248 NA
ATOM     45  C   UNL     1       2.928   2.994  11.238  1.00  0.00     0.031 C 
ATOM     46  C   UNL     1      -0.106  -0.678   9.621  1.00  0.00     0.029 A 
ATOM     47  N   UNL     1       1.427  -1.204  11.162  1.00  0.00    -0.354 N 
ATOM     48  C   UNL     1       4.168   1.733  12.694  1.00  0.00     0.074 A 
ATOM     49  C   UNL     1       3.986   3.010  12.036  1.00  0.00     0.031 C 
ATOM     50  C   UNL     1      -0.236  -1.987   9.887  1.00  0.00     0.029 A 
ATOM     51  C   UNL     1       0.752  -2.370  10.890  1.00  0.00     0.049 A 
ATOM     52  H   UNL     1       2.173  -1.150  11.802  1.00  0.00     0.167 HD
ATOM     53  C   UNL     1       5.110   1.487  13.637  1.00  0.00     0.031 A 
ATOM     54  C   UNL     1       0.903  -3.608  11.396  1.00  0.00     0.031 A 
ATOM     55  C   UNL     1       5.289   0.220  14.298  1.00  0.00     0.049 A 
ATOM     56  C   UNL     1       1.937  -3.850  12.458  1.00  0.00     0.074 A 
ATOM     57  C   UNL     1       6.170  -0.106  15.316  1.00  0.00     0.029 A 
ATOM     58  N   UNL     1       4.578  -0.933  14.003  1.00  0.00    -0.354 N 
ATOM     59  N   UNL     1       2.784  -3.005  12.993  1.00  0.00    -0.248 NA
ATOM     60  C   UNL     1       2.020  -5.214  12.998  1.00  0.00     0.031 C 
ATOM     61  C   UNL     1       6.028  -1.469  15.599  1.00  0.00     0.029 A 
ATOM     62  C   UNL     1       5.019  -1.979  14.798  1.00  0.00     0.049 A 
ATOM     63  H   UNL     1       3.864  -0.999  13.328  1.00  0.00     0.167 HD
ATOM     64  C   UNL     1       3.488  -3.729  13.946  1.00  0.00     0.074 A 
ATOM     65  C   UNL     1       2.950  -5.074  13.931  1.00  0.00     0.031 C 
ATOM     66  C   UNL     1       4.492  -3.318  14.758  1.00  0.00     0.031 A 
BRANCH  53  67
ATOM     67  C   UNL     1       6.033   2.618  14.004  1.00  0.00    -0.014 A 
ATOM     68  C   UNL     1       5.571   3.734  14.720  1.00  0.00     0.009 A 
ATOM     69  C   UNL     1       7.391   2.550  13.657  1.00  0.00     0.009 A 
ATOM     70  C   UNL     1       6.442   4.776  15.046  1.00  0.00     0.001 A 
ATOM     71  C   UNL     1       8.266   3.580  14.010  1.00  0.00     0.001 A 
ATOM     72  C   UNL     1       7.789   4.697  14.694  1.00  0.00     0.000 A 
ENDBRANCH  53  67
BRANCH  54  73
ATOM     73  C   UNL     1       0.029  -4.712  10.921  1.00  0.00    -0.014 A 
ATOM     74  C   UNL     1      -0.974  -5.234  11.752  1.00  0.00     0.009 A 
ATOM     75  C   UNL     1       0.190  -5.244   9.633  1.00  0.00     0.009 A 
ATOM     76  C   UNL     1      -1.782  -6.285  11.310  1.00  0.00     0.001 A 
ATOM     77  C   UNL     1      -0.637  -6.274   9.184  1.00  0.00     0.001 A 
ATOM     78  C   UNL     1      -1.616  -6.800  10.025  1.00  0.00     0.000 A 
ENDBRANCH  54  73
BRANCH  66  79
ATOM     79  C   UNL     1       5.061  -4.339  15.704  1.00  0.00    -0.014 A 
ATOM     80  C   UNL     1       5.845  -5.407  15.238  1.00  0.00     0.009 A 
ATOM     81  C   UNL     1       4.812  -4.231  17.081  1.00  0.00     0.009 A 
ATOM     82  C   UNL     1       6.327  -6.371  16.125  1.00  0.00     0.001 A 
ATOM     83  C   UNL     1       5.321  -5.179  17.970  1.00  0.00     0.001 A 
ATOM     84  C   UNL     1       6.066  -6.255  17.490  1.00  0.00     0.000 A 
ENDBRANCH  66  79
ENDBRANCH  40  41
ENDBRANCH  32  35
ENDBRANCH  30  31
ENDBRANCH  29  30
ENDBRANCH  28  29
ENDBRANCH  27  28
ENDBRANCH   1  27
TORSDOF 17
