REMARK SMILES O=C(NCCCCCCNC(=O)c1cc(/C=C/c2cc(O)cc(O)c2)ccc1O)c1ccc(-c2c3nc(c(-c4ccccc4)c4ccc([nH]4)c(-c4ccccc4)c4nc(c(-c5ccccc5)c5ccc2[nH]5)C=C4)C=C3)cc1
REMARK SMILES IDX 7 1 6 2 5 3 4 4 3 5 1 6 2 7 30 9 31 10 77 11 32 12 76 13
REMARK SMILES IDX 33 14 34 15 35 16 70 17 36 18 75 19 69 20 71 21 37 22 74 23
REMARK SMILES IDX 68 24 67 25 38 27 60 28 45 29 59 30 46 31 49 32 58 33 72 34
REMARK SMILES IDX 47 35 48 36 57 38 73 39 50 40 39 41 40 42 44 43 41 44 43 45
REMARK SMILES IDX 42 46 61 47 62 48 66 49 63 50 65 51 64 52 51 53 52 54 56 55
REMARK SMILES IDX 53 56 55 57 54 58 8 59 9 60 10 61 11 62 12 64 13 65 14 66
REMARK SMILES IDX 28 67 15 68 27 69 26 70 29 71 16 73 17 74 18 75 19 76 25 77
REMARK SMILES IDX 20 78 23 79 22 80 21 81 24 83
REMARK H PARENT 3 8 71 26 49 37 10 63 29 72 21 82 24 84
REMARK Flexibility Score: inf
ROOT
ATOM      1  C   UNL     1       4.819  -2.801   3.391  1.00  0.00     0.002 C 
ENDROOT
BRANCH   1   2
ATOM      2  C   UNL     1       4.309  -1.375   3.612  1.00  0.00     0.002 C 
BRANCH   2   3
ATOM      3  C   UNL     1       4.794  -0.343   2.592  1.00  0.00     0.021 C 
BRANCH   3   4
ATOM      4  C   UNL     1       4.521  -0.707   1.138  1.00  0.00     0.116 C 
BRANCH   4   5
ATOM      5  N   UNL     1       3.100  -0.827   0.860  1.00  0.00    -0.352 N 
ATOM      6  O   UNL     1       1.105  -0.231  -0.011  1.00  0.00    -0.269 OA
ATOM      7  C   UNL     1       2.332  -0.139  -0.041  1.00  0.00     0.251 C 
ATOM      8  H   UNL     1       2.620  -1.499   1.397  1.00  0.00     0.163 HD
BRANCH   7   9
ATOM      9  C   UNL     1       2.977   0.731  -1.044  1.00  0.00     0.039 A 
ATOM     10  C   UNL     1       4.080   0.284  -1.778  1.00  0.00     0.014 A 
ATOM     11  C   UNL     1       2.449   2.005  -1.269  1.00  0.00     0.014 A 
ATOM     12  C   UNL     1       4.723   1.148  -2.658  1.00  0.00     0.010 A 
ATOM     13  C   UNL     1       3.052   2.845  -2.205  1.00  0.00     0.010 A 
ATOM     14  C   UNL     1       4.205   2.430  -2.892  1.00  0.00    -0.014 A 
BRANCH  14  15
ATOM     15  C   UNL     1       4.827   3.318  -3.902  1.00  0.00     0.031 A 
ATOM     16  C   UNL     1       5.455   4.619  -3.497  1.00  0.00     0.074 A 
ATOM     17  C   UNL     1       4.773   2.967  -5.200  1.00  0.00     0.049 A 
ATOM     18  N   UNL     1       5.951   5.565  -4.252  1.00  0.00    -0.248 NA
ATOM     19  C   UNL     1       5.524   4.898  -2.055  1.00  0.00     0.031 C 
ATOM     20  C   UNL     1       4.189   1.727  -5.715  1.00  0.00     0.029 A 
ATOM     21  N   UNL     1       5.197   3.630  -6.324  1.00  0.00    -0.354 N 
ATOM     22  C   UNL     1       6.365   6.565  -3.382  1.00  0.00     0.074 A 
ATOM     23  C   UNL     1       6.042   6.119  -2.043  1.00  0.00     0.031 C 
ATOM     24  C   UNL     1       4.294   1.716  -7.051  1.00  0.00     0.029 A 
ATOM     25  C   UNL     1       4.889   2.974  -7.490  1.00  0.00     0.049 A 
ATOM     26  H   UNL     1       5.675   4.490  -6.297  1.00  0.00     0.167 HD
ATOM     27  C   UNL     1       6.957   7.749  -3.675  1.00  0.00     0.031 A 
ATOM     28  C   UNL     1       5.028   3.355  -8.773  1.00  0.00     0.031 A 
ATOM     29  C   UNL     1       7.255   8.192  -5.013  1.00  0.00     0.049 A 
ATOM     30  C   UNL     1       5.634   4.692  -9.078  1.00  0.00     0.074 A 
ATOM     31  C   UNL     1       7.889   9.355  -5.414  1.00  0.00     0.029 A 
ATOM     32  N   UNL     1       6.923   7.499  -6.168  1.00  0.00    -0.354 N 
ATOM     33  N   UNL     1       6.065   5.609  -8.245  1.00  0.00    -0.248 NA
ATOM     34  C   UNL     1       5.778   5.048 -10.496  1.00  0.00     0.031 C 
ATOM     35  C   UNL     1       7.878   9.398  -6.812  1.00  0.00     0.029 A 
ATOM     36  C   UNL     1       7.305   8.226  -7.282  1.00  0.00     0.049 A 
ATOM     37  H   UNL     1       6.479   6.620  -6.191  1.00  0.00     0.167 HD
ATOM     38  C   UNL     1       6.558   6.638  -9.036  1.00  0.00     0.074 A 
ATOM     39  C   UNL     1       6.375   6.230 -10.415  1.00  0.00     0.031 C 
ATOM     40  C   UNL     1       7.119   7.809  -8.650  1.00  0.00     0.031 A 
BRANCH  27  41
ATOM     41  C   UNL     1       7.269   8.668  -2.525  1.00  0.00    -0.014 A 
ATOM     42  C   UNL     1       8.253   8.354  -1.574  1.00  0.00     0.009 A 
ATOM     43  C   UNL     1       6.568   9.878  -2.397  1.00  0.00     0.009 A 
ATOM     44  C   UNL     1       8.489   9.205  -0.491  1.00  0.00     0.001 A 
ATOM     45  C   UNL     1       6.829  10.743  -1.333  1.00  0.00     0.001 A 
ATOM     46  C   UNL     1       7.778  10.399  -0.372  1.00  0.00     0.000 A 
ENDBRANCH  27  41
BRANCH  28  47
ATOM     47  C   UNL     1       4.554   2.450  -9.850  1.00  0.00    -0.014 A 
ATOM     48  C   UNL     1       5.467   1.760 -10.659  1.00  0.00     0.009 A 
ATOM     49  C   UNL     1       3.179   2.223 -10.030  1.00  0.00     0.009 A 
ATOM     50  C   UNL     1       5.012   0.867 -11.633  1.00  0.00     0.001 A 
ATOM     51  C   UNL     1       2.728   1.308 -10.982  1.00  0.00     0.001 A 
ATOM     52  C   UNL     1       3.645   0.635 -11.787  1.00  0.00     0.000 A 
ENDBRANCH  28  47
BRANCH  40  53
ATOM     53  C   UNL     1       7.627   8.725  -9.728  1.00  0.00    -0.014 A 
ATOM     54  C   UNL     1       6.751   9.470 -10.532  1.00  0.00     0.009 A 
ATOM     55  C   UNL     1       9.011   8.904  -9.882  1.00  0.00     0.009 A 
ATOM     56  C   UNL     1       7.254  10.365 -11.480  1.00  0.00     0.001 A 
ATOM     57  C   UNL     1       9.510   9.819 -10.809  1.00  0.00     0.001 A 
ATOM     58  C   UNL     1       8.631  10.546 -11.610  1.00  0.00     0.000 A 
ENDBRANCH  40  53
ENDBRANCH  14  15
ENDBRANCH   7   9
ENDBRANCH   4   5
ENDBRANCH   3   4
ENDBRANCH   2   3
ENDBRANCH   1   2
BRANCH   1  59
ATOM     59  C   UNL     1       6.341  -2.945   3.293  1.00  0.00     0.021 C 
BRANCH  59  60
ATOM     60  C   UNL     1       7.115  -2.390   4.484  1.00  0.00     0.116 C 
BRANCH  60  61
ATOM     61  N   UNL     1       6.789  -3.081   5.716  1.00  0.00    -0.352 N 
ATOM     62  C   UNL     1       7.645  -3.588   6.659  1.00  0.00     0.255 C 
ATOM     63  H   UNL     1       5.830  -3.202   5.899  1.00  0.00     0.163 HD
ATOM     64  O   UNL     1       7.208  -4.231   7.611  1.00  0.00    -0.269 OA
BRANCH  62  65
ATOM     65  C   UNL     1       9.104  -3.444   6.487  1.00  0.00     0.082 A 
ATOM     66  C   UNL     1       9.853  -4.628   6.435  1.00  0.00     0.025 A 
ATOM     67  C   UNL     1       9.741  -2.204   6.393  1.00  0.00     0.128 A 
ATOM     68  C   UNL     1      11.239  -4.591   6.244  1.00  0.00    -0.025 A 
ATOM     69  C   UNL     1      11.117  -2.150   6.192  1.00  0.00     0.047 A 
ATOM     70  C   UNL     1      11.856  -3.336   6.111  1.00  0.00     0.012 A 
BRANCH  67  71
ATOM     71  O   UNL     1       9.025  -1.044   6.487  1.00  0.00    -0.507 OA
ATOM     72  H   UNL     1       8.099  -1.075   6.622  1.00  0.00     0.293 HD
ENDBRANCH  67  71
BRANCH  68  73
ATOM     73  C   UNL     1      12.082  -5.799   6.182  1.00  0.00     0.009 C 
ATOM     74  C   UNL     1      11.657  -7.064   6.338  1.00  0.00     0.009 C 
BRANCH  74  75
ATOM     75  C   UNL     1      12.556  -8.226   6.297  1.00  0.00    -0.018 A 
ATOM     76  C   UNL     1      13.755  -8.250   7.022  1.00  0.00     0.054 A 
ATOM     77  C   UNL     1      12.167  -9.361   5.572  1.00  0.00     0.054 A 
ATOM     78  C   UNL     1      14.556  -9.390   6.998  1.00  0.00     0.119 A 
ATOM     79  C   UNL     1      12.985 -10.488   5.560  1.00  0.00     0.119 A 
ATOM     80  C   UNL     1      14.181 -10.510   6.267  1.00  0.00     0.092 A 
BRANCH  78  81
ATOM     81  O   UNL     1      15.726  -9.448   7.697  1.00  0.00    -0.508 OA
ATOM     82  H   UNL     1      16.008  -8.710   8.201  1.00  0.00     0.293 HD
ENDBRANCH  78  81
BRANCH  79  83
ATOM     83  O   UNL     1      12.639 -11.608   4.861  1.00  0.00    -0.508 OA
ATOM     84  H   UNL     1      13.203 -12.356   4.865  1.00  0.00     0.293 HD
ENDBRANCH  79  83
ENDBRANCH  74  75
ENDBRANCH  68  73
ENDBRANCH  62  65
ENDBRANCH  60  61
ENDBRANCH  59  60
ENDBRANCH   1  59
TORSDOF 18
