REMARK SMILES C[C@@]1(C(=O)NCCCCCCNC(=O)c2ccc(-c3c4nc(c(-c5ccccc5)c5ccc([nH]5)c(-c5ccccc5)c5nc(c(-c6ccccc6)c6ccc3[nH]6)C=C5)C=C4)cc2)CCCN(C(=O)[C@@H]2CCCCC[C@@H]2[NH3+])C1
REMARK SMILES IDX 7 1 6 2 5 3 3 4 4 5 2 7 1 8 63 9 77 10 64 11 66 12 65 13
REMARK SMILES IDX 67 14 68 15 69 16 70 17 71 18 72 19 75 21 74 22 73 23 76 25
REMARK SMILES IDX 8 29 9 30 10 31 11 32 12 33 13 34 14 36 15 37 16 38 62 39
REMARK SMILES IDX 17 40 61 41 18 42 19 43 20 44 55 45 21 46 60 47 54 48 56 49
REMARK SMILES IDX 22 50 59 51 53 52 52 53 23 55 45 56 30 57 44 58 31 59 34 60
REMARK SMILES IDX 43 61 57 62 32 63 33 64 42 66 58 67 35 68 24 69 25 70 29 71
REMARK SMILES IDX 26 72 28 73 27 74 46 75 47 76 51 77 48 78 50 79 49 80 36 81
REMARK SMILES IDX 37 82 41 83 38 84 40 85 39 86
REMARK H PARENT 5 6 76 26 76 27 76 28 12 35 56 54 34 65
REMARK Flexibility Score: 90.00
ROOT
ATOM      1  C   UNL     1       0.046  -5.144   1.760  1.00  0.00     0.021 C 
ENDROOT
BRANCH   1   2
ATOM      2  C   UNL     1      -0.776  -3.900   2.099  1.00  0.00     0.116 C 
BRANCH   2   3
ATOM      3  N   UNL     1       0.054  -2.836   2.620  1.00  0.00    -0.356 N 
ATOM      4  C   UNL     1       0.518  -1.680   2.087  1.00  0.00     0.227 C 
ATOM      5  O   UNL     1       1.226  -1.005   2.843  1.00  0.00    -0.274 OA
ATOM      6  H   UNL     1       0.339  -2.981   3.551  1.00  0.00     0.163 HD
BRANCH   4   7
ATOM      7  C   UNL     1       0.223  -1.224   0.642  1.00  0.00     0.064 C 
ATOM      8  C   UNL     1       1.028   0.087   0.418  1.00  0.00     0.024 C 
ATOM      9  C   UNL     1      -1.263  -0.897   0.402  1.00  0.00     0.020 C 
ATOM     10  C   UNL     1       0.676  -2.315  -0.348  1.00  0.00     0.136 C 
ATOM     11  C   UNL     1      -1.524  -0.541  -1.066  1.00  0.00     0.023 C 
ATOM     12  N   UNL     1       0.439  -1.975  -1.746  1.00  0.00    -0.341 N 
ATOM     13  C   UNL     1      -0.941  -1.562  -2.048  1.00  0.00     0.119 C 
BRANCH  12  14
ATOM     14  C   UNL     1       1.271  -2.307  -2.815  1.00  0.00     0.231 C 
ATOM     15  O   UNL     1       0.933  -2.030  -3.973  1.00  0.00    -0.274 OA
BRANCH  14  16
ATOM     16  C   UNL     1       2.602  -3.078  -2.618  1.00  0.00     0.136 C 
BRANCH  16  17
ATOM     17  C   UNL     1       2.372  -4.482  -2.022  1.00  0.00     0.020 C 
BRANCH  17  18
ATOM     18  C   UNL     1       3.503  -5.464  -2.339  1.00  0.00     0.001 C 
BRANCH  18  19
ATOM     19  C   UNL     1       4.624  -5.460  -1.306  1.00  0.00     0.000 CG0
ATOM     20  G   UNL     1       5.039  -4.083  -0.801  1.00  0.00     0.000 G0
ENDBRANCH  18  19
ENDBRANCH  17  18
ENDBRANCH  16  17
BRANCH  16  21
ATOM     21  C   UNL     1       3.819  -2.229  -2.155  1.00  0.00     0.193 C 
BRANCH  21  22
ATOM     22  C   UNL     1       5.119  -3.024  -1.904  1.00  0.00     0.066 C 
BRANCH  22  23
ATOM     23  C   UNL     1       5.039  -4.083  -0.801  1.00  0.00     0.006 CG0
ATOM     24  G   UNL     1       4.624  -5.460  -1.306  1.00  0.00     0.000 G0
ENDBRANCH  22  23
ENDBRANCH  21  22
BRANCH  21  25
ATOM     25  N   UNL     1       3.644  -1.334  -1.019  1.00  0.00    -0.354 N 
ATOM     26  H   UNL     1       3.560  -1.883  -0.163  1.00  0.00     0.344 HD
ATOM     27  H   UNL     1       2.799  -0.779  -1.150  1.00  0.00     0.344 HD
ATOM     28  H   UNL     1       4.450  -0.713  -0.947  1.00  0.00     0.344 HD
ENDBRANCH  21  25
ENDBRANCH  16  21
ENDBRANCH  14  16
ENDBRANCH  12  14
ENDBRANCH   4   7
ENDBRANCH   2   3
ENDBRANCH   1   2
BRANCH   1  29
ATOM     29  C   UNL     1       0.585  -5.899   2.978  1.00  0.00     0.002 C 
BRANCH  29  30
ATOM     30  C   UNL     1      -0.470  -6.287   4.018  1.00  0.00     0.002 C 
BRANCH  30  31
ATOM     31  C   UNL     1      -1.683  -7.032   3.456  1.00  0.00     0.021 C 
BRANCH  31  32
ATOM     32  C   UNL     1      -1.345  -8.363   2.797  1.00  0.00     0.116 C 
BRANCH  32  33
ATOM     33  N   UNL     1      -0.842  -9.327   3.762  1.00  0.00    -0.352 N 
ATOM     34  C   UNL     1      -1.345 -10.560   4.091  1.00  0.00     0.251 C 
ATOM     35  H   UNL     1      -0.028  -9.058   4.247  1.00  0.00     0.163 HD
ATOM     36  O   UNL     1      -0.946 -11.149   5.093  1.00  0.00    -0.269 OA
BRANCH  34  37
ATOM     37  C   UNL     1      -2.382 -11.171   3.237  1.00  0.00     0.039 A 
ATOM     38  C   UNL     1      -3.502 -11.754   3.835  1.00  0.00     0.014 A 
ATOM     39  C   UNL     1      -2.248 -11.161   1.846  1.00  0.00     0.014 A 
ATOM     40  C   UNL     1      -4.518 -12.275   3.032  1.00  0.00     0.010 A 
ATOM     41  C   UNL     1      -3.295 -11.609   1.049  1.00  0.00     0.010 A 
ATOM     42  C   UNL     1      -4.438 -12.176   1.633  1.00  0.00    -0.014 A 
BRANCH  42  43
ATOM     43  C   UNL     1      -5.529 -12.668   0.756  1.00  0.00     0.031 A 
ATOM     44  C   UNL     1      -5.266 -13.793  -0.208  1.00  0.00     0.074 A 
ATOM     45  C   UNL     1      -6.732 -12.062   0.777  1.00  0.00     0.049 A 
ATOM     46  N   UNL     1      -6.057 -14.303  -1.118  1.00  0.00    -0.248 NA
ATOM     47  C   UNL     1      -3.930 -14.411  -0.158  1.00  0.00     0.031 C 
ATOM     48  C   UNL     1      -7.107 -10.947   1.650  1.00  0.00     0.029 A 
ATOM     49  N   UNL     1      -7.862 -12.296   0.035  1.00  0.00    -0.354 N 
ATOM     50  C   UNL     1      -5.312 -15.288  -1.754  1.00  0.00     0.074 A 
ATOM     51  C   UNL     1      -3.991 -15.266  -1.167  1.00  0.00     0.031 C 
ATOM     52  C   UNL     1      -8.386 -10.615   1.413  1.00  0.00     0.029 A 
ATOM     53  C   UNL     1      -8.906 -11.455   0.339  1.00  0.00     0.049 A 
ATOM     54  H   UNL     1      -7.920 -13.001  -0.650  1.00  0.00     0.167 HD
ATOM     55  C   UNL     1      -5.699 -16.151  -2.723  1.00  0.00     0.031 A 
ATOM     56  C   UNL     1     -10.138 -11.364  -0.196  1.00  0.00     0.031 A 
ATOM     57  C   UNL     1      -7.014 -16.174  -3.305  1.00  0.00     0.049 A 
ATOM     58  C   UNL     1     -10.524 -12.299  -1.310  1.00  0.00     0.074 A 
ATOM     59  C   UNL     1      -7.515 -17.030  -4.269  1.00  0.00     0.029 A 
ATOM     60  N   UNL     1      -8.037 -15.299  -2.975  1.00  0.00    -0.354 N 
ATOM     61  N   UNL     1      -9.825 -13.260  -1.864  1.00  0.00    -0.248 NA
ATOM     62  C   UNL     1     -11.876 -12.140  -1.867  1.00  0.00     0.031 C 
ATOM     63  C   UNL     1      -8.824 -16.638  -4.564  1.00  0.00     0.029 A 
ATOM     64  C   UNL     1      -9.160 -15.580  -3.735  1.00  0.00     0.049 A 
ATOM     65  H   UNL     1      -7.975 -14.583  -2.302  1.00  0.00     0.167 HD
ATOM     66  C   UNL     1     -10.664 -13.844  -2.805  1.00  0.00     0.074 A 
ATOM     67  C   UNL     1     -11.926 -13.138  -2.738  1.00  0.00     0.031 C 
ATOM     68  C   UNL     1     -10.413 -14.876  -3.647  1.00  0.00     0.031 A 
BRANCH  55  69
ATOM     69  C   UNL     1      -4.681 -17.142  -3.216  1.00  0.00    -0.014 A 
ATOM     70  C   UNL     1      -4.233 -18.191  -2.398  1.00  0.00     0.009 A 
ATOM     71  C   UNL     1      -4.191 -17.049  -4.528  1.00  0.00     0.009 A 
ATOM     72  C   UNL     1      -3.288 -19.104  -2.870  1.00  0.00     0.001 A 
ATOM     73  C   UNL     1      -3.271 -17.983  -5.009  1.00  0.00     0.001 A 
ATOM     74  C   UNL     1      -2.812 -19.003  -4.177  1.00  0.00     0.000 A 
ENDBRANCH  55  69
BRANCH  56  75
ATOM     75  C   UNL     1     -11.107 -10.356   0.312  1.00  0.00    -0.014 A 
ATOM     76  C   UNL     1     -12.264 -10.763   0.995  1.00  0.00     0.009 A 
ATOM     77  C   UNL     1     -10.899  -8.986   0.091  1.00  0.00     0.009 A 
ATOM     78  C   UNL     1     -13.208  -9.823   1.413  1.00  0.00     0.001 A 
ATOM     79  C   UNL     1     -11.829  -8.045   0.540  1.00  0.00     0.001 A 
ATOM     80  C   UNL     1     -12.989  -8.465   1.188  1.00  0.00     0.000 A 
ENDBRANCH  56  75
BRANCH  68  81
ATOM     81  C   UNL     1     -11.540 -15.342  -4.526  1.00  0.00    -0.014 A 
ATOM     82  C   UNL     1     -11.987 -14.577  -5.614  1.00  0.00     0.009 A 
ATOM     83  C   UNL     1     -12.125 -16.596  -4.289  1.00  0.00     0.009 A 
ATOM     84  C   UNL     1     -13.021 -15.047  -6.428  1.00  0.00     0.001 A 
ATOM     85  C   UNL     1     -13.135 -17.077  -5.123  1.00  0.00     0.001 A 
ATOM     86  C   UNL     1     -13.588 -16.298  -6.186  1.00  0.00     0.000 A 
ENDBRANCH  68  81
ENDBRANCH  42  43
ENDBRANCH  34  37
ENDBRANCH  32  33
ENDBRANCH  31  32
ENDBRANCH  30  31
ENDBRANCH  29  30
ENDBRANCH   1  29
TORSDOF 16
