REMARK SMILES CC1(C)[C@H](C(=O)NCCCCCCNC(=O)c2ccc(-c3c4nc(c(-c5ccccc5)c5ccc([nH]5)c(-c5ccccc5)c5nc(c(-c6ccccc6)c6ccc3[nH]6)C=C5)C=C4)cc2)[C@@H]1C(=O)Nc1ccc(Cl)c(Br)c1
REMARK SMILES IDX 10 1 9 2 8 3 7 4 5 5 6 6 4 8 1 9 2 10 3 11 65 12 66 13 67 14
REMARK SMILES IDX 68 15 69 17 70 18 76 19 71 20 74 21 72 22 75 23 73 24 11 25
REMARK SMILES IDX 12 26 13 27 14 28 15 29 16 31 17 32 18 33 64 34 19 35 63 36
REMARK SMILES IDX 20 37 21 38 22 39 57 40 23 41 62 42 56 43 58 44 24 45 61 46
REMARK SMILES IDX 55 47 54 48 25 50 47 51 32 52 46 53 33 54 36 55 45 56 59 57
REMARK SMILES IDX 34 58 35 59 44 61 60 62 37 63 26 64 27 65 31 66 28 67 30 68
REMARK SMILES IDX 29 69 48 70 49 71 53 72 50 73 52 74 51 75 38 76 39 77 43 78
REMARK SMILES IDX 40 79 42 80 41 81
REMARK H PARENT 7 7 68 16 14 30 58 49 36 60
REMARK Flexibility Score: inf
ROOT
ATOM      1  C   UNL     1      -0.688   5.306  -1.882  1.00  0.00     0.002 C 
ENDROOT
BRANCH   1   2
ATOM      2  C   UNL     1       0.053   4.196  -1.130  1.00  0.00     0.021 C 
BRANCH   2   3
ATOM      3  C   UNL     1      -0.878   3.109  -0.612  1.00  0.00     0.116 C 
BRANCH   3   4
ATOM      4  N   UNL     1      -1.224   2.190  -1.667  1.00  0.00    -0.356 N 
ATOM      5  C   UNL     1      -1.205   0.837  -1.804  1.00  0.00     0.224 C 
ATOM      6  O   UNL     1      -1.539   0.415  -2.913  1.00  0.00    -0.275 OA
ATOM      7  H   UNL     1      -1.549   2.648  -2.476  1.00  0.00     0.163 HD
BRANCH   5   8
ATOM      8  C   UNL     1      -0.884  -0.183  -0.775  1.00  0.00     0.098 C 
ATOM      9  C   UNL     1       1.028  -1.589   0.158  1.00  0.00     0.013 C 
ATOM     10  C   UNL     1       0.319  -0.249   0.146  1.00  0.00    -0.011 C 
ATOM     11  C   UNL     1       1.295   0.895   0.248  1.00  0.00     0.013 C 
ATOM     12  C   UNL     1      -1.126  -0.192   0.706  1.00  0.00     0.098 C 
BRANCH  12  13
ATOM     13  C   UNL     1      -1.698   0.914   1.507  1.00  0.00     0.228 C 
ATOM     14  O   UNL     1      -1.075   1.345   2.474  1.00  0.00    -0.274 OA
ATOM     15  N   UNL     1      -2.917   1.480   1.191  1.00  0.00    -0.326 N 
ATOM     16  H   UNL     1      -3.212   2.200   1.793  1.00  0.00     0.169 HD
BRANCH  15  17
ATOM     17  C   UNL     1      -3.800   1.184   0.141  1.00  0.00     0.042 A 
ATOM     18  C   UNL     1      -4.413   2.264  -0.503  1.00  0.00     0.028 A 
ATOM     19  C   UNL     1      -4.026  -0.109  -0.327  1.00  0.00     0.043 A 
ATOM     20  C   UNL     1      -5.103   2.066  -1.701  1.00  0.00     0.024 A 
ATOM     21  C   UNL     1      -4.745  -0.315  -1.511  1.00  0.00     0.038 A 
ATOM     22  C   UNL     1      -5.251   0.778  -2.221  1.00  0.00     0.055 A 
ATOM     23  Br  UNL     1      -4.957  -2.108  -2.098  1.00  0.00    -0.049 Br
ATOM     24  Cl  UNL     1      -6.054   0.619  -3.741  1.00  0.00    -0.083 Cl
ENDBRANCH  15  17
ENDBRANCH  12  13
ENDBRANCH   5   8
ENDBRANCH   3   4
ENDBRANCH   2   3
ENDBRANCH   1   2
BRANCH   1  25
ATOM     25  C   UNL     1      -1.748   6.046  -1.056  1.00  0.00     0.002 C 
BRANCH  25  26
ATOM     26  C   UNL     1      -1.262   6.565   0.299  1.00  0.00     0.021 C 
BRANCH  26  27
ATOM     27  C   UNL     1      -0.028   7.455   0.220  1.00  0.00     0.116 C 
BRANCH  27  28
ATOM     28  N   UNL     1      -0.258   8.627  -0.608  1.00  0.00    -0.352 N 
ATOM     29  C   UNL     1      -0.032   9.945  -0.318  1.00  0.00     0.251 C 
ATOM     30  H   UNL     1      -0.629   8.447  -1.502  1.00  0.00     0.163 HD
ATOM     31  O   UNL     1      -0.478  10.827  -1.050  1.00  0.00    -0.269 OA
BRANCH  29  32
ATOM     32  C   UNL     1       0.737  10.304   0.888  1.00  0.00     0.039 A 
ATOM     33  C   UNL     1       0.274  11.341   1.699  1.00  0.00     0.014 A 
ATOM     34  C   UNL     1       1.913   9.620   1.214  1.00  0.00     0.014 A 
ATOM     35  C   UNL     1       0.969  11.665   2.864  1.00  0.00     0.010 A 
ATOM     36  C   UNL     1       2.557   9.889   2.417  1.00  0.00     0.010 A 
ATOM     37  C   UNL     1       2.100  10.923   3.246  1.00  0.00    -0.014 A 
BRANCH  37  38
ATOM     38  C   UNL     1       2.822  11.229   4.504  1.00  0.00     0.031 A 
ATOM     39  C   UNL     1       4.248  11.708   4.461  1.00  0.00     0.074 A 
ATOM     40  C   UNL     1       2.208  11.034   5.687  1.00  0.00     0.049 A 
ATOM     41  N   UNL     1       5.049  12.003   5.453  1.00  0.00    -0.248 NA
ATOM     42  C   UNL     1       4.862  11.852   3.131  1.00  0.00     0.031 C 
ATOM     43  C   UNL     1       0.842  10.535   5.862  1.00  0.00     0.029 A 
ATOM     44  N   UNL     1       2.655  11.234   6.969  1.00  0.00    -0.354 N 
ATOM     45  C   UNL     1       6.260  12.352   4.868  1.00  0.00     0.074 A 
ATOM     46  C   UNL     1       6.108  12.179   3.441  1.00  0.00     0.031 C 
ATOM     47  C   UNL     1       0.552  10.501   7.172  1.00  0.00     0.029 A 
ATOM     48  C   UNL     1       1.722  10.931   7.930  1.00  0.00     0.049 A 
ATOM     49  H   UNL     1       3.559  11.562   7.179  1.00  0.00     0.167 HD
ATOM     50  C   UNL     1       7.391  12.798   5.464  1.00  0.00     0.031 A 
ATOM     51  C   UNL     1       1.801  10.991   9.273  1.00  0.00     0.031 A 
ATOM     52  C   UNL     1       7.539  12.975   6.884  1.00  0.00     0.049 A 
ATOM     53  C   UNL     1       3.076  11.471   9.909  1.00  0.00     0.074 A 
ATOM     54  C   UNL     1       8.627  13.470   7.582  1.00  0.00     0.029 A 
ATOM     55  N   UNL     1       6.571  12.657   7.824  1.00  0.00    -0.354 N 
ATOM     56  N   UNL     1       4.188  11.867   9.338  1.00  0.00    -0.248 NA
ATOM     57  C   UNL     1       3.099  11.526  11.377  1.00  0.00     0.031 C 
ATOM     58  C   UNL     1       8.339  13.395   8.948  1.00  0.00     0.029 A 
ATOM     59  C   UNL     1       7.046  12.920   9.098  1.00  0.00     0.049 A 
ATOM     60  H   UNL     1       5.678  12.298   7.616  1.00  0.00     0.167 HD
ATOM     61  C   UNL     1       5.030  12.249  10.375  1.00  0.00     0.074 A 
ATOM     62  C   UNL     1       4.292  12.055  11.606  1.00  0.00     0.031 C 
ATOM     63  C   UNL     1       6.300  12.721  10.313  1.00  0.00     0.031 A 
BRANCH  50  64
ATOM     64  C   UNL     1       8.564  13.117   4.577  1.00  0.00    -0.014 A 
ATOM     65  C   UNL     1       8.540  14.213   3.699  1.00  0.00     0.009 A 
ATOM     66  C   UNL     1       9.726  12.333   4.649  1.00  0.00     0.009 A 
ATOM     67  C   UNL     1       9.640  14.494   2.885  1.00  0.00     0.001 A 
ATOM     68  C   UNL     1      10.837  12.636   3.858  1.00  0.00     0.001 A 
ATOM     69  C   UNL     1      10.789  13.709   2.970  1.00  0.00     0.000 A 
ENDBRANCH  50  64
BRANCH  51  70
ATOM     70  C   UNL     1       0.636  10.597  10.109  1.00  0.00    -0.014 A 
ATOM     71  C   UNL     1      -0.064  11.556  10.857  1.00  0.00     0.009 A 
ATOM     72  C   UNL     1       0.228   9.255  10.177  1.00  0.00     0.009 A 
ATOM     73  C   UNL     1      -1.125  11.175  11.682  1.00  0.00     0.001 A 
ATOM     74  C   UNL     1      -0.855   8.882  10.976  1.00  0.00     0.001 A 
ATOM     75  C   UNL     1      -1.522   9.840  11.738  1.00  0.00     0.000 A 
ENDBRANCH  51  70
BRANCH  63  76
ATOM     76  C   UNL     1       6.954  13.102  11.612  1.00  0.00    -0.014 A 
ATOM     77  C   UNL     1       7.335  12.136  12.556  1.00  0.00     0.009 A 
ATOM     78  C   UNL     1       7.221  14.455  11.880  1.00  0.00     0.009 A 
ATOM     79  C   UNL     1       7.930  12.520  13.759  1.00  0.00     0.001 A 
ATOM     80  C   UNL     1       7.848  14.833  13.067  1.00  0.00     0.001 A 
ATOM     81  C   UNL     1       8.191  13.866  14.011  1.00  0.00     0.000 A 
ENDBRANCH  63  76
ENDBRANCH  37  38
ENDBRANCH  29  32
ENDBRANCH  27  28
ENDBRANCH  26  27
ENDBRANCH  25  26
ENDBRANCH   1  25
TORSDOF 15
