REMARK SMILES CCCn1ccnc1C[N@@H+]1C[C@@H](C(=O)NCCCCCCNC(=O)c2ccc(-c3c4nc(c(-c5ccccc5)c5ccc([nH]5)c(-c5ccccc5)c5nc(c(-c6ccccc6)c6ccc3[nH]6)C=C5)C=C4)cc2)[C@H](c2ccccc2)C1
REMARK SMILES IDX 17 1 16 2 15 3 13 4 14 5 12 7 10 8 11 9 80 10 73 12 9 13
REMARK SMILES IDX 8 14 4 15 5 16 6 17 7 18 3 19 2 20 1 21 74 22 75 23 79 24
REMARK SMILES IDX 76 25 78 26 77 27 18 28 19 29 20 30 21 31 22 32 23 33 24 35
REMARK SMILES IDX 25 36 26 37 72 38 27 39 71 40 28 41 29 42 30 43 65 44 31 45
REMARK SMILES IDX 70 46 64 47 66 48 32 49 69 50 63 51 62 52 33 54 55 55 40 56
REMARK SMILES IDX 54 57 41 58 44 59 53 60 67 61 42 62 43 63 52 65 68 66 45 67
REMARK SMILES IDX 34 68 35 69 39 70 36 71 38 72 37 73 56 74 57 75 61 76 58 77
REMARK SMILES IDX 60 78 59 79 46 80 47 81 51 82 48 83 50 84 49 85
REMARK H PARENT 15 6 10 11 22 34 66 53 44 64
REMARK Flexibility Score: inf
ROOT
ATOM      1  C   UNL     1      -4.626   2.875   0.671  1.00  0.00     0.021 C 
ENDROOT
BRANCH   1   2
ATOM      2  C   UNL     1      -3.405   3.667   1.156  1.00  0.00     0.116 C 
BRANCH   2   3
ATOM      3  N   UNL     1      -3.356   3.742   2.603  1.00  0.00    -0.356 N 
ATOM      4  C   UNL     1      -2.630   3.048   3.521  1.00  0.00     0.229 C 
ATOM      5  O   UNL     1      -2.834   3.319   4.708  1.00  0.00    -0.275 OA
ATOM      6  H   UNL     1      -3.958   4.417   2.993  1.00  0.00     0.163 HD
BRANCH   4   7
ATOM      7  C   UNL     1      -1.577   2.016   3.140  1.00  0.00     0.146 C 
ATOM      8  N   UNL     1       0.250   1.786   1.572  1.00  0.00    -0.327 N 
ATOM      9  C   UNL     1      -0.350   2.703   2.550  1.00  0.00     0.277 C 
ATOM     10  C   UNL     1      -0.847   0.922   1.112  1.00  0.00     0.271 C 
ATOM     11  H   UNL     1       0.649   2.293   0.782  1.00  0.00     0.348 HD
ATOM     12  C   UNL     1      -2.011   0.962   2.117  1.00  0.00     0.092 C 
BRANCH   8  13
ATOM     13  C   UNL     1       1.432   1.063   2.092  1.00  0.00     0.339 C 
BRANCH  13  14
ATOM     14  C   UNL     1       1.124  -0.143   2.917  1.00  0.00     0.164 A 
ATOM     15  N   UNL     1       1.117  -1.448   2.460  1.00  0.00    -0.330 N 
ATOM     16  C   UNL     1       0.587  -2.213   3.474  1.00  0.00     0.107 A 
ATOM     17  C   UNL     1       0.369  -1.353   4.520  1.00  0.00     0.131 A 
ATOM     18  N   UNL     1       0.733  -0.086   4.177  1.00  0.00    -0.236 NA
BRANCH  15  19
ATOM     19  C   UNL     1       1.741  -2.016   1.273  1.00  0.00     0.123 C 
BRANCH  19  20
ATOM     20  C   UNL     1       1.079  -1.868  -0.109  1.00  0.00     0.018 C 
ATOM     21  C   UNL     1       1.584  -0.698  -0.948  1.00  0.00     0.006 C 
ENDBRANCH  19  20
ENDBRANCH  15  19
ENDBRANCH  13  14
ENDBRANCH   8  13
BRANCH  12  22
ATOM     22  C   UNL     1      -2.629  -0.320   2.664  1.00  0.00    -0.038 A 
ATOM     23  C   UNL     1      -2.452  -1.569   2.052  1.00  0.00     0.004 A 
ATOM     24  C   UNL     1      -3.553  -0.251   3.722  1.00  0.00     0.004 A 
ATOM     25  C   UNL     1      -3.122  -2.710   2.509  1.00  0.00     0.000 A 
ATOM     26  C   UNL     1      -4.244  -1.383   4.164  1.00  0.00     0.000 A 
ATOM     27  C   UNL     1      -4.022  -2.616   3.563  1.00  0.00     0.000 A 
ENDBRANCH  12  22
ENDBRANCH   4   7
ENDBRANCH   2   3
ENDBRANCH   1   2
BRANCH   1  28
ATOM     28  C   UNL     1      -5.957   3.603   0.846  1.00  0.00     0.002 C 
BRANCH  28  29
ATOM     29  C   UNL     1      -6.018   5.000   0.223  1.00  0.00     0.002 C 
BRANCH  29  30
ATOM     30  C   UNL     1      -5.563   5.101  -1.240  1.00  0.00     0.021 C 
BRANCH  30  31
ATOM     31  C   UNL     1      -6.429   4.308  -2.205  1.00  0.00     0.116 C 
BRANCH  31  32
ATOM     32  N   UNL     1      -7.793   4.821  -2.258  1.00  0.00    -0.352 N 
ATOM     33  C   UNL     1      -8.872   4.329  -2.960  1.00  0.00     0.251 C 
ATOM     34  H   UNL     1      -7.967   5.627  -1.720  1.00  0.00     0.163 HD
ATOM     35  O   UNL     1      -9.838   5.038  -3.204  1.00  0.00    -0.269 OA
BRANCH  33  36
ATOM     36  C   UNL     1      -8.844   2.929  -3.416  1.00  0.00     0.039 A 
ATOM     37  C   UNL     1      -9.329   2.582  -4.678  1.00  0.00     0.014 A 
ATOM     38  C   UNL     1      -8.318   1.961  -2.562  1.00  0.00     0.014 A 
ATOM     39  C   UNL     1      -9.210   1.262  -5.103  1.00  0.00     0.010 A 
ATOM     40  C   UNL     1      -8.074   0.695  -3.032  1.00  0.00     0.010 A 
ATOM     41  C   UNL     1      -8.562   0.327  -4.280  1.00  0.00    -0.014 A 
BRANCH  41  42
ATOM     42  C   UNL     1      -8.295  -1.021  -4.766  1.00  0.00     0.031 A 
ATOM     43  C   UNL     1      -7.538  -1.086  -6.044  1.00  0.00     0.074 A 
ATOM     44  C   UNL     1      -8.525  -2.135  -4.040  1.00  0.00     0.049 A 
ATOM     45  N   UNL     1      -7.969  -1.494  -7.189  1.00  0.00    -0.248 NA
ATOM     46  C   UNL     1      -6.178  -0.523  -6.082  1.00  0.00     0.031 C 
ATOM     47  C   UNL     1      -8.962  -2.241  -2.643  1.00  0.00     0.029 A 
ATOM     48  N   UNL     1      -8.296  -3.432  -4.380  1.00  0.00    -0.354 N 
ATOM     49  C   UNL     1      -6.889  -1.415  -8.062  1.00  0.00     0.074 A 
ATOM     50  C   UNL     1      -5.866  -0.669  -7.372  1.00  0.00     0.031 C 
ATOM     51  C   UNL     1      -8.732  -3.495  -2.192  1.00  0.00     0.029 A 
ATOM     52  C   UNL     1      -8.307  -4.317  -3.310  1.00  0.00     0.049 A 
ATOM     53  H   UNL     1      -8.136  -3.719  -5.308  1.00  0.00     0.167 HD
ATOM     54  C   UNL     1      -6.838  -2.167  -9.196  1.00  0.00     0.031 A 
ATOM     55  C   UNL     1      -7.964  -5.627  -3.339  1.00  0.00     0.031 A 
ATOM     56  C   UNL     1      -8.115  -2.758  -9.502  1.00  0.00     0.049 A 
ATOM     57  C   UNL     1      -8.046  -6.073  -4.748  1.00  0.00     0.074 A 
ATOM     58  C   UNL     1      -9.374  -2.269  -9.787  1.00  0.00     0.029 A 
ATOM     59  N   UNL     1      -8.291  -4.073  -9.141  1.00  0.00    -0.354 N 
ATOM     60  N   UNL     1      -9.165  -6.165  -5.406  1.00  0.00    -0.248 NA
ATOM     61  C   UNL     1      -6.845  -5.999  -5.564  1.00  0.00     0.031 C 
ATOM     62  C   UNL     1     -10.270  -3.158  -9.122  1.00  0.00     0.029 A 
ATOM     63  C   UNL     1      -9.514  -4.175  -8.533  1.00  0.00     0.049 A 
ATOM     64  H   UNL     1      -7.653  -4.808  -9.292  1.00  0.00     0.167 HD
ATOM     65  C   UNL     1      -8.861  -5.706  -6.679  1.00  0.00     0.074 A 
ATOM     66  C   UNL     1      -7.401  -5.729  -6.749  1.00  0.00     0.031 C 
ATOM     67  C   UNL     1      -9.805  -5.085  -7.446  1.00  0.00     0.031 A 
BRANCH  54  68
ATOM     68  C   UNL     1      -5.563  -2.704  -9.794  1.00  0.00    -0.014 A 
ATOM     69  C   UNL     1      -5.632  -3.413 -11.008  1.00  0.00     0.009 A 
ATOM     70  C   UNL     1      -4.356  -2.794  -9.076  1.00  0.00     0.009 A 
ATOM     71  C   UNL     1      -4.577  -4.226 -11.439  1.00  0.00     0.001 A 
ATOM     72  C   UNL     1      -3.285  -3.572  -9.524  1.00  0.00     0.001 A 
ATOM     73  C   UNL     1      -3.406  -4.311 -10.692  1.00  0.00     0.000 A 
ENDBRANCH  54  68
BRANCH  55  74
ATOM     74  C   UNL     1      -7.336  -6.455  -2.289  1.00  0.00    -0.014 A 
ATOM     75  C   UNL     1      -7.356  -7.856  -2.376  1.00  0.00     0.009 A 
ATOM     76  C   UNL     1      -6.468  -5.867  -1.350  1.00  0.00     0.009 A 
ATOM     77  C   UNL     1      -6.501  -8.638  -1.588  1.00  0.00     0.001 A 
ATOM     78  C   UNL     1      -5.616  -6.649  -0.562  1.00  0.00     0.001 A 
ATOM     79  C   UNL     1      -5.620  -8.034  -0.695  1.00  0.00     0.000 A 
ENDBRANCH  55  74
BRANCH  67  80
ATOM     80  C   UNL     1     -11.242  -5.141  -6.984  1.00  0.00    -0.014 A 
ATOM     81  C   UNL     1     -11.683  -4.610  -5.759  1.00  0.00     0.009 A 
ATOM     82  C   UNL     1     -12.205  -5.616  -7.886  1.00  0.00     0.009 A 
ATOM     83  C   UNL     1     -13.045  -4.586  -5.437  1.00  0.00     0.001 A 
ATOM     84  C   UNL     1     -13.565  -5.571  -7.575  1.00  0.00     0.001 A 
ATOM     85  C   UNL     1     -13.985  -5.063  -6.348  1.00  0.00     0.000 A 
ENDBRANCH  67  80
ENDBRANCH  41  42
ENDBRANCH  33  36
ENDBRANCH  31  32
ENDBRANCH  30  31
ENDBRANCH  29  30
ENDBRANCH  28  29
ENDBRANCH   1  28
TORSDOF 18
