REMARK SMILES O=C(NCCCCCCNC(=O)[C@@H]1[C@H](C(=O)Nc2cccc(Cl)c2F)[C@@H]2C=C[C@H]1C2)c1ccc(-c2c3nc(c(-c4ccccc4)c4ccc([nH]4)c(-c4ccccc4)c4nc(c(-c5ccccc5)c5ccc2[nH]5)C=C4)C=C3)cc1
REMARK SMILES IDX 6 1 5 2 4 3 3 4 1 5 2 6 31 8 32 9 78 10 33 11 77 12 34 13
REMARK SMILES IDX 35 14 36 15 71 16 37 17 76 18 70 19 72 20 38 21 75 22 69 23
REMARK SMILES IDX 68 24 39 26 61 27 46 28 60 29 47 30 50 31 59 32 73 33 48 34
REMARK SMILES IDX 49 35 58 37 74 38 51 39 40 40 41 41 45 42 42 43 44 44 43 45
REMARK SMILES IDX 62 46 63 47 67 48 64 49 66 50 65 51 52 52 53 53 57 54 54 55
REMARK SMILES IDX 56 56 55 57 7 58 8 59 9 60 10 61 11 62 12 64 13 65 14 66
REMARK SMILES IDX 29 67 26 68 28 69 30 70 27 71 15 72 16 73 17 74 18 76 19 77
REMARK SMILES IDX 24 78 20 79 22 80 25 81 21 82 23 83
REMARK H PARENT 3 7 72 25 50 36 10 63 17 75
REMARK Flexibility Score: inf
ROOT
ATOM      1  C   UNL     1       3.751   2.404   3.060  1.00  0.00     0.002 C 
ENDROOT
BRANCH   1   2
ATOM      2  C   UNL     1       4.067   2.172   1.580  1.00  0.00     0.021 C 
BRANCH   2   3
ATOM      3  C   UNL     1       4.113   0.704   1.166  1.00  0.00     0.116 C 
BRANCH   3   4
ATOM      4  N   UNL     1       2.779   0.137   1.078  1.00  0.00    -0.352 N 
ATOM      5  O   UNL     1       0.895  -0.438  -0.040  1.00  0.00    -0.269 OA
ATOM      6  C   UNL     1       2.100  -0.231  -0.058  1.00  0.00     0.251 C 
ATOM      7  H   UNL     1       2.307   0.001   1.931  1.00  0.00     0.163 HD
BRANCH   6   8
ATOM      8  C   UNL     1       2.863  -0.370  -1.315  1.00  0.00     0.039 A 
ATOM      9  C   UNL     1       4.033  -1.136  -1.329  1.00  0.00     0.014 A 
ATOM     10  C   UNL     1       2.418   0.274  -2.470  1.00  0.00     0.014 A 
ATOM     11  C   UNL     1       4.814  -1.175  -2.476  1.00  0.00     0.010 A 
ATOM     12  C   UNL     1       3.162   0.163  -3.647  1.00  0.00     0.010 A 
ATOM     13  C   UNL     1       4.369  -0.557  -3.656  1.00  0.00    -0.014 A 
BRANCH  13  14
ATOM     14  C   UNL     1       5.119  -0.775  -4.916  1.00  0.00     0.031 A 
ATOM     15  C   UNL     1       5.787   0.356  -5.640  1.00  0.00     0.074 A 
ATOM     16  C   UNL     1       5.187  -2.030  -5.402  1.00  0.00     0.049 A 
ATOM     17  N   UNL     1       6.464   0.326  -6.760  1.00  0.00    -0.248 NA
ATOM     18  C   UNL     1       5.680   1.693  -5.037  1.00  0.00     0.031 C 
ATOM     19  C   UNL     1       4.574  -3.209  -4.781  1.00  0.00     0.029 A 
ATOM     20  N   UNL     1       5.808  -2.529  -6.516  1.00  0.00    -0.354 N 
ATOM     21  C   UNL     1       6.849   1.638  -7.008  1.00  0.00     0.074 A 
ATOM     22  C   UNL     1       6.309   2.444  -5.932  1.00  0.00     0.031 C 
ATOM     23  C   UNL     1       4.886  -4.297  -5.497  1.00  0.00     0.029 A 
ATOM     24  C   UNL     1       5.653  -3.886  -6.665  1.00  0.00     0.049 A 
ATOM     25  H   UNL     1       6.314  -1.970  -7.149  1.00  0.00     0.167 HD
ATOM     26  C   UNL     1       7.586   2.121  -8.037  1.00  0.00     0.031 A 
ATOM     27  C   UNL     1       6.058  -4.710  -7.647  1.00  0.00     0.031 A 
ATOM     28  C   UNL     1       8.105   1.311  -9.111  1.00  0.00     0.049 A 
ATOM     29  C   UNL     1       6.819  -4.136  -8.805  1.00  0.00     0.074 A 
ATOM     30  C   UNL     1       8.883   1.702 -10.187  1.00  0.00     0.029 A 
ATOM     31  N   UNL     1       7.889  -0.053  -9.249  1.00  0.00    -0.354 N 
ATOM     32  N   UNL     1       7.204  -2.899  -9.006  1.00  0.00    -0.248 NA
ATOM     33  C   UNL     1       7.200  -5.071  -9.870  1.00  0.00     0.031 C 
ATOM     34  C   UNL     1       9.085   0.588 -11.009  1.00  0.00     0.029 A 
ATOM     35  C   UNL     1       8.492  -0.512 -10.410  1.00  0.00     0.049 A 
ATOM     36  H   UNL     1       7.383  -0.612  -8.617  1.00  0.00     0.167 HD
ATOM     37  C   UNL     1       7.892  -2.911 -10.210  1.00  0.00     0.074 A 
ATOM     38  C   UNL     1       7.889  -4.282 -10.681  1.00  0.00     0.031 C 
ATOM     39  C   UNL     1       8.474  -1.878 -10.868  1.00  0.00     0.031 A 
BRANCH  26  40
ATOM     40  C   UNL     1       7.849   3.602  -8.073  1.00  0.00    -0.014 A 
ATOM     41  C   UNL     1       8.712   4.216  -7.151  1.00  0.00     0.009 A 
ATOM     42  C   UNL     1       7.263   4.389  -9.077  1.00  0.00     0.009 A 
ATOM     43  C   UNL     1       8.954   5.591  -7.213  1.00  0.00     0.001 A 
ATOM     44  C   UNL     1       7.529   5.758  -9.155  1.00  0.00     0.001 A 
ATOM     45  C   UNL     1       8.367   6.359  -8.218  1.00  0.00     0.000 A 
ENDBRANCH  26  40
BRANCH  27  46
ATOM     46  C   UNL     1       5.727  -6.157  -7.583  1.00  0.00    -0.014 A 
ATOM     47  C   UNL     1       6.735  -7.113  -7.394  1.00  0.00     0.009 A 
ATOM     48  C   UNL     1       4.395  -6.588  -7.696  1.00  0.00     0.009 A 
ATOM     49  C   UNL     1       6.418  -8.473  -7.345  1.00  0.00     0.001 A 
ATOM     50  C   UNL     1       4.078  -7.944  -7.612  1.00  0.00     0.001 A 
ATOM     51  C   UNL     1       5.090  -8.886  -7.447  1.00  0.00     0.000 A 
ENDBRANCH  27  46
BRANCH  39  52
ATOM     52  C   UNL     1       9.185  -2.203 -12.151  1.00  0.00    -0.014 A 
ATOM     53  C   UNL     1       8.478  -2.554 -13.311  1.00  0.00     0.009 A 
ATOM     54  C   UNL     1      10.586  -2.127 -12.205  1.00  0.00     0.009 A 
ATOM     55  C   UNL     1       9.162  -2.859 -14.489  1.00  0.00     0.001 A 
ATOM     56  C   UNL     1      11.265  -2.399 -13.393  1.00  0.00     0.001 A 
ATOM     57  C   UNL     1      10.554  -2.775 -14.531  1.00  0.00     0.000 A 
ENDBRANCH  39  52
ENDBRANCH  13  14
ENDBRANCH   6   8
ENDBRANCH   3   4
ENDBRANCH   2   3
ENDBRANCH   1   2
BRANCH   1  58
ATOM     58  C   UNL     1       4.610   1.601   4.040  1.00  0.00     0.002 C 
BRANCH  58  59
ATOM     59  C   UNL     1       6.117   1.676   3.775  1.00  0.00     0.021 C 
BRANCH  59  60
ATOM     60  C   UNL     1       6.842   2.879   4.385  1.00  0.00     0.116 C 
BRANCH  60  61
ATOM     61  N   UNL     1       6.850   2.913   5.845  1.00  0.00    -0.356 N 
ATOM     62  C   UNL     1       7.899   2.881   6.728  1.00  0.00     0.224 C 
ATOM     63  H   UNL     1       5.960   2.967   6.261  1.00  0.00     0.163 HD
ATOM     64  O   UNL     1       7.710   3.339   7.853  1.00  0.00    -0.275 OA
BRANCH  62  65
ATOM     65  C   UNL     1       9.249   2.341   6.302  1.00  0.00     0.098 C 
ATOM     66  C   UNL     1       9.451   1.113   5.364  1.00  0.00     0.099 C 
ATOM     67  C   UNL     1      10.235   2.018   7.473  1.00  0.00     0.025 C 
ATOM     68  C   UNL     1      10.836   0.564   5.883  1.00  0.00     0.025 C 
ATOM     69  C   UNL     1      10.110   0.608   8.043  1.00  0.00    -0.027 C 
ATOM     70  C   UNL     1      11.479   1.753   6.614  1.00  0.00     0.017 C 
ATOM     71  C   UNL     1      10.550  -0.255   7.113  1.00  0.00    -0.027 C 
BRANCH  66  72
ATOM     72  C   UNL     1       8.434  -0.056   5.357  1.00  0.00     0.228 C 
ATOM     73  O   UNL     1       8.619  -1.042   4.644  1.00  0.00    -0.274 OA
ATOM     74  N   UNL     1       7.392   0.057   6.254  1.00  0.00    -0.323 N 
ATOM     75  H   UNL     1       6.797   0.837   6.172  1.00  0.00     0.170 HD
BRANCH  74  76
ATOM     76  C   UNL     1       7.123  -0.867   7.277  1.00  0.00     0.078 A 
ATOM     77  C   UNL     1       7.339  -2.233   7.159  1.00  0.00     0.029 A 
ATOM     78  C   UNL     1       6.776  -0.317   8.519  1.00  0.00     0.165 A 
ATOM     79  C   UNL     1       7.260  -3.035   8.300  1.00  0.00     0.004 A 
ATOM     80  C   UNL     1       6.783  -1.098   9.664  1.00  0.00     0.078 A 
ATOM     81  F   UNL     1       6.563   1.005   8.607  1.00  0.00    -0.203 F 
ATOM     82  C   UNL     1       7.022  -2.464   9.556  1.00  0.00     0.024 A 
ATOM     83  Cl  UNL     1       6.593  -0.376  11.214  1.00  0.00    -0.081 Cl
ENDBRANCH  74  76
ENDBRANCH  66  72
ENDBRANCH  62  65
ENDBRANCH  60  61
ENDBRANCH  59  60
ENDBRANCH  58  59
ENDBRANCH   1  58
TORSDOF 15
