REMARK SMILES Cc1ccc(NC(=O)C[N@H+]2CCC[C@@H](C(=O)NCCCCCCNC(=O)c3ccc(-c4c5nc(c(-c6ccccc6)c6ccc([nH]6)c(-c6ccccc6)c6nc(c(-c7ccccc7)c7ccc4[nH]7)C=C6)C=C5)cc3)C2)cc1F
REMARK SMILES IDX 20 1 19 2 18 3 17 4 15 5 16 6 14 8 10 9 11 10 75 11 12 13
REMARK SMILES IDX 13 14 9 15 7 16 6 17 8 19 5 20 1 21 2 22 3 23 77 24 4 25
REMARK SMILES IDX 76 26 78 27 21 28 22 29 23 30 24 31 25 32 26 34 27 35 28 36
REMARK SMILES IDX 74 37 29 38 73 39 30 40 31 41 32 42 67 43 33 44 72 45 66 46
REMARK SMILES IDX 68 47 34 48 71 49 65 50 64 51 35 53 57 54 42 55 56 56 43 57
REMARK SMILES IDX 46 58 55 59 69 60 44 61 45 62 54 64 70 65 47 66 36 67 37 68
REMARK SMILES IDX 41 69 38 70 40 71 39 72 58 73 59 74 63 75 60 76 62 77 61 78
REMARK SMILES IDX 48 79 49 80 53 81 50 82 52 83 51 84
REMARK H PARENT 17 7 10 12 6 18 24 33 68 52 46 63
REMARK Flexibility Score: inf
ROOT
ATOM      1  C   UNL     1       0.455   3.643  -1.982  1.00  0.00     0.002 C 
ENDROOT
BRANCH   1   2
ATOM      2  C   UNL     1       0.926   2.181  -1.907  1.00  0.00     0.021 C 
BRANCH   2   3
ATOM      3  C   UNL     1      -0.150   1.087  -1.817  1.00  0.00     0.116 C 
BRANCH   3   4
ATOM      4  N   UNL     1      -0.878   0.885  -3.060  1.00  0.00    -0.356 N 
ATOM      5  C   UNL     1      -1.222  -0.266  -3.716  1.00  0.00     0.228 C 
ATOM      6  O   UNL     1      -1.952  -0.158  -4.704  1.00  0.00    -0.275 OA
ATOM      7  H   UNL     1      -1.173   1.714  -3.503  1.00  0.00     0.163 HD
BRANCH   5   8
ATOM      8  C   UNL     1      -0.725  -1.629  -3.232  1.00  0.00     0.133 C 
ATOM      9  N   UNL     1      -1.145  -3.479  -1.613  1.00  0.00    -0.326 N 
ATOM     10  C   UNL     1      -1.033  -4.474  -2.701  1.00  0.00     0.262 C 
ATOM     11  C   UNL     1      -1.649  -2.192  -2.135  1.00  0.00     0.276 C 
ATOM     12  H   UNL     1      -0.238  -3.231  -1.218  1.00  0.00     0.348 HD
ATOM     13  C   UNL     1      -0.181  -3.989  -3.872  1.00  0.00     0.062 C 
ATOM     14  C   UNL     1      -0.662  -2.638  -4.387  1.00  0.00     0.025 C 
BRANCH   9  15
ATOM     15  C   UNL     1      -1.919  -4.096  -0.496  1.00  0.00     0.363 C 
BRANCH  15  16
ATOM     16  C   UNL     1      -2.972  -3.238   0.191  1.00  0.00     0.279 C 
ATOM     17  N   UNL     1      -2.694  -2.140   0.947  1.00  0.00    -0.321 N 
ATOM     18  H   UNL     1      -3.495  -1.725   1.341  1.00  0.00     0.170 HD
ATOM     19  O   UNL     1      -4.171  -3.522   0.058  1.00  0.00    -0.268 OA
BRANCH  17  20
ATOM     20  C   UNL     1      -1.505  -1.476   1.281  1.00  0.00     0.044 A 
ATOM     21  C   UNL     1       1.994   0.988   1.851  1.00  0.00     0.047 C 
ATOM     22  C   UNL     1       0.772   0.133   1.719  1.00  0.00    -0.015 A 
ATOM     23  C   UNL     1      -0.511   0.664   1.878  1.00  0.00     0.008 A 
ATOM     24  C   UNL     1       0.889  -1.223   1.421  1.00  0.00     0.128 A 
ATOM     25  C   UNL     1      -1.637  -0.134   1.660  1.00  0.00     0.026 A 
ATOM     26  C   UNL     1      -0.230  -2.026   1.212  1.00  0.00     0.065 A 
ATOM     27  F   UNL     1       2.103  -1.779   1.310  1.00  0.00    -0.207 F 
ENDBRANCH  17  20
ENDBRANCH  15  16
ENDBRANCH   9  15
ENDBRANCH   5   8
ENDBRANCH   3   4
ENDBRANCH   2   3
ENDBRANCH   1   2
BRANCH   1  28
ATOM     28  C   UNL     1      -0.352   4.221  -0.809  1.00  0.00     0.002 C 
BRANCH  28  29
ATOM     29  C   UNL     1       0.273   4.209   0.591  1.00  0.00     0.021 C 
BRANCH  29  30
ATOM     30  C   UNL     1       1.675   4.792   0.780  1.00  0.00     0.116 C 
BRANCH  30  31
ATOM     31  N   UNL     1       1.675   6.237   0.926  1.00  0.00    -0.352 N 
ATOM     32  C   UNL     1       2.106   7.040   1.959  1.00  0.00     0.251 C 
ATOM     33  H   UNL     1       1.304   6.725   0.156  1.00  0.00     0.163 HD
ATOM     34  O   UNL     1       1.845   8.240   1.921  1.00  0.00    -0.269 OA
BRANCH  32  35
ATOM     35  C   UNL     1       2.868   6.511   3.126  1.00  0.00     0.039 A 
ATOM     36  C   UNL     1       2.620   7.071   4.388  1.00  0.00     0.014 A 
ATOM     37  C   UNL     1       3.888   5.565   2.997  1.00  0.00     0.014 A 
ATOM     38  C   UNL     1       3.356   6.663   5.510  1.00  0.00     0.010 A 
ATOM     39  C   UNL     1       4.590   5.120   4.128  1.00  0.00     0.010 A 
ATOM     40  C   UNL     1       4.341   5.670   5.396  1.00  0.00    -0.014 A 
BRANCH  40  41
ATOM     41  C   UNL     1       5.125   5.226   6.585  1.00  0.00     0.031 A 
ATOM     42  C   UNL     1       6.602   5.515   6.684  1.00  0.00     0.074 A 
ATOM     43  C   UNL     1       4.524   4.539   7.577  1.00  0.00     0.049 A 
ATOM     44  N   UNL     1       7.452   5.173   7.623  1.00  0.00    -0.248 NA
ATOM     45  C   UNL     1       7.206   6.276   5.580  1.00  0.00     0.031 C 
ATOM     46  C   UNL     1       3.107   4.175   7.619  1.00  0.00     0.029 A 
ATOM     47  N   UNL     1       5.033   4.020   8.745  1.00  0.00    -0.354 N 
ATOM     48  C   UNL     1       8.687   5.667   7.218  1.00  0.00     0.074 A 
ATOM     49  C   UNL     1       8.485   6.297   5.931  1.00  0.00     0.031 C 
ATOM     50  C   UNL     1       2.857   3.508   8.759  1.00  0.00     0.029 A 
ATOM     51  C   UNL     1       4.100   3.367   9.514  1.00  0.00     0.049 A 
ATOM     52  H   UNL     1       5.979   4.108   9.005  1.00  0.00     0.167 HD
ATOM     53  C   UNL     1       9.879   5.618   7.862  1.00  0.00     0.031 A 
ATOM     54  C   UNL     1       4.225   2.720  10.689  1.00  0.00     0.031 A 
ATOM     55  C   UNL     1      10.095   5.006   9.146  1.00  0.00     0.049 A 
ATOM     56  C   UNL     1       5.566   2.655  11.368  1.00  0.00     0.074 A 
ATOM     57  C   UNL     1      11.265   4.944   9.886  1.00  0.00     0.029 A 
ATOM     58  N   UNL     1       9.122   4.354   9.884  1.00  0.00    -0.354 N 
ATOM     59  N   UNL     1       6.710   3.168  10.988  1.00  0.00    -0.248 NA
ATOM     60  C   UNL     1       5.628   1.927  12.645  1.00  0.00     0.031 C 
ATOM     61  C   UNL     1      11.009   4.218  11.053  1.00  0.00     0.029 A 
ATOM     62  C   UNL     1       9.669   3.870  11.062  1.00  0.00     0.049 A 
ATOM     63  H   UNL     1       8.182   4.248   9.613  1.00  0.00     0.167 HD
ATOM     64  C   UNL     1       7.618   2.851  11.992  1.00  0.00     0.074 A 
ATOM     65  C   UNL     1       6.890   2.115  13.003  1.00  0.00     0.031 C 
ATOM     66  C   UNL     1       8.938   3.145  12.066  1.00  0.00     0.031 A 
BRANCH  53  67
ATOM     67  C   UNL     1      11.062   6.251   7.181  1.00  0.00    -0.014 A 
ATOM     68  C   UNL     1      11.191   7.646   7.104  1.00  0.00     0.009 A 
ATOM     69  C   UNL     1      12.089   5.444   6.666  1.00  0.00     0.009 A 
ATOM     70  C   UNL     1      12.311   8.221   6.500  1.00  0.00     0.001 A 
ATOM     71  C   UNL     1      13.219   6.021   6.085  1.00  0.00     0.001 A 
ATOM     72  C   UNL     1      13.326   7.409   5.995  1.00  0.00     0.000 A 
ENDBRANCH  53  67
BRANCH  54  73
ATOM     73  C   UNL     1       3.042   2.074  11.318  1.00  0.00    -0.014 A 
ATOM     74  C   UNL     1       2.480   2.603  12.490  1.00  0.00     0.009 A 
ATOM     75  C   UNL     1       2.493   0.905  10.769  1.00  0.00     0.009 A 
ATOM     76  C   UNL     1       1.412   1.958  13.117  1.00  0.00     0.001 A 
ATOM     77  C   UNL     1       1.407   0.278  11.383  1.00  0.00     0.001 A 
ATOM     78  C   UNL     1       0.874   0.798  12.562  1.00  0.00     0.000 A 
ENDBRANCH  54  73
BRANCH  66  79
ATOM     79  C   UNL     1       9.674   2.706  13.300  1.00  0.00    -0.014 A 
ATOM     80  C   UNL     1      10.001   1.357  13.512  1.00  0.00     0.009 A 
ATOM     81  C   UNL     1      10.078   3.661  14.246  1.00  0.00     0.009 A 
ATOM     82  C   UNL     1      10.690   0.971  14.664  1.00  0.00     0.001 A 
ATOM     83  C   UNL     1      10.789   3.275  15.384  1.00  0.00     0.001 A 
ATOM     84  C   UNL     1      11.086   1.930  15.596  1.00  0.00     0.000 A 
ENDBRANCH  66  79
ENDBRANCH  40  41
ENDBRANCH  32  35
ENDBRANCH  30  31
ENDBRANCH  29  30
ENDBRANCH  28  29
ENDBRANCH   1  28
TORSDOF 16
