REMARK SMILES CC#CC[C@H](C(=O)NCCCCCCNC(=O)c1ccc(-c2c3nc(c(-c4ccccc4)c4ccc([nH]4)c(-c4ccccc4)c4nc(c(-c5ccccc5)c5ccc2[nH]5)C=C4)C=C3)cc1)c1cccc(Br)c1
REMARK SMILES IDX 11 1 10 2 9 3 8 4 6 5 7 6 5 8 4 9 3 10 1 11 2 12 66 13 67 14
REMARK SMILES IDX 72 15 68 16 70 17 69 18 71 19 12 20 13 21 14 22 15 23 16 24
REMARK SMILES IDX 17 26 18 27 19 28 65 29 20 30 64 31 21 32 22 33 23 34 58 35
REMARK SMILES IDX 24 36 63 37 57 38 59 39 25 40 62 41 56 42 55 43 26 45 48 46
REMARK SMILES IDX 33 47 47 48 34 49 37 50 46 51 60 52 35 53 36 54 45 56 61 57
REMARK SMILES IDX 38 58 27 59 28 60 32 61 29 62 31 63 30 64 49 65 50 66 54 67
REMARK SMILES IDX 51 68 53 69 52 70 39 71 40 72 44 73 41 74 43 75 42 76
REMARK H PARENT 8 7 15 25 59 44 37 55
REMARK Flexibility Score: inf
ROOT
ATOM      1  C   UNL     1       0.729   6.805  -1.395  1.00  0.00     0.002 C 
ENDROOT
BRANCH   1   2
ATOM      2  C   UNL     1      -0.629   6.660  -0.702  1.00  0.00     0.021 C 
BRANCH   2   3
ATOM      3  C   UNL     1      -1.204   5.237  -0.691  1.00  0.00     0.116 C 
BRANCH   3   4
ATOM      4  N   UNL     1      -0.381   4.407   0.145  1.00  0.00    -0.356 N 
ATOM      5  C   UNL     1      -0.507   4.038   1.444  1.00  0.00     0.228 C 
ATOM      6  O   UNL     1       0.562   3.669   1.940  1.00  0.00    -0.274 OA
ATOM      7  H   UNL     1       0.416   4.043  -0.304  1.00  0.00     0.163 HD
BRANCH   5   8
ATOM      8  C   UNL     1      -1.881   3.954   2.168  1.00  0.00     0.120 C 
BRANCH   8   9
ATOM      9  C   UNL     1      -1.804   2.681   3.056  1.00  0.00     0.107 C 
BRANCH   9  10
ATOM     10  C   UNL     1      -0.799   2.841   4.124  1.00  0.00    -0.102 C 
ATOM     11  C   UNL     1       1.367   3.250   5.889  1.00  0.00     0.107 C 
ATOM     12  C   UNL     1       0.201   3.030   4.939  1.00  0.00    -0.107 C 
ENDBRANCH   9  10
ENDBRANCH   8   9
BRANCH   8  13
ATOM     13  C   UNL     1      -2.360   5.204   2.940  1.00  0.00    -0.034 A 
ATOM     14  C   UNL     1      -2.391   6.463   2.334  1.00  0.00     0.004 A 
ATOM     15  C   UNL     1      -2.886   5.147   4.248  1.00  0.00     0.020 A 
ATOM     16  C   UNL     1      -2.794   7.622   3.006  1.00  0.00     0.001 A 
ATOM     17  C   UNL     1      -3.310   6.300   4.923  1.00  0.00     0.018 A 
ATOM     18  C   UNL     1      -3.243   7.544   4.314  1.00  0.00     0.016 A 
ATOM     19  Br  UNL     1      -3.998   6.160   6.679  1.00  0.00    -0.051 Br
ENDBRANCH   8  13
ENDBRANCH   5   8
ENDBRANCH   3   4
ENDBRANCH   2   3
ENDBRANCH   1   2
BRANCH   1  20
ATOM     20  C   UNL     1       0.752   6.378  -2.859  1.00  0.00     0.002 C 
BRANCH  20  21
ATOM     21  C   UNL     1      -0.360   6.987  -3.712  1.00  0.00     0.021 C 
BRANCH  21  22
ATOM     22  C   UNL     1      -0.452   8.506  -3.638  1.00  0.00     0.116 C 
BRANCH  22  23
ATOM     23  N   UNL     1       0.755   9.149  -4.125  1.00  0.00    -0.352 N 
ATOM     24  C   UNL     1       0.895  10.040  -5.156  1.00  0.00     0.251 C 
ATOM     25  H   UNL     1       1.585   8.913  -3.651  1.00  0.00     0.163 HD
ATOM     26  O   UNL     1       2.010  10.332  -5.584  1.00  0.00    -0.269 OA
BRANCH  24  27
ATOM     27  C   UNL     1      -0.310  10.635  -5.764  1.00  0.00     0.039 A 
ATOM     28  C   UNL     1      -0.427  10.653  -7.155  1.00  0.00     0.014 A 
ATOM     29  C   UNL     1      -1.327  11.158  -4.959  1.00  0.00     0.014 A 
ATOM     30  C   UNL     1      -1.592  11.150  -7.739  1.00  0.00     0.010 A 
ATOM     31  C   UNL     1      -2.517  11.580  -5.540  1.00  0.00     0.010 A 
ATOM     32  C   UNL     1      -2.659  11.588  -6.936  1.00  0.00    -0.014 A 
BRANCH  32  33
ATOM     33  C   UNL     1      -3.927  12.063  -7.540  1.00  0.00     0.031 A 
ATOM     34  C   UNL     1      -4.364  13.490  -7.354  1.00  0.00     0.074 A 
ATOM     35  C   UNL     1      -4.712  11.197  -8.210  1.00  0.00     0.049 A 
ATOM     36  N   UNL     1      -5.458  14.078  -7.766  1.00  0.00    -0.248 NA
ATOM     37  C   UNL     1      -3.465  14.365  -6.584  1.00  0.00     0.031 C 
ATOM     38  C   UNL     1      -4.418   9.779  -8.428  1.00  0.00     0.029 A 
ATOM     39  N   UNL     1      -5.923  11.384  -8.828  1.00  0.00    -0.354 N 
ATOM     40  C   UNL     1      -5.385  15.383  -7.294  1.00  0.00     0.074 A 
ATOM     41  C   UNL     1      -4.168  15.486  -6.520  1.00  0.00     0.031 C 
ATOM     42  C   UNL     1      -5.405   9.233  -9.156  1.00  0.00     0.029 A 
ATOM     43  C   UNL     1      -6.421  10.248  -9.418  1.00  0.00     0.049 A 
ATOM     44  H   UNL     1      -6.390  12.251  -8.847  1.00  0.00     0.167 HD
ATOM     45  C   UNL     1      -6.243  16.409  -7.503  1.00  0.00     0.031 A 
ATOM     46  C   UNL     1      -7.570  10.044 -10.089  1.00  0.00     0.031 A 
ATOM     47  C   UNL     1      -7.451  16.307  -8.277  1.00  0.00     0.049 A 
ATOM     48  C   UNL     1      -8.519  11.194 -10.284  1.00  0.00     0.074 A 
ATOM     49  C   UNL     1      -8.360  17.302  -8.592  1.00  0.00     0.029 A 
ATOM     50  N   UNL     1      -7.921  15.138  -8.855  1.00  0.00    -0.354 N 
ATOM     51  N   UNL     1      -8.401  12.439  -9.891  1.00  0.00    -0.248 NA
ATOM     52  C   UNL     1      -9.755  10.911 -11.027  1.00  0.00     0.031 C 
ATOM     53  C   UNL     1      -9.410  16.723  -9.310  1.00  0.00     0.029 A 
ATOM     54  C   UNL     1      -9.122  15.381  -9.500  1.00  0.00     0.049 A 
ATOM     55  H   UNL     1      -7.468  14.265  -8.814  1.00  0.00     0.167 HD
ATOM     56  C   UNL     1      -9.531  13.094 -10.363  1.00  0.00     0.074 A 
ATOM     57  C   UNL     1     -10.313  12.112 -11.087  1.00  0.00     0.031 C 
ATOM     58  C   UNL     1      -9.889  14.392 -10.214  1.00  0.00     0.031 A 
BRANCH  45  59
ATOM     59  C   UNL     1      -5.907  17.733  -6.872  1.00  0.00    -0.014 A 
ATOM     60  C   UNL     1      -4.817  18.498  -7.317  1.00  0.00     0.009 A 
ATOM     61  C   UNL     1      -6.713  18.239  -5.840  1.00  0.00     0.009 A 
ATOM     62  C   UNL     1      -4.518  19.722  -6.715  1.00  0.00     0.001 A 
ATOM     63  C   UNL     1      -6.431  19.478  -5.262  1.00  0.00     0.001 A 
ATOM     64  C   UNL     1      -5.328  20.214  -5.693  1.00  0.00     0.000 A 
ENDBRANCH  45  59
BRANCH  46  65
ATOM     65  C   UNL     1      -7.886   8.698 -10.636  1.00  0.00    -0.014 A 
ATOM     66  C   UNL     1      -7.893   8.475 -12.021  1.00  0.00     0.009 A 
ATOM     67  C   UNL     1      -8.191   7.631  -9.777  1.00  0.00     0.009 A 
ATOM     68  C   UNL     1      -8.227   7.220 -12.535  1.00  0.00     0.001 A 
ATOM     69  C   UNL     1      -8.494   6.369 -10.292  1.00  0.00     0.001 A 
ATOM     70  C   UNL     1      -8.523   6.167 -11.671  1.00  0.00     0.000 A 
ENDBRANCH  46  65
BRANCH  58  71
ATOM     71  C   UNL     1     -11.164  14.836 -10.876  1.00  0.00    -0.014 A 
ATOM     72  C   UNL     1     -12.418  14.434 -10.392  1.00  0.00     0.009 A 
ATOM     73  C   UNL     1     -11.106  15.706 -11.976  1.00  0.00     0.009 A 
ATOM     74  C   UNL     1     -13.588  14.866 -11.020  1.00  0.00     0.001 A 
ATOM     75  C   UNL     1     -12.277  16.163 -12.581  1.00  0.00     0.001 A 
ATOM     76  C   UNL     1     -13.517  15.734 -12.110  1.00  0.00     0.000 A 
ENDBRANCH  58  71
ENDBRANCH  32  33
ENDBRANCH  24  27
ENDBRANCH  22  23
ENDBRANCH  21  22
ENDBRANCH  20  21
ENDBRANCH   1  20
TORSDOF 16
