REMARK SMILES Cc1ccc(S(=O)(=O)N2C[C@@H](CC(=O)NCCCCCCNC(=O)c3ccc(-c4c5nc(c(-c6ccccc6)c6ccc([nH]6)c(-c6ccccc6)c6nc(c(-c7ccccc7)c7ccc4[nH]7)C=C6)C=C5)cc3)c3ccccc32)c(C)c1
REMARK SMILES IDX 18 1 17 2 16 3 15 4 13 5 14 6 12 8 11 9 9 10 10 11 78 12
REMARK SMILES IDX 73 13 77 14 74 15 76 16 75 17 6 18 7 19 8 20 5 21 1 22 2 23
REMARK SMILES IDX 3 24 81 25 4 26 79 27 80 28 19 29 20 30 21 31 22 32 23 33
REMARK SMILES IDX 24 35 25 36 26 37 72 38 27 39 71 40 28 41 29 42 30 43 65 44
REMARK SMILES IDX 31 45 70 46 64 47 66 48 32 49 69 50 63 51 62 52 33 54 55 55
REMARK SMILES IDX 40 56 54 57 41 58 44 59 53 60 67 61 42 62 43 63 52 65 68 66
REMARK SMILES IDX 45 67 34 68 35 69 39 70 36 71 38 72 37 73 56 74 57 75 61 76
REMARK SMILES IDX 58 77 60 78 59 79 46 80 47 81 51 82 48 83 50 84 49 85
REMARK H PARENT 15 7 22 34 66 53 44 64
REMARK Flexibility Score: inf
ROOT
ATOM      1  C   UNL     1       0.608  -9.064   2.891  1.00  0.00     0.002 C 
ENDROOT
BRANCH   1   2
ATOM      2  C   UNL     1      -0.062  -7.956   2.085  1.00  0.00     0.021 C 
BRANCH   2   3
ATOM      3  C   UNL     1       0.240  -7.955   0.589  1.00  0.00     0.116 C 
BRANCH   3   4
ATOM      4  N   UNL     1      -0.822  -8.645  -0.123  1.00  0.00    -0.356 N 
ATOM      5  C   UNL     1      -1.911  -8.125  -0.758  1.00  0.00     0.220 C 
ATOM      6  O   UNL     1      -2.853  -8.873  -1.021  1.00  0.00    -0.275 OA
ATOM      7  H   UNL     1      -0.744  -9.626  -0.152  1.00  0.00     0.163 HD
BRANCH   5   8
ATOM      8  C   UNL     1      -1.929  -6.675  -1.190  1.00  0.00     0.110 C 
BRANCH   8   9
ATOM      9  C   UNL     1      -2.988  -5.827  -0.471  1.00  0.00     0.051 C 
ATOM     10  N   UNL     1      -2.164  -3.534  -0.466  1.00  0.00    -0.265 N 
ATOM     11  C   UNL     1      -3.120  -4.460  -1.179  1.00  0.00     0.144 C 
ATOM     12  C   UNL     1      -2.017  -4.084   0.855  1.00  0.00     0.055 A 
ATOM     13  C   UNL     1      -2.569  -5.365   0.899  1.00  0.00    -0.018 A 
ATOM     14  C   UNL     1      -1.404  -3.534   1.969  1.00  0.00     0.027 A 
ATOM     15  C   UNL     1      -2.692  -6.037   2.103  1.00  0.00     0.006 A 
ATOM     16  C   UNL     1      -1.456  -4.239   3.174  1.00  0.00     0.002 A 
ATOM     17  C   UNL     1      -2.129  -5.465   3.248  1.00  0.00     0.000 A 
BRANCH  10  18
ATOM     18  S   UNL     1      -2.636  -1.886  -0.578  1.00  0.00     0.264 S 
ATOM     19  O   UNL     1      -3.522  -1.612   0.533  1.00  0.00    -0.201 OA
ATOM     20  O   UNL     1      -3.051  -1.647  -1.948  1.00  0.00    -0.201 OA
BRANCH  18  21
ATOM     21  C   UNL     1      -1.139  -0.937  -0.360  1.00  0.00     0.090 A 
ATOM     22  C   UNL     1       2.543   1.261   0.068  1.00  0.00     0.044 C 
ATOM     23  C   UNL     1       1.268   0.481  -0.059  1.00  0.00    -0.051 A 
ATOM     24  C   UNL     1       1.291  -0.886  -0.334  1.00  0.00     0.005 A 
ATOM     25  C   UNL     1       0.034   1.136   0.043  1.00  0.00     0.008 A 
ATOM     26  C   UNL     1       0.097  -1.590  -0.494  1.00  0.00     0.023 A 
ATOM     27  C   UNL     1      -1.186   0.446  -0.100  1.00  0.00    -0.030 A 
ATOM     28  C   UNL     1      -2.442   1.273  -0.055  1.00  0.00     0.046 C 
ENDBRANCH  18  21
ENDBRANCH  10  18
ENDBRANCH   8   9
ENDBRANCH   5   8
ENDBRANCH   3   4
ENDBRANCH   2   3
ENDBRANCH   1   2
BRANCH   1  29
ATOM     29  C   UNL     1       2.113  -8.889   3.100  1.00  0.00     0.002 C 
BRANCH  29  30
ATOM     30  C   UNL     1       2.554  -7.529   3.650  1.00  0.00     0.021 C 
BRANCH  30  31
ATOM     31  C   UNL     1       1.824  -7.065   4.910  1.00  0.00     0.116 C 
BRANCH  31  32
ATOM     32  N   UNL     1       2.041  -7.963   6.030  1.00  0.00    -0.352 N 
ATOM     33  C   UNL     1       2.777  -7.782   7.173  1.00  0.00     0.251 C 
ATOM     34  H   UNL     1       1.591  -8.836   5.958  1.00  0.00     0.163 HD
ATOM     35  O   UNL     1       3.034  -8.741   7.895  1.00  0.00    -0.269 OA
BRANCH  33  36
ATOM     36  C   UNL     1       3.271  -6.438   7.539  1.00  0.00     0.039 A 
ATOM     37  C   UNL     1       4.579  -6.306   8.014  1.00  0.00     0.014 A 
ATOM     38  C   UNL     1       2.438  -5.318   7.468  1.00  0.00     0.014 A 
ATOM     39  C   UNL     1       5.064  -5.047   8.375  1.00  0.00     0.010 A 
ATOM     40  C   UNL     1       2.946  -4.053   7.756  1.00  0.00     0.010 A 
ATOM     41  C   UNL     1       4.259  -3.905   8.229  1.00  0.00    -0.014 A 
BRANCH  41  42
ATOM     42  C   UNL     1       4.766  -2.557   8.593  1.00  0.00     0.031 A 
ATOM     43  C   UNL     1       4.130  -1.789   9.721  1.00  0.00     0.074 A 
ATOM     44  C   UNL     1       5.769  -2.003   7.885  1.00  0.00     0.049 A 
ATOM     45  N   UNL     1       4.406  -0.586  10.161  1.00  0.00    -0.248 NA
ATOM     46  C   UNL     1       3.025  -2.449  10.434  1.00  0.00     0.031 C 
ATOM     47  C   UNL     1       6.454  -2.627   6.752  1.00  0.00     0.029 A 
ATOM     48  N   UNL     1       6.386  -0.783   8.015  1.00  0.00    -0.354 N 
ATOM     49  C   UNL     1       3.500  -0.342  11.186  1.00  0.00     0.074 A 
ATOM     50  C   UNL     1       2.633  -1.497  11.268  1.00  0.00     0.031 C 
ATOM     51  C   UNL     1       7.415  -1.800   6.309  1.00  0.00     0.029 A 
ATOM     52  C   UNL     1       7.387  -0.572   7.098  1.00  0.00     0.049 A 
ATOM     53  H   UNL     1       6.135  -0.123   8.700  1.00  0.00     0.167 HD
ATOM     54  C   UNL     1       3.409   0.736  12.002  1.00  0.00     0.031 A 
ATOM     55  C   UNL     1       8.189   0.493   6.909  1.00  0.00     0.031 A 
ATOM     56  C   UNL     1       4.273   1.884  11.927  1.00  0.00     0.049 A 
ATOM     57  C   UNL     1       8.053   1.687   7.813  1.00  0.00     0.074 A 
ATOM     58  C   UNL     1       4.289   3.006  12.737  1.00  0.00     0.029 A 
ATOM     59  N   UNL     1       5.274   2.057  10.983  1.00  0.00    -0.354 N 
ATOM     60  N   UNL     1       7.231   1.876   8.816  1.00  0.00    -0.248 NA
ATOM     61  C   UNL     1       8.970   2.809   7.566  1.00  0.00     0.031 C 
ATOM     62  C   UNL     1       5.262   3.884  12.248  1.00  0.00     0.029 A 
ATOM     63  C   UNL     1       5.898   3.278  11.177  1.00  0.00     0.049 A 
ATOM     64  H   UNL     1       5.506   1.409  10.279  1.00  0.00     0.167 HD
ATOM     65  C   UNL     1       7.557   3.120   9.343  1.00  0.00     0.074 A 
ATOM     66  C   UNL     1       8.660   3.632   8.557  1.00  0.00     0.031 C 
ATOM     67  C   UNL     1       6.997   3.776  10.389  1.00  0.00     0.031 A 
BRANCH  54  68
ATOM     68  C   UNL     1       2.322   0.726  13.043  1.00  0.00    -0.014 A 
ATOM     69  C   UNL     1       2.364  -0.157  14.135  1.00  0.00     0.009 A 
ATOM     70  C   UNL     1       1.256   1.634  12.948  1.00  0.00     0.009 A 
ATOM     71  C   UNL     1       1.340  -0.158  15.085  1.00  0.00     0.001 A 
ATOM     72  C   UNL     1       0.251   1.654  13.918  1.00  0.00     0.001 A 
ATOM     73  C   UNL     1       0.288   0.750  14.979  1.00  0.00     0.000 A 
ENDBRANCH  54  68
BRANCH  55  74
ATOM     74  C   UNL     1       9.210   0.476   5.827  1.00  0.00    -0.014 A 
ATOM     75  C   UNL     1      10.578   0.426   6.137  1.00  0.00     0.009 A 
ATOM     76  C   UNL     1       8.823   0.525   4.479  1.00  0.00     0.009 A 
ATOM     77  C   UNL     1      11.537   0.459   5.122  1.00  0.00     0.001 A 
ATOM     78  C   UNL     1       9.783   0.525   3.464  1.00  0.00     0.001 A 
ATOM     79  C   UNL     1      11.139   0.504   3.787  1.00  0.00     0.000 A 
ENDBRANCH  55  74
BRANCH  67  80
ATOM     80  C   UNL     1       7.601   5.097  10.778  1.00  0.00    -0.014 A 
ATOM     81  C   UNL     1       7.464   6.237   9.971  1.00  0.00     0.009 A 
ATOM     82  C   UNL     1       8.296   5.207  11.993  1.00  0.00     0.009 A 
ATOM     83  C   UNL     1       8.045   7.448  10.354  1.00  0.00     0.001 A 
ATOM     84  C   UNL     1       8.846   6.426  12.390  1.00  0.00     0.001 A 
ATOM     85  C   UNL     1       8.731   7.542  11.565  1.00  0.00     0.000 A 
ENDBRANCH  67  80
ENDBRANCH  41  42
ENDBRANCH  33  36
ENDBRANCH  31  32
ENDBRANCH  30  31
ENDBRANCH  29  30
ENDBRANCH   1  29
TORSDOF 16
