REMARK SMILES COc1ccc2ncc(C(=O)NCCCCCCNC(=O)c3ccc(-c4c5nc(c(-c6ccccc6)c6ccc([nH]6)c(-c6ccccc6)c6nc(c(-c7ccccc7)c7ccc4[nH]7)C=C6)C=C5)cc3)c(Nc3ccccc3C)c2c1
REMARK SMILES IDX 15 1 14 2 13 3 12 4 10 5 11 6 9 8 3 9 4 10 80 11 5 12 79 13
REMARK SMILES IDX 6 14 70 15 7 16 8 17 2 18 1 19 71 20 72 22 73 23 77 24 74 25
REMARK SMILES IDX 76 26 78 27 75 28 16 29 17 30 18 31 19 32 20 33 21 35 22 36
REMARK SMILES IDX 23 37 69 38 24 39 68 40 25 41 26 42 27 43 62 44 28 45 67 46
REMARK SMILES IDX 61 47 63 48 29 49 66 50 60 51 59 52 30 54 52 55 37 56 51 57
REMARK SMILES IDX 38 58 41 59 50 60 64 61 39 62 40 63 49 65 65 66 42 67 31 68
REMARK SMILES IDX 32 69 36 70 33 71 35 72 34 73 53 74 54 75 58 76 55 77 57 78
REMARK SMILES IDX 56 79 43 80 44 81 48 82 45 83 47 84 46 85
REMARK H PARENT 12 7 71 21 19 34 63 53 41 64
REMARK Flexibility Score: inf
ROOT
ATOM      1  C   UNL     1       0.052 -12.245   1.038  1.00  0.00     0.002 C 
ENDROOT
BRANCH   1   2
ATOM      2  C   UNL     1       0.861 -10.973   1.296  1.00  0.00     0.021 C 
BRANCH   2   3
ATOM      3  C   UNL     1       0.807  -9.863   0.252  1.00  0.00     0.116 C 
BRANCH   3   4
ATOM      4  N   UNL     1      -0.516  -9.373  -0.082  1.00  0.00    -0.352 N 
ATOM      5  C   UNL     1      -0.923  -8.105  -0.451  1.00  0.00     0.254 C 
ATOM      6  O   UNL     1      -1.961  -7.991  -1.101  1.00  0.00    -0.269 OA
ATOM      7  H   UNL     1      -1.233 -10.046  -0.039  1.00  0.00     0.163 HD
BRANCH   5   8
ATOM      8  C   UNL     1      -0.114  -6.900  -0.149  1.00  0.00     0.082 A 
ATOM      9  C   UNL     1       0.707  -2.160   0.819  1.00  0.00     0.119 A 
ATOM     10  C   UNL     1       2.033  -2.359   0.469  1.00  0.00     0.048 A 
ATOM     11  C   UNL     1      -0.165  -3.250   0.867  1.00  0.00     0.059 A 
ATOM     12  C   UNL     1       2.449  -3.629   0.072  1.00  0.00     0.033 A 
ATOM     13  C   UNL     1       0.234  -4.547   0.439  1.00  0.00     0.028 A 
ATOM     14  C   UNL     1       1.572  -4.702   0.007  1.00  0.00     0.073 A 
ATOM     15  C   UNL     1      -0.631  -5.700   0.383  1.00  0.00     0.063 A 
ATOM     16  N   UNL     1       2.046  -5.840  -0.502  1.00  0.00    -0.255 NA
ATOM     17  C   UNL     1       1.189  -6.877  -0.622  1.00  0.00     0.127 A 
BRANCH   9  18
ATOM     18  O   UNL     1       0.187  -0.937   1.145  1.00  0.00    -0.497 OA
ATOM     19  C   UNL     1       0.616   0.110   0.272  1.00  0.00     0.278 C 
ENDBRANCH   9  18
BRANCH  15  20
ATOM     20  N   UNL     1      -1.957  -5.546   0.882  1.00  0.00    -0.354 N 
ATOM     21  H   UNL     1      -2.252  -4.609   0.948  1.00  0.00     0.167 HD
BRANCH  20  22
ATOM     22  C   UNL     1      -2.928  -6.480   1.298  1.00  0.00     0.041 A 
ATOM     23  C   UNL     1      -4.162  -6.472   0.619  1.00  0.00     0.026 A 
ATOM     24  C   UNL     1      -2.711  -7.449   2.293  1.00  0.00    -0.028 A 
ATOM     25  C   UNL     1      -5.148  -7.421   0.888  1.00  0.00     0.002 A 
ATOM     26  C   UNL     1      -3.711  -8.410   2.546  1.00  0.00     0.005 A 
ATOM     27  C   UNL     1      -1.462  -7.506   3.127  1.00  0.00     0.046 C 
ATOM     28  C   UNL     1      -4.918  -8.397   1.847  1.00  0.00     0.000 A 
ENDBRANCH  20  22
ENDBRANCH  15  20
ENDBRANCH   5   8
ENDBRANCH   3   4
ENDBRANCH   2   3
ENDBRANCH   1   2
BRANCH   1  29
ATOM     29  C   UNL     1       0.203 -12.927  -0.324  1.00  0.00     0.002 C 
BRANCH  29  30
ATOM     30  C   UNL     1       1.623 -13.201  -0.821  1.00  0.00     0.021 C 
BRANCH  30  31
ATOM     31  C   UNL     1       2.538 -13.977   0.120  1.00  0.00     0.116 C 
BRANCH  31  32
ATOM     32  N   UNL     1       2.089 -15.336   0.366  1.00  0.00    -0.352 N 
ATOM     33  C   UNL     1       2.779 -16.521   0.262  1.00  0.00     0.251 C 
ATOM     34  H   UNL     1       1.151 -15.422   0.650  1.00  0.00     0.163 HD
ATOM     35  O   UNL     1       2.189 -17.587   0.401  1.00  0.00    -0.269 OA
BRANCH  33  36
ATOM     36  C   UNL     1       4.230 -16.526  -0.043  1.00  0.00     0.039 A 
ATOM     37  C   UNL     1       4.711 -17.439  -0.989  1.00  0.00     0.014 A 
ATOM     38  C   UNL     1       5.118 -15.668   0.609  1.00  0.00     0.014 A 
ATOM     39  C   UNL     1       6.069 -17.448  -1.322  1.00  0.00     0.010 A 
ATOM     40  C   UNL     1       6.460 -15.635   0.232  1.00  0.00     0.010 A 
ATOM     41  C   UNL     1       6.950 -16.527  -0.735  1.00  0.00    -0.014 A 
BRANCH  41  42
ATOM     42  C   UNL     1       8.385 -16.485  -1.116  1.00  0.00     0.031 A 
ATOM     43  C   UNL     1       9.447 -16.851  -0.116  1.00  0.00     0.074 A 
ATOM     44  C   UNL     1       8.739 -16.060  -2.344  1.00  0.00     0.049 A 
ATOM     45  N   UNL     1      10.750 -16.827  -0.248  1.00  0.00    -0.248 NA
ATOM     46  C   UNL     1       8.984 -17.279   1.213  1.00  0.00     0.031 C 
ATOM     47  C   UNL     1       7.813 -15.645  -3.398  1.00  0.00     0.029 A 
ATOM     48  N   UNL     1       9.980 -15.903  -2.909  1.00  0.00    -0.354 N 
ATOM     49  C   UNL     1      11.261 -17.214   0.984  1.00  0.00     0.074 A 
ATOM     50  C   UNL     1      10.130 -17.427   1.862  1.00  0.00     0.031 C 
ATOM     51  C   UNL     1       8.515 -15.306  -4.491  1.00  0.00     0.029 A 
ATOM     52  C   UNL     1       9.940 -15.446  -4.204  1.00  0.00     0.049 A 
ATOM     53  H   UNL     1      10.819 -16.098  -2.433  1.00  0.00     0.167 HD
ATOM     54  C   UNL     1      12.553 -17.391   1.351  1.00  0.00     0.031 A 
ATOM     55  C   UNL     1      10.937 -15.170  -5.065  1.00  0.00     0.031 A 
ATOM     56  C   UNL     1      13.680 -17.193   0.479  1.00  0.00     0.049 A 
ATOM     57  C   UNL     1      12.363 -15.366  -4.635  1.00  0.00     0.074 A 
ATOM     58  C   UNL     1      15.022 -17.409   0.741  1.00  0.00     0.029 A 
ATOM     59  N   UNL     1      13.595 -16.730  -0.824  1.00  0.00    -0.354 N 
ATOM     60  N   UNL     1      12.826 -15.791  -3.485  1.00  0.00    -0.248 NA
ATOM     61  C   UNL     1      13.401 -15.050  -5.626  1.00  0.00     0.031 C 
ATOM     62  C   UNL     1      15.754 -17.034  -0.392  1.00  0.00     0.029 A 
ATOM     63  C   UNL     1      14.863 -16.629  -1.373  1.00  0.00     0.049 A 
ATOM     64  H   UNL     1      12.758 -16.506  -1.291  1.00  0.00     0.167 HD
ATOM     65  C   UNL     1      14.208 -15.818  -3.621  1.00  0.00     0.074 A 
ATOM     66  C   UNL     1      14.506 -15.375  -4.968  1.00  0.00     0.031 C 
ATOM     67  C   UNL     1      15.145 -16.181  -2.712  1.00  0.00     0.031 A 
BRANCH  54  68
ATOM     68  C   UNL     1      12.809 -17.810   2.772  1.00  0.00    -0.014 A 
ATOM     69  C   UNL     1      12.487 -19.102   3.220  1.00  0.00     0.009 A 
ATOM     70  C   UNL     1      13.390 -16.904   3.673  1.00  0.00     0.009 A 
ATOM     71  C   UNL     1      12.699 -19.462   4.552  1.00  0.00     0.001 A 
ATOM     72  C   UNL     1      13.626 -17.276   4.998  1.00  0.00     0.001 A 
ATOM     73  C   UNL     1      13.270 -18.549   5.439  1.00  0.00     0.000 A 
ENDBRANCH  54  68
BRANCH  55  74
ATOM     74  C   UNL     1      10.617 -14.706  -6.439  1.00  0.00    -0.014 A 
ATOM     75  C   UNL     1      10.769 -15.575  -7.530  1.00  0.00     0.009 A 
ATOM     76  C   UNL     1      10.144 -13.405  -6.665  1.00  0.00     0.009 A 
ATOM     77  C   UNL     1      10.469 -15.143  -8.824  1.00  0.00     0.001 A 
ATOM     78  C   UNL     1       9.823 -12.984  -7.957  1.00  0.00     0.001 A 
ATOM     79  C   UNL     1       9.991 -13.851  -9.036  1.00  0.00     0.000 A 
ENDBRANCH  55  74
BRANCH  67  80
ATOM     80  C   UNL     1      16.579 -16.139  -3.153  1.00  0.00    -0.014 A 
ATOM     81  C   UNL     1      17.260 -14.920  -3.295  1.00  0.00     0.009 A 
ATOM     82  C   UNL     1      17.268 -17.338  -3.395  1.00  0.00     0.009 A 
ATOM     83  C   UNL     1      18.597 -14.903  -3.699  1.00  0.00     0.001 A 
ATOM     84  C   UNL     1      18.610 -17.318  -3.775  1.00  0.00     0.001 A 
ATOM     85  C   UNL     1      19.271 -16.101  -3.935  1.00  0.00     0.000 A 
ENDBRANCH  67  80
ENDBRANCH  41  42
ENDBRANCH  33  36
ENDBRANCH  31  32
ENDBRANCH  30  31
ENDBRANCH  29  30
ENDBRANCH   1  29
TORSDOF 16
