REMARK SMILES O=C(CCc1cccnc1)Nc1ccsc1C(=O)NCCCCCCNC(=O)c1ccc(-c2c3nc(c(-c4ccccc4)c4ccc([nH]4)c(-c4ccccc4)c4nc(c(-c5ccccc5)c5ccc2[nH]5)C=C4)C=C3)cc1
REMARK SMILES IDX 21 1 20 2 19 3 17 4 18 5 16 7 12 8 13 9 14 10 15 11 11 12
REMARK SMILES IDX 1 13 2 14 3 16 4 17 5 18 6 19 10 20 7 21 9 22 8 23 22 24
REMARK SMILES IDX 23 25 24 26 25 27 26 28 27 29 28 31 29 32 30 33 76 34 31 35
REMARK SMILES IDX 75 36 32 37 33 38 34 39 69 40 35 41 74 42 68 43 70 44 36 45
REMARK SMILES IDX 73 46 67 47 66 48 37 50 59 51 44 52 58 53 45 54 48 55 57 56
REMARK SMILES IDX 71 57 46 58 47 59 56 61 72 62 49 63 38 64 39 65 43 66 40 67
REMARK SMILES IDX 42 68 41 69 60 70 61 71 65 72 62 73 64 74 63 75 50 76 51 77
REMARK SMILES IDX 55 78 52 79 54 80 53 81
REMARK H PARENT 19 6 11 15 26 30 70 49 48 60
REMARK Flexibility Score: inf
ROOT
ATOM      1  C   UNL     1       4.225  -1.914  -3.589  1.00  0.00     0.021 C 
ENDROOT
BRANCH   1   2
ATOM      2  C   UNL     1       3.729  -0.606  -2.961  1.00  0.00     0.116 C 
BRANCH   2   3
ATOM      3  N   UNL     1       4.305   0.621  -3.461  1.00  0.00    -0.351 N 
ATOM      4  C   UNL     1       3.836   1.920  -3.435  1.00  0.00     0.263 C 
ATOM      5  O   UNL     1       4.564   2.750  -4.000  1.00  0.00    -0.268 OA
ATOM      6  H   UNL     1       5.182   0.513  -3.895  1.00  0.00     0.163 HD
BRANCH   4   7
ATOM      7  C   UNL     1       2.563   2.289  -2.820  1.00  0.00     0.115 A 
ATOM      8  C   UNL     1       1.934   1.938  -1.628  1.00  0.00     0.065 A 
ATOM      9  C   UNL     1       0.663   2.584  -1.484  1.00  0.00     0.038 A 
ATOM     10  C   UNL     1       0.400   3.477  -2.495  1.00  0.00     0.068 A 
ATOM     11  S   UNL     1       1.631   3.477  -3.668  1.00  0.00    -0.137 S 
BRANCH   8  12
ATOM     12  N   UNL     1       2.526   1.139  -0.655  1.00  0.00    -0.325 N 
ATOM     13  O   UNL     1       0.646   0.442   0.490  1.00  0.00    -0.275 OA
ATOM     14  C   UNL     1       1.870   0.531   0.392  1.00  0.00     0.224 C 
ATOM     15  H   UNL     1       3.498   0.997  -0.721  1.00  0.00     0.169 HD
BRANCH  14  16
ATOM     16  C   UNL     1       2.738  -0.009   1.528  1.00  0.00     0.105 C 
BRANCH  16  17
ATOM     17  C   UNL     1       4.153  -0.497   1.217  1.00  0.00     0.047 C 
BRANCH  17  18
ATOM     18  C   UNL     1       5.133   0.574   0.807  1.00  0.00    -0.029 A 
ATOM     19  C   UNL     1       5.249   1.806   1.443  1.00  0.00     0.007 A 
ATOM     20  C   UNL     1       5.931   0.384  -0.314  1.00  0.00     0.114 A 
ATOM     21  C   UNL     1       6.083   2.785   0.901  1.00  0.00     0.020 A 
ATOM     22  N   UNL     1       6.741   1.304  -0.868  1.00  0.00    -0.264 NA
ATOM     23  C   UNL     1       6.795   2.496  -0.252  1.00  0.00     0.111 A 
ENDBRANCH  17  18
ENDBRANCH  16  17
ENDBRANCH  14  16
ENDBRANCH   8  12
ENDBRANCH   4   7
ENDBRANCH   2   3
ENDBRANCH   1   2
BRANCH   1  24
ATOM     24  C   UNL     1       5.684  -2.107  -4.028  1.00  0.00     0.002 C 
BRANCH  24  25
ATOM     25  C   UNL     1       6.867  -2.054  -3.052  1.00  0.00     0.002 C 
BRANCH  25  26
ATOM     26  C   UNL     1       6.919  -2.907  -1.775  1.00  0.00     0.021 C 
BRANCH  26  27
ATOM     27  C   UNL     1       6.222  -4.259  -1.741  1.00  0.00     0.116 C 
BRANCH  27  28
ATOM     28  N   UNL     1       7.108  -5.347  -2.091  1.00  0.00    -0.352 N 
ATOM     29  C   UNL     1       7.658  -6.344  -1.326  1.00  0.00     0.251 C 
ATOM     30  H   UNL     1       7.361  -5.377  -3.043  1.00  0.00     0.163 HD
ATOM     31  O   UNL     1       8.555  -7.029  -1.821  1.00  0.00    -0.269 OA
BRANCH  29  32
ATOM     32  C   UNL     1       7.218  -6.649   0.065  1.00  0.00     0.039 A 
ATOM     33  C   UNL     1       8.175  -7.163   0.953  1.00  0.00     0.014 A 
ATOM     34  C   UNL     1       5.881  -6.600   0.475  1.00  0.00     0.014 A 
ATOM     35  C   UNL     1       7.800  -7.642   2.216  1.00  0.00     0.010 A 
ATOM     36  C   UNL     1       5.514  -7.021   1.762  1.00  0.00     0.010 A 
ATOM     37  C   UNL     1       6.461  -7.592   2.627  1.00  0.00    -0.014 A 
BRANCH  37  38
ATOM     38  C   UNL     1       6.034  -8.246   3.896  1.00  0.00     0.031 A 
ATOM     39  C   UNL     1       5.189  -9.497   3.852  1.00  0.00     0.074 A 
ATOM     40  C   UNL     1       6.394  -7.739   5.091  1.00  0.00     0.049 A 
ATOM     41  N   UNL     1       4.721 -10.218   4.842  1.00  0.00    -0.248 NA
ATOM     42  C   UNL     1       4.803  -9.991   2.520  1.00  0.00     0.031 C 
ATOM     43  C   UNL     1       7.182  -6.524   5.297  1.00  0.00     0.029 A 
ATOM     44  N   UNL     1       6.138  -8.190   6.364  1.00  0.00    -0.354 N 
ATOM     45  C   UNL     1       3.964 -11.226   4.254  1.00  0.00     0.074 A 
ATOM     46  C   UNL     1       4.009 -11.008   2.825  1.00  0.00     0.031 C 
ATOM     47  C   UNL     1       7.356  -6.332   6.616  1.00  0.00     0.029 A 
ATOM     48  C   UNL     1       6.683  -7.402   7.349  1.00  0.00     0.049 A 
ATOM     49  H   UNL     1       5.613  -9.001   6.553  1.00  0.00     0.167 HD
ATOM     50  C   UNL     1       3.302 -12.251   4.842  1.00  0.00     0.031 A 
ATOM     51  C   UNL     1       6.652  -7.529   8.690  1.00  0.00     0.031 A 
ATOM     52  C   UNL     1       3.285 -12.511   6.256  1.00  0.00     0.049 A 
ATOM     53  C   UNL     1       5.963  -8.710   9.316  1.00  0.00     0.074 A 
ATOM     54  C   UNL     1       2.693 -13.565   6.932  1.00  0.00     0.029 A 
ATOM     55  N   UNL     1       3.895 -11.716   7.210  1.00  0.00    -0.354 N 
ATOM     56  N   UNL     1       5.309  -9.687   8.738  1.00  0.00    -0.248 NA
ATOM     57  C   UNL     1       6.032  -8.817  10.782  1.00  0.00     0.031 C 
ATOM     58  C   UNL     1       2.924 -13.393   8.301  1.00  0.00     0.029 A 
ATOM     59  C   UNL     1       3.689 -12.251   8.470  1.00  0.00     0.049 A 
ATOM     60  H   UNL     1       4.401 -10.893   7.020  1.00  0.00     0.167 HD
ATOM     61  C   UNL     1       4.913 -10.536   9.764  1.00  0.00     0.074 A 
ATOM     62  C   UNL     1       5.412  -9.969  10.999  1.00  0.00     0.031 C 
ATOM     63  C   UNL     1       4.199 -11.685   9.689  1.00  0.00     0.031 A 
BRANCH  50  64
ATOM     64  C   UNL     1       2.529 -13.179   3.947  1.00  0.00    -0.014 A 
ATOM     65  C   UNL     1       3.182 -14.127   3.145  1.00  0.00     0.009 A 
ATOM     66  C   UNL     1       1.126 -13.132   3.942  1.00  0.00     0.009 A 
ATOM     67  C   UNL     1       2.445 -14.990   2.331  1.00  0.00     0.001 A 
ATOM     68  C   UNL     1       0.392 -14.011   3.144  1.00  0.00     0.001 A 
ATOM     69  C   UNL     1       1.052 -14.934   2.334  1.00  0.00     0.000 A 
ENDBRANCH  50  64
BRANCH  51  70
ATOM     70  C   UNL     1       7.322  -6.519   9.548  1.00  0.00    -0.014 A 
ATOM     71  C   UNL     1       8.528  -6.822  10.199  1.00  0.00     0.009 A 
ATOM     72  C   UNL     1       6.743  -5.255   9.741  1.00  0.00     0.009 A 
ATOM     73  C   UNL     1       9.126  -5.890  11.050  1.00  0.00     0.001 A 
ATOM     74  C   UNL     1       7.356  -4.317  10.575  1.00  0.00     0.001 A 
ATOM     75  C   UNL     1       8.541  -4.638  11.235  1.00  0.00     0.000 A 
ENDBRANCH  51  70
BRANCH  63  76
ATOM     76  C   UNL     1       3.947 -12.423  10.972  1.00  0.00    -0.014 A 
ATOM     77  C   UNL     1       3.002 -11.965  11.901  1.00  0.00     0.009 A 
ATOM     78  C   UNL     1       4.648 -13.610  11.239  1.00  0.00     0.009 A 
ATOM     79  C   UNL     1       2.787 -12.664  13.091  1.00  0.00     0.001 A 
ATOM     80  C   UNL     1       4.415 -14.318  12.419  1.00  0.00     0.001 A 
ATOM     81  C   UNL     1       3.492 -13.840  13.347  1.00  0.00     0.000 A 
ENDBRANCH  63  76
ENDBRANCH  37  38
ENDBRANCH  29  32
ENDBRANCH  27  28
ENDBRANCH  26  27
ENDBRANCH  25  26
ENDBRANCH  24  25
ENDBRANCH   1  24
TORSDOF 17
