REMARK SMILES O=C(NCCCCCCNC(=O)c1ccc(Cl)nc1C(F)(F)F)c1ccc(-c2c3nc(c(-c4ccccc4)c4ccc([nH]4)c(-c4ccccc4)c4nc(c(-c5ccccc5)c5ccc2[nH]5)C=C4)C=C3)cc1
REMARK SMILES IDX 6 1 5 2 4 3 3 4 1 5 2 6 24 8 25 9 71 10 26 11 70 12 27 13
REMARK SMILES IDX 28 14 29 15 64 16 30 17 69 18 63 19 65 20 31 21 68 22 62 23
REMARK SMILES IDX 61 24 32 26 54 27 39 28 53 29 40 30 43 31 52 32 66 33 41 34
REMARK SMILES IDX 42 35 51 37 67 38 44 39 33 40 34 41 38 42 35 43 37 44 36 45
REMARK SMILES IDX 55 46 56 47 60 48 57 49 59 50 58 51 45 52 46 53 50 54 47 55
REMARK SMILES IDX 49 56 48 57 7 58 8 59 9 60 10 61 11 62 12 64 13 65 14 66
REMARK SMILES IDX 19 67 15 68 18 69 16 70 17 71 20 72 21 73 22 74 23 75
REMARK H PARENT 3 7 65 25 43 36 10 63
REMARK Flexibility Score: inf
ROOT
ATOM      1  C   UNL     1       4.176   2.239  -3.299  1.00  0.00     0.002 C 
ENDROOT
BRANCH   1   2
ATOM      2  C   UNL     1       4.626   0.975  -2.570  1.00  0.00     0.021 C 
BRANCH   2   3
ATOM      3  C   UNL     1       4.352   0.970  -1.075  1.00  0.00     0.116 C 
BRANCH   3   4
ATOM      4  N   UNL     1       2.934   0.932  -0.752  1.00  0.00    -0.352 N 
ATOM      5  O   UNL     1       1.031   0.070   0.118  1.00  0.00    -0.269 OA
ATOM      6  C   UNL     1       2.255   0.049   0.056  1.00  0.00     0.251 C 
ATOM      7  H   UNL     1       2.384   1.635  -1.169  1.00  0.00     0.163 HD
BRANCH   6   8
ATOM      8  C   UNL     1       3.021  -0.952   0.831  1.00  0.00     0.039 A 
ATOM      9  C   UNL     1       4.181  -0.571   1.503  1.00  0.00     0.014 A 
ATOM     10  C   UNL     1       2.599  -2.284   0.856  1.00  0.00     0.014 A 
ATOM     11  C   UNL     1       5.013  -1.542   2.038  1.00  0.00     0.010 A 
ATOM     12  C   UNL     1       3.379  -3.246   1.508  1.00  0.00     0.010 A 
ATOM     13  C   UNL     1       4.609  -2.888   2.079  1.00  0.00    -0.014 A 
BRANCH  13  14
ATOM     14  C   UNL     1       5.463  -3.854   2.817  1.00  0.00     0.031 A 
ATOM     15  C   UNL     1       6.119  -5.023   2.137  1.00  0.00     0.074 A 
ATOM     16  C   UNL     1       5.700  -3.610   4.122  1.00  0.00     0.049 A 
ATOM     17  N   UNL     1       6.960  -5.894   2.639  1.00  0.00    -0.248 NA
ATOM     18  C   UNL     1       5.792  -5.254   0.721  1.00  0.00     0.031 C 
ATOM     19  C   UNL     1       5.106  -2.513   4.895  1.00  0.00     0.029 A 
ATOM     20  N   UNL     1       6.527  -4.232   5.019  1.00  0.00    -0.354 N 
ATOM     21  C   UNL     1       7.256  -6.778   1.609  1.00  0.00     0.074 A 
ATOM     22  C   UNL     1       6.481  -6.358   0.460  1.00  0.00     0.031 C 
ATOM     23  C   UNL     1       5.644  -2.493   6.120  1.00  0.00     0.029 A 
ATOM     24  C   UNL     1       6.552  -3.624   6.252  1.00  0.00     0.049 A 
ATOM     25  H   UNL     1       7.053  -5.036   4.803  1.00  0.00     0.167 HD
ATOM     26  C   UNL     1       8.103  -7.837   1.620  1.00  0.00     0.031 A 
ATOM     27  C   UNL     1       7.212  -3.949   7.377  1.00  0.00     0.031 A 
ATOM     28  C   UNL     1       8.861  -8.260   2.772  1.00  0.00     0.049 A 
ATOM     29  C   UNL     1       8.109  -5.150   7.365  1.00  0.00     0.074 A 
ATOM     30  C   UNL     1       9.750  -9.316   2.878  1.00  0.00     0.029 A 
ATOM     31  N   UNL     1       8.816  -7.652   4.017  1.00  0.00    -0.354 N 
ATOM     32  N   UNL     1       8.400  -5.953   6.371  1.00  0.00    -0.248 NA
ATOM     33  C   UNL     1       8.770  -5.487   8.631  1.00  0.00     0.031 C 
ATOM     34  C   UNL     1      10.200  -9.381   4.201  1.00  0.00     0.029 A 
ATOM     35  C   UNL     1       9.644  -8.324   4.903  1.00  0.00     0.049 A 
ATOM     36  H   UNL     1       8.276  -6.859   4.239  1.00  0.00     0.167 HD
ATOM     37  C   UNL     1       9.287  -6.885   6.889  1.00  0.00     0.074 A 
ATOM     38  C   UNL     1       9.517  -6.519   8.272  1.00  0.00     0.031 C 
ATOM     39  C   UNL     1       9.852  -7.955   6.279  1.00  0.00     0.031 A 
BRANCH  26  40
ATOM     40  C   UNL     1       8.251  -8.632   0.350  1.00  0.00    -0.014 A 
ATOM     41  C   UNL     1       8.930  -8.108  -0.762  1.00  0.00     0.009 A 
ATOM     42  C   UNL     1       7.771  -9.950   0.289  1.00  0.00     0.009 A 
ATOM     43  C   UNL     1       9.106  -8.880  -1.914  1.00  0.00     0.001 A 
ATOM     44  C   UNL     1       7.972 -10.729  -0.853  1.00  0.00     0.001 A 
ATOM     45  C   UNL     1       8.634 -10.191  -1.956  1.00  0.00     0.000 A 
ENDBRANCH  26  40
BRANCH  27  46
ATOM     46  C   UNL     1       7.011  -3.152   8.615  1.00  0.00    -0.014 A 
ATOM     47  C   UNL     1       8.062  -2.417   9.182  1.00  0.00     0.009 A 
ATOM     48  C   UNL     1       5.757  -3.138   9.247  1.00  0.00     0.009 A 
ATOM     49  C   UNL     1       7.870  -1.716  10.376  1.00  0.00     0.001 A 
ATOM     50  C   UNL     1       5.556  -2.404  10.416  1.00  0.00     0.001 A 
ATOM     51  C   UNL     1       6.618  -1.706  10.988  1.00  0.00     0.000 A 
ENDBRANCH  27  46
BRANCH  39  52
ATOM     52  C   UNL     1      10.793  -8.784   7.110  1.00  0.00    -0.014 A 
ATOM     53  C   UNL     1      10.327  -9.570   8.176  1.00  0.00     0.009 A 
ATOM     54  C   UNL     1      12.167  -8.769   6.827  1.00  0.00     0.009 A 
ATOM     55  C   UNL     1      11.224 -10.280   8.975  1.00  0.00     0.001 A 
ATOM     56  C   UNL     1      13.058  -9.510   7.604  1.00  0.00     0.001 A 
ATOM     57  C   UNL     1      12.588 -10.252   8.687  1.00  0.00     0.000 A 
ENDBRANCH  39  52
ENDBRANCH  13  14
ENDBRANCH   6   8
ENDBRANCH   3   4
ENDBRANCH   2   3
ENDBRANCH   1   2
BRANCH   1  58
ATOM     58  C   UNL     1       4.740   3.552  -2.748  1.00  0.00     0.002 C 
BRANCH  58  59
ATOM     59  C   UNL     1       6.265   3.619  -2.613  1.00  0.00     0.021 C 
BRANCH  59  60
ATOM     60  C   UNL     1       7.048   3.297  -3.882  1.00  0.00     0.116 C 
BRANCH  60  61
ATOM     61  N   UNL     1       6.751   4.213  -4.973  1.00  0.00    -0.352 N 
ATOM     62  C   UNL     1       7.611   4.955  -5.736  1.00  0.00     0.253 C 
ATOM     63  H   UNL     1       5.796   4.314  -5.192  1.00  0.00     0.163 HD
ATOM     64  O   UNL     1       7.208   5.712  -6.615  1.00  0.00    -0.269 OA
BRANCH  62  65
ATOM     65  C   UNL     1       9.056   4.840  -5.512  1.00  0.00     0.070 A 
ATOM     66  C   UNL     1       9.675   3.601  -5.731  1.00  0.00     0.019 A 
ATOM     67  C   UNL     1       9.825   5.934  -5.114  1.00  0.00     0.158 A 
ATOM     68  C   UNL     1      11.038   3.467  -5.500  1.00  0.00     0.042 A 
ATOM     69  N   UNL     1      11.173   5.800  -4.894  1.00  0.00    -0.231 NA
ATOM     70  C   UNL     1      11.731   4.587  -5.084  1.00  0.00     0.129 A 
ATOM     71  Cl  UNL     1      13.410   4.510  -4.755  1.00  0.00    -0.062 Cl
BRANCH  67  72
ATOM     72  C   UNL     1       9.214   7.314  -4.921  1.00  0.00     0.434 C 
ATOM     73  F   UNL     1       9.841   8.022  -3.932  1.00  0.00    -0.164 F 
ATOM     74  F   UNL     1       9.302   8.094  -6.035  1.00  0.00    -0.164 F 
ATOM     75  F   UNL     1       7.902   7.315  -4.549  1.00  0.00    -0.164 F 
ENDBRANCH  67  72
ENDBRANCH  62  65
ENDBRANCH  60  61
ENDBRANCH  59  60
ENDBRANCH  58  59
ENDBRANCH   1  58
TORSDOF 14
