REMARK SMILES O=C(NCCCCCCNC(=O)[C@H]1C[C@H]2CCCC[C@H]2[N@@H+]1CC(=O)N1CCCC1)c1ccc(-c2c3nc(c(-c4ccccc4)c4ccc([nH]4)c(-c4ccccc4)c4nc(c(-c5ccccc5)c5ccc2[nH]5)C=C4)C=C3)cc1
REMARK SMILES IDX 6 1 5 2 4 3 3 4 1 5 2 6 30 8 31 9 77 10 32 11 76 12 33 13
REMARK SMILES IDX 34 14 35 15 70 16 36 17 75 18 69 19 71 20 37 21 74 22 68 23
REMARK SMILES IDX 67 24 38 26 60 27 45 28 59 29 46 30 49 31 58 32 72 33 47 34
REMARK SMILES IDX 48 35 57 37 73 38 50 39 39 40 40 41 44 42 41 43 43 44 42 45
REMARK SMILES IDX 61 46 62 47 66 48 63 49 65 50 64 51 51 52 52 53 56 54 53 55
REMARK SMILES IDX 55 56 54 57 7 58 8 59 9 60 10 61 11 62 12 64 13 65 14 66
REMARK SMILES IDX 21 67 15 68 20 69 16 71 19 72 17 73 18 74 22 75 23 76 24 77
REMARK SMILES IDX 25 78 26 79 29 80 27 81 28 82
REMARK H PARENT 3 7 71 25 49 36 10 63 21 70
REMARK Flexibility Score: inf
ROOT
ATOM      1  C   UNL     1       4.035   2.143  -3.225  1.00  0.00     0.002 C 
ENDROOT
BRANCH   1   2
ATOM      2  C   UNL     1       4.490   0.798  -2.661  1.00  0.00     0.021 C 
BRANCH   2   3
ATOM      3  C   UNL     1       4.373   0.696  -1.148  1.00  0.00     0.116 C 
BRANCH   3   4
ATOM      4  N   UNL     1       2.991   0.755  -0.698  1.00  0.00    -0.352 N 
ATOM      5  O   UNL     1       1.139  -0.006   0.350  1.00  0.00    -0.269 OA
ATOM      6  C   UNL     1       2.345  -0.066   0.199  1.00  0.00     0.251 C 
ATOM      7  H   UNL     1       2.446   1.478  -1.085  1.00  0.00     0.163 HD
BRANCH   6   8
ATOM      8  C   UNL     1       3.151  -1.042   0.965  1.00  0.00     0.039 A 
ATOM      9  C   UNL     1       4.348  -0.643   1.559  1.00  0.00     0.014 A 
ATOM     10  C   UNL     1       2.713  -2.365   1.068  1.00  0.00     0.014 A 
ATOM     11  C   UNL     1       5.176  -1.593   2.136  1.00  0.00     0.010 A 
ATOM     12  C   UNL     1       3.504  -3.303   1.737  1.00  0.00     0.010 A 
ATOM     13  C   UNL     1       4.752  -2.928   2.256  1.00  0.00    -0.014 A 
BRANCH  13  14
ATOM     14  C   UNL     1       5.607  -3.870   3.018  1.00  0.00     0.031 A 
ATOM     15  C   UNL     1       6.269  -5.046   2.361  1.00  0.00     0.074 A 
ATOM     16  C   UNL     1       5.835  -3.599   4.319  1.00  0.00     0.049 A 
ATOM     17  N   UNL     1       7.114  -5.903   2.878  1.00  0.00    -0.248 NA
ATOM     18  C   UNL     1       5.942  -5.304   0.950  1.00  0.00     0.031 C 
ATOM     19  C   UNL     1       5.231  -2.490   5.065  1.00  0.00     0.029 A 
ATOM     20  N   UNL     1       6.661  -4.200   5.231  1.00  0.00    -0.354 N 
ATOM     21  C   UNL     1       7.411  -6.805   1.865  1.00  0.00     0.074 A 
ATOM     22  C   UNL     1       6.637  -6.408   0.708  1.00  0.00     0.031 C 
ATOM     23  C   UNL     1       5.761  -2.446   6.294  1.00  0.00     0.029 A 
ATOM     24  C   UNL     1       6.687  -3.560   6.446  1.00  0.00     0.049 A 
ATOM     25  H   UNL     1       7.185  -5.010   5.035  1.00  0.00     0.167 HD
ATOM     26  C   UNL     1       8.257  -7.863   1.899  1.00  0.00     0.031 A 
ATOM     27  C   UNL     1       7.373  -3.842   7.568  1.00  0.00     0.031 A 
ATOM     28  C   UNL     1       9.019  -8.258   3.056  1.00  0.00     0.049 A 
ATOM     29  C   UNL     1       8.293  -5.024   7.574  1.00  0.00     0.074 A 
ATOM     30  C   UNL     1       9.905  -9.314   3.187  1.00  0.00     0.029 A 
ATOM     31  N   UNL     1       8.987  -7.611   4.282  1.00  0.00    -0.354 N 
ATOM     32  N   UNL     1       8.574  -5.854   6.599  1.00  0.00    -0.248 NA
ATOM     33  C   UNL     1       8.988  -5.309   8.835  1.00  0.00     0.031 C 
ATOM     34  C   UNL     1      10.377  -9.331   4.504  1.00  0.00     0.029 A 
ATOM     35  C   UNL     1       9.824  -8.254   5.179  1.00  0.00     0.049 A 
ATOM     36  H   UNL     1       8.448  -6.812   4.485  1.00  0.00     0.167 HD
ATOM     37  C   UNL     1       9.480  -6.761   7.129  1.00  0.00     0.074 A 
ATOM     38  C   UNL     1       9.731  -6.353   8.497  1.00  0.00     0.031 C 
ATOM     39  C   UNL     1      10.045  -7.843   6.540  1.00  0.00     0.031 A 
BRANCH  26  40
ATOM     40  C   UNL     1       8.394  -8.687   0.648  1.00  0.00    -0.014 A 
ATOM     41  C   UNL     1       9.103  -8.207  -0.464  1.00  0.00     0.009 A 
ATOM     42  C   UNL     1       7.863  -9.986   0.605  1.00  0.00     0.009 A 
ATOM     43  C   UNL     1       9.259  -9.003  -1.601  1.00  0.00     0.001 A 
ATOM     44  C   UNL     1       8.041 -10.789  -0.524  1.00  0.00     0.001 A 
ATOM     45  C   UNL     1       8.734 -10.295  -1.628  1.00  0.00     0.000 A 
ENDBRANCH  26  40
BRANCH  27  46
ATOM     46  C   UNL     1       7.191  -3.000   8.778  1.00  0.00    -0.014 A 
ATOM     47  C   UNL     1       8.228  -2.183   9.250  1.00  0.00     0.009 A 
ATOM     48  C   UNL     1       5.965  -3.007   9.463  1.00  0.00     0.009 A 
ATOM     49  C   UNL     1       8.049  -1.409  10.399  1.00  0.00     0.001 A 
ATOM     50  C   UNL     1       5.778  -2.208  10.591  1.00  0.00     0.001 A 
ATOM     51  C   UNL     1       6.823  -1.418  11.064  1.00  0.00     0.000 A 
ENDBRANCH  27  46
BRANCH  39  52
ATOM     52  C   UNL     1      10.993  -8.645   7.384  1.00  0.00    -0.014 A 
ATOM     53  C   UNL     1      10.522  -9.450   8.434  1.00  0.00     0.009 A 
ATOM     54  C   UNL     1      12.371  -8.591   7.130  1.00  0.00     0.009 A 
ATOM     55  C   UNL     1      11.420 -10.150   9.242  1.00  0.00     0.001 A 
ATOM     56  C   UNL     1      13.264  -9.314   7.922  1.00  0.00     0.001 A 
ATOM     57  C   UNL     1      12.788 -10.083   8.984  1.00  0.00     0.000 A 
ENDBRANCH  39  52
ENDBRANCH  13  14
ENDBRANCH   6   8
ENDBRANCH   3   4
ENDBRANCH   2   3
ENDBRANCH   1   2
BRANCH   1  58
ATOM     58  C   UNL     1       4.798   3.355  -2.675  1.00  0.00     0.002 C 
BRANCH  58  59
ATOM     59  C   UNL     1       6.320   3.290  -2.866  1.00  0.00     0.021 C 
BRANCH  59  60
ATOM     60  C   UNL     1       6.723   3.203  -4.336  1.00  0.00     0.116 C 
BRANCH  60  61
ATOM     61  N   UNL     1       6.440   4.455  -4.999  1.00  0.00    -0.351 N 
ATOM     62  C   UNL     1       7.297   5.434  -5.412  1.00  0.00     0.278 C 
ATOM     63  H   UNL     1       5.487   4.627  -5.180  1.00  0.00     0.163 HD
ATOM     64  O   UNL     1       6.792   6.519  -5.707  1.00  0.00    -0.268 OA
BRANCH  62  65
ATOM     65  C   UNL     1       8.791   5.101  -5.630  1.00  0.00     0.275 C 
ATOM     66  C   UNL     1       9.456   6.132  -6.564  1.00  0.00     0.085 C 
ATOM     67  N   UNL     1       9.588   5.110  -4.375  1.00  0.00    -0.314 N 
ATOM     68  C   UNL     1      10.802   6.424  -5.911  1.00  0.00     0.054 C 
ATOM     69  C   UNL     1      10.476   6.293  -4.427  1.00  0.00     0.188 C 
ATOM     70  H   UNL     1       8.942   5.176  -3.589  1.00  0.00     0.349 HD
ATOM     71  C   UNL     1      11.443   7.752  -6.291  1.00  0.00     0.010 C 
ATOM     72  C   UNL     1       9.747   7.538  -3.874  1.00  0.00     0.065 C 
ATOM     73  C   UNL     1      10.687   8.960  -5.755  1.00  0.00     0.001 C 
ATOM     74  C   UNL     1      10.442   8.846  -4.254  1.00  0.00     0.006 C 
BRANCH  67  75
ATOM     75  C   UNL     1      10.311   3.847  -4.065  1.00  0.00     0.364 C 
BRANCH  75  76
ATOM     76  C   UNL     1      11.547   3.417  -4.881  1.00  0.00     0.277 C 
ATOM     77  O   UNL     1      12.679   3.748  -4.515  1.00  0.00    -0.268 OA
ATOM     78  N   UNL     1      11.363   2.496  -5.911  1.00  0.00    -0.338 N 
ATOM     79  C   UNL     1      12.425   1.577  -6.285  1.00  0.00     0.119 C 
ATOM     80  C   UNL     1      10.543   2.766  -7.078  1.00  0.00     0.119 C 
ATOM     81  C   UNL     1      12.654   1.862  -7.758  1.00  0.00     0.023 C 
ATOM     82  C   UNL     1      11.245   2.122  -8.268  1.00  0.00     0.023 C 
ENDBRANCH  75  76
ENDBRANCH  67  75
ENDBRANCH  62  65
ENDBRANCH  60  61
ENDBRANCH  59  60
ENDBRANCH  58  59
ENDBRANCH   1  58
TORSDOF 15
