REMARK SMILES COC(=O)c1ccc(Cl)c(-c2ccc(C(=O)NCCCCCCNC(=O)c3ccc(-c4c5nc(c(-c6ccccc6)c6ccc([nH]6)c(-c6ccccc6)c6nc(c(-c7ccccc7)c7ccc4[nH]7)C=C6)C=C5)cc3)nc2)c1
REMARK SMILES IDX 20 1 19 2 18 3 17 4 15 5 16 6 14 8 11 9 12 10 76 11 13 12
REMARK SMILES IDX 75 13 10 14 5 15 6 16 77 17 7 18 8 19 9 20 3 21 4 22 2 23
REMARK SMILES IDX 1 24 21 25 22 26 23 27 24 28 25 29 26 31 27 32 28 33 74 34
REMARK SMILES IDX 29 35 73 36 30 37 31 38 32 39 67 40 33 41 72 42 66 43 68 44
REMARK SMILES IDX 34 45 71 46 65 47 64 48 35 50 57 51 42 52 56 53 43 54 46 55
REMARK SMILES IDX 55 56 69 57 44 58 45 59 54 61 70 62 47 63 36 64 37 65 41 66
REMARK SMILES IDX 38 67 40 68 39 69 58 70 59 71 63 72 60 73 62 74 61 75 48 76
REMARK SMILES IDX 49 77 53 78 50 79 52 80 51 81
REMARK H PARENT 17 7 24 30 68 49 46 60
REMARK Flexibility Score: inf
ROOT
ATOM      1  C   UNL     1       4.140  13.068   4.721  1.00  0.00     0.002 C 
ENDROOT
BRANCH   1   2
ATOM      2  C   UNL     1       3.346  11.856   4.211  1.00  0.00     0.021 C 
BRANCH   2   3
ATOM      3  C   UNL     1       2.892  12.014   2.758  1.00  0.00     0.116 C 
BRANCH   3   4
ATOM      4  N   UNL     1       3.948  11.604   1.859  1.00  0.00    -0.351 N 
ATOM      5  C   UNL     1       4.175  10.489   1.087  1.00  0.00     0.269 C 
ATOM      6  O   UNL     1       5.229  10.498   0.445  1.00  0.00    -0.268 OA
ATOM      7  H   UNL     1       4.666  12.273   1.783  1.00  0.00     0.163 HD
BRANCH   5   8
ATOM      8  C   UNL     1       3.230   9.320   0.959  1.00  0.00     0.128 A 
ATOM      9  C   UNL     1       1.566   7.151   0.448  1.00  0.00     0.002 A 
ATOM     10  C   UNL     1       1.335   7.973   1.552  1.00  0.00     0.013 A 
ATOM     11  C   UNL     1       2.676   7.456  -0.329  1.00  0.00     0.120 A 
ATOM     12  C   UNL     1       2.191   9.037   1.832  1.00  0.00     0.035 A 
ATOM     13  N   UNL     1       3.488   8.516  -0.110  1.00  0.00    -0.250 NA
BRANCH   9  14
ATOM     14  C   UNL     1       0.702   5.997   0.191  1.00  0.00     0.003 A 
ATOM     15  C   UNL     1       0.376   3.581   0.333  1.00  0.00     0.060 A 
ATOM     16  C   UNL     1      -0.954   3.725  -0.070  1.00  0.00     0.017 A 
ATOM     17  C   UNL     1       1.194   4.710   0.468  1.00  0.00     0.026 A 
ATOM     18  C   UNL     1      -1.455   4.994  -0.364  1.00  0.00     0.022 A 
ATOM     19  C   UNL     1      -0.633   6.120  -0.244  1.00  0.00     0.048 A 
ATOM     20  Cl  UNL     1      -1.327   7.655  -0.641  1.00  0.00    -0.084 Cl
BRANCH  15  21
ATOM     21  C   UNL     1       0.960   2.260   0.658  1.00  0.00     0.337 C 
ATOM     22  O   UNL     1       1.860   2.101   1.462  1.00  0.00    -0.246 OA
BRANCH  21  23
ATOM     23  O   UNL     1       0.394   1.311  -0.127  1.00  0.00    -0.465 OA
ATOM     24  C   UNL     1       0.991   0.022   0.011  1.00  0.00     0.282 C 
ENDBRANCH  21  23
ENDBRANCH  15  21
ENDBRANCH   9  14
ENDBRANCH   5   8
ENDBRANCH   3   4
ENDBRANCH   2   3
ENDBRANCH   1   2
BRANCH   1  25
ATOM     25  C   UNL     1       3.379  14.400   4.659  1.00  0.00     0.002 C 
BRANCH  25  26
ATOM     26  C   UNL     1       2.004  14.378   5.330  1.00  0.00     0.021 C 
BRANCH  26  27
ATOM     27  C   UNL     1       2.055  14.072   6.822  1.00  0.00     0.116 C 
BRANCH  27  28
ATOM     28  N   UNL     1       2.805  15.088   7.544  1.00  0.00    -0.352 N 
ATOM     29  C   UNL     1       2.393  15.912   8.559  1.00  0.00     0.251 C 
ATOM     30  H   UNL     1       3.742  15.200   7.264  1.00  0.00     0.163 HD
ATOM     31  O   UNL     1       3.060  16.892   8.872  1.00  0.00    -0.269 OA
BRANCH  29  32
ATOM     32  C   UNL     1       1.137  15.612   9.273  1.00  0.00     0.039 A 
ATOM     33  C   UNL     1       0.268  16.658   9.587  1.00  0.00     0.014 A 
ATOM     34  C   UNL     1       0.830  14.300   9.645  1.00  0.00     0.014 A 
ATOM     35  C   UNL     1      -0.934  16.381  10.237  1.00  0.00     0.010 A 
ATOM     36  C   UNL     1      -0.405  14.015  10.215  1.00  0.00     0.010 A 
ATOM     37  C   UNL     1      -1.292  15.054  10.530  1.00  0.00    -0.014 A 
BRANCH  37  38
ATOM     38  C   UNL     1      -2.588  14.735  11.176  1.00  0.00     0.031 A 
ATOM     39  C   UNL     1      -2.617  14.103  12.540  1.00  0.00     0.074 A 
ATOM     40  C   UNL     1      -3.736  14.966  10.512  1.00  0.00     0.049 A 
ATOM     41  N   UNL     1      -3.647  13.723  13.252  1.00  0.00    -0.248 NA
ATOM     42  C   UNL     1      -1.316  13.838  13.176  1.00  0.00     0.031 C 
ATOM     43  C   UNL     1      -3.837  15.544   9.170  1.00  0.00     0.029 A 
ATOM     44  N   UNL     1      -5.038  14.744  10.878  1.00  0.00    -0.354 N 
ATOM     45  C   UNL     1      -3.120  13.166  14.410  1.00  0.00     0.074 A 
ATOM     46  C   UNL     1      -1.680  13.199  14.277  1.00  0.00     0.031 C 
ATOM     47  C   UNL     1      -5.133  15.669   8.844  1.00  0.00     0.029 A 
ATOM     48  C   UNL     1      -5.950  15.138   9.930  1.00  0.00     0.049 A 
ATOM     49  H   UNL     1      -5.295  14.341  11.739  1.00  0.00     0.167 HD
ATOM     50  C   UNL     1      -3.773  12.690  15.496  1.00  0.00     0.031 A 
ATOM     51  C   UNL     1      -7.294  15.075   9.933  1.00  0.00     0.031 A 
ATOM     52  C   UNL     1      -5.206  12.653  15.622  1.00  0.00     0.049 A 
ATOM     53  C   UNL     1      -7.997  14.506  11.133  1.00  0.00     0.074 A 
ATOM     54  C   UNL     1      -5.968  12.233  16.698  1.00  0.00     0.029 A 
ATOM     55  N   UNL     1      -6.095  13.043  14.630  1.00  0.00    -0.354 N 
ATOM     56  N   UNL     1      -7.487  14.044  12.249  1.00  0.00    -0.248 NA
ATOM     57  C   UNL     1      -9.464  14.461  11.076  1.00  0.00     0.031 C 
ATOM     58  C   UNL     1      -7.316  12.306  16.333  1.00  0.00     0.029 A 
ATOM     59  C   UNL     1      -7.397  12.842  15.057  1.00  0.00     0.049 A 
ATOM     60  H   UNL     1      -5.838  13.408  13.753  1.00  0.00     0.167 HD
ATOM     61  C   UNL     1      -8.570  13.684  13.040  1.00  0.00     0.074 A 
ATOM     62  C   UNL     1      -9.764  13.995  12.280  1.00  0.00     0.031 C 
ATOM     63  C   UNL     1      -8.575  13.148  14.286  1.00  0.00     0.031 A 
BRANCH  50  64
ATOM     64  C   UNL     1      -2.932  12.153  16.624  1.00  0.00    -0.014 A 
ATOM     65  C   UNL     1      -2.106  12.995  17.387  1.00  0.00     0.009 A 
ATOM     66  C   UNL     1      -2.971  10.785  16.934  1.00  0.00     0.009 A 
ATOM     67  C   UNL     1      -1.299  12.471  18.399  1.00  0.00     0.001 A 
ATOM     68  C   UNL     1      -2.190  10.268  17.970  1.00  0.00     0.001 A 
ATOM     69  C   UNL     1      -1.344  11.109  18.692  1.00  0.00     0.000 A 
ENDBRANCH  50  64
BRANCH  51  70
ATOM     70  C   UNL     1      -8.063  15.591   8.770  1.00  0.00    -0.014 A 
ATOM     71  C   UNL     1      -8.831  16.760   8.888  1.00  0.00     0.009 A 
ATOM     72  C   UNL     1      -8.025  14.927   7.534  1.00  0.00     0.009 A 
ATOM     73  C   UNL     1      -9.563  17.239   7.800  1.00  0.00     0.001 A 
ATOM     74  C   UNL     1      -8.734  15.425   6.439  1.00  0.00     0.001 A 
ATOM     75  C   UNL     1      -9.509  16.575   6.575  1.00  0.00     0.000 A 
ENDBRANCH  51  70
BRANCH  63  76
ATOM     76  C   UNL     1      -9.916  12.898  14.921  1.00  0.00    -0.014 A 
ATOM     77  C   UNL     1     -10.771  11.885  14.460  1.00  0.00     0.009 A 
ATOM     78  C   UNL     1     -10.313  13.669  16.026  1.00  0.00     0.009 A 
ATOM     79  C   UNL     1     -12.011  11.675  15.068  1.00  0.00     0.001 A 
ATOM     80  C   UNL     1     -11.537  13.435  16.653  1.00  0.00     0.001 A 
ATOM     81  C   UNL     1     -12.389  12.446  16.166  1.00  0.00     0.000 A 
ENDBRANCH  63  76
ENDBRANCH  37  38
ENDBRANCH  29  32
ENDBRANCH  27  28
ENDBRANCH  26  27
ENDBRANCH  25  26
ENDBRANCH   1  25
TORSDOF 16
