REMARK SMILES CSc1cccc(N2C[C@@H](C(=O)NCCCCCCNC(=O)c3ccc(-c4c5nc(c(-c6ccccc6)c6ccc([nH]6)c(-c6ccccc6)c6nc(c(-c7ccccc7)c7ccc4[nH]7)C=C6)C=C5)cc3)CC2=O)c1
REMARK SMILES IDX 16 1 15 2 14 3 13 4 11 5 12 6 10 8 8 9 9 10 72 11 71 12
REMARK SMILES IDX 73 13 7 14 3 15 4 16 74 17 5 18 6 19 2 20 1 21 17 22 18 23
REMARK SMILES IDX 19 24 20 25 21 26 22 28 23 29 24 30 70 31 25 32 69 33 26 34
REMARK SMILES IDX 27 35 28 36 63 37 29 38 68 39 62 40 64 41 30 42 67 43 61 44
REMARK SMILES IDX 60 45 31 47 53 48 38 49 52 50 39 51 42 52 51 53 65 54 40 55
REMARK SMILES IDX 41 56 50 58 66 59 43 60 32 61 33 62 37 63 34 64 36 65 35 66
REMARK SMILES IDX 54 67 55 68 59 69 56 70 58 71 57 72 44 73 45 74 49 75 46 76
REMARK SMILES IDX 48 77 47 78
REMARK H PARENT 13 7 20 27 64 46 42 57
REMARK Flexibility Score: inf
ROOT
ATOM      1  C   UNL     1       5.273   6.504   6.520  1.00  0.00     0.002 C 
ENDROOT
BRANCH   1   2
ATOM      2  C   UNL     1       3.989   5.699   6.284  1.00  0.00     0.021 C 
BRANCH   2   3
ATOM      3  C   UNL     1       4.172   4.183   6.370  1.00  0.00     0.116 C 
BRANCH   3   4
ATOM      4  N   UNL     1       4.511   3.769   7.719  1.00  0.00    -0.356 N 
ATOM      5  C   UNL     1       3.862   2.983   8.614  1.00  0.00     0.225 C 
ATOM      6  O   UNL     1       4.396   2.820   9.715  1.00  0.00    -0.275 OA
ATOM      7  H   UNL     1       5.370   4.123   8.044  1.00  0.00     0.163 HD
BRANCH   5   8
ATOM      8  C   UNL     1       2.555   2.284   8.303  1.00  0.00     0.107 C 
ATOM      9  N   UNL     1       1.613   1.450   6.306  1.00  0.00    -0.312 N 
ATOM     10  C   UNL     1       2.702   1.226   7.225  1.00  0.00     0.139 C 
ATOM     11  C   UNL     1       0.888   2.602   6.602  1.00  0.00     0.227 C 
ATOM     12  C   UNL     1       1.422   3.201   7.875  1.00  0.00     0.116 C 
ATOM     13  O   UNL     1      -0.058   3.080   5.989  1.00  0.00    -0.274 OA
BRANCH   9  14
ATOM     14  C   UNL     1       1.390   0.615   5.185  1.00  0.00     0.045 A 
ATOM     15  C   UNL     1       0.746   0.328   2.842  1.00  0.00     0.009 A 
ATOM     16  C   UNL     1       0.907  -1.052   2.977  1.00  0.00     0.015 A 
ATOM     17  C   UNL     1       0.955   1.147   3.963  1.00  0.00     0.041 A 
ATOM     18  C   UNL     1       1.328  -1.598   4.190  1.00  0.00     0.003 A 
ATOM     19  C   UNL     1       1.596  -0.766   5.278  1.00  0.00     0.026 A 
BRANCH  15  20
ATOM     20  S   UNL     1       0.241   1.112   1.315  1.00  0.00    -0.130 SA
ATOM     21  C   UNL     1       0.991   0.034   0.062  1.00  0.00     0.091 C 
ENDBRANCH  15  20
ENDBRANCH   9  14
ENDBRANCH   5   8
ENDBRANCH   3   4
ENDBRANCH   2   3
ENDBRANCH   1   2
BRANCH   1  22
ATOM     22  C   UNL     1       6.439   6.162   5.586  1.00  0.00     0.002 C 
BRANCH  22  23
ATOM     23  C   UNL     1       6.117   6.242   4.093  1.00  0.00     0.021 C 
BRANCH  23  24
ATOM     24  C   UNL     1       5.616   7.604   3.625  1.00  0.00     0.116 C 
BRANCH  24  25
ATOM     25  N   UNL     1       6.619   8.644   3.792  1.00  0.00    -0.352 N 
ATOM     26  C   UNL     1       7.124   9.522   2.865  1.00  0.00     0.251 C 
ATOM     27  H   UNL     1       6.989   8.731   4.700  1.00  0.00     0.163 HD
ATOM     28  O   UNL     1       8.108  10.204   3.131  1.00  0.00    -0.269 OA
BRANCH  26  29
ATOM     29  C   UNL     1       6.491   9.627   1.534  1.00  0.00     0.039 A 
ATOM     30  C   UNL     1       7.305   9.668   0.400  1.00  0.00     0.014 A 
ATOM     31  C   UNL     1       5.101   9.685   1.404  1.00  0.00     0.014 A 
ATOM     32  C   UNL     1       6.722   9.707  -0.868  1.00  0.00     0.010 A 
ATOM     33  C   UNL     1       4.521   9.643   0.139  1.00  0.00     0.010 A 
ATOM     34  C   UNL     1       5.325   9.658  -1.010  1.00  0.00    -0.014 A 
BRANCH  34  35
ATOM     35  C   UNL     1       4.690   9.620  -2.351  1.00  0.00     0.031 A 
ATOM     36  C   UNL     1       3.795  10.743  -2.799  1.00  0.00     0.074 A 
ATOM     37  C   UNL     1       4.875   8.548  -3.146  1.00  0.00     0.049 A 
ATOM     38  N   UNL     1       3.120  10.866  -3.914  1.00  0.00    -0.248 NA
ATOM     39  C   UNL     1       3.616  11.864  -1.862  1.00  0.00     0.031 C 
ATOM     40  C   UNL     1       5.693   7.379  -2.817  1.00  0.00     0.029 A 
ATOM     41  N   UNL     1       4.384   8.268  -4.397  1.00  0.00    -0.354 N 
ATOM     42  C   UNL     1       2.430  12.067  -3.807  1.00  0.00     0.074 A 
ATOM     43  C   UNL     1       2.722  12.607  -2.497  1.00  0.00     0.031 C 
ATOM     44  C   UNL     1       5.675   6.524  -3.852  1.00  0.00     0.029 A 
ATOM     45  C   UNL     1       4.808   7.060  -4.896  1.00  0.00     0.049 A 
ATOM     46  H   UNL     1       3.785   8.874  -4.889  1.00  0.00     0.167 HD
ATOM     47  C   UNL     1       1.641  12.678  -4.723  1.00  0.00     0.031 A 
ATOM     48  C   UNL     1       4.525   6.448  -6.062  1.00  0.00     0.031 A 
ATOM     49  C   UNL     1       1.347  12.139  -6.024  1.00  0.00     0.049 A 
ATOM     50  C   UNL     1       3.613   7.128  -7.045  1.00  0.00     0.074 A 
ATOM     51  C   UNL     1       0.595  12.703  -7.040  1.00  0.00     0.029 A 
ATOM     52  N   UNL     1       1.785  10.907  -6.486  1.00  0.00    -0.354 N 
ATOM     53  N   UNL     1       3.024   8.296  -6.956  1.00  0.00    -0.248 NA
ATOM     54  C   UNL     1       3.335   6.407  -8.295  1.00  0.00     0.031 C 
ATOM     55  C   UNL     1       0.527  11.785  -8.093  1.00  0.00     0.029 A 
ATOM     56  C   UNL     1       1.294  10.680  -7.761  1.00  0.00     0.049 A 
ATOM     57  H   UNL     1       2.359  10.287  -5.981  1.00  0.00     0.167 HD
ATOM     58  C   UNL     1       2.334   8.464  -8.150  1.00  0.00     0.074 A 
ATOM     59  C   UNL     1       2.591   7.286  -8.952  1.00  0.00     0.031 C 
ATOM     60  C   UNL     1       1.558   9.502  -8.547  1.00  0.00     0.031 A 
BRANCH  47  61
ATOM     61  C   UNL     1       1.028  13.998  -4.338  1.00  0.00    -0.014 A 
ATOM     62  C   UNL     1       1.817  15.147  -4.168  1.00  0.00     0.009 A 
ATOM     63  C   UNL     1      -0.362  14.101  -4.172  1.00  0.00     0.009 A 
ATOM     64  C   UNL     1       1.232  16.361  -3.799  1.00  0.00     0.001 A 
ATOM     65  C   UNL     1      -0.948  15.323  -3.836  1.00  0.00     0.001 A 
ATOM     66  C   UNL     1      -0.150  16.449  -3.638  1.00  0.00     0.000 A 
ENDBRANCH  47  61
BRANCH  48  67
ATOM     67  C   UNL     1       5.121   5.122  -6.374  1.00  0.00    -0.014 A 
ATOM     68  C   UNL     1       6.076   4.992  -7.395  1.00  0.00     0.009 A 
ATOM     69  C   UNL     1       4.731   3.976  -5.663  1.00  0.00     0.009 A 
ATOM     70  C   UNL     1       6.602   3.739  -7.718  1.00  0.00     0.001 A 
ATOM     71  C   UNL     1       5.284   2.730  -5.966  1.00  0.00     0.001 A 
ATOM     72  C   UNL     1       6.210   2.611  -7.001  1.00  0.00     0.000 A 
ENDBRANCH  48  67
BRANCH  60  73
ATOM     73  C   UNL     1       0.965   9.431  -9.928  1.00  0.00    -0.014 A 
ATOM     74  C   UNL     1      -0.062   8.527 -10.241  1.00  0.00     0.009 A 
ATOM     75  C   UNL     1       1.419  10.312 -10.922  1.00  0.00     0.009 A 
ATOM     76  C   UNL     1      -0.595   8.482 -11.530  1.00  0.00     0.001 A 
ATOM     77  C   UNL     1       0.860  10.290 -12.200  1.00  0.00     0.001 A 
ATOM     78  C   UNL     1      -0.138   9.367 -12.507  1.00  0.00     0.000 A 
ENDBRANCH  60  73
ENDBRANCH  34  35
ENDBRANCH  26  29
ENDBRANCH  24  25
ENDBRANCH  23  24
ENDBRANCH  22  23
ENDBRANCH   1  22
TORSDOF 15
