REMARK SMILES O=C(NCCCCCCNC(=O)c1ccc(N2C(=O)C[C@H]([NH+]3CCN(c4ccc(F)cc4)CC3)C2=O)cc1)c1ccc(-c2c3nc(c(-c4ccccc4)c4ccc([nH]4)c(-c4ccccc4)c4nc(c(-c5ccccc5)c5ccc2[nH]5)C=C4)C=C3)cc1
REMARK SMILES IDX 7 1 6 2 5 3 4 4 3 5 1 6 2 7 39 9 40 10 86 11 41 12 85 13
REMARK SMILES IDX 42 14 43 15 44 16 79 17 45 18 84 19 78 20 80 21 46 22 83 23
REMARK SMILES IDX 77 24 76 25 47 27 69 28 54 29 68 30 55 31 58 32 67 33 81 34
REMARK SMILES IDX 56 35 57 36 66 38 82 39 59 40 48 41 49 42 53 43 50 44 52 45
REMARK SMILES IDX 51 46 70 47 71 48 75 49 72 50 74 51 73 52 60 53 61 54 65 55
REMARK SMILES IDX 62 56 64 57 63 58 8 59 9 60 10 61 11 62 12 64 13 65 14 66
REMARK SMILES IDX 38 67 15 68 37 69 16 70 17 71 18 72 35 73 19 74 20 75 21 76
REMARK SMILES IDX 36 77 22 78 23 79 34 80 24 82 33 83 25 84 26 85 27 86 32 87
REMARK SMILES IDX 28 88 31 89 29 90 30 91
REMARK H PARENT 3 8 80 26 58 37 10 63 22 81
REMARK Flexibility Score: inf
ROOT
ATOM      1  C   UNL     1       4.739  -2.060  -3.774  1.00  0.00     0.002 C 
ENDROOT
BRANCH   1   2
ATOM      2  C   UNL     1       4.158  -2.807  -2.570  1.00  0.00     0.002 C 
BRANCH   2   3
ATOM      3  C   UNL     1       4.613  -2.293  -1.205  1.00  0.00     0.021 C 
BRANCH   3   4
ATOM      4  C   UNL     1       4.371  -0.809  -0.970  1.00  0.00     0.116 C 
BRANCH   4   5
ATOM      5  N   UNL     1       2.958  -0.464  -0.938  1.00  0.00    -0.352 N 
ATOM      6  O   UNL     1       1.023   0.267  -0.029  1.00  0.00    -0.269 OA
ATOM      7  C   UNL     1       2.245   0.186   0.041  1.00  0.00     0.251 C 
ATOM      8  H   UNL     1       2.440  -0.735  -1.729  1.00  0.00     0.163 HD
BRANCH   7   9
ATOM      9  C   UNL     1       2.959   0.761   1.201  1.00  0.00     0.039 A 
ATOM     10  C   UNL     1       4.137   1.487   1.018  1.00  0.00     0.014 A 
ATOM     11  C   UNL     1       2.457   0.549   2.488  1.00  0.00     0.014 A 
ATOM     12  C   UNL     1       4.902   1.844   2.121  1.00  0.00     0.010 A 
ATOM     13  C   UNL     1       3.178   1.005   3.596  1.00  0.00     0.010 A 
ATOM     14  C   UNL     1       4.428   1.619   3.424  1.00  0.00    -0.014 A 
BRANCH  14  15
ATOM     15  C   UNL     1       5.241   2.080   4.578  1.00  0.00     0.031 A 
ATOM     16  C   UNL     1       5.804   1.109   5.580  1.00  0.00     0.074 A 
ATOM     17  C   UNL     1       5.509   3.396   4.691  1.00  0.00     0.049 A 
ATOM     18  N   UNL     1       6.584   1.347   6.606  1.00  0.00    -0.248 NA
ATOM     19  C   UNL     1       5.443  -0.308   5.419  1.00  0.00     0.031 C 
ATOM     20  C   UNL     1       5.020   4.438   3.783  1.00  0.00     0.029 A 
ATOM     21  N   UNL     1       6.282   4.080   5.593  1.00  0.00    -0.354 N 
ATOM     22  C   UNL     1       6.783   0.119   7.227  1.00  0.00     0.074 A 
ATOM     23  C   UNL     1       6.024  -0.858   6.476  1.00  0.00     0.031 C 
ATOM     24  C   UNL     1       5.558   5.614   4.132  1.00  0.00     0.029 A 
ATOM     25  C   UNL     1       6.369   5.425   5.329  1.00  0.00     0.049 A 
ATOM     26  H   UNL     1       6.730   3.649   6.357  1.00  0.00     0.167 HD
ATOM     27  C   UNL     1       7.532  -0.167   8.320  1.00  0.00     0.031 A 
ATOM     28  C   UNL     1       7.020   6.405   5.980  1.00  0.00     0.031 A 
ATOM     29  C   UNL     1       8.287   0.809   9.065  1.00  0.00     0.049 A 
ATOM     30  C   UNL     1       7.811   6.063   7.208  1.00  0.00     0.074 A 
ATOM     31  C   UNL     1       9.109   0.609  10.161  1.00  0.00     0.029 A 
ATOM     32  N   UNL     1       8.304   2.170   8.797  1.00  0.00    -0.354 N 
ATOM     33  N   UNL     1       8.025   4.891   7.753  1.00  0.00    -0.248 NA
ATOM     34  C   UNL     1       8.450   7.184   7.909  1.00  0.00     0.031 C 
ATOM     35  C   UNL     1       9.573   1.856  10.594  1.00  0.00     0.029 A 
ATOM     36  C   UNL     1       9.096   2.825   9.727  1.00  0.00     0.049 A 
ATOM     37  H   UNL     1       7.824   2.605   8.056  1.00  0.00     0.167 HD
ATOM     38  C   UNL     1       8.846   5.129   8.846  1.00  0.00     0.074 A 
ATOM     39  C   UNL     1       9.106   6.554   8.873  1.00  0.00     0.031 C 
ATOM     40  C   UNL     1       9.341   4.245   9.747  1.00  0.00     0.031 A 
BRANCH  27  41
ATOM     41  C   UNL     1       7.540  -1.592   8.806  1.00  0.00    -0.014 A 
ATOM     42  C   UNL     1       8.182  -2.613   8.086  1.00  0.00     0.009 A 
ATOM     43  C   UNL     1       6.928  -1.911  10.029  1.00  0.00     0.009 A 
ATOM     44  C   UNL     1       8.175  -3.927   8.561  1.00  0.00     0.001 A 
ATOM     45  C   UNL     1       6.948  -3.219  10.516  1.00  0.00     0.001 A 
ATOM     46  C   UNL     1       7.563  -4.228   9.777  1.00  0.00     0.000 A 
ENDBRANCH  27  41
BRANCH  28  47
ATOM     47  C   UNL     1       6.948   7.803   5.480  1.00  0.00    -0.014 A 
ATOM     48  C   UNL     1       8.083   8.428   4.944  1.00  0.00     0.009 A 
ATOM     49  C   UNL     1       5.740   8.517   5.532  1.00  0.00     0.009 A 
ATOM     50  C   UNL     1       8.016   9.748   4.492  1.00  0.00     0.001 A 
ATOM     51  C   UNL     1       5.667   9.824   5.048  1.00  0.00     0.001 A 
ATOM     52  C   UNL     1       6.808  10.442   4.539  1.00  0.00     0.000 A 
ENDBRANCH  28  47
BRANCH  40  53
ATOM     53  C   UNL     1      10.248   4.795  10.811  1.00  0.00    -0.014 A 
ATOM     54  C   UNL     1       9.757   5.606  11.847  1.00  0.00     0.009 A 
ATOM     55  C   UNL     1      11.617   4.485  10.782  1.00  0.00     0.009 A 
ATOM     56  C   UNL     1      10.627   6.131  12.805  1.00  0.00     0.001 A 
ATOM     57  C   UNL     1      12.478   4.983  11.761  1.00  0.00     0.001 A 
ATOM     58  C   UNL     1      11.985   5.816  12.764  1.00  0.00     0.000 A 
ENDBRANCH  40  53
ENDBRANCH  14  15
ENDBRANCH   7   9
ENDBRANCH   4   5
ENDBRANCH   3   4
ENDBRANCH   2   3
ENDBRANCH   1   2
BRANCH   1  59
ATOM     59  C   UNL     1       6.268  -1.960  -3.813  1.00  0.00     0.021 C 
BRANCH  59  60
ATOM     60  C   UNL     1       7.001  -3.297  -3.733  1.00  0.00     0.116 C 
BRANCH  60  61
ATOM     61  N   UNL     1       6.654  -4.163  -4.845  1.00  0.00    -0.352 N 
ATOM     62  C   UNL     1       7.476  -4.704  -5.797  1.00  0.00     0.251 C 
ATOM     63  H   UNL     1       5.700  -4.391  -4.927  1.00  0.00     0.163 HD
ATOM     64  O   UNL     1       7.017  -5.251  -6.793  1.00  0.00    -0.269 OA
BRANCH  62  65
ATOM     65  C   UNL     1       8.935  -4.624  -5.611  1.00  0.00     0.039 A 
ATOM     66  C   UNL     1       9.711  -3.988  -6.578  1.00  0.00     0.016 A 
ATOM     67  C   UNL     1       9.532  -5.203  -4.490  1.00  0.00     0.016 A 
ATOM     68  C   UNL     1      11.092  -3.886  -6.395  1.00  0.00     0.027 A 
ATOM     69  C   UNL     1      10.916  -5.128  -4.331  1.00  0.00     0.027 A 
ATOM     70  C   UNL     1      11.714  -4.462  -5.276  1.00  0.00     0.052 A 
BRANCH  70  71
ATOM     71  N   UNL     1      13.121  -4.399  -5.117  1.00  0.00    -0.245 N 
ATOM     72  C   UNL     1      13.870  -5.401  -4.545  1.00  0.00     0.240 C 
ATOM     73  C   UNL     1      13.902  -3.328  -5.503  1.00  0.00     0.292 C 
ATOM     74  O   UNL     1      13.499  -6.439  -4.025  1.00  0.00    -0.274 OA
ATOM     75  C   UNL     1      15.318  -5.079  -4.742  1.00  0.00     0.176 C 
ATOM     76  C   UNL     1      15.330  -3.588  -5.018  1.00  0.00     0.284 C 
ATOM     77  O   UNL     1      13.543  -2.294  -6.053  1.00  0.00    -0.267 OA
BRANCH  76  78
ATOM     78  N   UNL     1      15.704  -2.660  -3.933  1.00  0.00    -0.321 N 
ATOM     79  C   UNL     1      14.893  -2.675  -2.700  1.00  0.00     0.284 C 
ATOM     80  C   UNL     1      17.141  -2.675  -3.586  1.00  0.00     0.284 C 
ATOM     81  H   UNL     1      15.474  -1.777  -4.389  1.00  0.00     0.348 HD
ATOM     82  C   UNL     1      15.240  -3.766  -1.663  1.00  0.00     0.178 C 
ATOM     83  C   UNL     1      17.600  -3.727  -2.547  1.00  0.00     0.178 C 
ATOM     84  N   UNL     1      16.679  -3.786  -1.408  1.00  0.00    -0.360 N 
BRANCH  84  85
ATOM     85  C   UNL     1      17.142  -4.117  -0.151  1.00  0.00     0.037 A 
ATOM     86  C   UNL     1      16.606  -5.186   0.584  1.00  0.00     0.029 A 
ATOM     87  C   UNL     1      18.124  -3.324   0.461  1.00  0.00     0.029 A 
ATOM     88  C   UNL     1      17.022  -5.440   1.894  1.00  0.00     0.041 A 
ATOM     89  C   UNL     1      18.531  -3.561   1.774  1.00  0.00     0.041 A 
ATOM     90  C   UNL     1      17.972  -4.615   2.480  1.00  0.00     0.123 A 
ATOM     91  F   UNL     1      18.346  -4.834   3.747  1.00  0.00    -0.207 F 
ENDBRANCH  84  85
ENDBRANCH  76  78
ENDBRANCH  70  71
ENDBRANCH  62  65
ENDBRANCH  60  61
ENDBRANCH  59  60
ENDBRANCH   1  59
TORSDOF 16
