REMARK SMILES O=C(CC/C(=N\NC(=O)c1ccccc1Br)c1ccccc1)NCCCCCCNC(=O)c1ccc(-c2c3nc(c(-c4ccccc4)c4ccc([nH]4)c(-c4ccccc4)c4nc(c(-c5ccccc5)c5ccc2[nH]5)C=C4)C=C3)cc1
REMARK SMILES IDX 25 1 24 2 23 3 1 4 2 5 3 7 4 8 5 9 6 10 17 11 18 12 22 13
REMARK SMILES IDX 19 14 21 15 20 16 7 17 8 18 9 20 10 21 11 22 15 23 12 24
REMARK SMILES IDX 14 25 16 26 13 27 26 28 27 29 28 30 29 31 30 32 31 33 32 35
REMARK SMILES IDX 33 36 34 37 80 38 35 39 79 40 36 41 37 42 38 43 73 44 39 45
REMARK SMILES IDX 78 46 72 47 74 48 40 49 77 50 71 51 70 52 41 54 63 55 48 56
REMARK SMILES IDX 62 57 49 58 52 59 61 60 75 61 50 62 51 63 60 65 76 66 53 67
REMARK SMILES IDX 42 68 43 69 47 70 44 71 46 72 45 73 64 74 65 75 69 76 66 77
REMARK SMILES IDX 68 78 67 79 54 80 55 81 59 82 56 83 58 84 57 85
REMARK H PARENT 23 6 7 19 30 34 74 53 52 64
REMARK Flexibility Score: inf
ROOT
ATOM      1  C   UNL     1       2.451   1.486   4.242  1.00  0.00     0.021 C 
ENDROOT
BRANCH   1   2
ATOM      2  C   UNL     1       1.779   1.118   2.924  1.00  0.00     0.116 C 
BRANCH   2   3
ATOM      3  N   UNL     1       2.441  -0.011   2.328  1.00  0.00    -0.356 N 
ATOM      4  O   UNL     1       1.221  -0.117   0.392  1.00  0.00    -0.275 OA
ATOM      5  C   UNL     1       2.223  -0.399   1.040  1.00  0.00     0.220 C 
ATOM      6  H   UNL     1       3.080  -0.524   2.874  1.00  0.00     0.163 HD
BRANCH   5   7
ATOM      7  C   UNL     1       3.406  -1.150   0.494  1.00  0.00     0.106 C 
BRANCH   7   8
ATOM      8  C   UNL     1       3.790  -0.647  -0.878  1.00  0.00     0.068 C 
BRANCH   8   9
ATOM      9  C   UNL     1       4.821   0.462  -1.095  1.00  0.00     0.069 C 
ATOM     10  N   UNL     1       5.930   0.311  -1.764  1.00  0.00    -0.177 NA
BRANCH   9  11
ATOM     11  C   UNL     1       4.551   1.868  -0.601  1.00  0.00    -0.002 A 
ATOM     12  C   UNL     1       5.627   2.765  -0.466  1.00  0.00     0.010 A 
ATOM     13  C   UNL     1       3.259   2.356  -0.392  1.00  0.00     0.010 A 
ATOM     14  C   UNL     1       5.416   4.100  -0.101  1.00  0.00     0.001 A 
ATOM     15  C   UNL     1       3.047   3.687  -0.003  1.00  0.00     0.001 A 
ATOM     16  C   UNL     1       4.124   4.559   0.139  1.00  0.00     0.000 A 
ENDBRANCH   9  11
BRANCH  10  17
ATOM     17  N   UNL     1       6.300  -0.801  -2.459  1.00  0.00    -0.243 N 
ATOM     18  C   UNL     1       5.665  -1.514  -3.470  1.00  0.00     0.272 C 
ATOM     19  H   UNL     1       7.177  -1.165  -2.199  1.00  0.00     0.194 HD
ATOM     20  O   UNL     1       6.285  -2.389  -4.077  1.00  0.00    -0.267 OA
BRANCH  18  21
ATOM     21  C   UNL     1       4.225  -1.367  -3.762  1.00  0.00     0.055 A 
ATOM     22  C   UNL     1       3.439  -2.502  -3.467  1.00  0.00     0.015 A 
ATOM     23  C   UNL     1       3.609  -0.178  -4.155  1.00  0.00     0.030 A 
ATOM     24  C   UNL     1       2.049  -2.403  -3.423  1.00  0.00     0.001 A 
ATOM     25  C   UNL     1       2.210  -0.092  -4.125  1.00  0.00     0.016 A 
ATOM     26  Br  UNL     1       4.578   1.347  -4.724  1.00  0.00    -0.050 Br
ATOM     27  C   UNL     1       1.437  -1.190  -3.728  1.00  0.00     0.001 A 
ENDBRANCH  18  21
ENDBRANCH  10  17
ENDBRANCH   8   9
ENDBRANCH   7   8
ENDBRANCH   5   7
ENDBRANCH   2   3
ENDBRANCH   1   2
BRANCH   1  28
ATOM     28  C   UNL     1       3.986   1.610   4.190  1.00  0.00     0.002 C 
BRANCH  28  29
ATOM     29  C   UNL     1       4.538   2.774   3.369  1.00  0.00     0.002 C 
BRANCH  29  30
ATOM     30  C   UNL     1       4.018   4.154   3.759  1.00  0.00     0.021 C 
BRANCH  30  31
ATOM     31  C   UNL     1       4.172   4.478   5.237  1.00  0.00     0.116 C 
BRANCH  31  32
ATOM     32  N   UNL     1       5.564   4.590   5.639  1.00  0.00    -0.352 N 
ATOM     33  C   UNL     1       6.140   5.509   6.481  1.00  0.00     0.251 C 
ATOM     34  H   UNL     1       6.175   3.919   5.257  1.00  0.00     0.163 HD
ATOM     35  O   UNL     1       7.360   5.580   6.580  1.00  0.00    -0.269 OA
BRANCH  33  36
ATOM     36  C   UNL     1       5.279   6.437   7.246  1.00  0.00     0.039 A 
ATOM     37  C   UNL     1       5.654   7.779   7.341  1.00  0.00     0.014 A 
ATOM     38  C   UNL     1       4.103   5.992   7.857  1.00  0.00     0.014 A 
ATOM     39  C   UNL     1       4.824   8.680   8.007  1.00  0.00     0.010 A 
ATOM     40  C   UNL     1       3.232   6.907   8.436  1.00  0.00     0.010 A 
ATOM     41  C   UNL     1       3.590   8.258   8.531  1.00  0.00    -0.014 A 
BRANCH  41  42
ATOM     42  C   UNL     1       2.670   9.226   9.177  1.00  0.00     0.031 A 
ATOM     43  C   UNL     1       2.319   9.090  10.633  1.00  0.00     0.074 A 
ATOM     44  C   UNL     1       2.123  10.208   8.436  1.00  0.00     0.049 A 
ATOM     45  N   UNL     1       1.565   9.862  11.374  1.00  0.00    -0.248 NA
ATOM     46  C   UNL     1       2.863   7.922  11.344  1.00  0.00     0.031 C 
ATOM     47  C   UNL     1       2.341  10.409   7.001  1.00  0.00     0.029 A 
ATOM     48  N   UNL     1       1.281  11.231   8.790  1.00  0.00    -0.354 N 
ATOM     49  C   UNL     1       1.533   9.265  12.629  1.00  0.00     0.074 A 
ATOM     50  C   UNL     1       2.291   8.038  12.533  1.00  0.00     0.031 C 
ATOM     51  C   UNL     1       1.700  11.522   6.611  1.00  0.00     0.029 A 
ATOM     52  C   UNL     1       0.994  12.088   7.755  1.00  0.00     0.049 A 
ATOM     53  H   UNL     1       0.917  11.341   9.698  1.00  0.00     0.167 HD
ATOM     54  C   UNL     1       0.942   9.708  13.765  1.00  0.00     0.031 A 
ATOM     55  C   UNL     1       0.254  13.211   7.734  1.00  0.00     0.031 A 
ATOM     56  C   UNL     1       0.192  10.932  13.855  1.00  0.00     0.049 A 
ATOM     57  C   UNL     1      -0.393  13.681   9.005  1.00  0.00     0.074 A 
ATOM     58  C   UNL     1      -0.388  11.510  14.971  1.00  0.00     0.029 A 
ATOM     59  N   UNL     1      -0.092  11.764  12.781  1.00  0.00    -0.354 N 
ATOM     60  N   UNL     1      -0.338  13.155  10.205  1.00  0.00    -0.248 NA
ATOM     61  C   UNL     1      -1.193  14.910   8.919  1.00  0.00     0.031 C 
ATOM     62  C   UNL     1      -1.077  12.656  14.560  1.00  0.00     0.029 A 
ATOM     63  C   UNL     1      -0.871  12.829  13.201  1.00  0.00     0.049 A 
ATOM     64  H   UNL     1       0.214  11.617  11.857  1.00  0.00     0.167 HD
ATOM     65  C   UNL     1      -1.078  14.000  11.023  1.00  0.00     0.074 A 
ATOM     66  C   UNL     1      -1.547  15.085  10.184  1.00  0.00     0.031 C 
ATOM     67  C   UNL     1      -1.347  13.888  12.347  1.00  0.00     0.031 A 
BRANCH  54  68
ATOM     68  C   UNL     1       1.072   8.847  14.993  1.00  0.00    -0.014 A 
ATOM     69  C   UNL     1       2.310   8.658  15.630  1.00  0.00     0.009 A 
ATOM     70  C   UNL     1      -0.065   8.223  15.530  1.00  0.00     0.009 A 
ATOM     71  C   UNL     1       2.414   7.825  16.748  1.00  0.00     0.001 A 
ATOM     72  C   UNL     1       0.035   7.419  16.667  1.00  0.00     0.001 A 
ATOM     73  C   UNL     1       1.276   7.210  17.267  1.00  0.00     0.000 A 
ENDBRANCH  54  68
BRANCH  55  74
ATOM     74  C   UNL     1       0.119  13.990   6.474  1.00  0.00    -0.014 A 
ATOM     75  C   UNL     1       0.735  15.244   6.346  1.00  0.00     0.009 A 
ATOM     76  C   UNL     1      -0.618  13.483   5.393  1.00  0.00     0.009 A 
ATOM     77  C   UNL     1       0.597  15.985   5.170  1.00  0.00     0.001 A 
ATOM     78  C   UNL     1      -0.728  14.212   4.207  1.00  0.00     0.001 A 
ATOM     79  C   UNL     1      -0.129  15.466   4.100  1.00  0.00     0.000 A 
ENDBRANCH  55  74
BRANCH  67  80
ATOM     80  C   UNL     1      -2.175  14.981  12.965  1.00  0.00    -0.014 A 
ATOM     81  C   UNL     1      -3.537  15.129  12.655  1.00  0.00     0.009 A 
ATOM     82  C   UNL     1      -1.585  15.871  13.876  1.00  0.00     0.009 A 
ATOM     83  C   UNL     1      -4.277  16.177  13.207  1.00  0.00     0.001 A 
ATOM     84  C   UNL     1      -2.336  16.895  14.454  1.00  0.00     0.001 A 
ATOM     85  C   UNL     1      -3.677  17.056  14.108  1.00  0.00     0.000 A 
ENDBRANCH  67  80
ENDBRANCH  41  42
ENDBRANCH  33  36
ENDBRANCH  31  32
ENDBRANCH  30  31
ENDBRANCH  29  30
ENDBRANCH  28  29
ENDBRANCH   1  28
TORSDOF 18
