REMARK SMILES CCOC(=O)c1ccc(-c2ccc(C(=O)NCCCCCCNC(=O)c3ccc(-c4c5nc(c(-c6ccccc6)c6ccc([nH]6)c(-c6ccccc6)c6nc(c(-c7ccccc7)c7ccc4[nH]7)C=C6)C=C5)cc3)o2)cc1
REMARK SMILES IDX 18 1 17 2 16 3 14 4 15 5 13 7 10 8 11 9 74 10 12 11 9 12
REMARK SMILES IDX 6 13 7 14 76 15 8 16 75 17 4 18 5 19 3 20 2 21 1 22 19 23
REMARK SMILES IDX 20 24 21 25 22 26 23 27 24 28 25 30 26 31 27 32 73 33 28 34
REMARK SMILES IDX 72 35 29 36 30 37 31 38 66 39 32 40 71 41 65 42 67 43 33 44
REMARK SMILES IDX 70 45 64 46 63 47 34 49 56 50 41 51 55 52 42 53 45 54 54 55
REMARK SMILES IDX 68 56 43 57 44 58 53 60 69 61 46 62 35 63 36 64 40 65 37 66
REMARK SMILES IDX 39 67 38 68 57 69 58 70 62 71 59 72 61 73 60 74 47 75 48 76
REMARK SMILES IDX 52 77 49 78 51 79 50 80
REMARK H PARENT 16 6 23 29 67 48 45 59
REMARK Flexibility Score: inf
ROOT
ATOM      1  C   UNL     1       5.347  10.977  -7.944  1.00  0.00     0.021 C 
ENDROOT
BRANCH   1   2
ATOM      2  C   UNL     1       3.970  10.491  -7.494  1.00  0.00     0.116 C 
BRANCH   2   3
ATOM      3  N   UNL     1       3.665   9.197  -8.066  1.00  0.00    -0.349 N 
ATOM      4  C   UNL     1       3.596   7.947  -7.495  1.00  0.00     0.287 C 
ATOM      5  O   UNL     1       3.208   7.040  -8.235  1.00  0.00    -0.266 OA
ATOM      6  H   UNL     1       3.473   9.214  -9.032  1.00  0.00     0.163 HD
BRANCH   4   7
ATOM      7  C   UNL     1       3.940   7.738  -6.101  1.00  0.00     0.192 A 
ATOM      8  C   UNL     1       3.811   6.625  -4.197  1.00  0.00     0.135 A 
ATOM      9  C   UNL     1       4.632   7.700  -3.953  1.00  0.00     0.052 A 
ATOM     10  O   UNL     1       3.396   6.632  -5.489  1.00  0.00    -0.451 OA
ATOM     11  C   UNL     1       4.749   8.390  -5.183  1.00  0.00     0.057 A 
BRANCH   8  12
ATOM     12  C   UNL     1       3.351   5.522  -3.380  1.00  0.00     0.017 A 
ATOM     13  C   UNL     1       2.613   3.449  -1.654  1.00  0.00     0.060 A 
ATOM     14  C   UNL     1       3.656   3.259  -2.566  1.00  0.00     0.016 A 
ATOM     15  C   UNL     1       1.920   4.665  -1.619  1.00  0.00     0.016 A 
ATOM     16  C   UNL     1       4.013   4.290  -3.436  1.00  0.00     0.013 A 
ATOM     17  C   UNL     1       2.295   5.702  -2.478  1.00  0.00     0.013 A 
BRANCH  13  18
ATOM     18  C   UNL     1       2.321   2.377  -0.680  1.00  0.00     0.338 C 
ATOM     19  O   UNL     1       3.188   1.708  -0.143  1.00  0.00    -0.246 OA
BRANCH  18  20
ATOM     20  O   UNL     1       0.982   2.261  -0.517  1.00  0.00    -0.462 OA
BRANCH  20  21
ATOM     21  C   UNL     1       0.555   1.293   0.452  1.00  0.00     0.230 C 
ATOM     22  C   UNL     1       0.712  -0.130  -0.055  1.00  0.00     0.049 C 
ENDBRANCH  20  21
ENDBRANCH  18  20
ENDBRANCH  13  18
ENDBRANCH   8  12
ENDBRANCH   4   7
ENDBRANCH   2   3
ENDBRANCH   1   2
BRANCH   1  23
ATOM     23  C   UNL     1       5.359  11.559  -9.364  1.00  0.00     0.002 C 
BRANCH  23  24
ATOM     24  C   UNL     1       4.466  12.790  -9.573  1.00  0.00     0.002 C 
BRANCH  24  25
ATOM     25  C   UNL     1       4.691  13.940  -8.587  1.00  0.00     0.021 C 
BRANCH  25  26
ATOM     26  C   UNL     1       6.100  14.526  -8.600  1.00  0.00     0.116 C 
BRANCH  26  27
ATOM     27  N   UNL     1       6.416  15.149  -9.872  1.00  0.00    -0.352 N 
ATOM     28  C   UNL     1       6.933  16.391 -10.137  1.00  0.00     0.251 C 
ATOM     29  H   UNL     1       6.231  14.597 -10.665  1.00  0.00     0.163 HD
ATOM     30  O   UNL     1       6.941  16.812 -11.290  1.00  0.00    -0.269 OA
BRANCH  28  31
ATOM     31  C   UNL     1       7.479  17.233  -9.049  1.00  0.00     0.039 A 
ATOM     32  C   UNL     1       7.250  18.612  -9.095  1.00  0.00     0.014 A 
ATOM     33  C   UNL     1       8.275  16.692  -8.034  1.00  0.00     0.014 A 
ATOM     34  C   UNL     1       7.805  19.444  -8.120  1.00  0.00     0.010 A 
ATOM     35  C   UNL     1       8.775  17.515  -7.026  1.00  0.00     0.010 A 
ATOM     36  C   UNL     1       8.569  18.901  -7.075  1.00  0.00    -0.014 A 
BRANCH  36  37
ATOM     37  C   UNL     1       9.206  19.783  -6.066  1.00  0.00     0.031 A 
ATOM     38  C   UNL     1      10.705  19.914  -6.021  1.00  0.00     0.074 A 
ATOM     39  C   UNL     1       8.445  20.451  -5.179  1.00  0.00     0.049 A 
ATOM     40  N   UNL     1      11.449  20.632  -5.216  1.00  0.00    -0.248 NA
ATOM     41  C   UNL     1      11.471  19.117  -6.993  1.00  0.00     0.031 C 
ATOM     42  C   UNL     1       6.985  20.385  -5.094  1.00  0.00     0.029 A 
ATOM     43  N   UNL     1       8.799  21.322  -4.180  1.00  0.00    -0.354 N 
ATOM     44  C   UNL     1      12.764  20.359  -5.573  1.00  0.00     0.074 A 
ATOM     45  C   UNL     1      12.719  19.375  -6.632  1.00  0.00     0.031 C 
ATOM     46  C   UNL     1       6.566  21.206  -4.117  1.00  0.00     0.029 A 
ATOM     47  C   UNL     1       7.726  21.835  -3.493  1.00  0.00     0.049 A 
ATOM     48  H   UNL     1       9.732  21.557  -3.975  1.00  0.00     0.167 HD
ATOM     49  C   UNL     1      13.907  20.892  -5.081  1.00  0.00     0.031 A 
ATOM     50  C   UNL     1       7.682  22.721  -2.481  1.00  0.00     0.031 A 
ATOM     51  C   UNL     1      13.955  21.886  -4.042  1.00  0.00     0.049 A 
ATOM     52  C   UNL     1       8.962  23.319  -1.968  1.00  0.00     0.074 A 
ATOM     53  C   UNL     1      15.061  22.519  -3.503  1.00  0.00     0.029 A 
ATOM     54  N   UNL     1      12.844  22.397  -3.392  1.00  0.00    -0.354 N 
ATOM     55  N   UNL     1      10.194  23.089  -2.353  1.00  0.00    -0.248 NA
ATOM     56  C   UNL     1       8.841  24.316  -0.895  1.00  0.00     0.031 C 
ATOM     57  C   UNL     1      14.620  23.392  -2.502  1.00  0.00     0.029 A 
ATOM     58  C   UNL     1      13.237  23.334  -2.452  1.00  0.00     0.049 A 
ATOM     59  H   UNL     1      11.912  22.133  -3.571  1.00  0.00     0.167 HD
ATOM     60  C   UNL     1      10.991  23.938  -1.596  1.00  0.00     0.074 A 
ATOM     61  C   UNL     1      10.102  24.694  -0.737  1.00  0.00     0.031 C 
ATOM     62  C   UNL     1      12.338  24.083  -1.613  1.00  0.00     0.031 A 
BRANCH  49  63
ATOM     63  C   UNL     1      15.202  20.404  -5.667  1.00  0.00    -0.014 A 
ATOM     64  C   UNL     1      15.586  20.754  -6.971  1.00  0.00     0.009 A 
ATOM     65  C   UNL     1      16.059  19.601  -4.899  1.00  0.00     0.009 A 
ATOM     66  C   UNL     1      16.784  20.278  -7.509  1.00  0.00     0.001 A 
ATOM     67  C   UNL     1      17.270  19.149  -5.429  1.00  0.00     0.001 A 
ATOM     68  C   UNL     1      17.625  19.479  -6.736  1.00  0.00     0.000 A 
ENDBRANCH  49  63
BRANCH  50  69
ATOM     69  C   UNL     1       6.374  23.137  -1.913  1.00  0.00    -0.014 A 
ATOM     70  C   UNL     1       5.862  24.417  -2.174  1.00  0.00     0.009 A 
ATOM     71  C   UNL     1       5.636  22.261  -1.102  1.00  0.00     0.009 A 
ATOM     72  C   UNL     1       4.650  24.822  -1.610  1.00  0.00     0.001 A 
ATOM     73  C   UNL     1       4.413  22.660  -0.561  1.00  0.00     0.001 A 
ATOM     74  C   UNL     1       3.925  23.943  -0.807  1.00  0.00     0.000 A 
ENDBRANCH  50  69
BRANCH  62  75
ATOM     75  C   UNL     1      12.925  25.131  -0.713  1.00  0.00    -0.014 A 
ATOM     76  C   UNL     1      12.992  24.948   0.677  1.00  0.00     0.009 A 
ATOM     77  C   UNL     1      13.442  26.311  -1.271  1.00  0.00     0.009 A 
ATOM     78  C   UNL     1      13.532  25.944   1.493  1.00  0.00     0.001 A 
ATOM     79  C   UNL     1      14.005  27.293  -0.455  1.00  0.00     0.001 A 
ATOM     80  C   UNL     1      14.040  27.113   0.926  1.00  0.00     0.000 A 
ENDBRANCH  62  75
ENDBRANCH  36  37
ENDBRANCH  28  31
ENDBRANCH  26  27
ENDBRANCH  25  26
ENDBRANCH  24  25
ENDBRANCH  23  24
ENDBRANCH   1  23
TORSDOF 17
