REMARK SMILES CSc1ccc(/C=C2\C(C)=C(CC(=O)NCCCCCCNC(=O)c3ccc(-c4c5nc(c(-c6ccccc6)c6ccc([nH]6)c(-c6ccccc6)c6nc(c(-c7ccccc7)c7ccc4[nH]7)C=C6)C=C5)cc3)c3cc(F)ccc32)cc1
REMARK SMILES IDX 18 1 17 2 16 3 15 4 13 5 14 6 12 8 11 9 7 10 8 11 9 12 79 13
REMARK SMILES IDX 10 14 73 15 78 16 74 17 77 18 75 19 76 20 6 21 3 22 4 23
REMARK SMILES IDX 81 24 5 25 80 26 2 27 1 28 19 29 20 30 21 31 22 32 23 33
REMARK SMILES IDX 24 35 25 36 26 37 72 38 27 39 71 40 28 41 29 42 30 43 65 44
REMARK SMILES IDX 31 45 70 46 64 47 66 48 32 49 69 50 63 51 62 52 33 54 55 55
REMARK SMILES IDX 40 56 54 57 41 58 44 59 53 60 67 61 42 62 43 63 52 65 68 66
REMARK SMILES IDX 45 67 34 68 35 69 39 70 36 71 38 72 37 73 56 74 57 75 61 76
REMARK SMILES IDX 58 77 60 78 59 79 46 80 47 81 51 82 48 83 50 84 49 85
REMARK H PARENT 15 7 22 34 66 53 44 64
REMARK Flexibility Score: inf
ROOT
ATOM      1  C   UNL     1       8.453   4.873  -3.988  1.00  0.00     0.002 C 
ENDROOT
BRANCH   1   2
ATOM      2  C   UNL     1       7.018   4.516  -4.376  1.00  0.00     0.021 C 
BRANCH   2   3
ATOM      3  C   UNL     1       6.273   5.596  -5.157  1.00  0.00     0.116 C 
BRANCH   3   4
ATOM      4  N   UNL     1       6.819   5.747  -6.488  1.00  0.00    -0.356 N 
ATOM      5  C   UNL     1       6.404   5.131  -7.633  1.00  0.00     0.224 C 
ATOM      6  O   UNL     1       7.070   5.269  -8.660  1.00  0.00    -0.275 OA
ATOM      7  H   UNL     1       7.577   6.368  -6.579  1.00  0.00     0.163 HD
BRANCH   5   8
ATOM      8  C   UNL     1       5.127   4.312  -7.611  1.00  0.00     0.136 C 
BRANCH   8   9
ATOM      9  C   UNL     1       5.374   2.941  -7.013  1.00  0.00    -0.027 C 
ATOM     10  C   UNL     1       2.194   1.889  -6.064  1.00  0.00     0.017 C 
ATOM     11  C   UNL     1       3.454   1.881  -6.527  1.00  0.00    -0.014 C 
ATOM     12  C   UNL     1       4.671   2.481  -5.936  1.00  0.00    -0.039 C 
ATOM     13  C   UNL     1       3.932   1.245  -7.770  1.00  0.00    -0.010 A 
ATOM     14  C   UNL     1       5.379   1.440  -5.047  1.00  0.00     0.045 C 
ATOM     15  C   UNL     1       5.187   1.846  -7.995  1.00  0.00    -0.011 A 
ATOM     16  C   UNL     1       3.621   0.013  -8.317  1.00  0.00     0.012 A 
ATOM     17  C   UNL     1       6.174   1.227  -8.740  1.00  0.00     0.048 A 
ATOM     18  C   UNL     1       4.620  -0.631  -9.058  1.00  0.00     0.040 A 
ATOM     19  C   UNL     1       5.877  -0.031  -9.249  1.00  0.00     0.123 A 
ATOM     20  F   UNL     1       6.848  -0.735  -9.848  1.00  0.00    -0.207 F 
BRANCH  10  21
ATOM     21  C   UNL     1       1.674   2.232  -4.718  1.00  0.00    -0.025 A 
ATOM     22  C   UNL     1       0.466   1.803  -2.192  1.00  0.00     0.007 A 
ATOM     23  C   UNL     1       1.849   1.829  -2.317  1.00  0.00     0.015 A 
ATOM     24  C   UNL     1      -0.300   2.189  -3.299  1.00  0.00     0.015 A 
ATOM     25  C   UNL     1       2.439   2.057  -3.562  1.00  0.00     0.009 A 
ATOM     26  C   UNL     1       0.297   2.406  -4.551  1.00  0.00     0.009 A 
BRANCH  22  27
ATOM     27  S   UNL     1      -0.388   1.220  -0.735  1.00  0.00    -0.130 SA
ATOM     28  C   UNL     1       0.919   0.371   0.208  1.00  0.00     0.091 C 
ENDBRANCH  22  27
ENDBRANCH  10  21
ENDBRANCH   8   9
ENDBRANCH   5   8
ENDBRANCH   3   4
ENDBRANCH   2   3
ENDBRANCH   1   2
BRANCH   1  29
ATOM     29  C   UNL     1       8.607   6.194  -3.236  1.00  0.00     0.002 C 
BRANCH  29  30
ATOM     30  C   UNL     1       7.665   6.372  -2.045  1.00  0.00     0.021 C 
BRANCH  30  31
ATOM     31  C   UNL     1       7.758   5.271  -0.997  1.00  0.00     0.116 C 
BRANCH  31  32
ATOM     32  N   UNL     1       9.064   5.244  -0.363  1.00  0.00    -0.352 N 
ATOM     33  C   UNL     1       9.381   5.419   0.960  1.00  0.00     0.251 C 
ATOM     34  H   UNL     1       9.825   5.077  -0.965  1.00  0.00     0.163 HD
ATOM     35  O   UNL     1      10.542   5.606   1.303  1.00  0.00    -0.269 OA
BRANCH  33  36
ATOM     36  C   UNL     1       8.305   5.388   1.971  1.00  0.00     0.039 A 
ATOM     37  C   UNL     1       8.275   6.374   2.959  1.00  0.00     0.014 A 
ATOM     38  C   UNL     1       7.338   4.378   1.946  1.00  0.00     0.014 A 
ATOM     39  C   UNL     1       7.246   6.372   3.902  1.00  0.00     0.010 A 
ATOM     40  C   UNL     1       6.276   4.418   2.843  1.00  0.00     0.010 A 
ATOM     41  C   UNL     1       6.229   5.406   3.837  1.00  0.00    -0.014 A 
BRANCH  41  42
ATOM     42  C   UNL     1       5.119   5.395   4.819  1.00  0.00     0.031 A 
ATOM     43  C   UNL     1       4.986   4.254   5.788  1.00  0.00     0.074 A 
ATOM     44  C   UNL     1       4.204   6.383   4.805  1.00  0.00     0.049 A 
ATOM     45  N   UNL     1       4.062   4.039   6.690  1.00  0.00    -0.248 NA
ATOM     46  C   UNL     1       6.013   3.202   5.716  1.00  0.00     0.031 C 
ATOM     47  C   UNL     1       4.208   7.531   3.897  1.00  0.00     0.029 A 
ATOM     48  N   UNL     1       3.092   6.577   5.584  1.00  0.00    -0.354 N 
ATOM     49  C   UNL     1       4.388   2.825   7.280  1.00  0.00     0.074 A 
ATOM     50  C   UNL     1       5.562   2.324   6.599  1.00  0.00     0.031 C 
ATOM     51  C   UNL     1       3.169   8.328   4.194  1.00  0.00     0.029 A 
ATOM     52  C   UNL     1       2.408   7.729   5.285  1.00  0.00     0.049 A 
ATOM     53  H   UNL     1       2.811   5.950   6.289  1.00  0.00     0.167 HD
ATOM     54  C   UNL     1       3.779   2.192   8.310  1.00  0.00     0.031 A 
ATOM     55  C   UNL     1       1.292   8.245   5.833  1.00  0.00     0.031 A 
ATOM     56  C   UNL     1       2.618   2.694   8.994  1.00  0.00     0.049 A 
ATOM     57  C   UNL     1       0.618   7.511   6.957  1.00  0.00     0.074 A 
ATOM     58  C   UNL     1       1.955   2.154  10.082  1.00  0.00     0.029 A 
ATOM     59  N   UNL     1       1.946   3.858   8.652  1.00  0.00    -0.354 N 
ATOM     60  N   UNL     1       0.969   6.391   7.541  1.00  0.00    -0.248 NA
ATOM     61  C   UNL     1      -0.604   8.119   7.501  1.00  0.00     0.031 C 
ATOM     62  C   UNL     1       0.855   2.970  10.371  1.00  0.00     0.029 A 
ATOM     63  C   UNL     1       0.862   4.042   9.493  1.00  0.00     0.049 A 
ATOM     64  H   UNL     1       2.202   4.463   7.919  1.00  0.00     0.167 HD
ATOM     65  C   UNL     1       0.030   6.175   8.540  1.00  0.00     0.074 A 
ATOM     66  C   UNL     1      -0.900   7.285   8.489  1.00  0.00     0.031 C 
ATOM     67  C   UNL     1      -0.053   5.151   9.424  1.00  0.00     0.031 A 
BRANCH  54  68
ATOM     68  C   UNL     1       4.362   0.877   8.747  1.00  0.00    -0.014 A 
ATOM     69  C   UNL     1       5.607   0.813   9.395  1.00  0.00     0.009 A 
ATOM     70  C   UNL     1       3.659  -0.314   8.511  1.00  0.00     0.009 A 
ATOM     71  C   UNL     1       6.155  -0.419   9.755  1.00  0.00     0.001 A 
ATOM     72  C   UNL     1       4.196  -1.543   8.899  1.00  0.00     0.001 A 
ATOM     73  C   UNL     1       5.448  -1.596   9.509  1.00  0.00     0.000 A 
ENDBRANCH  54  68
BRANCH  55  74
ATOM     74  C   UNL     1       0.761   9.545   5.349  1.00  0.00    -0.014 A 
ATOM     75  C   UNL     1       0.881  10.694   6.145  1.00  0.00     0.009 A 
ATOM     76  C   UNL     1       0.138   9.646   4.096  1.00  0.00     0.009 A 
ATOM     77  C   UNL     1       0.370  11.917   5.704  1.00  0.00     0.001 A 
ATOM     78  C   UNL     1      -0.351  10.876   3.648  1.00  0.00     0.001 A 
ATOM     79  C   UNL     1      -0.241  12.007   4.454  1.00  0.00     0.000 A 
ENDBRANCH  55  74
BRANCH  67  80
ATOM     80  C   UNL     1      -1.169   5.205  10.428  1.00  0.00    -0.014 A 
ATOM     81  C   UNL     1      -2.497   4.944  10.055  1.00  0.00     0.009 A 
ATOM     82  C   UNL     1      -0.880   5.488  11.772  1.00  0.00     0.009 A 
ATOM     83  C   UNL     1      -3.518   4.997  11.006  1.00  0.00     0.001 A 
ATOM     84  C   UNL     1      -1.900   5.514  12.724  1.00  0.00     0.001 A 
ATOM     85  C   UNL     1      -3.219   5.278  12.339  1.00  0.00     0.000 A 
ENDBRANCH  67  80
ENDBRANCH  41  42
ENDBRANCH  33  36
ENDBRANCH  31  32
ENDBRANCH  30  31
ENDBRANCH  29  30
ENDBRANCH   1  29
TORSDOF 16
