REMARK SMILES NS(=O)(=O)c1ccc(N2N=C(C(=O)NCCCCCCNC(=O)c3ccc(-c4c5nc(c(-c6ccccc6)c6ccc([nH]6)c(-c6ccccc6)c6nc(c(-c7ccccc7)c7ccc4[nH]7)C=C6)C=C5)cc3)C[C@H]2c2ccco2)cc1
REMARK SMILES IDX 17 1 16 2 15 3 14 4 12 5 13 6 11 8 9 9 10 10 73 11 72 12
REMARK SMILES IDX 8 13 5 14 6 15 80 16 7 17 79 18 2 19 3 20 4 21 1 22 74 25
REMARK SMILES IDX 75 26 78 27 76 28 77 29 18 30 19 31 20 32 21 33 22 34 23 36
REMARK SMILES IDX 24 37 25 38 71 39 26 40 70 41 27 42 28 43 29 44 64 45 30 46
REMARK SMILES IDX 69 47 63 48 65 49 31 50 68 51 62 52 61 53 32 55 54 56 39 57
REMARK SMILES IDX 53 58 40 59 43 60 52 61 66 62 41 63 42 64 51 66 67 67 44 68
REMARK SMILES IDX 33 69 34 70 38 71 35 72 37 73 36 74 55 75 56 76 60 77 57 78
REMARK SMILES IDX 59 79 58 80 45 81 46 82 50 83 47 84 49 85 48 86
REMARK H PARENT 14 7 1 23 1 24 21 35 65 54 43 65
REMARK Flexibility Score: inf
ROOT
ATOM      1  C   UNL     1       2.807 -13.789  -1.255  1.00  0.00     0.002 C 
ENDROOT
BRANCH   1   2
ATOM      2  C   UNL     1       2.962 -12.610  -0.292  1.00  0.00     0.021 C 
BRANCH   2   3
ATOM      3  C   UNL     1       3.496 -11.340  -0.947  1.00  0.00     0.116 C 
BRANCH   3   4
ATOM      4  N   UNL     1       2.482 -10.715  -1.769  1.00  0.00    -0.351 N 
ATOM      5  C   UNL     1       1.853  -9.498  -1.749  1.00  0.00     0.267 C 
ATOM      6  O   UNL     1       0.936  -9.321  -2.547  1.00  0.00    -0.268 OA
ATOM      7  H   UNL     1       2.176 -11.292  -2.505  1.00  0.00     0.163 HD
BRANCH   5   8
ATOM      8  C   UNL     1       2.260  -8.349  -0.840  1.00  0.00     0.128 C 
ATOM      9  N   UNL     1       2.360  -6.347  -0.120  1.00  0.00    -0.254 N 
ATOM     10  N   UNL     1       1.655  -7.201  -0.906  1.00  0.00    -0.171 NA
ATOM     11  C   UNL     1       3.414  -6.990   0.670  1.00  0.00     0.180 C 
ATOM     12  C   UNL     1       3.371  -8.428   0.150  1.00  0.00     0.099 C 
BRANCH   9  13
ATOM     13  C   UNL     1       1.847  -5.096   0.192  1.00  0.00     0.060 A 
ATOM     14  C   UNL     1       0.884  -2.555   0.884  1.00  0.00     0.082 A 
ATOM     15  C   UNL     1       0.046  -3.665   1.000  1.00  0.00     0.024 A 
ATOM     16  C   UNL     1       2.180  -2.692   0.390  1.00  0.00     0.024 A 
ATOM     17  C   UNL     1       0.531  -4.930   0.646  1.00  0.00     0.029 A 
ATOM     18  C   UNL     1       2.645  -3.956   0.039  1.00  0.00     0.029 A 
BRANCH  14  19
ATOM     19  S   UNL     1       0.308  -0.952   1.344  1.00  0.00     0.238 S 
ATOM     20  O   UNL     1       0.998  -0.551   2.546  1.00  0.00    -0.207 OA
ATOM     21  O   UNL     1      -1.130  -0.903   1.210  1.00  0.00    -0.207 OA
BRANCH  19  22
ATOM     22  N   UNL     1       0.901   0.032   0.116  1.00  0.00    -0.225 NA
ATOM     23  H   UNL     1       0.620   0.997   0.288  1.00  0.00     0.137 HD
ATOM     24  H   UNL     1       0.523  -0.278  -0.780  1.00  0.00     0.137 HD
ENDBRANCH  19  22
ENDBRANCH  14  19
ENDBRANCH   9  13
BRANCH  11  25
ATOM     25  C   UNL     1       4.795  -6.402   0.626  1.00  0.00     0.128 A 
ATOM     26  C   UNL     1       5.394  -5.366   1.320  1.00  0.00     0.048 A 
ATOM     27  O   UNL     1       5.705  -6.951  -0.236  1.00  0.00    -0.467 OA
ATOM     28  C   UNL     1       6.720  -5.264   0.837  1.00  0.00     0.042 A 
ATOM     29  C   UNL     1       6.865  -6.263  -0.094  1.00  0.00     0.195 A 
ENDBRANCH  11  25
ENDBRANCH   5   8
ENDBRANCH   3   4
ENDBRANCH   2   3
ENDBRANCH   1   2
BRANCH   1  30
ATOM     30  C   UNL     1       4.084 -14.183  -2.005  1.00  0.00     0.002 C 
BRANCH  30  31
ATOM     31  C   UNL     1       5.315 -14.403  -1.122  1.00  0.00     0.021 C 
BRANCH  31  32
ATOM     32  C   UNL     1       5.129 -15.446  -0.027  1.00  0.00     0.116 C 
BRANCH  32  33
ATOM     33  N   UNL     1       4.845 -16.762  -0.572  1.00  0.00    -0.352 N 
ATOM     34  C   UNL     1       5.494 -17.950  -0.357  1.00  0.00     0.251 C 
ATOM     35  H   UNL     1       4.075 -16.807  -1.184  1.00  0.00     0.163 HD
ATOM     36  O   UNL     1       5.250 -18.924  -1.061  1.00  0.00    -0.269 OA
BRANCH  34  37
ATOM     37  C   UNL     1       6.504 -18.050   0.716  1.00  0.00     0.039 A 
ATOM     38  C   UNL     1       7.707 -18.707   0.450  1.00  0.00     0.014 A 
ATOM     39  C   UNL     1       6.263 -17.504   1.980  1.00  0.00     0.014 A 
ATOM     40  C   UNL     1       8.691 -18.772   1.438  1.00  0.00     0.010 A 
ATOM     41  C   UNL     1       7.274 -17.500   2.936  1.00  0.00     0.010 A 
ATOM     42  C   UNL     1       8.494 -18.142   2.678  1.00  0.00    -0.014 A 
BRANCH  42  43
ATOM     43  C   UNL     1       9.557 -18.141   3.713  1.00  0.00     0.031 A 
ATOM     44  C   UNL     1       9.329 -18.816   5.037  1.00  0.00     0.074 A 
ATOM     45  C   UNL     1      10.705 -17.474   3.486  1.00  0.00     0.049 A 
ATOM     46  N   UNL     1      10.122 -18.883   6.077  1.00  0.00    -0.248 NA
ATOM     47  C   UNL     1       8.030 -19.479   5.228  1.00  0.00     0.031 C 
ATOM     48  C   UNL     1      11.029 -16.738   2.261  1.00  0.00     0.029 A 
ATOM     49  N   UNL     1      11.810 -17.301   4.280  1.00  0.00    -0.354 N 
ATOM     50  C   UNL     1       9.411 -19.574   7.049  1.00  0.00     0.074 A 
ATOM     51  C   UNL     1       8.105 -19.859   6.495  1.00  0.00     0.031 C 
ATOM     52  C   UNL     1      12.259 -16.215   2.377  1.00  0.00     0.029 A 
ATOM     53  C   UNL     1      12.793 -16.539   3.696  1.00  0.00     0.049 A 
ATOM     54  H   UNL     1      11.891 -17.685   5.183  1.00  0.00     0.167 HD
ATOM     55  C   UNL     1       9.812 -19.950   8.287  1.00  0.00     0.031 A 
ATOM     56  C   UNL     1      13.986 -16.137   4.171  1.00  0.00     0.031 A 
ATOM     57  C   UNL     1      11.112 -19.667   8.834  1.00  0.00     0.049 A 
ATOM     58  C   UNL     1      14.409 -16.561   5.549  1.00  0.00     0.074 A 
ATOM     59  C   UNL     1      11.642 -20.067  10.049  1.00  0.00     0.029 A 
ATOM     60  N   UNL     1      12.084 -18.902   8.207  1.00  0.00    -0.354 N 
ATOM     61  N   UNL     1      13.759 -17.288   6.425  1.00  0.00    -0.248 NA
ATOM     62  C   UNL     1      15.737 -16.119   5.998  1.00  0.00     0.031 C 
ATOM     63  C   UNL     1      12.906 -19.486  10.186  1.00  0.00     0.029 A 
ATOM     64  C   UNL     1      13.195 -18.785   9.026  1.00  0.00     0.049 A 
ATOM     65  H   UNL     1      11.997 -18.501   7.312  1.00  0.00     0.167 HD
ATOM     66  C   UNL     1      14.606 -17.412   7.518  1.00  0.00     0.074 A 
ATOM     67  C   UNL     1      15.823 -16.699   7.187  1.00  0.00     0.031 C 
ATOM     68  C   UNL     1      14.395 -18.061   8.690  1.00  0.00     0.031 A 
BRANCH  55  69
ATOM     69  C   UNL     1       8.816 -20.688   9.142  1.00  0.00    -0.014 A 
ATOM     70  C   UNL     1       8.385 -21.985   8.816  1.00  0.00     0.009 A 
ATOM     71  C   UNL     1       8.314 -20.081  10.303  1.00  0.00     0.009 A 
ATOM     72  C   UNL     1       7.434 -22.635   9.607  1.00  0.00     0.001 A 
ATOM     73  C   UNL     1       7.391 -20.747  11.111  1.00  0.00     0.001 A 
ATOM     74  C   UNL     1       6.941 -22.017  10.755  1.00  0.00     0.000 A 
ENDBRANCH  55  69
BRANCH  56  75
ATOM     75  C   UNL     1      14.868 -15.292   3.323  1.00  0.00    -0.014 A 
ATOM     76  C   UNL     1      16.048 -15.814   2.774  1.00  0.00     0.009 A 
ATOM     77  C   UNL     1      14.518 -13.961   3.041  1.00  0.00     0.009 A 
ATOM     78  C   UNL     1      16.870 -15.015   1.975  1.00  0.00     0.001 A 
ATOM     79  C   UNL     1      15.326 -13.175   2.216  1.00  0.00     0.001 A 
ATOM     80  C   UNL     1      16.505 -13.700   1.691  1.00  0.00     0.000 A 
ENDBRANCH  56  75
BRANCH  68  81
ATOM     81  C   UNL     1      15.516 -18.052   9.694  1.00  0.00    -0.014 A 
ATOM     82  C   UNL     1      15.867 -16.886  10.390  1.00  0.00     0.009 A 
ATOM     83  C   UNL     1      16.202 -19.244   9.976  1.00  0.00     0.009 A 
ATOM     84  C   UNL     1      16.906 -16.906  11.323  1.00  0.00     0.001 A 
ATOM     85  C   UNL     1      17.217 -19.270  10.933  1.00  0.00     0.001 A 
ATOM     86  C   UNL     1      17.575 -18.099  11.598  1.00  0.00     0.000 A 
ENDBRANCH  68  81
ENDBRANCH  42  43
ENDBRANCH  34  37
ENDBRANCH  32  33
ENDBRANCH  31  32
ENDBRANCH  30  31
ENDBRANCH   1  30
TORSDOF 17
