REMARK SMILES COc1cc(OC)cc(-c2cc3nc(C)c(CCC(=O)NCCCCCCNC(=O)c4ccc(-c5c6nc(c(-c7ccccc7)c7ccc([nH]7)c(-c7ccccc7)c7nc(c(-c8ccccc8)c8ccc5[nH]8)C=C7)C=C6)cc4)c(C)n3n2)c1
REMARK SMILES IDX 23 1 22 2 21 3 19 4 20 5 18 7 17 8 16 9 10 10 11 11 82 12
REMARK SMILES IDX 12 13 81 14 13 15 79 16 14 17 80 18 15 19 9 20 3 21 4 22
REMARK SMILES IDX 83 23 5 24 8 25 2 26 1 27 6 28 7 29 24 30 25 31 26 32 27 33
REMARK SMILES IDX 28 34 29 35 30 37 31 38 32 39 78 40 33 41 77 42 34 43 35 44
REMARK SMILES IDX 36 45 71 46 37 47 76 48 70 49 72 50 38 51 75 52 69 53 68 54
REMARK SMILES IDX 39 56 61 57 46 58 60 59 47 60 50 61 59 62 73 63 48 64 49 65
REMARK SMILES IDX 58 67 74 68 51 69 40 70 41 71 45 72 42 73 44 74 43 75 62 76
REMARK SMILES IDX 63 77 67 78 64 79 66 80 65 81 52 82 53 83 57 84 54 85 56 86
REMARK SMILES IDX 55 87
REMARK H PARENT 21 6 28 36 72 55 50 66
REMARK Flexibility Score: inf
ROOT
ATOM      1  C   UNL     1       6.931   1.273  -2.034  1.00  0.00     0.021 C 
ENDROOT
BRANCH   1   2
ATOM      2  C   UNL     1       8.100   1.055  -1.097  1.00  0.00     0.116 C 
BRANCH   2   3
ATOM      3  N   UNL     1       9.057   0.176  -1.748  1.00  0.00    -0.356 N 
ATOM      4  C   UNL     1      10.081   0.511  -2.590  1.00  0.00     0.220 C 
ATOM      5  O   UNL     1      10.518  -0.349  -3.356  1.00  0.00    -0.275 OA
ATOM      6  H   UNL     1       8.955  -0.784  -1.558  1.00  0.00     0.163 HD
BRANCH   4   7
ATOM      7  C   UNL     1      10.709   1.896  -2.532  1.00  0.00     0.105 C 
BRANCH   7   8
ATOM      8  C   UNL     1      10.611   2.722  -3.827  1.00  0.00     0.049 C 
BRANCH   8   9
ATOM      9  C   UNL     1       9.218   3.170  -4.175  1.00  0.00    -0.005 A 
ATOM     10  C   UNL     1       4.937   2.138  -4.330  1.00  0.00     0.095 A 
ATOM     11  C   UNL     1       5.279   3.503  -3.859  1.00  0.00     0.080 A 
ATOM     12  N   UNL     1       5.935   1.795  -5.168  1.00  0.00    -0.166 NA
ATOM     13  C   UNL     1       6.570   3.771  -4.143  1.00  0.00     0.156 A 
ATOM     14  N   UNL     1       6.985   2.682  -4.872  1.00  0.00    -0.219 N 
ATOM     15  N   UNL     1       7.372   4.737  -3.624  1.00  0.00    -0.234 NA
ATOM     16  C   UNL     1       8.366   2.441  -4.953  1.00  0.00     0.046 A 
ATOM     17  C   UNL     1       8.636   4.440  -3.568  1.00  0.00     0.045 A 
ATOM     18  C   UNL     1       8.702   1.211  -5.728  1.00  0.00     0.067 C 
ATOM     19  C   UNL     1       9.506   5.475  -2.866  1.00  0.00     0.067 C 
BRANCH  10  20
ATOM     20  C   UNL     1       3.427   1.453  -4.279  1.00  0.00     0.009 A 
ATOM     21  C   UNL     1       1.419   1.290  -1.768  1.00  0.00     0.123 A 
ATOM     22  C   UNL     1       0.909   3.008  -2.138  1.00  0.00     0.092 A 
ATOM     23  C   UNL     1       2.664   0.559  -2.897  1.00  0.00     0.057 A 
ATOM     24  C   UNL     1       1.630   3.717  -3.767  1.00  0.00     0.123 A 
ATOM     25  C   UNL     1       2.779   2.874  -4.743  1.00  0.00     0.057 A 
BRANCH  21  26
ATOM     26  O   UNL     1       0.590   0.495  -1.024  1.00  0.00    -0.497 OA
ATOM     27  C   UNL     1       1.138   0.146   0.237  1.00  0.00     0.278 C 
ENDBRANCH  21  26
BRANCH  24  28
ATOM     28  O   UNL     1       0.792   4.011  -4.943  1.00  0.00    -0.497 OA
ATOM     29  C   UNL     1       0.811   3.456  -6.265  1.00  0.00     0.278 C 
ENDBRANCH  24  28
ENDBRANCH  10  20
ENDBRANCH   8   9
ENDBRANCH   7   8
ENDBRANCH   4   7
ENDBRANCH   2   3
ENDBRANCH   1   2
BRANCH   1  30
ATOM     30  C   UNL     1       5.818   0.236  -2.021  1.00  0.00     0.002 C 
BRANCH  30  31
ATOM     31  C   UNL     1       4.680   0.589  -1.068  1.00  0.00     0.002 C 
BRANCH  31  32
ATOM     32  C   UNL     1       3.866   1.918  -1.217  1.00  0.00     0.021 C 
BRANCH  32  33
ATOM     33  C   UNL     1       2.802   2.578  -2.498  1.00  0.00     0.116 C 
BRANCH  33  34
ATOM     34  N   UNL     1       1.193   1.878  -3.623  1.00  0.00    -0.352 N 
ATOM     35  C   UNL     1      -0.463   2.531  -3.815  1.00  0.00     0.251 C 
ATOM     36  H   UNL     1       1.373   1.054  -4.132  1.00  0.00     0.163 HD
ATOM     37  O   UNL     1      -1.297   1.736  -4.263  1.00  0.00    -0.269 OA
BRANCH  35  38
ATOM     38  C   UNL     1      -0.995   4.311  -3.554  1.00  0.00     0.039 A 
ATOM     39  C   UNL     1      -1.589   4.935  -4.679  1.00  0.00     0.014 A 
ATOM     40  C   UNL     1      -0.191   5.332  -2.931  1.00  0.00     0.014 A 
ATOM     41  C   UNL     1      -0.876   5.958  -5.466  1.00  0.00     0.010 A 
ATOM     42  C   UNL     1       0.621   6.229  -3.731  1.00  0.00     0.010 A 
ATOM     43  C   UNL     1       0.428   6.362  -5.125  1.00  0.00    -0.014 A 
BRANCH  43  44
ATOM     44  C   UNL     1       1.505   7.029  -6.030  1.00  0.00     0.031 A 
ATOM     45  C   UNL     1       1.610   8.392  -5.462  1.00  0.00     0.074 A 
ATOM     46  C   UNL     1       2.382   6.803  -7.093  1.00  0.00     0.049 A 
ATOM     47  N   UNL     1       0.699   9.267  -5.710  1.00  0.00    -0.248 NA
ATOM     48  C   UNL     1       2.465   8.708  -4.306  1.00  0.00     0.031 C 
ATOM     49  C   UNL     1       2.838   5.637  -7.889  1.00  0.00     0.029 A 
ATOM     50  N   UNL     1       3.120   7.787  -7.776  1.00  0.00    -0.354 N 
ATOM     51  C   UNL     1       0.962  10.326  -4.881  1.00  0.00     0.074 A 
ATOM     52  C   UNL     1       1.868   9.827  -3.877  1.00  0.00     0.031 C 
ATOM     53  C   UNL     1       3.882   5.922  -8.713  1.00  0.00     0.029 A 
ATOM     54  C   UNL     1       4.072   7.348  -8.725  1.00  0.00     0.049 A 
ATOM     55  H   UNL     1       2.978   8.746  -7.601  1.00  0.00     0.167 HD
ATOM     56  C   UNL     1       0.617  11.577  -5.274  1.00  0.00     0.031 A 
ATOM     57  C   UNL     1       4.790   8.035  -9.671  1.00  0.00     0.031 A 
ATOM     58  C   UNL     1      -0.191  11.537  -6.478  1.00  0.00     0.049 A 
ATOM     59  C   UNL     1       4.077   9.300  -9.910  1.00  0.00     0.074 A 
ATOM     60  C   UNL     1      -1.429  11.014  -6.802  1.00  0.00     0.029 A 
ATOM     61  N   UNL     1       0.495  11.650  -7.667  1.00  0.00    -0.354 N 
ATOM     62  N   UNL     1       2.917   9.355 -10.493  1.00  0.00    -0.248 NA
ATOM     63  C   UNL     1       4.415  10.402  -9.032  1.00  0.00     0.031 C 
ATOM     64  C   UNL     1      -1.257  10.416  -8.088  1.00  0.00     0.029 A 
ATOM     65  C   UNL     1       0.035  10.691  -8.535  1.00  0.00     0.049 A 
ATOM     66  H   UNL     1       1.199  12.310  -7.862  1.00  0.00     0.167 HD
ATOM     67  C   UNL     1       2.188  10.216  -9.692  1.00  0.00     0.074 A 
ATOM     68  C   UNL     1       3.180  10.866  -8.829  1.00  0.00     0.031 C 
ATOM     69  C   UNL     1       0.832  10.107  -9.592  1.00  0.00     0.031 A 
BRANCH  56  70
ATOM     70  C   UNL     1       1.382  12.794  -4.860  1.00  0.00    -0.014 A 
ATOM     71  C   UNL     1       0.917  14.042  -5.299  1.00  0.00     0.009 A 
ATOM     72  C   UNL     1       2.668  12.751  -4.289  1.00  0.00     0.009 A 
ATOM     73  C   UNL     1       1.730  15.175  -5.236  1.00  0.00     0.001 A 
ATOM     74  C   UNL     1       3.470  13.887  -4.193  1.00  0.00     0.001 A 
ATOM     75  C   UNL     1       3.009  15.095  -4.691  1.00  0.00     0.000 A 
ENDBRANCH  56  70
BRANCH  57  76
ATOM     76  C   UNL     1       6.199   7.874 -10.159  1.00  0.00    -0.014 A 
ATOM     77  C   UNL     1       6.690   8.572 -11.289  1.00  0.00     0.009 A 
ATOM     78  C   UNL     1       7.158   7.296  -9.312  1.00  0.00     0.009 A 
ATOM     79  C   UNL     1       8.073   8.724 -11.522  1.00  0.00     0.001 A 
ATOM     80  C   UNL     1       8.536   7.456  -9.539  1.00  0.00     0.001 A 
ATOM     81  C   UNL     1       8.995   8.182 -10.633  1.00  0.00     0.000 A 
ENDBRANCH  57  76
BRANCH  69  82
ATOM     82  C   UNL     1       0.121   9.174 -10.548  1.00  0.00    -0.014 A 
ATOM     83  C   UNL     1       0.309   7.779 -10.584  1.00  0.00     0.009 A 
ATOM     84  C   UNL     1      -0.894   9.724 -11.344  1.00  0.00     0.009 A 
ATOM     85  C   UNL     1      -0.494   6.969 -11.401  1.00  0.00     0.001 A 
ATOM     86  C   UNL     1      -1.705   8.916 -12.142  1.00  0.00     0.001 A 
ATOM     87  C   UNL     1      -1.505   7.539 -12.173  1.00  0.00     0.000 A 
ENDBRANCH  69  82
ENDBRANCH  43  44
ENDBRANCH  35  38
ENDBRANCH  33  34
ENDBRANCH  32  33
ENDBRANCH  31  32
ENDBRANCH  30  31
ENDBRANCH   1  30
TORSDOF 18
