REMARK SMILES O=C1C[C@@H](C(=O)NCCCCCCNC(=O)c2ccc(-c3c4nc(c(-c5ccccc5)c5ccc([nH]5)c(-c5ccccc5)c5nc(c(-c6ccccc6)c6ccc3[nH]6)C=C5)C=C4)cc2)C2(CC[NH+](Cc3c[nH]nc3-c3ccc(Cl)cc3)CC2)N1
REMARK SMILES IDX 10 1 9 2 8 3 7 4 5 5 6 6 4 8 1 9 2 10 3 11 84 12 65 13 66 15
REMARK SMILES IDX 83 16 67 17 82 18 68 19 69 21 70 22 71 23 74 24 72 25 73 26
REMARK SMILES IDX 75 28 76 29 81 30 77 31 80 32 78 33 79 34 11 35 12 36 13 37
REMARK SMILES IDX 14 38 15 39 16 41 17 42 18 43 64 44 19 45 63 46 20 47 21 48
REMARK SMILES IDX 22 49 57 50 23 51 62 52 56 53 58 54 24 55 61 56 55 57 54 58
REMARK SMILES IDX 25 60 47 61 32 62 46 63 33 64 36 65 45 66 59 67 34 68 35 69
REMARK SMILES IDX 44 71 60 72 37 73 26 74 27 75 31 76 28 77 30 78 29 79 48 80
REMARK SMILES IDX 49 81 53 82 50 83 52 84 51 85 38 86 39 87 43 88 40 89 42 90
REMARK SMILES IDX 41 91
REMARK H PARENT 7 7 84 14 68 20 72 27 14 40 58 59 36 70
REMARK Flexibility Score: inf
ROOT
ATOM      1  C   UNL     1       1.356   4.511  -2.023  1.00  0.00     0.002 C 
ENDROOT
BRANCH   1   2
ATOM      2  C   UNL     1       1.841   3.481  -1.004  1.00  0.00     0.021 C 
BRANCH   2   3
ATOM      3  C   UNL     1       1.808   2.036  -1.510  1.00  0.00     0.116 C 
BRANCH   3   4
ATOM      4  N   UNL     1       2.812   1.755  -2.521  1.00  0.00    -0.356 N 
ATOM      5  C   UNL     1       3.893   0.933  -2.556  1.00  0.00     0.226 C 
ATOM      6  O   UNL     1       4.572   0.968  -3.589  1.00  0.00    -0.275 OA
ATOM      7  H   UNL     1       2.682   2.265  -3.353  1.00  0.00     0.163 HD
BRANCH   5   8
ATOM      8  C   UNL     1       4.332   0.004  -1.417  1.00  0.00     0.114 C 
ATOM      9  O   UNL     1       1.758  -1.075   0.816  1.00  0.00    -0.275 OA
ATOM     10  C   UNL     1       2.734  -0.625   0.248  1.00  0.00     0.221 C 
ATOM     11  C   UNL     1       3.270  -1.054  -1.090  1.00  0.00     0.116 C 
ATOM     12  N   UNL     1       3.519   0.402   0.723  1.00  0.00    -0.349 N 
ATOM     13  C   UNL     1       4.724   0.637  -0.062  1.00  0.00     0.063 C 
ATOM     14  H   UNL     1       3.287   0.930   1.521  1.00  0.00     0.164 HD
ATOM     15  C   UNL     1       5.041   2.138  -0.149  1.00  0.00     0.091 C 
ATOM     16  C   UNL     1       5.844  -0.176   0.652  1.00  0.00     0.091 C 
ATOM     17  C   UNL     1       6.509   2.460  -0.363  1.00  0.00     0.264 C 
ATOM     18  C   UNL     1       7.258   0.401   0.587  1.00  0.00     0.264 C 
ATOM     19  N   UNL     1       7.351   1.849   0.641  1.00  0.00    -0.331 N 
ATOM     20  H   UNL     1       8.319   2.042   0.385  1.00  0.00     0.348 HD
BRANCH  19  21
ATOM     21  C   UNL     1       7.439   2.524   1.945  1.00  0.00     0.303 C 
BRANCH  21  22
ATOM     22  C   UNL     1       6.193   2.525   2.778  1.00  0.00     0.052 A 
ATOM     23  C   UNL     1       5.717   1.479   3.549  1.00  0.00     0.115 A 
ATOM     24  C   UNL     1       5.294   3.607   3.093  1.00  0.00     0.101 A 
ATOM     25  N   UNL     1       4.553   1.896   4.109  1.00  0.00    -0.285 N 
ATOM     26  N   UNL     1       4.268   3.173   3.845  1.00  0.00    -0.175 NA
ATOM     27  H   UNL     1       3.976   1.315   4.655  1.00  0.00     0.189 HD
BRANCH  24  28
ATOM     28  C   UNL     1       5.375   5.034   2.772  1.00  0.00     0.003 A 
ATOM     29  C   UNL     1       5.374   5.960   3.827  1.00  0.00     0.012 A 
ATOM     30  C   UNL     1       5.413   5.515   1.460  1.00  0.00     0.012 A 
ATOM     31  C   UNL     1       5.449   7.333   3.577  1.00  0.00     0.021 A 
ATOM     32  C   UNL     1       5.496   6.889   1.205  1.00  0.00     0.021 A 
ATOM     33  C   UNL     1       5.520   7.791   2.265  1.00  0.00     0.041 A 
ATOM     34  Cl  UNL     1       5.627   9.479   1.952  1.00  0.00    -0.084 Cl
ENDBRANCH  24  28
ENDBRANCH  21  22
ENDBRANCH  19  21
ENDBRANCH   5   8
ENDBRANCH   3   4
ENDBRANCH   2   3
ENDBRANCH   1   2
BRANCH   1  35
ATOM     35  C   UNL     1      -0.053   4.248  -2.558  1.00  0.00     0.002 C 
BRANCH  35  36
ATOM     36  C   UNL     1      -1.118   4.042  -1.477  1.00  0.00     0.021 C 
BRANCH  36  37
ATOM     37  C   UNL     1      -1.239   5.197  -0.490  1.00  0.00     0.116 C 
BRANCH  37  38
ATOM     38  N   UNL     1      -1.597   6.435  -1.162  1.00  0.00    -0.352 N 
ATOM     39  C   UNL     1      -2.696   7.232  -0.976  1.00  0.00     0.251 C 
ATOM     40  H   UNL     1      -0.962   6.744  -1.847  1.00  0.00     0.163 HD
ATOM     41  O   UNL     1      -2.981   8.097  -1.797  1.00  0.00    -0.269 OA
BRANCH  39  42
ATOM     42  C   UNL     1      -3.540   7.037   0.219  1.00  0.00     0.039 A 
ATOM     43  C   UNL     1      -4.928   7.060   0.077  1.00  0.00     0.014 A 
ATOM     44  C   UNL     1      -2.960   6.848   1.478  1.00  0.00     0.014 A 
ATOM     45  C   UNL     1      -5.737   6.852   1.194  1.00  0.00     0.010 A 
ATOM     46  C   UNL     1      -3.766   6.558   2.573  1.00  0.00     0.010 A 
ATOM     47  C   UNL     1      -5.162   6.574   2.445  1.00  0.00    -0.014 A 
BRANCH  47  48
ATOM     48  C   UNL     1      -6.012   6.305   3.630  1.00  0.00     0.031 A 
ATOM     49  C   UNL     1      -5.971   7.226   4.817  1.00  0.00     0.074 A 
ATOM     50  C   UNL     1      -6.778   5.198   3.660  1.00  0.00     0.049 A 
ATOM     51  N   UNL     1      -6.622   7.142   5.950  1.00  0.00    -0.248 NA
ATOM     52  C   UNL     1      -5.058   8.377   4.733  1.00  0.00     0.031 C 
ATOM     53  C   UNL     1      -6.862   4.198   2.594  1.00  0.00     0.029 A 
ATOM     54  N   UNL     1      -7.626   4.725   4.628  1.00  0.00    -0.354 N 
ATOM     55  C   UNL     1      -6.183   8.213   6.717  1.00  0.00     0.074 A 
ATOM     56  C   UNL     1      -5.171   8.900   5.945  1.00  0.00     0.031 C 
ATOM     57  C   UNL     1      -7.732   3.244   2.956  1.00  0.00     0.029 A 
ATOM     58  C   UNL     1      -8.235   3.541   4.294  1.00  0.00     0.049 A 
ATOM     59  H   UNL     1      -7.784   5.191   5.482  1.00  0.00     0.167 HD
ATOM     60  C   UNL     1      -6.596   8.601   7.948  1.00  0.00     0.031 A 
ATOM     61  C   UNL     1      -9.093   2.772   4.989  1.00  0.00     0.031 A 
ATOM     62  C   UNL     1      -7.601   7.913   8.713  1.00  0.00     0.049 A 
ATOM     63  C   UNL     1      -9.537   3.219   6.352  1.00  0.00     0.074 A 
ATOM     64  C   UNL     1      -8.142   8.263   9.938  1.00  0.00     0.029 A 
ATOM     65  N   UNL     1      -8.206   6.724   8.334  1.00  0.00    -0.354 N 
ATOM     66  N   UNL     1      -9.184   4.286   7.028  1.00  0.00    -0.248 NA
ATOM     67  C   UNL     1     -10.512   2.363   7.043  1.00  0.00     0.031 C 
ATOM     68  C   UNL     1      -9.022   7.249  10.332  1.00  0.00     0.029 A 
ATOM     69  C   UNL     1      -9.086   6.306   9.318  1.00  0.00     0.049 A 
ATOM     70  H   UNL     1      -8.035   6.247   7.489  1.00  0.00     0.167 HD
ATOM     71  C   UNL     1      -9.908   4.243   8.212  1.00  0.00     0.074 A 
ATOM     72  C   UNL     1     -10.735   3.054   8.152  1.00  0.00     0.031 C 
ATOM     73  C   UNL     1      -9.891   5.111   9.253  1.00  0.00     0.031 A 
BRANCH  60  74
ATOM     74  C   UNL     1      -5.931   9.811   8.549  1.00  0.00    -0.014 A 
ATOM     75  C   UNL     1      -6.100  11.094   8.001  1.00  0.00     0.009 A 
ATOM     76  C   UNL     1      -5.126   9.667   9.690  1.00  0.00     0.009 A 
ATOM     77  C   UNL     1      -5.435  12.193   8.548  1.00  0.00     0.001 A 
ATOM     78  C   UNL     1      -4.492  10.773  10.258  1.00  0.00     0.001 A 
ATOM     79  C   UNL     1      -4.634  12.033   9.678  1.00  0.00     0.000 A 
ENDBRANCH  60  74
BRANCH  61  80
ATOM     80  C   UNL     1      -9.587   1.502   4.394  1.00  0.00    -0.014 A 
ATOM     81  C   UNL     1     -10.918   1.377   3.969  1.00  0.00     0.009 A 
ATOM     82  C   UNL     1      -8.715   0.415   4.222  1.00  0.00     0.009 A 
ATOM     83  C   UNL     1     -11.370   0.183   3.402  1.00  0.00     0.001 A 
ATOM     84  C   UNL     1      -9.161  -0.766   3.626  1.00  0.00     0.001 A 
ATOM     85  C   UNL     1     -10.490  -0.884   3.224  1.00  0.00     0.000 A 
ENDBRANCH  61  80
BRANCH  73  86
ATOM     86  C   UNL     1     -10.815   4.822  10.405  1.00  0.00    -0.014 A 
ATOM     87  C   UNL     1     -10.590   3.742  11.273  1.00  0.00     0.009 A 
ATOM     88  C   UNL     1     -11.908   5.670  10.646  1.00  0.00     0.009 A 
ATOM     89  C   UNL     1     -11.463   3.497  12.336  1.00  0.00     0.001 A 
ATOM     90  C   UNL     1     -12.758   5.443  11.730  1.00  0.00     0.001 A 
ATOM     91  C   UNL     1     -12.541   4.350  12.566  1.00  0.00     0.000 A 
ENDBRANCH  73  86
ENDBRANCH  47  48
ENDBRANCH  39  42
ENDBRANCH  37  38
ENDBRANCH  36  37
ENDBRANCH  35  36
ENDBRANCH   1  35
TORSDOF 16
