REMARK SMILES O=C(CCNC(=O)CSc1nc2[nH]cnc2c(=O)[nH]1)NCCCCCCNC(=O)c1ccc(-c2c3nc(c(-c4ccccc4)c4ccc([nH]4)c(-c4ccccc4)c4nc(c(-c5ccccc5)c5ccc2[nH]5)C=C4)C=C3)cc1
REMARK SMILES IDX 22 1 21 2 20 3 1 4 2 5 3 7 4 8 5 9 6 10 7 12 8 13 9 14 10 15
REMARK SMILES IDX 11 16 19 17 12 18 17 19 13 21 16 22 18 23 14 24 15 26 23 27
REMARK SMILES IDX 24 28 25 29 26 30 27 31 28 32 29 34 30 35 31 36 77 37 32 38
REMARK SMILES IDX 76 39 33 40 34 41 35 42 70 43 36 44 75 45 69 46 71 47 37 48
REMARK SMILES IDX 74 49 68 50 67 51 38 53 60 54 45 55 59 56 46 57 49 58 58 59
REMARK SMILES IDX 72 60 47 61 48 62 57 64 73 65 50 66 39 67 40 68 44 69 41 70
REMARK SMILES IDX 43 71 42 72 61 73 62 74 66 75 63 76 65 77 64 78 51 79 52 80
REMARK SMILES IDX 56 81 53 82 55 83 54 84
REMARK H PARENT 20 6 5 11 19 20 13 25 27 33 71 52 49 63
REMARK Flexibility Score: inf
ROOT
ATOM      1  C   UNL     1       2.730   2.898  -1.707  1.00  0.00     0.021 C 
ENDROOT
BRANCH   1   2
ATOM      2  C   UNL     1       2.201   1.466  -1.700  1.00  0.00     0.116 C 
BRANCH   2   3
ATOM      3  N   UNL     1       2.833   0.675  -0.664  1.00  0.00    -0.356 N 
ATOM      4  O   UNL     1       0.938  -0.415   0.045  1.00  0.00    -0.275 OA
ATOM      5  C   UNL     1       2.146  -0.223   0.119  1.00  0.00     0.221 C 
ATOM      6  H   UNL     1       3.799   0.785  -0.513  1.00  0.00     0.163 HD
BRANCH   5   7
ATOM      7  C   UNL     1       3.030  -0.983   1.083  1.00  0.00     0.121 C 
BRANCH   7   8
ATOM      8  C   UNL     1       3.851  -2.039   0.347  1.00  0.00     0.125 C 
BRANCH   8   9
ATOM      9  N   UNL     1       4.952  -1.447  -0.404  1.00  0.00    -0.355 N 
ATOM     10  C   UNL     1       6.262  -1.297  -0.053  1.00  0.00     0.230 C 
ATOM     11  H   UNL     1       4.715  -1.104  -1.296  1.00  0.00     0.163 HD
ATOM     12  O   UNL     1       6.966  -0.555  -0.741  1.00  0.00    -0.274 OA
BRANCH  10  13
ATOM     13  C   UNL     1       6.850  -2.095   1.092  1.00  0.00     0.178 C 
BRANCH  13  14
ATOM     14  S   UNL     1       6.356  -1.519   2.727  1.00  0.00    -0.078 SA
BRANCH  14  15
ATOM     15  C   UNL     1       6.876   0.133   2.664  1.00  0.00     0.170 A 
ATOM     16  N   UNL     1       6.038   1.082   2.364  1.00  0.00    -0.204 NA
ATOM     17  N   UNL     1       8.192   0.301   3.035  1.00  0.00    -0.299 N 
ATOM     18  C   UNL     1       6.604   2.305   2.482  1.00  0.00     0.165 A 
ATOM     19  C   UNL     1       8.800   1.540   3.154  1.00  0.00     0.279 A 
ATOM     20  H   UNL     1       8.729  -0.502   3.225  1.00  0.00     0.172 HD
ATOM     21  N   UNL     1       5.972   3.500   2.313  1.00  0.00    -0.329 N 
ATOM     22  C   UNL     1       7.891   2.627   2.852  1.00  0.00     0.172 A 
ATOM     23  O   UNL     1       9.971   1.656   3.504  1.00  0.00    -0.267 OA
ATOM     24  C   UNL     1       6.889   4.483   2.589  1.00  0.00     0.199 A 
ATOM     25  H   UNL     1       5.035   3.634   2.044  1.00  0.00     0.169 HD
ATOM     26  N   UNL     1       8.066   3.986   2.913  1.00  0.00    -0.229 NA
ENDBRANCH  14  15
ENDBRANCH  13  14
ENDBRANCH  10  13
ENDBRANCH   8   9
ENDBRANCH   7   8
ENDBRANCH   5   7
ENDBRANCH   2   3
ENDBRANCH   1   2
BRANCH   1  27
ATOM     27  C   UNL     1       4.231   3.025  -2.003  1.00  0.00     0.002 C 
BRANCH  27  28
ATOM     28  C   UNL     1       4.676   2.492  -3.369  1.00  0.00     0.002 C 
BRANCH  28  29
ATOM     29  C   UNL     1       3.994   3.145  -4.573  1.00  0.00     0.021 C 
BRANCH  29  30
ATOM     30  C   UNL     1       4.137   4.663  -4.646  1.00  0.00     0.116 C 
BRANCH  30  31
ATOM     31  N   UNL     1       5.520   5.087  -4.807  1.00  0.00    -0.352 N 
ATOM     32  C   UNL     1       6.073   5.917  -5.751  1.00  0.00     0.251 C 
ATOM     33  H   UNL     1       6.150   4.727  -4.141  1.00  0.00     0.163 HD
ATOM     34  O   UNL     1       7.291   6.037  -5.836  1.00  0.00    -0.269 OA
BRANCH  32  35
ATOM     35  C   UNL     1       5.197   6.645  -6.693  1.00  0.00     0.039 A 
ATOM     36  C   UNL     1       5.515   6.636  -8.053  1.00  0.00     0.014 A 
ATOM     37  C   UNL     1       4.058   7.317  -6.240  1.00  0.00     0.014 A 
ATOM     38  C   UNL     1       4.646   7.233  -8.970  1.00  0.00     0.010 A 
ATOM     39  C   UNL     1       3.157   7.846  -7.160  1.00  0.00     0.010 A 
ATOM     40  C   UNL     1       3.437   7.800  -8.535  1.00  0.00    -0.014 A 
BRANCH  40  41
ATOM     41  C   UNL     1       2.438   8.315  -9.505  1.00  0.00     0.031 A 
ATOM     42  C   UNL     1       2.057   9.768  -9.511  1.00  0.00     0.074 A 
ATOM     43  C   UNL     1       1.813   7.454 -10.331  1.00  0.00     0.049 A 
ATOM     44  N   UNL     1       1.157  10.383 -10.238  1.00  0.00    -0.248 NA
ATOM     45  C   UNL     1       2.763  10.642  -8.561  1.00  0.00     0.031 C 
ATOM     46  C   UNL     1       2.058   6.011 -10.393  1.00  0.00     0.029 A 
ATOM     47  N   UNL     1       0.832   7.665 -11.268  1.00  0.00    -0.354 N 
ATOM     48  C   UNL     1       1.181  11.709  -9.826  1.00  0.00     0.074 A 
ATOM     49  C   UNL     1       2.144  11.798  -8.748  1.00  0.00     0.031 C 
ATOM     50  C   UNL     1       1.263   5.471 -11.330  1.00  0.00     0.029 A 
ATOM     51  C   UNL     1       0.420   6.517 -11.900  1.00  0.00     0.049 A 
ATOM     52  H   UNL     1       0.459   8.554 -11.469  1.00  0.00     0.167 HD
ATOM     53  C   UNL     1       0.479  12.761 -10.311  1.00  0.00     0.031 A 
ATOM     54  C   UNL     1      -0.541   6.319 -12.822  1.00  0.00     0.031 A 
ATOM     55  C   UNL     1      -0.488  12.669 -11.373  1.00  0.00     0.049 A 
ATOM     56  C   UNL     1      -1.334   7.495 -13.321  1.00  0.00     0.074 A 
ATOM     57  C   UNL     1      -1.214  13.685 -11.969  1.00  0.00     0.029 A 
ATOM     58  N   UNL     1      -0.875  11.488 -11.989  1.00  0.00    -0.354 N 
ATOM     59  N   UNL     1      -1.244   8.756 -12.976  1.00  0.00    -0.248 NA
ATOM     60  C   UNL     1      -2.354   7.220 -14.343  1.00  0.00     0.031 C 
ATOM     61  C   UNL     1      -2.088  13.112 -12.898  1.00  0.00     0.029 A 
ATOM     62  C   UNL     1      -1.857  11.746 -12.932  1.00  0.00     0.049 A 
ATOM     63  H   UNL     1      -0.507  10.598 -11.786  1.00  0.00     0.167 HD
ATOM     64  C   UNL     1      -2.180   9.429 -13.752  1.00  0.00     0.074 A 
ATOM     65  C   UNL     1      -2.811   8.438 -14.599  1.00  0.00     0.031 C 
ATOM     66  C   UNL     1      -2.488  10.749 -13.760  1.00  0.00     0.031 A 
BRANCH  53  67
ATOM     67  C   UNL     1       0.724  14.104  -9.674  1.00  0.00    -0.014 A 
ATOM     68  C   UNL     1       1.954  14.767  -9.816  1.00  0.00     0.009 A 
ATOM     69  C   UNL     1      -0.295  14.722  -8.934  1.00  0.00     0.009 A 
ATOM     70  C   UNL     1       2.175  15.995  -9.189  1.00  0.00     0.001 A 
ATOM     71  C   UNL     1      -0.084  15.967  -8.337  1.00  0.00     0.001 A 
ATOM     72  C   UNL     1       1.155  16.595  -8.453  1.00  0.00     0.000 A 
ENDBRANCH  53  67
BRANCH  54  73
ATOM     73  C   UNL     1      -0.810   4.946 -13.325  1.00  0.00    -0.014 A 
ATOM     74  C   UNL     1      -0.477   4.585 -14.639  1.00  0.00     0.009 A 
ATOM     75  C   UNL     1      -1.387   3.982 -12.483  1.00  0.00     0.009 A 
ATOM     76  C   UNL     1      -0.736   3.294 -15.105  1.00  0.00     0.001 A 
ATOM     77  C   UNL     1      -1.615   2.683 -12.941  1.00  0.00     0.001 A 
ATOM     78  C   UNL     1      -1.298   2.343 -14.255  1.00  0.00     0.000 A 
ENDBRANCH  54  73
BRANCH  66  79
ATOM     79  C   UNL     1      -3.543  11.205 -14.731  1.00  0.00    -0.014 A 
ATOM     80  C   UNL     1      -4.896  10.885 -14.542  1.00  0.00     0.009 A 
ATOM     81  C   UNL     1      -3.181  12.005 -15.826  1.00  0.00     0.009 A 
ATOM     82  C   UNL     1      -5.861  11.332 -15.448  1.00  0.00     0.001 A 
ATOM     83  C   UNL     1      -4.150  12.477 -16.712  1.00  0.00     0.001 A 
ATOM     84  C   UNL     1      -5.488  12.133 -16.527  1.00  0.00     0.000 A 
ENDBRANCH  66  79
ENDBRANCH  40  41
ENDBRANCH  32  35
ENDBRANCH  30  31
ENDBRANCH  29  30
ENDBRANCH  28  29
ENDBRANCH  27  28
ENDBRANCH   1  27
TORSDOF 18
