REMARK SMILES C[C@@H](C(=O)NCCCCCCNC(=O)c1ccc(-c2c3nc(c(-c4ccccc4)c4ccc([nH]4)c(-c4ccccc4)c4nc(c(-c5ccccc5)c5ccc2[nH]5)C=C4)C=C3)cc1)c1ccc(C[C@H]2CCCC2=O)cc1[N+](=O)[O-]
REMARK SMILES IDX 8 1 7 2 6 3 5 4 3 5 4 6 2 8 1 9 63 10 64 11 75 12 65 13
REMARK SMILES IDX 74 14 66 15 76 16 77 17 78 18 67 19 68 20 69 21 72 22 70 23
REMARK SMILES IDX 71 24 73 25 9 26 10 27 11 28 12 29 13 30 14 32 15 33 16 34
REMARK SMILES IDX 62 35 17 36 61 37 18 38 19 39 20 40 55 41 21 42 60 43 54 44
REMARK SMILES IDX 56 45 22 46 59 47 53 48 52 49 23 51 45 52 30 53 44 54 31 55
REMARK SMILES IDX 34 56 43 57 57 58 32 59 33 60 42 62 58 63 35 64 24 65 25 66
REMARK SMILES IDX 29 67 26 68 28 69 27 70 46 71 47 72 51 73 48 74 50 75 49 76
REMARK SMILES IDX 36 77 37 78 41 79 38 80 40 81 39 82
REMARK H PARENT 5 7 12 31 56 50 34 61
REMARK Flexibility Score: inf
ROOT
ATOM      1  C   UNL     1       4.929  -1.504   2.539  1.00  0.00     0.002 C 
ENDROOT
BRANCH   1   2
ATOM      2  C   UNL     1       4.193  -0.918   1.327  1.00  0.00     0.021 C 
BRANCH   2   3
ATOM      3  C   UNL     1       3.342  -1.943   0.573  1.00  0.00     0.116 C 
BRANCH   3   4
ATOM      4  N   UNL     1       2.217  -2.339   1.394  1.00  0.00    -0.356 N 
ATOM      5  C   UNL     1       0.915  -1.948   1.324  1.00  0.00     0.227 C 
ATOM      6  O   UNL     1       0.182  -2.243   2.272  1.00  0.00    -0.274 OA
ATOM      7  H   UNL     1       2.424  -2.986   2.107  1.00  0.00     0.163 HD
BRANCH   5   8
ATOM      8  C   UNL     1       0.390  -1.218   0.073  1.00  0.00     0.112 C 
ATOM      9  C   UNL     1       0.895   0.236   0.099  1.00  0.00     0.023 C 
BRANCH   8  10
ATOM     10  C   UNL     1      -1.142  -1.346  -0.036  1.00  0.00     0.042 A 
ATOM     11  C   UNL     1      -1.939  -0.191  -0.135  1.00  0.00     0.012 A 
ATOM     12  C   UNL     1      -1.832  -2.585   0.020  1.00  0.00     0.273 A 
ATOM     13  C   UNL     1      -3.331  -0.249  -0.093  1.00  0.00     0.004 A 
ATOM     14  C   UNL     1      -3.238  -2.636   0.117  1.00  0.00     0.089 A 
ATOM     15  C   UNL     1      -3.994  -1.460   0.103  1.00  0.00    -0.040 A 
BRANCH  12  16
ATOM     16  N   UNL     1      -1.131  -3.879  -0.039  1.00  0.00     0.063 N 
ATOM     17  O   UNL     1      -1.650  -4.843   0.542  1.00  0.00    -0.258 OA
ATOM     18  O   UNL     1      -0.098  -3.945  -0.722  1.00  0.00    -0.258 OA
ENDBRANCH  12  16
BRANCH  15  19
ATOM     19  C   UNL     1      -5.491  -1.485   0.300  1.00  0.00     0.047 C 
BRANCH  19  20
ATOM     20  C   UNL     1      -6.012  -0.927   1.634  1.00  0.00     0.060 C 
ATOM     21  C   UNL     1      -5.474  -1.592   2.905  1.00  0.00     0.012 C 
ATOM     22  C   UNL     1      -5.647   0.523   1.859  1.00  0.00     0.136 C 
ATOM     23  C   UNL     1      -4.352  -0.698   3.421  1.00  0.00     0.009 C 
ATOM     24  C   UNL     1      -4.759   0.723   3.059  1.00  0.00     0.076 C 
ATOM     25  O   UNL     1      -6.035   1.441   1.145  1.00  0.00    -0.299 OA
ENDBRANCH  19  20
ENDBRANCH  15  19
ENDBRANCH   8  10
ENDBRANCH   5   8
ENDBRANCH   3   4
ENDBRANCH   2   3
ENDBRANCH   1   2
BRANCH   1  26
ATOM     26  C   UNL     1       5.891  -2.650   2.208  1.00  0.00     0.002 C 
BRANCH  26  27
ATOM     27  C   UNL     1       6.929  -2.315   1.136  1.00  0.00     0.021 C 
BRANCH  27  28
ATOM     28  C   UNL     1       7.826  -1.136   1.490  1.00  0.00     0.116 C 
BRANCH  28  29
ATOM     29  N   UNL     1       8.673  -1.425   2.638  1.00  0.00    -0.352 N 
ATOM     30  C   UNL     1      10.039  -1.340   2.735  1.00  0.00     0.251 C 
ATOM     31  H   UNL     1       8.204  -1.720   3.452  1.00  0.00     0.163 HD
ATOM     32  O   UNL     1      10.633  -1.811   3.699  1.00  0.00    -0.269 OA
BRANCH  30  33
ATOM     33  C   UNL     1      10.790  -0.684   1.648  1.00  0.00     0.039 A 
ATOM     34  C   UNL     1      11.894  -1.332   1.091  1.00  0.00     0.014 A 
ATOM     35  C   UNL     1      10.370   0.557   1.161  1.00  0.00     0.014 A 
ATOM     36  C   UNL     1      12.545  -0.761  -0.004  1.00  0.00     0.010 A 
ATOM     37  C   UNL     1      10.970   1.085   0.025  1.00  0.00     0.010 A 
ATOM     38  C   UNL     1      12.066   0.434  -0.565  1.00  0.00    -0.014 A 
BRANCH  38  39
ATOM     39  C   UNL     1      12.692   1.042  -1.764  1.00  0.00     0.031 A 
ATOM     40  C   UNL     1      13.317   2.404  -1.666  1.00  0.00     0.074 A 
ATOM     41  C   UNL     1      12.600   0.424  -2.956  1.00  0.00     0.049 A 
ATOM     42  N   UNL     1      13.784   3.171  -2.617  1.00  0.00    -0.248 NA
ATOM     43  C   UNL     1      13.392   2.997  -0.321  1.00  0.00     0.031 C 
ATOM     44  C   UNL     1      11.983  -0.883  -3.189  1.00  0.00     0.029 A 
ATOM     45  N   UNL     1      13.003   0.830  -4.204  1.00  0.00    -0.354 N 
ATOM     46  C   UNL     1      14.177   4.346  -1.991  1.00  0.00     0.074 A 
ATOM     47  C   UNL     1      13.850   4.210  -0.589  1.00  0.00     0.031 C 
ATOM     48  C   UNL     1      12.052  -1.172  -4.498  1.00  0.00     0.029 A 
ATOM     49  C   UNL     1      12.673  -0.054  -5.202  1.00  0.00     0.049 A 
ATOM     50  H   UNL     1      13.483   1.674  -4.367  1.00  0.00     0.167 HD
ATOM     51  C   UNL     1      14.770   5.437  -2.532  1.00  0.00     0.031 A 
ATOM     52  C   UNL     1      12.828   0.035  -6.536  1.00  0.00     0.031 A 
ATOM     53  C   UNL     1      15.098   5.564  -3.926  1.00  0.00     0.049 A 
ATOM     54  C   UNL     1      13.478   1.258  -7.122  1.00  0.00     0.074 A 
ATOM     55  C   UNL     1      15.761   6.597  -4.564  1.00  0.00     0.029 A 
ATOM     56  N   UNL     1      14.777   4.630  -4.900  1.00  0.00    -0.354 N 
ATOM     57  N   UNL     1      13.914   2.332  -6.510  1.00  0.00    -0.248 NA
ATOM     58  C   UNL     1      13.666   1.277  -8.580  1.00  0.00     0.031 C 
ATOM     59  C   UNL     1      15.786   6.317  -5.934  1.00  0.00     0.029 A 
ATOM     60  C   UNL     1      15.199   5.078  -6.140  1.00  0.00     0.049 A 
ATOM     61  H   UNL     1      14.317   3.775  -4.734  1.00  0.00     0.167 HD
ATOM     62  C   UNL     1      14.453   3.142  -7.500  1.00  0.00     0.074 A 
ATOM     63  C   UNL     1      14.294   2.433  -8.754  1.00  0.00     0.031 C 
ATOM     64  C   UNL     1      15.034   4.360  -7.379  1.00  0.00     0.031 A 
BRANCH  51  65
ATOM     65  C   UNL     1      15.068   6.586  -1.609  1.00  0.00    -0.014 A 
ATOM     66  C   UNL     1      16.026   6.479  -0.587  1.00  0.00     0.009 A 
ATOM     67  C   UNL     1      14.376   7.798  -1.762  1.00  0.00     0.009 A 
ATOM     68  C   UNL     1      16.242   7.539   0.296  1.00  0.00     0.001 A 
ATOM     69  C   UNL     1      14.620   8.869  -0.901  1.00  0.00     0.001 A 
ATOM     70  C   UNL     1      15.540   8.733   0.137  1.00  0.00     0.000 A 
ENDBRANCH  51  65
BRANCH  52  71
ATOM     71  C   UNL     1      12.353  -1.075  -7.402  1.00  0.00    -0.014 A 
ATOM     72  C   UNL     1      13.268  -1.938  -8.023  1.00  0.00     0.009 A 
ATOM     73  C   UNL     1      10.979  -1.303  -7.576  1.00  0.00     0.009 A 
ATOM     74  C   UNL     1      12.815  -3.000  -8.811  1.00  0.00     0.001 A 
ATOM     75  C   UNL     1      10.529  -2.381  -8.342  1.00  0.00     0.001 A 
ATOM     76  C   UNL     1      11.447  -3.225  -8.963  1.00  0.00     0.000 A 
ENDBRANCH  52  71
BRANCH  64  77
ATOM     77  C   UNL     1      15.582   5.000  -8.624  1.00  0.00    -0.014 A 
ATOM     78  C   UNL     1      14.736   5.560  -9.592  1.00  0.00     0.009 A 
ATOM     79  C   UNL     1      16.972   5.119  -8.783  1.00  0.00     0.009 A 
ATOM     80  C   UNL     1      15.273   6.215 -10.703  1.00  0.00     0.001 A 
ATOM     81  C   UNL     1      17.506   5.797  -9.879  1.00  0.00     0.001 A 
ATOM     82  C   UNL     1      16.656   6.341 -10.840  1.00  0.00     0.000 A 
ENDBRANCH  64  77
ENDBRANCH  38  39
ENDBRANCH  30  33
ENDBRANCH  28  29
ENDBRANCH  27  28
ENDBRANCH  26  27
ENDBRANCH   1  26
TORSDOF 17
