REMARK SMILES O=C(/C=C/c1ccccc1)Nc1ccc(O)cc1C(=O)NCCCCCCNC(=O)c1ccc(-c2c3nc(c(-c4ccccc4)c4ccc([nH]4)c(-c4ccccc4)c4nc(c(-c5ccccc5)c5ccc2[nH]5)C=C4)C=C3)cc1
REMARK SMILES IDX 24 1 23 2 22 3 21 4 19 5 20 6 18 8 12 9 13 10 14 11 17 12
REMARK SMILES IDX 15 13 11 14 1 15 2 16 3 18 4 19 5 20 6 21 10 22 7 23 9 24
REMARK SMILES IDX 8 25 16 26 25 28 26 29 27 30 28 31 29 32 30 34 31 35 32 36
REMARK SMILES IDX 78 37 33 38 77 39 34 40 35 41 36 42 71 43 37 44 76 45 70 46
REMARK SMILES IDX 72 47 38 48 75 49 69 50 68 51 39 53 61 54 46 55 60 56 47 57
REMARK SMILES IDX 50 58 59 59 73 60 48 61 49 62 58 64 74 65 51 66 40 67 41 68
REMARK SMILES IDX 45 69 42 70 44 71 43 72 62 73 63 74 67 75 64 76 66 77 65 78
REMARK SMILES IDX 52 79 53 80 57 81 54 82 56 83 55 84
REMARK H PARENT 21 7 11 17 16 27 28 33 72 52 50 63
REMARK Flexibility Score: inf
ROOT
ATOM      1  C   UNL     1       2.934  -2.810  -2.580  1.00  0.00     0.002 C 
ENDROOT
BRANCH   1   2
ATOM      2  C   UNL     1       3.450  -2.473  -1.170  1.00  0.00     0.021 C 
BRANCH   2   3
ATOM      3  C   UNL     1       2.621  -1.539  -0.282  1.00  0.00     0.116 C 
BRANCH   3   4
ATOM      4  N   UNL     1       1.363  -2.037   0.224  1.00  0.00    -0.352 N 
ATOM      5  C   UNL     1       0.597  -1.700   1.328  1.00  0.00     0.253 C 
ATOM      6  O   UNL     1      -0.562  -2.134   1.312  1.00  0.00    -0.269 OA
ATOM      7  H   UNL     1       0.973  -2.757  -0.323  1.00  0.00     0.163 HD
BRANCH   5   8
ATOM      8  C   UNL     1       1.064  -1.025   2.599  1.00  0.00     0.067 A 
ATOM      9  C   UNL     1       2.016  -0.010   2.809  1.00  0.00     0.054 A 
ATOM     10  C   UNL     1       2.445   0.302   4.121  1.00  0.00     0.031 A 
ATOM     11  C   UNL     1       1.830  -0.253   5.236  1.00  0.00     0.048 A 
ATOM     12  C   UNL     1       0.434  -1.549   3.759  1.00  0.00     0.062 A 
ATOM     13  C   UNL     1       0.794  -1.142   5.045  1.00  0.00     0.116 A 
BRANCH   9  14
ATOM     14  N   UNL     1       2.583   0.839   1.849  1.00  0.00    -0.322 N 
ATOM     15  O   UNL     1       0.790   1.208   0.432  1.00  0.00    -0.270 OA
ATOM     16  C   UNL     1       1.978   1.275   0.702  1.00  0.00     0.248 C 
ATOM     17  H   UNL     1       3.502   1.149   2.015  1.00  0.00     0.170 HD
BRANCH  16  18
ATOM     18  C   UNL     1       2.930   1.871  -0.272  1.00  0.00     0.072 C 
ATOM     19  C   UNL     1       4.218   1.490  -0.306  1.00  0.00     0.014 C 
BRANCH  19  20
ATOM     20  C   UNL     1       5.188   1.831  -1.346  1.00  0.00    -0.025 A 
ATOM     21  C   UNL     1       6.400   1.122  -1.364  1.00  0.00     0.008 A 
ATOM     22  C   UNL     1       4.944   2.804  -2.320  1.00  0.00     0.008 A 
ATOM     23  C   UNL     1       7.365   1.413  -2.316  1.00  0.00     0.001 A 
ATOM     24  C   UNL     1       5.903   3.083  -3.284  1.00  0.00     0.001 A 
ATOM     25  C   UNL     1       7.114   2.405  -3.256  1.00  0.00     0.000 A 
ENDBRANCH  19  20
ENDBRANCH  16  18
ENDBRANCH   9  14
BRANCH  13  26
ATOM     26  O   UNL     1       0.146  -1.601   6.152  1.00  0.00    -0.508 OA
ATOM     27  H   UNL     1       0.409  -1.310   7.003  1.00  0.00     0.293 HD
ENDBRANCH  13  26
ENDBRANCH   5   8
ENDBRANCH   3   4
ENDBRANCH   2   3
ENDBRANCH   1   2
BRANCH   1  28
ATOM     28  C   UNL     1       2.623  -1.675  -3.571  1.00  0.00     0.002 C 
BRANCH  28  29
ATOM     29  C   UNL     1       3.679  -0.587  -3.816  1.00  0.00     0.021 C 
BRANCH  29  30
ATOM     30  C   UNL     1       5.053  -0.998  -4.367  1.00  0.00     0.116 C 
BRANCH  30  31
ATOM     31  N   UNL     1       5.069  -1.234  -5.804  1.00  0.00    -0.352 N 
ATOM     32  C   UNL     1       5.889  -0.736  -6.797  1.00  0.00     0.251 C 
ATOM     33  H   UNL     1       4.375  -1.855  -6.123  1.00  0.00     0.163 HD
ATOM     34  O   UNL     1       5.638  -1.017  -7.969  1.00  0.00    -0.269 OA
BRANCH  32  35
ATOM     35  C   UNL     1       7.060   0.147  -6.524  1.00  0.00     0.039 A 
ATOM     36  C   UNL     1       7.262   1.267  -7.343  1.00  0.00     0.014 A 
ATOM     37  C   UNL     1       8.021  -0.147  -5.559  1.00  0.00     0.014 A 
ATOM     38  C   UNL     1       8.364   2.124  -7.149  1.00  0.00     0.010 A 
ATOM     39  C   UNL     1       9.101   0.735  -5.341  1.00  0.00     0.010 A 
ATOM     40  C   UNL     1       9.282   1.906  -6.109  1.00  0.00    -0.014 A 
BRANCH  40  41
ATOM     41  C   UNL     1      10.363   2.913  -5.782  1.00  0.00     0.031 A 
ATOM     42  C   UNL     1      11.817   2.502  -5.662  1.00  0.00     0.074 A 
ATOM     43  C   UNL     1      10.066   4.207  -5.502  1.00  0.00     0.049 A 
ATOM     44  N   UNL     1      12.863   3.231  -5.343  1.00  0.00    -0.248 NA
ATOM     45  C   UNL     1      12.134   1.087  -5.901  1.00  0.00     0.031 C 
ATOM     46  C   UNL     1       8.729   4.803  -5.497  1.00  0.00     0.029 A 
ATOM     47  N   UNL     1      10.883   5.262  -5.142  1.00  0.00    -0.354 N 
ATOM     48  C   UNL     1      13.949   2.362  -5.324  1.00  0.00     0.074 A 
ATOM     49  C   UNL     1      13.421   1.040  -5.588  1.00  0.00     0.031 C 
ATOM     50  C   UNL     1       8.814   6.100  -5.161  1.00  0.00     0.029 A 
ATOM     51  C   UNL     1      10.211   6.445  -4.921  1.00  0.00     0.049 A 
ATOM     52  H   UNL     1      11.860   5.177  -5.053  1.00  0.00     0.167 HD
ATOM     53  C   UNL     1      15.269   2.623  -5.148  1.00  0.00     0.031 A 
ATOM     54  C   UNL     1      10.647   7.676  -4.579  1.00  0.00     0.031 A 
ATOM     55  C   UNL     1      15.842   3.925  -4.926  1.00  0.00     0.049 A 
ATOM     56  C   UNL     1      12.117   7.949  -4.397  1.00  0.00     0.074 A 
ATOM     57  C   UNL     1      17.182   4.271  -4.840  1.00  0.00     0.029 A 
ATOM     58  N   UNL     1      15.120   5.092  -4.754  1.00  0.00    -0.354 N 
ATOM     59  N   UNL     1      13.130   7.128  -4.507  1.00  0.00    -0.248 NA
ATOM     60  C   UNL     1      12.502   9.333  -4.070  1.00  0.00     0.031 C 
ATOM     61  C   UNL     1      17.269   5.640  -4.569  1.00  0.00     0.029 A 
ATOM     62  C   UNL     1      15.985   6.155  -4.540  1.00  0.00     0.049 A 
ATOM     63  H   UNL     1      14.138   5.158  -4.779  1.00  0.00     0.167 HD
ATOM     64  C   UNL     1      14.268   7.904  -4.309  1.00  0.00     0.074 A 
ATOM     65  C   UNL     1      13.825   9.260  -4.079  1.00  0.00     0.031 C 
ATOM     66  C   UNL     1      15.565   7.514  -4.327  1.00  0.00     0.031 A 
BRANCH  53  67
ATOM     67  C   UNL     1      16.213   1.451  -5.217  1.00  0.00    -0.014 A 
ATOM     68  C   UNL     1      16.450   0.787  -6.432  1.00  0.00     0.009 A 
ATOM     69  C   UNL     1      16.900   1.031  -4.068  1.00  0.00     0.009 A 
ATOM     70  C   UNL     1      17.311  -0.310  -6.482  1.00  0.00     0.001 A 
ATOM     71  C   UNL     1      17.788  -0.044  -4.129  1.00  0.00     0.001 A 
ATOM     72  C   UNL     1      17.982  -0.723  -5.331  1.00  0.00     0.000 A 
ENDBRANCH  53  67
BRANCH  54  73
ATOM     73  C   UNL     1       9.681   8.800  -4.427  1.00  0.00    -0.014 A 
ATOM     74  C   UNL     1       9.635   9.826  -5.386  1.00  0.00     0.009 A 
ATOM     75  C   UNL     1       8.851   8.888  -3.300  1.00  0.00     0.009 A 
ATOM     76  C   UNL     1       8.809  10.936  -5.199  1.00  0.00     0.001 A 
ATOM     77  C   UNL     1       8.003   9.986  -3.131  1.00  0.00     0.001 A 
ATOM     78  C   UNL     1       7.992  11.015  -4.073  1.00  0.00     0.000 A 
ENDBRANCH  54  73
BRANCH  66  79
ATOM     79  C   UNL     1      16.623   8.569  -4.145  1.00  0.00    -0.014 A 
ATOM     80  C   UNL     1      16.843   9.186  -2.904  1.00  0.00     0.009 A 
ATOM     81  C   UNL     1      17.451   8.913  -5.226  1.00  0.00     0.009 A 
ATOM     82  C   UNL     1      17.852  10.142  -2.756  1.00  0.00     0.001 A 
ATOM     83  C   UNL     1      18.477   9.848  -5.070  1.00  0.00     0.001 A 
ATOM     84  C   UNL     1      18.672  10.467  -3.837  1.00  0.00     0.000 A 
ENDBRANCH  66  79
ENDBRANCH  40  41
ENDBRANCH  32  35
ENDBRANCH  30  31
ENDBRANCH  29  30
ENDBRANCH  28  29
ENDBRANCH   1  28
TORSDOF 17
