REMARK SMILES C[C@H]1CCCC[C@@]1(NC(=O)N[C@@H]1CCOC1)C(=O)NCCCCCCNC(=O)c1ccc(-c2c3nc(c(-c4ccccc4)c4ccc([nH]4)c(-c4ccccc4)c4nc(c(-c5ccccc5)c5ccc2[nH]5)C=C4)C=C3)cc1
REMARK SMILES IDX 22 1 21 2 20 3 19 4 17 5 18 6 7 8 1 9 2 10 3 11 4 12 6 13
REMARK SMILES IDX 5 14 8 15 9 16 10 18 11 19 12 21 13 22 16 23 14 24 15 25
REMARK SMILES IDX 23 26 24 27 25 28 26 29 27 30 28 32 29 33 30 34 76 35 31 36
REMARK SMILES IDX 75 37 32 38 33 39 34 40 69 41 35 42 74 43 68 44 70 45 36 46
REMARK SMILES IDX 73 47 67 48 66 49 37 51 59 52 44 53 58 54 45 55 48 56 57 57
REMARK SMILES IDX 71 58 46 59 47 60 56 62 72 63 49 64 38 65 39 66 43 67 40 68
REMARK SMILES IDX 42 69 41 70 60 71 61 72 65 73 62 74 64 75 63 76 50 77 51 78
REMARK SMILES IDX 55 79 52 80 54 81 53 82
REMARK H PARENT 19 7 8 17 11 20 26 31 70 50 48 61
REMARK Flexibility Score: inf
ROOT
ATOM      1  C   UNL     1       0.105   2.452  -3.991  1.00  0.00     0.002 C 
ENDROOT
BRANCH   1   2
ATOM      2  C   UNL     1       0.171   2.290  -2.468  1.00  0.00     0.021 C 
BRANCH   2   3
ATOM      3  C   UNL     1      -0.991   1.528  -1.843  1.00  0.00     0.116 C 
BRANCH   3   4
ATOM      4  N   UNL     1      -0.959   0.111  -2.050  1.00  0.00    -0.354 N 
ATOM      5  C   UNL     1      -0.828  -0.921  -1.184  1.00  0.00     0.246 C 
ATOM      6  O   UNL     1      -1.531  -1.900  -1.488  1.00  0.00    -0.272 OA
ATOM      7  H   UNL     1      -1.048  -0.161  -2.992  1.00  0.00     0.163 HD
BRANCH   5   8
ATOM      8  C   UNL     1       0.086  -1.004   0.084  1.00  0.00     0.123 C 
ATOM      9  C   UNL     1       2.349   0.330  -0.055  1.00  0.00     0.011 C 
ATOM     10  C   UNL     1       1.036   0.076   0.685  1.00  0.00     0.021 C 
ATOM     11  C   UNL     1       0.391   1.388   1.161  1.00  0.00     0.006 C 
ATOM     12  C   UNL     1      -0.997   1.267   1.801  1.00  0.00     0.000 C 
ATOM     13  C   UNL     1      -0.989  -1.208   1.212  1.00  0.00     0.039 C 
ATOM     14  C   UNL     1      -1.831   0.052   1.407  1.00  0.00     0.003 C 
BRANCH   8  15
ATOM     15  N   UNL     1       0.858  -2.298  -0.024  1.00  0.00    -0.323 N 
ATOM     16  C   UNL     1       1.830  -2.817  -0.786  1.00  0.00     0.315 C 
ATOM     17  H   UNL     1       0.563  -2.943   0.659  1.00  0.00     0.166 HD
ATOM     18  O   UNL     1       2.559  -3.660  -0.255  1.00  0.00    -0.249 OA
ATOM     19  N   UNL     1       2.079  -2.531  -2.070  1.00  0.00    -0.333 N 
ATOM     20  H   UNL     1       2.959  -2.850  -2.375  1.00  0.00     0.165 HD
BRANCH  19  21
ATOM     21  C   UNL     1       1.324  -1.850  -3.111  1.00  0.00     0.112 C 
ATOM     22  C   UNL     1       0.170  -2.685  -3.628  1.00  0.00     0.056 C 
ATOM     23  C   UNL     1       2.117  -1.539  -4.381  1.00  0.00     0.185 C 
ATOM     24  C   UNL     1       0.638  -3.247  -4.945  1.00  0.00     0.162 C 
ATOM     25  O   UNL     1       1.658  -2.384  -5.443  1.00  0.00    -0.379 OA
ENDBRANCH  19  21
ENDBRANCH   8  15
ENDBRANCH   5   8
ENDBRANCH   3   4
ENDBRANCH   2   3
ENDBRANCH   1   2
BRANCH   1  26
ATOM     26  C   UNL     1      -1.241   2.918  -4.553  1.00  0.00     0.002 C 
BRANCH  26  27
ATOM     27  C   UNL     1      -1.877   4.110  -3.834  1.00  0.00     0.021 C 
BRANCH  27  28
ATOM     28  C   UNL     1      -1.014   5.359  -3.810  1.00  0.00     0.116 C 
BRANCH  28  29
ATOM     29  N   UNL     1      -0.860   5.925  -5.138  1.00  0.00    -0.352 N 
ATOM     30  C   UNL     1      -1.254   7.165  -5.582  1.00  0.00     0.251 C 
ATOM     31  H   UNL     1      -0.418   5.349  -5.803  1.00  0.00     0.163 HD
ATOM     32  O   UNL     1      -1.288   7.428  -6.773  1.00  0.00    -0.269 OA
BRANCH  30  33
ATOM     33  C   UNL     1      -1.649   8.175  -4.579  1.00  0.00     0.039 A 
ATOM     34  C   UNL     1      -2.850   8.868  -4.737  1.00  0.00     0.014 A 
ATOM     35  C   UNL     1      -0.838   8.396  -3.462  1.00  0.00     0.014 A 
ATOM     36  C   UNL     1      -3.269   9.750  -3.739  1.00  0.00     0.010 A 
ATOM     37  C   UNL     1      -1.296   9.207  -2.435  1.00  0.00     0.010 A 
ATOM     38  C   UNL     1      -2.509   9.903  -2.569  1.00  0.00    -0.014 A 
BRANCH  38  39
ATOM     39  C   UNL     1      -2.921  10.810  -1.471  1.00  0.00     0.031 A 
ATOM     40  C   UNL     1      -2.038  11.971  -1.110  1.00  0.00     0.074 A 
ATOM     41  C   UNL     1      -4.012  10.530  -0.735  1.00  0.00     0.049 A 
ATOM     42  N   UNL     1      -2.110  12.779  -0.084  1.00  0.00    -0.248 NA
ATOM     43  C   UNL     1      -0.897  12.232  -2.005  1.00  0.00     0.031 C 
ATOM     44  C   UNL     1      -4.937   9.421  -0.972  1.00  0.00     0.029 A 
ATOM     45  N   UNL     1      -4.512  11.149   0.383  1.00  0.00    -0.354 N 
ATOM     46  C   UNL     1      -1.007  13.617  -0.191  1.00  0.00     0.074 A 
ATOM     47  C   UNL     1      -0.258  13.189  -1.351  1.00  0.00     0.031 C 
ATOM     48  C   UNL     1      -5.897   9.443  -0.034  1.00  0.00     0.029 A 
ATOM     49  C   UNL     1      -5.627  10.533   0.899  1.00  0.00     0.049 A 
ATOM     50  H   UNL     1      -4.111  11.957   0.778  1.00  0.00     0.167 HD
ATOM     51  C   UNL     1      -0.656  14.658   0.600  1.00  0.00     0.031 A 
ATOM     52  C   UNL     1      -6.336  10.801   2.012  1.00  0.00     0.031 A 
ATOM     53  C   UNL     1      -1.413  15.084   1.745  1.00  0.00     0.049 A 
ATOM     54  C   UNL     1      -5.918  11.949   2.890  1.00  0.00     0.074 A 
ATOM     55  C   UNL     1      -1.178  16.162   2.580  1.00  0.00     0.029 A 
ATOM     56  N   UNL     1      -2.550  14.448   2.219  1.00  0.00    -0.354 N 
ATOM     57  N   UNL     1      -4.903  12.768   2.750  1.00  0.00    -0.248 NA
ATOM     58  C   UNL     1      -6.748  12.216   4.073  1.00  0.00     0.031 C 
ATOM     59  C   UNL     1      -2.139  16.141   3.595  1.00  0.00     0.029 A 
ATOM     60  C   UNL     1      -3.014  15.095   3.351  1.00  0.00     0.049 A 
ATOM     61  H   UNL     1      -2.966  13.654   1.810  1.00  0.00     0.167 HD
ATOM     62  C   UNL     1      -4.994  13.670   3.803  1.00  0.00     0.074 A 
ATOM     63  C   UNL     1      -6.164  13.298   4.572  1.00  0.00     0.031 C 
ATOM     64  C   UNL     1      -4.187  14.717   4.098  1.00  0.00     0.031 A 
BRANCH  51  65
ATOM     65  C   UNL     1       0.616  15.385   0.261  1.00  0.00    -0.014 A 
ATOM     66  C   UNL     1       0.739  16.144  -0.915  1.00  0.00     0.009 A 
ATOM     67  C   UNL     1       1.710  15.317   1.139  1.00  0.00     0.009 A 
ATOM     68  C   UNL     1       1.946  16.773  -1.229  1.00  0.00     0.001 A 
ATOM     69  C   UNL     1       2.902  15.978   0.841  1.00  0.00     0.001 A 
ATOM     70  C   UNL     1       3.024  16.693  -0.349  1.00  0.00     0.000 A 
ENDBRANCH  51  65
BRANCH  52  71
ATOM     71  C   UNL     1      -7.519   9.969   2.352  1.00  0.00    -0.014 A 
ATOM     72  C   UNL     1      -8.815  10.495   2.241  1.00  0.00     0.009 A 
ATOM     73  C   UNL     1      -7.362   8.638   2.772  1.00  0.00     0.009 A 
ATOM     74  C   UNL     1      -9.928   9.713   2.561  1.00  0.00     0.001 A 
ATOM     75  C   UNL     1      -8.477   7.849   3.062  1.00  0.00     0.001 A 
ATOM     76  C   UNL     1      -9.758   8.389   2.965  1.00  0.00     0.000 A 
ENDBRANCH  52  71
BRANCH  64  77
ATOM     77  C   UNL     1      -4.565  15.582   5.268  1.00  0.00    -0.014 A 
ATOM     78  C   UNL     1      -4.405  15.143   6.591  1.00  0.00     0.009 A 
ATOM     79  C   UNL     1      -5.011  16.894   5.035  1.00  0.00     0.009 A 
ATOM     80  C   UNL     1      -4.703  15.996   7.656  1.00  0.00     0.001 A 
ATOM     81  C   UNL     1      -5.278  17.753   6.100  1.00  0.00     0.001 A 
ATOM     82  C   UNL     1      -5.130  17.302   7.410  1.00  0.00     0.000 A 
ENDBRANCH  64  77
ENDBRANCH  38  39
ENDBRANCH  30  33
ENDBRANCH  28  29
ENDBRANCH  27  28
ENDBRANCH  26  27
ENDBRANCH   1  26
TORSDOF 15
