REMARK SMILES C[C@@H](C(=O)NCCCCCCNC(=O)c1ccc(-c2c3nc(c(-c4ccccc4)c4ccc([nH]4)c(-c4ccccc4)c4nc(c(-c5ccccc5)c5ccc2[nH]5)C=C4)C=C3)cc1)N(C)C(=O)NC[C@H]1C[N@@H+]2CCC[C@@H]2CO1
REMARK SMILES IDX 7 1 6 2 5 3 3 4 4 5 2 7 1 8 63 9 64 10 65 11 66 12 67 13
REMARK SMILES IDX 68 15 69 16 70 17 77 18 71 19 76 20 72 21 75 22 73 24 74 25
REMARK SMILES IDX 8 26 9 27 10 28 11 29 12 30 13 31 14 33 15 34 16 35 62 36
REMARK SMILES IDX 17 37 61 38 18 39 19 40 20 41 55 42 21 43 60 44 54 45 56 46
REMARK SMILES IDX 22 47 59 48 53 49 52 50 23 52 45 53 30 54 44 55 31 56 34 57
REMARK SMILES IDX 43 58 57 59 32 60 33 61 42 63 58 64 35 65 24 66 25 67 29 68
REMARK SMILES IDX 26 69 28 70 27 71 46 72 47 73 51 74 48 75 50 76 49 77 36 78
REMARK SMILES IDX 37 79 41 80 38 81 40 82 39 83
REMARK H PARENT 5 6 67 14 71 23 12 32 56 51 34 62
REMARK Flexibility Score: inf
ROOT
ATOM      1  C   UNL     1       4.202   0.532   1.498  1.00  0.00     0.021 C 
ENDROOT
BRANCH   1   2
ATOM      2  C   UNL     1       3.391  -0.712   1.857  1.00  0.00     0.116 C 
BRANCH   2   3
ATOM      3  N   UNL     1       2.288  -0.376   2.730  1.00  0.00    -0.354 N 
ATOM      4  C   UNL     1       0.944  -0.349   2.485  1.00  0.00     0.242 C 
ATOM      5  O   UNL     1       0.220  -0.092   3.451  1.00  0.00    -0.273 OA
ATOM      6  H   UNL     1       2.547  -0.126   3.646  1.00  0.00     0.163 HD
BRANCH   4   7
ATOM      7  C   UNL     1       0.398  -0.738   1.084  1.00  0.00     0.172 C 
ATOM      8  C   UNL     1       0.851   0.166  -0.070  1.00  0.00     0.042 C 
BRANCH   7   9
ATOM      9  N   UNL     1      -1.078  -0.903   1.133  1.00  0.00    -0.316 N 
ATOM     10  C   UNL     1      -1.552  -2.269   1.258  1.00  0.00     0.149 C 
BRANCH   9  11
ATOM     11  C   UNL     1      -1.848   0.228   1.153  1.00  0.00     0.317 C 
ATOM     12  O   UNL     1      -1.361   1.362   1.195  1.00  0.00    -0.249 OA
ATOM     13  N   UNL     1      -3.189   0.208   1.078  1.00  0.00    -0.335 N 
ATOM     14  H   UNL     1      -3.559   1.119   1.027  1.00  0.00     0.165 HD
BRANCH  13  15
ATOM     15  C   UNL     1      -4.242  -0.796   1.051  1.00  0.00     0.155 C 
BRANCH  15  16
ATOM     16  C   UNL     1      -4.855  -1.020   2.444  1.00  0.00     0.192 C 
ATOM     17  C   UNL     1      -5.756   0.171   2.884  1.00  0.00     0.296 C 
ATOM     18  O   UNL     1      -5.525  -2.302   2.440  1.00  0.00    -0.364 OA
ATOM     19  N   UNL     1      -7.123   0.101   2.345  1.00  0.00    -0.328 N 
ATOM     20  C   UNL     1      -6.761  -2.277   3.160  1.00  0.00     0.225 C 
ATOM     21  C   UNL     1      -8.020   1.088   2.960  1.00  0.00     0.262 C 
ATOM     22  C   UNL     1      -7.713  -1.245   2.535  1.00  0.00     0.210 C 
ATOM     23  H   UNL     1      -7.036   0.307   1.349  1.00  0.00     0.348 HD
ATOM     24  C   UNL     1      -9.369   0.394   3.024  1.00  0.00     0.068 C 
ATOM     25  C   UNL     1      -8.988  -1.038   3.344  1.00  0.00     0.073 C 
ENDBRANCH  15  16
ENDBRANCH  13  15
ENDBRANCH   9  11
ENDBRANCH   7   9
ENDBRANCH   4   7
ENDBRANCH   2   3
ENDBRANCH   1   2
BRANCH   1  26
ATOM     26  C   UNL     1       4.965   1.137   2.684  1.00  0.00     0.002 C 
BRANCH  26  27
ATOM     27  C   UNL     1       5.944   0.183   3.380  1.00  0.00     0.002 C 
BRANCH  27  28
ATOM     28  C   UNL     1       6.978  -0.463   2.456  1.00  0.00     0.021 C 
BRANCH  28  29
ATOM     29  C   UNL     1       7.873   0.531   1.722  1.00  0.00     0.116 C 
BRANCH  29  30
ATOM     30  N   UNL     1       8.709   1.291   2.640  1.00  0.00    -0.352 N 
ATOM     31  C   UNL     1      10.075   1.402   2.680  1.00  0.00     0.251 C 
ATOM     32  H   UNL     1       8.223   1.799   3.330  1.00  0.00     0.163 HD
ATOM     33  O   UNL     1      10.631   1.916   3.648  1.00  0.00    -0.269 OA
BRANCH  31  34
ATOM     34  C   UNL     1      10.883   0.874   1.562  1.00  0.00     0.039 A 
ATOM     35  C   UNL     1      11.995   0.077   1.846  1.00  0.00     0.014 A 
ATOM     36  C   UNL     1      10.530   1.149   0.238  1.00  0.00     0.014 A 
ATOM     37  C   UNL     1      12.706  -0.512   0.799  1.00  0.00     0.010 A 
ATOM     38  C   UNL     1      11.196   0.505  -0.801  1.00  0.00     0.010 A 
ATOM     39  C   UNL     1      12.283  -0.341  -0.530  1.00  0.00    -0.014 A 
BRANCH  39  40
ATOM     40  C   UNL     1      12.930  -1.075  -1.647  1.00  0.00     0.031 A 
ATOM     41  C   UNL     1      13.636  -0.325  -2.742  1.00  0.00     0.074 A 
ATOM     42  C   UNL     1      12.802  -2.415  -1.718  1.00  0.00     0.049 A 
ATOM     43  N   UNL     1      14.176  -0.788  -3.841  1.00  0.00    -0.248 NA
ATOM     44  C   UNL     1      13.728   1.137  -2.597  1.00  0.00     0.031 C 
ATOM     45  C   UNL     1      12.107  -3.255  -0.739  1.00  0.00     0.029 A 
ATOM     46  N   UNL     1      13.236  -3.307  -2.668  1.00  0.00    -0.354 N 
ATOM     47  C   UNL     1      14.649   0.323  -4.526  1.00  0.00     0.074 A 
ATOM     48  C   UNL     1      14.305   1.486  -3.739  1.00  0.00     0.031 C 
ATOM     49  C   UNL     1      12.174  -4.537  -1.131  1.00  0.00     0.029 A 
ATOM     50  C   UNL     1      12.869  -4.607  -2.412  1.00  0.00     0.049 A 
ATOM     51  H   UNL     1      13.761  -3.041  -3.457  1.00  0.00     0.167 HD
ATOM     52  C   UNL     1      15.319   0.367  -5.702  1.00  0.00     0.031 A 
ATOM     53  C   UNL     1      13.046  -5.728  -3.138  1.00  0.00     0.031 A 
ATOM     54  C   UNL     1      15.672  -0.793  -6.476  1.00  0.00     0.049 A 
ATOM     55  C   UNL     1      13.768  -5.641  -4.455  1.00  0.00     0.074 A 
ATOM     56  C   UNL     1      16.424  -0.853  -7.637  1.00  0.00     0.029 A 
ATOM     57  N   UNL     1      15.288  -2.090  -6.179  1.00  0.00    -0.354 N 
ATOM     58  N   UNL     1      14.297  -4.594  -5.039  1.00  0.00    -0.248 NA
ATOM     59  C   UNL     1      13.916  -6.892  -5.213  1.00  0.00     0.031 C 
ATOM     60  C   UNL     1      16.432  -2.178  -8.082  1.00  0.00     0.029 A 
ATOM     61  C   UNL     1      15.744  -2.951  -7.162  1.00  0.00     0.049 A 
ATOM     62  H   UNL     1      14.768  -2.359  -5.388  1.00  0.00     0.167 HD
ATOM     63  C   UNL     1      14.860  -5.063  -6.219  1.00  0.00     0.074 A 
ATOM     64  C   UNL     1      14.629  -6.492  -6.257  1.00  0.00     0.031 C 
ATOM     65  C   UNL     1      15.506  -4.371  -7.188  1.00  0.00     0.031 A 
BRANCH  52  66
ATOM     66  C   UNL     1      15.702   1.716  -6.245  1.00  0.00    -0.014 A 
ATOM     67  C   UNL     1      16.711   2.486  -5.648  1.00  0.00     0.009 A 
ATOM     68  C   UNL     1      15.097   2.185  -7.422  1.00  0.00     0.009 A 
ATOM     69  C   UNL     1      17.088   3.711  -6.204  1.00  0.00     0.001 A 
ATOM     70  C   UNL     1      15.495   3.395  -7.992  1.00  0.00     0.001 A 
ATOM     71  C   UNL     1      16.486   4.160  -7.379  1.00  0.00     0.000 A 
ENDBRANCH  52  66
BRANCH  53  72
ATOM     72  C   UNL     1      12.507  -7.029  -2.657  1.00  0.00    -0.014 A 
ATOM     73  C   UNL     1      13.371  -8.072  -2.288  1.00  0.00     0.009 A 
ATOM     74  C   UNL     1      11.121  -7.246  -2.596  1.00  0.00     0.009 A 
ATOM     75  C   UNL     1      12.859  -9.314  -1.907  1.00  0.00     0.001 A 
ATOM     76  C   UNL     1      10.612  -8.478  -2.180  1.00  0.00     0.001 A 
ATOM     77  C   UNL     1      11.481  -9.515  -1.850  1.00  0.00     0.000 A 
ENDBRANCH  53  72
BRANCH  65  78
ATOM     78  C   UNL     1      16.029  -5.148  -8.363  1.00  0.00    -0.014 A 
ATOM     79  C   UNL     1      15.161  -5.670  -9.333  1.00  0.00     0.009 A 
ATOM     80  C   UNL     1      17.414  -5.304  -8.533  1.00  0.00     0.009 A 
ATOM     81  C   UNL     1      15.668  -6.356 -10.439  1.00  0.00     0.001 A 
ATOM     82  C   UNL     1      17.920  -5.961  -9.655  1.00  0.00     0.001 A 
ATOM     83  C   UNL     1      17.047  -6.492 -10.603  1.00  0.00     0.000 A 
ENDBRANCH  65  78
ENDBRANCH  39  40
ENDBRANCH  31  34
ENDBRANCH  29  30
ENDBRANCH  28  29
ENDBRANCH  27  28
ENDBRANCH  26  27
ENDBRANCH   1  26
TORSDOF 17
