REMARK SMILES Cc1cc2c(N[C@@H]3CCCCC[C@@H]3C(=O)NCCCCCCNC(=O)c3ccc(-c4c5nc(c(-c6ccccc6)c6ccc([nH]6)c(-c6ccccc6)c6nc(c(-c7ccccc7)c7ccc4[nH]7)C=C6)C=C5)cc3)ncnc2s1
REMARK SMILES IDX 19 1 18 2 17 3 16 4 14 5 15 6 13 8 7 9 6 10 5 12 1 13 2 14
REMARK SMILES IDX 3 15 78 16 4 17 77 18 76 19 74 20 75 21 8 22 9 23 12 25
REMARK SMILES IDX 11 26 10 27 20 29 21 30 22 31 23 32 24 33 25 35 26 36 27 37
REMARK SMILES IDX 73 38 28 39 72 40 29 41 30 42 31 43 66 44 32 45 71 46 65 47
REMARK SMILES IDX 67 48 33 49 70 50 64 51 63 52 34 54 56 55 41 56 55 57 42 58
REMARK SMILES IDX 45 59 54 60 68 61 43 62 44 63 53 65 69 66 46 67 35 68 36 69
REMARK SMILES IDX 40 70 37 71 39 72 38 73 57 74 58 75 62 76 59 77 61 78 60 79
REMARK SMILES IDX 47 80 48 81 52 82 49 83 51 84 50 85
REMARK H PARENT 16 7 6 11 23 34 67 53 45 64
REMARK Flexibility Score: 100.00
ROOT
ATOM      1  C   UNL     1       4.532  -2.631  -4.929  1.00  0.00     0.002 C 
ENDROOT
BRANCH   1   2
ATOM      2  C   UNL     1       4.451  -2.170  -3.469  1.00  0.00     0.021 C 
BRANCH   2   3
ATOM      3  C   UNL     1       3.261  -2.758  -2.707  1.00  0.00     0.116 C 
BRANCH   3   4
ATOM      4  N   UNL     1       3.583  -4.073  -2.183  1.00  0.00    -0.356 N 
ATOM      5  C   UNL     1       3.828  -4.583  -0.951  1.00  0.00     0.225 C 
ATOM      6  O   UNL     1       4.228  -5.756  -0.929  1.00  0.00    -0.275 OA
ATOM      7  H   UNL     1       3.638  -4.756  -2.890  1.00  0.00     0.163 HD
BRANCH   5   8
ATOM      8  C   UNL     1       3.611  -3.852   0.387  1.00  0.00     0.101 C 
BRANCH   8   9
ATOM      9  C   UNL     1       2.529  -4.612   1.210  1.00  0.00     0.093 C 
BRANCH   9  10
ATOM     10  N   UNL     1       1.434  -5.228   0.453  1.00  0.00    -0.366 N 
ATOM     11  H   UNL     1       1.358  -6.197   0.613  1.00  0.00     0.162 HD
BRANCH  10  12
ATOM     12  C   UNL     1       0.492  -4.762  -0.425  1.00  0.00     0.138 A 
ATOM     13  C   UNL     1       0.229   0.312  -0.356  1.00  0.00     0.056 C 
ATOM     14  C   UNL     1      -0.110  -1.103  -0.666  1.00  0.00     0.004 A 
ATOM     15  C   UNL     1       0.255  -2.212   0.061  1.00  0.00     0.029 A 
ATOM     16  S   UNL     1      -1.000  -1.554  -2.046  1.00  0.00    -0.121 S 
ATOM     17  C   UNL     1       0.062  -3.440  -0.632  1.00  0.00     0.054 A 
ATOM     18  C   UNL     1      -0.744  -3.218  -1.740  1.00  0.00     0.129 A 
ATOM     19  N   UNL     1      -1.253  -4.151  -2.560  1.00  0.00    -0.225 NA
ATOM     20  N   UNL     1      -0.043  -5.726  -1.212  1.00  0.00    -0.219 NA
ATOM     21  C   UNL     1      -0.884  -5.381  -2.199  1.00  0.00     0.225 A 
ENDBRANCH  10  12
ENDBRANCH   9  10
BRANCH   9  22
ATOM     22  C   UNL     1       1.994  -4.050   2.535  1.00  0.00     0.026 C 
BRANCH  22  23
ATOM     23  C   UNL     1       2.908  -3.121   3.323  1.00  0.00     0.002 CG0
ATOM     24  G   UNL     1       2.986  -1.707   2.769  1.00  0.00     0.000 G0
ENDBRANCH  22  23
ENDBRANCH   9  22
ENDBRANCH   8   9
BRANCH   8  25
ATOM     25  C   UNL     1       3.616  -2.326   0.345  1.00  0.00     0.015 C 
BRANCH  25  26
ATOM     26  C   UNL     1       3.961  -1.562   1.616  1.00  0.00     0.001 C 
BRANCH  26  27
ATOM     27  C   UNL     1       2.986  -1.707   2.769  1.00  0.00     0.000 CG0
ATOM     28  G   UNL     1       2.908  -3.121   3.323  1.00  0.00     0.000 G0
ENDBRANCH  26  27
ENDBRANCH  25  26
ENDBRANCH   8  25
ENDBRANCH   5   8
ENDBRANCH   3   4
ENDBRANCH   2   3
ENDBRANCH   1   2
BRANCH   1  29
ATOM     29  C   UNL     1       3.279  -2.358  -5.776  1.00  0.00     0.002 C 
BRANCH  29  30
ATOM     30  C   UNL     1       2.718  -0.929  -5.714  1.00  0.00     0.021 C 
BRANCH  30  31
ATOM     31  C   UNL     1       3.659   0.117  -6.291  1.00  0.00     0.116 C 
BRANCH  31  32
ATOM     32  N   UNL     1       3.869  -0.071  -7.724  1.00  0.00    -0.352 N 
ATOM     33  C   UNL     1       4.677   0.644  -8.574  1.00  0.00     0.251 C 
ATOM     34  H   UNL     1       3.363  -0.808  -8.136  1.00  0.00     0.163 HD
ATOM     35  O   UNL     1       4.492   0.612  -9.791  1.00  0.00    -0.269 OA
BRANCH  33  36
ATOM     36  C   UNL     1       5.768   1.458  -8.018  1.00  0.00     0.039 A 
ATOM     37  C   UNL     1       6.050   2.719  -8.547  1.00  0.00     0.014 A 
ATOM     38  C   UNL     1       6.514   0.948  -6.955  1.00  0.00     0.014 A 
ATOM     39  C   UNL     1       7.038   3.493  -7.949  1.00  0.00     0.010 A 
ATOM     40  C   UNL     1       7.401   1.759  -6.287  1.00  0.00     0.010 A 
ATOM     41  C   UNL     1       7.695   3.017  -6.801  1.00  0.00    -0.014 A 
BRANCH  41  42
ATOM     42  C   UNL     1       8.597   3.893  -6.064  1.00  0.00     0.031 A 
ATOM     43  C   UNL     1       8.009   5.205  -5.689  1.00  0.00     0.074 A 
ATOM     44  C   UNL     1       9.803   3.516  -5.589  1.00  0.00     0.049 A 
ATOM     45  N   UNL     1       8.326   6.361  -6.168  1.00  0.00    -0.248 NA
ATOM     46  C   UNL     1       6.852   5.229  -4.780  1.00  0.00     0.031 C 
ATOM     47  C   UNL     1      10.418   2.184  -5.609  1.00  0.00     0.029 A 
ATOM     48  N   UNL     1      10.702   4.249  -4.876  1.00  0.00    -0.354 N 
ATOM     49  C   UNL     1       7.552   7.288  -5.480  1.00  0.00     0.074 A 
ATOM     50  C   UNL     1       6.553   6.531  -4.768  1.00  0.00     0.031 C 
ATOM     51  C   UNL     1      11.455   2.153  -4.743  1.00  0.00     0.029 A 
ATOM     52  C   UNL     1      11.684   3.497  -4.245  1.00  0.00     0.049 A 
ATOM     53  H   UNL     1      10.659   5.230  -4.814  1.00  0.00     0.167 HD
ATOM     54  C   UNL     1       7.957   8.582  -5.353  1.00  0.00     0.031 A 
ATOM     55  C   UNL     1      12.607   3.945  -3.359  1.00  0.00     0.031 A 
ATOM     56  C   UNL     1       9.020   8.900  -6.274  1.00  0.00     0.049 A 
ATOM     57  C   UNL     1      12.737   5.405  -3.562  1.00  0.00     0.074 A 
ATOM     58  C   UNL     1       9.165   8.856  -7.646  1.00  0.00     0.029 A 
ATOM     59  N   UNL     1      10.295   8.951  -5.760  1.00  0.00    -0.354 N 
ATOM     60  N   UNL     1      13.249   5.933  -4.637  1.00  0.00    -0.248 NA
ATOM     61  C   UNL     1      11.896   6.288  -2.770  1.00  0.00     0.031 C 
ATOM     62  C   UNL     1      10.494   8.384  -7.856  1.00  0.00     0.029 A 
ATOM     63  C   UNL     1      11.106   8.246  -6.609  1.00  0.00     0.049 A 
ATOM     64  H   UNL     1      10.573   9.410  -4.935  1.00  0.00     0.167 HD
ATOM     65  C   UNL     1      12.446   7.032  -4.900  1.00  0.00     0.074 A 
ATOM     66  C   UNL     1      11.704   7.265  -3.661  1.00  0.00     0.031 C 
ATOM     67  C   UNL     1      12.246   7.468  -6.178  1.00  0.00     0.031 A 
BRANCH  54  68
ATOM     68  C   UNL     1       7.713   9.413  -4.118  1.00  0.00    -0.014 A 
ATOM     69  C   UNL     1       8.165  10.746  -4.105  1.00  0.00     0.009 A 
ATOM     70  C   UNL     1       7.343   8.858  -2.879  1.00  0.00     0.009 A 
ATOM     71  C   UNL     1       8.326  11.448  -2.906  1.00  0.00     0.001 A 
ATOM     72  C   UNL     1       7.460   9.572  -1.684  1.00  0.00     0.001 A 
ATOM     73  C   UNL     1       7.983  10.857  -1.695  1.00  0.00     0.000 A 
ENDBRANCH  54  68
BRANCH  55  74
ATOM     74  C   UNL     1      13.217   3.251  -2.204  1.00  0.00    -0.014 A 
ATOM     75  C   UNL     1      14.363   3.769  -1.580  1.00  0.00     0.009 A 
ATOM     76  C   UNL     1      12.512   2.234  -1.535  1.00  0.00     0.009 A 
ATOM     77  C   UNL     1      14.760   3.321  -0.312  1.00  0.00     0.001 A 
ATOM     78  C   UNL     1      12.910   1.784  -0.271  1.00  0.00     0.001 A 
ATOM     79  C   UNL     1      14.024   2.341   0.349  1.00  0.00     0.000 A 
ENDBRANCH  55  74
BRANCH  67  80
ATOM     80  C   UNL     1      13.104   6.892  -7.278  1.00  0.00    -0.014 A 
ATOM     81  C   UNL     1      13.104   5.529  -7.620  1.00  0.00     0.009 A 
ATOM     82  C   UNL     1      13.781   7.790  -8.118  1.00  0.00     0.009 A 
ATOM     83  C   UNL     1      13.773   5.079  -8.764  1.00  0.00     0.001 A 
ATOM     84  C   UNL     1      14.430   7.344  -9.270  1.00  0.00     0.001 A 
ATOM     85  C   UNL     1      14.427   5.989  -9.593  1.00  0.00     0.000 A 
ENDBRANCH  67  80
ENDBRANCH  41  42
ENDBRANCH  33  36
ENDBRANCH  31  32
ENDBRANCH  30  31
ENDBRANCH  29  30
ENDBRANCH   1  29
TORSDOF 15
