REMARK SMILES Cc1cc(=O)c(Oc2ccc(C(=O)NCCCCCCNC(=O)c3ccc(-c4c5nc(c(-c6ccccc6)c6ccc([nH]6)c(-c6ccccc6)c6nc(c(-c7ccccc7)c7ccc4[nH]7)C=C6)C=C5)cc3)cc2)c(-c2ccc(S(C)(=O)=O)cc2)o1
REMARK SMILES IDX 16 1 15 2 14 3 12 4 13 5 11 7 8 8 9 9 73 10 10 11 72 12 7 13
REMARK SMILES IDX 6 14 1 15 2 16 3 17 85 18 4 19 74 20 5 21 75 22 76 23 84 24
REMARK SMILES IDX 77 25 83 26 78 27 79 28 80 29 81 30 82 31 17 32 18 33 19 34
REMARK SMILES IDX 20 35 21 36 22 37 23 39 24 40 25 41 71 42 26 43 70 44 27 45
REMARK SMILES IDX 28 46 29 47 64 48 30 49 69 50 63 51 65 52 31 53 68 54 62 55
REMARK SMILES IDX 61 56 32 58 54 59 39 60 53 61 40 62 43 63 52 64 66 65 41 66
REMARK SMILES IDX 42 67 51 69 67 70 44 71 33 72 34 73 38 74 35 75 37 76 36 77
REMARK SMILES IDX 55 78 56 79 60 80 57 81 59 82 58 83 45 84 46 85 50 86 47 87
REMARK SMILES IDX 49 88 48 89
REMARK H PARENT 14 6 21 38 65 57 43 68
REMARK Flexibility Score: inf
ROOT
ATOM      1  C   UNL     1       1.024   4.022  10.442  1.00  0.00     0.021 C 
ENDROOT
BRANCH   1   2
ATOM      2  C   UNL     1      -0.098   3.046  10.104  1.00  0.00     0.116 C 
BRANCH   2   3
ATOM      3  N   UNL     1      -1.397   3.639   9.862  1.00  0.00    -0.352 N 
ATOM      4  C   UNL     1      -2.450   3.202   9.091  1.00  0.00     0.251 C 
ATOM      5  O   UNL     1      -3.507   3.830   9.117  1.00  0.00    -0.269 OA
ATOM      6  H   UNL     1      -1.551   4.494  10.325  1.00  0.00     0.163 HD
BRANCH   4   7
ATOM      7  C   UNL     1      -2.318   2.047   8.161  1.00  0.00     0.040 A 
ATOM      8  C   UNL     1      -1.786   0.190   6.147  1.00  0.00     0.127 A 
ATOM      9  C   UNL     1      -2.748   1.171   5.933  1.00  0.00     0.048 A 
ATOM     10  C   UNL     1      -1.250   0.009   7.420  1.00  0.00     0.048 A 
ATOM     11  C   UNL     1      -2.984   2.125   6.928  1.00  0.00     0.017 A 
ATOM     12  C   UNL     1      -1.543   0.919   8.437  1.00  0.00     0.017 A 
BRANCH   8  13
ATOM     13  O   UNL     1      -1.415  -0.703   5.187  1.00  0.00    -0.449 OA
BRANCH  13  14
ATOM     14  C   UNL     1      -0.748  -0.365   4.017  1.00  0.00     0.217 A 
ATOM     15  C   UNL     1       0.970   0.175   0.087  1.00  0.00     0.088 C 
ATOM     16  C   UNL     1       0.435  -0.135   1.448  1.00  0.00     0.105 A 
ATOM     17  C   UNL     1       0.111  -1.370   1.833  1.00  0.00     0.098 A 
ATOM     18  O   UNL     1       0.290   0.961   2.273  1.00  0.00    -0.457 OA
ATOM     19  C   UNL     1      -0.447  -1.570   3.177  1.00  0.00     0.228 A 
ATOM     20  C   UNL     1      -0.310   0.826   3.524  1.00  0.00     0.180 A 
ATOM     21  O   UNL     1      -0.654  -2.714   3.573  1.00  0.00    -0.285 OA
BRANCH  20  22
ATOM     22  C   UNL     1      -0.409   2.147   4.170  1.00  0.00     0.021 A 
ATOM     23  C   UNL     1      -1.333   3.091   3.689  1.00  0.00     0.013 A 
ATOM     24  C   UNL     1       0.400   2.480   5.267  1.00  0.00     0.013 A 
ATOM     25  C   UNL     1      -1.522   4.304   4.357  1.00  0.00     0.021 A 
ATOM     26  C   UNL     1       0.221   3.696   5.934  1.00  0.00     0.021 A 
ATOM     27  C   UNL     1      -0.754   4.592   5.488  1.00  0.00     0.067 A 
BRANCH  27  28
ATOM     28  S   UNL     1      -1.135   6.043   6.446  1.00  0.00     0.175 S 
ATOM     29  C   UNL     1      -0.424   7.372   5.519  1.00  0.00     0.163 C 
ATOM     30  O   UNL     1      -2.574   6.203   6.421  1.00  0.00    -0.224 OA
ATOM     31  O   UNL     1      -0.406   5.949   7.699  1.00  0.00    -0.224 OA
ENDBRANCH  27  28
ENDBRANCH  20  22
ENDBRANCH  13  14
ENDBRANCH   8  13
ENDBRANCH   4   7
ENDBRANCH   2   3
ENDBRANCH   1   2
BRANCH   1  32
ATOM     32  C   UNL     1       0.791   5.008  11.587  1.00  0.00     0.002 C 
BRANCH  32  33
ATOM     33  C   UNL     1       0.268   4.442  12.908  1.00  0.00     0.002 C 
BRANCH  33  34
ATOM     34  C   UNL     1       1.033   3.260  13.500  1.00  0.00     0.021 C 
BRANCH  34  35
ATOM     35  C   UNL     1       2.534   3.451  13.668  1.00  0.00     0.116 C 
BRANCH  35  36
ATOM     36  N   UNL     1       2.889   4.473  14.639  1.00  0.00    -0.352 N 
ATOM     37  C   UNL     1       3.709   4.389  15.742  1.00  0.00     0.251 C 
ATOM     38  H   UNL     1       2.483   5.357  14.486  1.00  0.00     0.163 HD
ATOM     39  O   UNL     1       3.816   5.340  16.509  1.00  0.00    -0.269 OA
BRANCH  37  40
ATOM     40  C   UNL     1       4.431   3.129  16.031  1.00  0.00     0.039 A 
ATOM     41  C   UNL     1       5.094   2.433  15.019  1.00  0.00     0.014 A 
ATOM     42  C   UNL     1       4.415   2.619  17.333  1.00  0.00     0.014 A 
ATOM     43  C   UNL     1       5.565   1.147  15.262  1.00  0.00     0.010 A 
ATOM     44  C   UNL     1       4.978   1.365  17.597  1.00  0.00     0.010 A 
ATOM     45  C   UNL     1       5.507   0.593  16.552  1.00  0.00    -0.014 A 
BRANCH  45  46
ATOM     46  C   UNL     1       6.006  -0.790  16.777  1.00  0.00     0.031 A 
ATOM     47  C   UNL     1       5.075  -1.890  17.215  1.00  0.00     0.074 A 
ATOM     48  C   UNL     1       7.301  -1.069  16.526  1.00  0.00     0.049 A 
ATOM     49  N   UNL     1       5.338  -3.159  17.410  1.00  0.00    -0.248 NA
ATOM     50  C   UNL     1       3.671  -1.527  17.468  1.00  0.00     0.031 C 
ATOM     51  C   UNL     1       8.299  -0.095  16.081  1.00  0.00     0.029 A 
ATOM     52  N   UNL     1       7.992  -2.254  16.578  1.00  0.00    -0.354 N 
ATOM     53  C   UNL     1       4.143  -3.737  17.822  1.00  0.00     0.074 A 
ATOM     54  C   UNL     1       3.159  -2.679  17.880  1.00  0.00     0.031 C 
ATOM     55  C   UNL     1       9.454  -0.730  15.839  1.00  0.00     0.029 A 
ATOM     56  C   UNL     1       9.303  -2.140  16.181  1.00  0.00     0.049 A 
ATOM     57  H   UNL     1       7.588  -3.103  16.870  1.00  0.00     0.167 HD
ATOM     58  C   UNL     1       3.887  -5.036  18.111  1.00  0.00     0.031 A 
ATOM     59  C   UNL     1      10.285  -3.060  16.109  1.00  0.00     0.031 A 
ATOM     60  C   UNL     1       4.865  -6.090  18.042  1.00  0.00     0.049 A 
ATOM     61  C   UNL     1       9.989  -4.482  16.487  1.00  0.00     0.074 A 
ATOM     62  C   UNL     1       4.687  -7.440  18.290  1.00  0.00     0.029 A 
ATOM     63  N   UNL     1       6.198  -5.917  17.703  1.00  0.00    -0.354 N 
ATOM     64  N   UNL     1       8.847  -5.014  16.852  1.00  0.00    -0.248 NA
ATOM     65  C   UNL     1      11.110  -5.431  16.445  1.00  0.00     0.031 C 
ATOM     66  C   UNL     1       5.926  -8.073  18.171  1.00  0.00     0.029 A 
ATOM     67  C   UNL     1       6.861  -7.132  17.770  1.00  0.00     0.049 A 
ATOM     68  H   UNL     1       6.612  -5.060  17.453  1.00  0.00     0.167 HD
ATOM     69  C   UNL     1       9.108  -6.360  17.069  1.00  0.00     0.074 A 
ATOM     70  C   UNL     1      10.511  -6.569  16.774  1.00  0.00     0.031 C 
ATOM     71  C   UNL     1       8.258  -7.332  17.480  1.00  0.00     0.031 A 
BRANCH  58  72
ATOM     72  C   UNL     1       2.494  -5.410  18.543  1.00  0.00    -0.014 A 
ATOM     73  C   UNL     1       2.270  -5.865  19.853  1.00  0.00     0.009 A 
ATOM     74  C   UNL     1       1.427  -5.423  17.631  1.00  0.00     0.009 A 
ATOM     75  C   UNL     1       1.015  -6.342  20.236  1.00  0.00     0.001 A 
ATOM     76  C   UNL     1       0.164  -5.872  18.026  1.00  0.00     0.001 A 
ATOM     77  C   UNL     1      -0.038  -6.342  19.323  1.00  0.00     0.000 A 
ENDBRANCH  58  72
BRANCH  59  78
ATOM     78  C   UNL     1      11.637  -2.642  15.649  1.00  0.00    -0.014 A 
ATOM     79  C   UNL     1      12.411  -1.758  16.420  1.00  0.00     0.009 A 
ATOM     80  C   UNL     1      12.132  -3.067  14.408  1.00  0.00     0.009 A 
ATOM     81  C   UNL     1      13.631  -1.279  15.942  1.00  0.00     0.001 A 
ATOM     82  C   UNL     1      13.370  -2.613  13.947  1.00  0.00     0.001 A 
ATOM     83  C   UNL     1      14.112  -1.709  14.707  1.00  0.00     0.000 A 
ENDBRANCH  59  78
BRANCH  71  84
ATOM     84  C   UNL     1       8.800  -8.726  17.634  1.00  0.00    -0.014 A 
ATOM     85  C   UNL     1       8.359  -9.745  16.773  1.00  0.00     0.009 A 
ATOM     86  C   UNL     1       9.654  -9.058  18.697  1.00  0.00     0.009 A 
ATOM     87  C   UNL     1       8.743 -11.069  16.986  1.00  0.00     0.001 A 
ATOM     88  C   UNL     1      10.062 -10.380  18.888  1.00  0.00     0.001 A 
ATOM     89  C   UNL     1       9.596 -11.385  18.041  1.00  0.00     0.000 A 
ENDBRANCH  71  84
ENDBRANCH  45  46
ENDBRANCH  37  40
ENDBRANCH  35  36
ENDBRANCH  34  35
ENDBRANCH  33  34
ENDBRANCH  32  33
ENDBRANCH   1  32
TORSDOF 17
