REMARK SMILES CC(C)(C)OC(=O)N1CCC[C@@H](CC2CCCCC2)[C@@H]1C(=O)NCCCCCCNC(=O)c1ccc(-c2c3nc(c(-c4ccccc4)c4ccc([nH]4)c(-c4ccccc4)c4nc(c(-c5ccccc5)c5ccc2[nH]5)C=C4)C=C3)cc1
REMARK SMILES IDX 26 1 25 2 24 3 23 4 21 5 22 6 20 8 8 9 9 10 10 11 12 12
REMARK SMILES IDX 11 13 6 14 7 15 5 16 2 17 1 18 3 19 4 20 13 21 14 22 15 23
REMARK SMILES IDX 19 24 16 25 18 26 17 27 27 28 28 29 29 30 30 31 31 32 32 34
REMARK SMILES IDX 33 35 34 36 80 37 35 38 79 39 36 40 37 41 38 42 73 43 39 44
REMARK SMILES IDX 78 45 72 46 74 47 40 48 77 49 71 50 70 51 41 53 63 54 48 55
REMARK SMILES IDX 62 56 49 57 52 58 61 59 75 60 50 61 51 62 60 64 76 65 53 66
REMARK SMILES IDX 42 67 43 68 47 69 44 70 46 71 45 72 64 73 65 74 69 75 66 76
REMARK SMILES IDX 68 77 67 78 54 79 55 80 59 81 56 82 58 83 57 84
REMARK H PARENT 23 7 30 33 74 52 52 63
REMARK Flexibility Score: inf
ROOT
ATOM      1  C   UNL     1       4.403  -1.909   4.839  1.00  0.00     0.002 C 
ENDROOT
BRANCH   1   2
ATOM      2  C   UNL     1       3.928  -3.311   4.444  1.00  0.00     0.021 C 
BRANCH   2   3
ATOM      3  C   UNL     1       2.824  -3.300   3.396  1.00  0.00     0.116 C 
BRANCH   3   4
ATOM      4  N   UNL     1       3.342  -2.854   2.119  1.00  0.00    -0.354 N 
ATOM      5  C   UNL     1       3.158  -3.381   0.875  1.00  0.00     0.243 C 
ATOM      6  O   UNL     1       3.777  -2.866  -0.060  1.00  0.00    -0.273 OA
ATOM      7  H   UNL     1       3.911  -2.051   2.155  1.00  0.00     0.163 HD
BRANCH   5   8
ATOM      8  C   UNL     1       2.328  -4.672   0.675  1.00  0.00     0.181 C 
ATOM      9  N   UNL     1       0.979  -4.614   1.310  1.00  0.00    -0.296 N 
ATOM     10  C   UNL     1       0.282  -5.880   1.489  1.00  0.00     0.124 C 
ATOM     11  C   UNL     1       1.131  -6.896   2.226  1.00  0.00     0.022 C 
ATOM     12  C   UNL     1       3.204  -5.860   1.223  1.00  0.00     0.022 C 
ATOM     13  C   UNL     1       2.408  -7.155   1.437  1.00  0.00     0.008 C 
BRANCH   9  14
ATOM     14  C   UNL     1       0.171  -3.473   1.332  1.00  0.00     0.410 C 
ATOM     15  O   UNL     1      -0.908  -3.440   1.913  1.00  0.00    -0.224 OA
BRANCH  14  16
ATOM     16  O   UNL     1       0.717  -2.406   0.700  1.00  0.00    -0.444 OA
BRANCH  16  17
ATOM     17  C   UNL     1       0.205  -1.055   0.881  1.00  0.00     0.106 C 
ATOM     18  C   UNL     1       0.942  -0.207  -0.166  1.00  0.00     0.056 C 
ATOM     19  C   UNL     1       0.586  -0.544   2.274  1.00  0.00     0.056 C 
ATOM     20  C   UNL     1      -1.302  -0.919   0.645  1.00  0.00     0.056 C 
ENDBRANCH  16  17
ENDBRANCH  14  16
ENDBRANCH   9  14
BRANCH  12  21
ATOM     21  C   UNL     1       4.617  -6.065   0.591  1.00  0.00     0.010 C 
BRANCH  21  22
ATOM     22  C   UNL     1       4.857  -6.537  -0.863  1.00  0.00    -0.011 C 
ATOM     23  C   UNL     1       4.362  -7.964  -1.129  1.00  0.00     0.003 C 
ATOM     24  C   UNL     1       4.412  -5.519  -1.921  1.00  0.00     0.003 C 
ATOM     25  C   UNL     1       4.525  -8.397  -2.581  1.00  0.00     0.000 C 
ATOM     26  C   UNL     1       4.529  -6.028  -3.354  1.00  0.00     0.000 C 
ATOM     27  C   UNL     1       3.861  -7.387  -3.507  1.00  0.00     0.000 C 
ENDBRANCH  21  22
ENDBRANCH  12  21
ENDBRANCH   5   8
ENDBRANCH   3   4
ENDBRANCH   2   3
ENDBRANCH   1   2
BRANCH   1  28
ATOM     28  C   UNL     1       3.290  -0.965   5.305  1.00  0.00     0.002 C 
BRANCH  28  29
ATOM     29  C   UNL     1       2.391  -1.522   6.411  1.00  0.00     0.021 C 
BRANCH  29  30
ATOM     30  C   UNL     1       3.144  -1.974   7.653  1.00  0.00     0.116 C 
BRANCH  30  31
ATOM     31  N   UNL     1       3.903  -0.890   8.249  1.00  0.00    -0.352 N 
ATOM     32  C   UNL     1       4.023  -0.548   9.568  1.00  0.00     0.251 C 
ATOM     33  H   UNL     1       4.401  -0.323   7.616  1.00  0.00     0.163 HD
ATOM     34  O   UNL     1       4.555   0.511   9.886  1.00  0.00    -0.269 OA
BRANCH  32  35
ATOM     35  C   UNL     1       3.501  -1.455  10.609  1.00  0.00     0.039 A 
ATOM     36  C   UNL     1       2.818  -0.902  11.693  1.00  0.00     0.014 A 
ATOM     37  C   UNL     1       3.716  -2.835  10.537  1.00  0.00     0.014 A 
ATOM     38  C   UNL     1       2.342  -1.736  12.704  1.00  0.00     0.010 A 
ATOM     39  C   UNL     1       3.174  -3.672  11.504  1.00  0.00     0.010 A 
ATOM     40  C   UNL     1       2.514  -3.127  12.614  1.00  0.00    -0.014 A 
BRANCH  40  41
ATOM     41  C   UNL     1       2.066  -4.012  13.714  1.00  0.00     0.031 A 
ATOM     42  C   UNL     1       3.083  -4.760  14.533  1.00  0.00     0.074 A 
ATOM     43  C   UNL     1       0.752  -4.154  13.964  1.00  0.00     0.049 A 
ATOM     44  N   UNL     1       2.895  -5.562  15.550  1.00  0.00    -0.248 NA
ATOM     45  C   UNL     1       4.495  -4.607  14.144  1.00  0.00     0.031 C 
ATOM     46  C   UNL     1      -0.330  -3.517  13.210  1.00  0.00     0.029 A 
ATOM     47  N   UNL     1       0.104  -4.875  14.934  1.00  0.00    -0.354 N 
ATOM     48  C   UNL     1       4.157  -6.018  15.908  1.00  0.00     0.074 A 
ATOM     49  C   UNL     1       5.096  -5.453  14.965  1.00  0.00     0.031 C 
ATOM     50  C   UNL     1      -1.506  -3.844  13.771  1.00  0.00     0.029 A 
ATOM     51  C   UNL     1      -1.261  -4.732  14.903  1.00  0.00     0.049 A 
ATOM     52  H   UNL     1       0.573  -5.441  15.588  1.00  0.00     0.167 HD
ATOM     53  C   UNL     1       4.510  -6.814  16.945  1.00  0.00     0.031 A 
ATOM     54  C   UNL     1      -2.207  -5.248  15.709  1.00  0.00     0.031 A 
ATOM     55  C   UNL     1       3.578  -7.360  17.893  1.00  0.00     0.049 A 
ATOM     56  C   UNL     1      -1.789  -6.111  16.867  1.00  0.00     0.074 A 
ATOM     57  C   UNL     1       3.834  -8.138  19.008  1.00  0.00     0.029 A 
ATOM     58  N   UNL     1       2.204  -7.178  17.837  1.00  0.00    -0.354 N 
ATOM     59  N   UNL     1      -0.584  -6.479  17.233  1.00  0.00    -0.248 NA
ATOM     60  C   UNL     1      -2.863  -6.608  17.737  1.00  0.00     0.031 C 
ATOM     61  C   UNL     1       2.610  -8.460  19.606  1.00  0.00     0.029 A 
ATOM     62  C   UNL     1       1.598  -7.838  18.892  1.00  0.00     0.049 A 
ATOM     63  H   UNL     1       1.731  -6.656  17.150  1.00  0.00     0.167 HD
ATOM     64  C   UNL     1      -0.753  -7.224  18.392  1.00  0.00     0.074 A 
ATOM     65  C   UNL     1      -2.174  -7.239  18.676  1.00  0.00     0.031 C 
ATOM     66  C   UNL     1       0.183  -7.841  19.155  1.00  0.00     0.031 A 
BRANCH  53  67
ATOM     67  C   UNL     1       5.971  -7.138  17.098  1.00  0.00    -0.014 A 
ATOM     68  C   UNL     1       6.897  -6.156  17.486  1.00  0.00     0.009 A 
ATOM     69  C   UNL     1       6.426  -8.444  16.863  1.00  0.00     0.009 A 
ATOM     70  C   UNL     1       8.254  -6.465  17.594  1.00  0.00     0.001 A 
ATOM     71  C   UNL     1       7.780  -8.758  17.002  1.00  0.00     0.001 A 
ATOM     72  C   UNL     1       8.694  -7.766  17.356  1.00  0.00     0.000 A 
ENDBRANCH  53  67
BRANCH  54  73
ATOM     73  C   UNL     1      -3.638  -4.926  15.479  1.00  0.00    -0.014 A 
ATOM     74  C   UNL     1      -4.327  -4.078  16.360  1.00  0.00     0.009 A 
ATOM     75  C   UNL     1      -4.325  -5.470  14.383  1.00  0.00     0.009 A 
ATOM     76  C   UNL     1      -5.683  -3.806  16.166  1.00  0.00     0.001 A 
ATOM     77  C   UNL     1      -5.674  -5.174  14.175  1.00  0.00     0.001 A 
ATOM     78  C   UNL     1      -6.354  -4.351  15.072  1.00  0.00     0.000 A 
ENDBRANCH  54  73
BRANCH  66  79
ATOM     79  C   UNL     1      -0.304  -8.546  20.390  1.00  0.00    -0.014 A 
ATOM     80  C   UNL     1      -1.034  -9.742  20.309  1.00  0.00     0.009 A 
ATOM     81  C   UNL     1      -0.011  -8.010  21.653  1.00  0.00     0.009 A 
ATOM     82  C   UNL     1      -1.500 -10.363  21.470  1.00  0.00     0.001 A 
ATOM     83  C   UNL     1      -0.451  -8.649  22.812  1.00  0.00     0.001 A 
ATOM     84  C   UNL     1      -1.206  -9.817  22.719  1.00  0.00     0.000 A 
ENDBRANCH  66  79
ENDBRANCH  40  41
ENDBRANCH  32  35
ENDBRANCH  30  31
ENDBRANCH  29  30
ENDBRANCH  28  29
ENDBRANCH   1  28
TORSDOF 18
