REMARK SMILES Cc1ccc(S(=O)(=O)N2c3ccc(C(=O)NCCCCCCNC(=O)c4ccc(-c5c6nc(c(-c7ccccc7)c7ccc([nH]7)c(-c7ccccc7)c7nc(c(-c8ccccc8)c8ccc5[nH]8)C=C7)C=C6)cc4)cc3C[C@H]2C)cc1
REMARK SMILES IDX 19 1 18 2 17 3 16 4 14 5 15 6 13 8 9 9 10 10 77 11 11 12
REMARK SMILES IDX 75 13 76 14 78 15 12 16 74 17 6 18 7 19 8 20 5 21 1 22 2 23
REMARK SMILES IDX 3 24 80 25 4 26 79 27 20 28 21 29 22 30 23 31 24 32 25 34
REMARK SMILES IDX 26 35 27 36 73 37 28 38 72 39 29 40 30 41 31 42 66 43 32 44
REMARK SMILES IDX 71 45 65 46 67 47 33 48 70 49 64 50 63 51 34 53 56 54 41 55
REMARK SMILES IDX 55 56 42 57 45 58 54 59 68 60 43 61 44 62 53 64 69 65 46 66
REMARK SMILES IDX 35 67 36 68 40 69 37 70 39 71 38 72 57 73 58 74 62 75 59 76
REMARK SMILES IDX 61 77 60 78 47 79 48 80 52 81 49 82 51 83 50 84
REMARK H PARENT 16 7 23 33 67 52 45 63
REMARK Flexibility Score: inf
ROOT
ATOM      1  C   UNL     1     -12.720   1.444   2.855  1.00  0.00     0.002 C 
ENDROOT
BRANCH   1   2
ATOM      2  C   UNL     1     -11.220   1.692   3.028  1.00  0.00     0.021 C 
BRANCH   2   3
ATOM      3  C   UNL     1     -10.305   1.353   1.858  1.00  0.00     0.116 C 
BRANCH   3   4
ATOM      4  N   UNL     1     -10.550   2.092   0.638  1.00  0.00    -0.352 N 
ATOM      5  C   UNL     1      -9.666   2.426  -0.365  1.00  0.00     0.251 C 
ATOM      6  O   UNL     1     -10.075   3.064  -1.333  1.00  0.00    -0.269 OA
ATOM      7  H   UNL     1     -11.477   2.399   0.507  1.00  0.00     0.163 HD
BRANCH   5   8
ATOM      8  C   UNL     1      -8.215   2.094  -0.268  1.00  0.00     0.040 A 
ATOM      9  N   UNL     1      -4.038   1.656   0.212  1.00  0.00    -0.263 N 
ATOM     10  C   UNL     1      -5.482   1.652   0.071  1.00  0.00     0.055 A 
ATOM     11  C   UNL     1      -3.612   3.007  -0.342  1.00  0.00     0.101 C 
ATOM     12  C   UNL     1      -6.373   0.698   0.524  1.00  0.00     0.028 A 
ATOM     13  C   UNL     1      -5.940   2.779  -0.606  1.00  0.00    -0.021 A 
ATOM     14  C   UNL     1      -4.798   3.560  -1.158  1.00  0.00     0.063 C 
ATOM     15  C   UNL     1      -3.308   3.935   0.843  1.00  0.00     0.032 C 
ATOM     16  C   UNL     1      -7.739   0.898   0.299  1.00  0.00     0.016 A 
ATOM     17  C   UNL     1      -7.297   3.024  -0.775  1.00  0.00     0.019 A 
BRANCH   9  18
ATOM     18  S   UNL     1      -3.320   0.255  -0.490  1.00  0.00     0.264 S 
ATOM     19  O   UNL     1      -3.422   0.382  -1.924  1.00  0.00    -0.201 OA
ATOM     20  O   UNL     1      -3.875  -0.906   0.196  1.00  0.00    -0.201 OA
BRANCH  18  21
ATOM     21  C   UNL     1      -1.575   0.200  -0.118  1.00  0.00     0.088 A 
ATOM     22  C   UNL     1       2.712  -0.176   0.124  1.00  0.00     0.044 C 
ATOM     23  C   UNL     1       1.217  -0.051   0.097  1.00  0.00    -0.051 A 
ATOM     24  C   UNL     1       0.426  -1.181  -0.126  1.00  0.00     0.005 A 
ATOM     25  C   UNL     1       0.594   1.187   0.289  1.00  0.00     0.005 A 
ATOM     26  C   UNL     1      -0.960  -1.056  -0.235  1.00  0.00     0.022 A 
ATOM     27  C   UNL     1      -0.797   1.312   0.191  1.00  0.00     0.022 A 
ENDBRANCH  18  21
ENDBRANCH   9  18
ENDBRANCH   5   8
ENDBRANCH   3   4
ENDBRANCH   2   3
ENDBRANCH   1   2
BRANCH   1  28
ATOM     28  C   UNL     1     -13.171   0.093   2.283  1.00  0.00     0.002 C 
BRANCH  28  29
ATOM     29  C   UNL     1     -12.525  -1.170   2.849  1.00  0.00     0.021 C 
BRANCH  29  30
ATOM     30  C   UNL     1     -12.743  -1.414   4.333  1.00  0.00     0.116 C 
BRANCH  30  31
ATOM     31  N   UNL     1     -13.932  -2.185   4.653  1.00  0.00    -0.352 N 
ATOM     32  C   UNL     1     -14.419  -2.592   5.881  1.00  0.00     0.251 C 
ATOM     33  H   UNL     1     -14.473  -2.460   3.877  1.00  0.00     0.163 HD
ATOM     34  O   UNL     1     -15.402  -3.328   5.923  1.00  0.00    -0.269 OA
BRANCH  32  35
ATOM     35  C   UNL     1     -13.867  -2.031   7.143  1.00  0.00     0.039 A 
ATOM     36  C   UNL     1     -14.776  -1.740   8.171  1.00  0.00     0.014 A 
ATOM     37  C   UNL     1     -12.547  -1.606   7.256  1.00  0.00     0.014 A 
ATOM     38  C   UNL     1     -14.435  -0.809   9.149  1.00  0.00     0.010 A 
ATOM     39  C   UNL     1     -12.237  -0.610   8.156  1.00  0.00     0.010 A 
ATOM     40  C   UNL     1     -13.208  -0.162   9.051  1.00  0.00    -0.014 A 
BRANCH  40  41
ATOM     41  C   UNL     1     -12.881   1.063   9.760  1.00  0.00     0.031 A 
ATOM     42  C   UNL     1     -11.997   1.030  10.934  1.00  0.00     0.074 A 
ATOM     43  C   UNL     1     -13.320   2.239   9.262  1.00  0.00     0.049 A 
ATOM     44  N   UNL     1     -11.945   1.958  11.827  1.00  0.00    -0.248 NA
ATOM     45  C   UNL     1     -11.130  -0.105  11.228  1.00  0.00     0.031 C 
ATOM     46  C   UNL     1     -12.875   3.585   9.609  1.00  0.00     0.029 A 
ATOM     47  N   UNL     1     -14.444   2.443   8.470  1.00  0.00    -0.354 N 
ATOM     48  C   UNL     1     -10.860   1.698  12.628  1.00  0.00     0.074 A 
ATOM     49  C   UNL     1     -10.448   0.358  12.279  1.00  0.00     0.031 C 
ATOM     50  C   UNL     1     -13.825   4.463   9.244  1.00  0.00     0.029 A 
ATOM     51  C   UNL     1     -14.979   3.695   8.803  1.00  0.00     0.049 A 
ATOM     52  H   UNL     1     -14.800   1.819   7.797  1.00  0.00     0.167 HD
ATOM     53  C   UNL     1     -10.346   2.703  13.391  1.00  0.00     0.031 A 
ATOM     54  C   UNL     1     -16.224   3.787   9.357  1.00  0.00     0.031 A 
ATOM     55  C   UNL     1     -11.170   3.909  13.315  1.00  0.00     0.049 A 
ATOM     56  C   UNL     1     -16.222   4.358  10.760  1.00  0.00     0.074 A 
ATOM     57  C   UNL     1     -11.051   5.091  12.601  1.00  0.00     0.029 A 
ATOM     58  N   UNL     1     -12.471   3.872  13.803  1.00  0.00    -0.354 N 
ATOM     59  N   UNL     1     -15.169   4.410  11.529  1.00  0.00    -0.248 NA
ATOM     60  C   UNL     1     -17.413   4.894  11.414  1.00  0.00     0.031 C 
ATOM     61  C   UNL     1     -12.319   5.732  12.603  1.00  0.00     0.029 A 
ATOM     62  C   UNL     1     -13.193   4.957  13.346  1.00  0.00     0.049 A 
ATOM     63  H   UNL     1     -12.828   3.170  14.393  1.00  0.00     0.167 HD
ATOM     64  C   UNL     1     -15.505   4.966  12.737  1.00  0.00     0.074 A 
ATOM     65  C   UNL     1     -16.921   5.261  12.612  1.00  0.00     0.031 C 
ATOM     66  C   UNL     1     -14.588   5.126  13.736  1.00  0.00     0.031 A 
BRANCH  53  67
ATOM     67  C   UNL     1      -8.951   2.683  13.973  1.00  0.00    -0.014 A 
ATOM     68  C   UNL     1      -8.299   3.900  14.248  1.00  0.00     0.009 A 
ATOM     69  C   UNL     1      -8.200   1.521  14.215  1.00  0.00     0.009 A 
ATOM     70  C   UNL     1      -6.956   3.953  14.649  1.00  0.00     0.001 A 
ATOM     71  C   UNL     1      -6.847   1.565  14.583  1.00  0.00     0.001 A 
ATOM     72  C   UNL     1      -6.221   2.784  14.790  1.00  0.00     0.000 A 
ENDBRANCH  53  67
BRANCH  54  73
ATOM     73  C   UNL     1     -17.166   2.739   8.867  1.00  0.00    -0.014 A 
ATOM     74  C   UNL     1     -17.549   2.773   7.511  1.00  0.00     0.009 A 
ATOM     75  C   UNL     1     -17.351   1.547   9.583  1.00  0.00     0.009 A 
ATOM     76  C   UNL     1     -17.983   1.615   6.858  1.00  0.00     0.001 A 
ATOM     77  C   UNL     1     -17.801   0.393   8.927  1.00  0.00     0.001 A 
ATOM     78  C   UNL     1     -18.078   0.418   7.560  1.00  0.00     0.000 A 
ENDBRANCH  54  73
BRANCH  66  79
ATOM     79  C   UNL     1     -14.875   5.510  15.170  1.00  0.00    -0.014 A 
ATOM     80  C   UNL     1     -16.126   5.405  15.790  1.00  0.00     0.009 A 
ATOM     81  C   UNL     1     -13.792   5.880  16.004  1.00  0.00     0.009 A 
ATOM     82  C   UNL     1     -16.293   5.689  17.154  1.00  0.00     0.001 A 
ATOM     83  C   UNL     1     -13.943   6.116  17.372  1.00  0.00     0.001 A 
ATOM     84  C   UNL     1     -15.201   6.032  17.946  1.00  0.00     0.000 A 
ENDBRANCH  66  79
ENDBRANCH  40  41
ENDBRANCH  32  35
ENDBRANCH  30  31
ENDBRANCH  29  30
ENDBRANCH  28  29
ENDBRANCH   1  28
TORSDOF 15
