REMARK SMILES NS(=O)(=O)c1ccc(-n2nc(C(=O)NCCCCCCNC(=O)c3ccc(-c4c5nc(c(-c6ccccc6)c6ccc([nH]6)c(-c6ccccc6)c6nc(c(-c7ccccc7)c7ccc4[nH]7)C=C6)C=C5)cc3)cc2-c2cc3ccccc3s2)cc1
REMARK SMILES IDX 17 1 16 2 15 3 14 4 12 5 13 6 11 8 9 9 10 10 73 11 72 12
REMARK SMILES IDX 8 13 5 14 6 15 84 16 7 17 83 18 2 19 3 20 4 21 1 22 74 25
REMARK SMILES IDX 75 26 82 27 76 28 81 29 77 30 80 31 78 32 79 33 18 34 19 35
REMARK SMILES IDX 20 36 21 37 22 38 23 40 24 41 25 42 71 43 26 44 70 45 27 46
REMARK SMILES IDX 28 47 29 48 64 49 30 50 69 51 63 52 65 53 31 54 68 55 62 56
REMARK SMILES IDX 61 57 32 59 54 60 39 61 53 62 40 63 43 64 52 65 66 66 41 67
REMARK SMILES IDX 42 68 51 70 67 71 44 72 33 73 34 74 38 75 35 76 37 77 36 78
REMARK SMILES IDX 55 79 56 80 60 81 57 82 59 83 58 84 45 85 46 86 50 87 47 88
REMARK SMILES IDX 49 89 48 90
REMARK H PARENT 14 7 1 23 1 24 21 39 65 58 43 69
REMARK Flexibility Score: inf
ROOT
ATOM      1  C   UNL     1       3.447  -9.437   9.857  1.00  0.00     0.002 C 
ENDROOT
BRANCH   1   2
ATOM      2  C   UNL     1       3.608  -8.518   8.635  1.00  0.00     0.021 C 
BRANCH   2   3
ATOM      3  C   UNL     1       2.286  -8.138   7.958  1.00  0.00     0.116 C 
BRANCH   3   4
ATOM      4  N   UNL     1       1.613  -7.059   8.670  1.00  0.00    -0.351 N 
ATOM      5  C   UNL     1       1.368  -5.730   8.365  1.00  0.00     0.271 C 
ATOM      6  O   UNL     1       0.667  -5.107   9.164  1.00  0.00    -0.267 OA
ATOM      7  H   UNL     1       1.260  -7.330   9.548  1.00  0.00     0.163 HD
BRANCH   5   8
ATOM      8  C   UNL     1       1.870  -5.129   7.113  1.00  0.00     0.151 A 
ATOM      9  N   UNL     1       1.748  -4.045   5.255  1.00  0.00    -0.231 N 
ATOM     10  N   UNL     1       1.284  -4.059   6.536  1.00  0.00    -0.162 NA
ATOM     11  C   UNL     1       2.659  -5.059   5.056  1.00  0.00     0.085 A 
ATOM     12  C   UNL     1       2.962  -5.524   6.323  1.00  0.00     0.066 A 
BRANCH   9  13
ATOM     13  C   UNL     1       1.375  -3.003   4.371  1.00  0.00     0.065 A 
ATOM     14  C   UNL     1       0.803  -0.869   2.675  1.00  0.00     0.082 A 
ATOM     15  C   UNL     1       0.775  -2.176   2.179  1.00  0.00     0.024 A 
ATOM     16  C   UNL     1       1.098  -0.621   4.018  1.00  0.00     0.024 A 
ATOM     17  C   UNL     1       1.086  -3.245   3.024  1.00  0.00     0.030 A 
ATOM     18  C   UNL     1       1.351  -1.693   4.874  1.00  0.00     0.030 A 
BRANCH  14  19
ATOM     19  S   UNL     1       0.504   0.495   1.592  1.00  0.00     0.238 S 
ATOM     20  O   UNL     1       1.242   1.642   2.064  1.00  0.00    -0.207 OA
ATOM     21  O   UNL     1      -0.907   0.539   1.285  1.00  0.00    -0.207 OA
BRANCH  19  22
ATOM     22  N   UNL     1       1.278   0.039   0.169  1.00  0.00    -0.225 NA
ATOM     23  H   UNL     1       1.163   0.772  -0.531  1.00  0.00     0.137 HD
ATOM     24  H   UNL     1       0.870  -0.829  -0.177  1.00  0.00     0.137 HD
ENDBRANCH  19  22
ENDBRANCH  14  19
ENDBRANCH   9  13
BRANCH  11  25
ATOM     25  C   UNL     1       3.130  -5.686   3.853  1.00  0.00     0.054 A 
ATOM     26  C   UNL     1       4.444  -6.071   3.623  1.00  0.00     0.031 A 
ATOM     27  S   UNL     1       2.132  -6.929   3.166  1.00  0.00    -0.134 S 
ATOM     28  C   UNL     1       4.513  -7.493   3.915  1.00  0.00    -0.007 A 
ATOM     29  C   UNL     1       3.250  -8.089   3.796  1.00  0.00     0.035 A 
ATOM     30  C   UNL     1       5.577  -8.282   4.407  1.00  0.00     0.009 A 
ATOM     31  C   UNL     1       3.002  -9.414   4.183  1.00  0.00     0.019 A 
ATOM     32  C   UNL     1       5.326  -9.585   4.851  1.00  0.00     0.001 A 
ATOM     33  C   UNL     1       4.053 -10.138   4.748  1.00  0.00     0.001 A 
ENDBRANCH  11  25
ENDBRANCH   5   8
ENDBRANCH   3   4
ENDBRANCH   2   3
ENDBRANCH   1   2
BRANCH   1  34
ATOM     34  C   UNL     1       2.818 -10.818   9.595  1.00  0.00     0.002 C 
BRANCH  34  35
ATOM     35  C   UNL     1       3.459 -11.670   8.491  1.00  0.00     0.021 C 
BRANCH  35  36
ATOM     36  C   UNL     1       4.891 -12.095   8.780  1.00  0.00     0.116 C 
BRANCH  36  37
ATOM     37  N   UNL     1       4.989 -13.089   9.848  1.00  0.00    -0.352 N 
ATOM     38  C   UNL     1       6.126 -13.702  10.339  1.00  0.00     0.251 C 
ATOM     39  H   UNL     1       4.139 -13.354  10.270  1.00  0.00     0.163 HD
ATOM     40  O   UNL     1       6.057 -14.755  10.961  1.00  0.00    -0.269 OA
BRANCH  38  41
ATOM     41  C   UNL     1       7.434 -13.069  10.095  1.00  0.00     0.039 A 
ATOM     42  C   UNL     1       8.558 -13.829   9.762  1.00  0.00     0.014 A 
ATOM     43  C   UNL     1       7.518 -11.682  10.176  1.00  0.00     0.014 A 
ATOM     44  C   UNL     1       9.739 -13.171   9.424  1.00  0.00     0.010 A 
ATOM     45  C   UNL     1       8.628 -11.034   9.692  1.00  0.00     0.010 A 
ATOM     46  C   UNL     1       9.762 -11.766   9.362  1.00  0.00    -0.014 A 
BRANCH  46  47
ATOM     47  C   UNL     1      10.938 -11.066   8.851  1.00  0.00     0.031 A 
ATOM     48  C   UNL     1      11.452 -11.568   7.545  1.00  0.00     0.074 A 
ATOM     49  C   UNL     1      11.431  -9.924   9.378  1.00  0.00     0.049 A 
ATOM     50  N   UNL     1      12.592 -12.129   7.310  1.00  0.00    -0.248 NA
ATOM     51  C   UNL     1      10.552 -11.531   6.380  1.00  0.00     0.031 C 
ATOM     52  C   UNL     1      10.884  -9.095  10.459  1.00  0.00     0.029 A 
ATOM     53  N   UNL     1      12.499  -9.191   8.958  1.00  0.00    -0.354 N 
ATOM     54  C   UNL     1      12.634 -12.363   5.939  1.00  0.00     0.074 A 
ATOM     55  C   UNL     1      11.305 -12.108   5.442  1.00  0.00     0.031 C 
ATOM     56  C   UNL     1      11.466  -7.875  10.434  1.00  0.00     0.029 A 
ATOM     57  C   UNL     1      12.550  -7.901   9.471  1.00  0.00     0.049 A 
ATOM     58  H   UNL     1      13.179  -9.546   8.341  1.00  0.00     0.167 HD
ATOM     59  C   UNL     1      13.813 -12.535   5.279  1.00  0.00     0.031 A 
ATOM     60  C   UNL     1      13.412  -6.919   9.113  1.00  0.00     0.031 A 
ATOM     61  C   UNL     1      14.898 -12.831   6.179  1.00  0.00     0.049 A 
ATOM     62  C   UNL     1      14.568  -7.565   8.454  1.00  0.00     0.074 A 
ATOM     63  C   UNL     1      15.138 -13.819   7.115  1.00  0.00     0.029 A 
ATOM     64  N   UNL     1      15.769 -11.813   6.488  1.00  0.00    -0.354 N 
ATOM     65  N   UNL     1      15.422  -8.320   9.081  1.00  0.00    -0.248 NA
ATOM     66  C   UNL     1      14.529  -7.727   7.010  1.00  0.00     0.031 C 
ATOM     67  C   UNL     1      15.738 -13.138   8.216  1.00  0.00     0.029 A 
ATOM     68  C   UNL     1      15.898 -11.800   7.854  1.00  0.00     0.049 A 
ATOM     69  H   UNL     1      16.214 -11.209   5.851  1.00  0.00     0.167 HD
ATOM     70  C   UNL     1      15.696  -9.349   8.194  1.00  0.00     0.074 A 
ATOM     71  C   UNL     1      15.199  -8.877   6.902  1.00  0.00     0.031 C 
ATOM     72  C   UNL     1      16.041 -10.595   8.639  1.00  0.00     0.031 A 
BRANCH  59  73
ATOM     73  C   UNL     1      14.049 -12.048   3.871  1.00  0.00    -0.014 A 
ATOM     74  C   UNL     1      15.270 -12.344   3.240  1.00  0.00     0.009 A 
ATOM     75  C   UNL     1      13.235 -11.080   3.252  1.00  0.00     0.009 A 
ATOM     76  C   UNL     1      15.677 -11.661   2.086  1.00  0.00     0.001 A 
ATOM     77  C   UNL     1      13.618 -10.427   2.078  1.00  0.00     0.001 A 
ATOM     78  C   UNL     1      14.853 -10.699   1.509  1.00  0.00     0.000 A 
ENDBRANCH  59  73
BRANCH  60  79
ATOM     79  C   UNL     1      13.210  -5.457   9.066  1.00  0.00    -0.014 A 
ATOM     80  C   UNL     1      14.311  -4.592   8.963  1.00  0.00     0.009 A 
ATOM     81  C   UNL     1      11.932  -4.925   8.819  1.00  0.00     0.009 A 
ATOM     82  C   UNL     1      14.146  -3.258   8.569  1.00  0.00     0.001 A 
ATOM     83  C   UNL     1      11.766  -3.591   8.429  1.00  0.00     0.001 A 
ATOM     84  C   UNL     1      12.875  -2.764   8.284  1.00  0.00     0.000 A 
ENDBRANCH  60  79
BRANCH  72  85
ATOM     85  C   UNL     1      16.339 -10.769  10.110  1.00  0.00    -0.014 A 
ATOM     86  C   UNL     1      15.422 -10.455  11.131  1.00  0.00     0.009 A 
ATOM     87  C   UNL     1      17.540 -11.398  10.474  1.00  0.00     0.009 A 
ATOM     88  C   UNL     1      15.718 -10.725  12.472  1.00  0.00     0.001 A 
ATOM     89  C   UNL     1      17.825 -11.688  11.810  1.00  0.00     0.001 A 
ATOM     90  C   UNL     1      16.919 -11.345  12.810  1.00  0.00     0.000 A 
ENDBRANCH  72  85
ENDBRANCH  46  47
ENDBRANCH  38  41
ENDBRANCH  36  37
ENDBRANCH  35  36
ENDBRANCH  34  35
ENDBRANCH   1  34
TORSDOF 17
