REMARK SMILES CC(C)Oc1ccc([C@@H]2CC(=O)Nc3c(C(=O)NCCCCCCNC(=O)c4ccc(-c5c6nc(c(-c7ccccc7)c7ccc([nH]7)c(-c7ccccc7)c7nc(c(-c8ccccc8)c8ccc5[nH]8)C=C7)C=C6)cc4)nsc32)cc1
REMARK SMILES IDX 21 1 20 2 19 3 18 4 16 5 17 6 15 8 9 9 10 10 78 11 11 12
REMARK SMILES IDX 14 13 77 14 12 15 13 16 76 17 8 19 5 20 6 21 80 22 7 23
REMARK SMILES IDX 79 24 4 25 2 26 1 27 3 28 22 29 23 30 24 31 25 32 26 33
REMARK SMILES IDX 27 35 28 36 29 37 75 38 30 39 74 40 31 41 32 42 33 43 68 44
REMARK SMILES IDX 34 45 73 46 67 47 69 48 35 49 72 50 66 51 65 52 36 54 58 55
REMARK SMILES IDX 43 56 57 57 44 58 47 59 56 60 70 61 45 62 46 63 55 65 71 66
REMARK SMILES IDX 48 67 37 68 38 69 42 70 39 71 41 72 40 73 59 74 60 75 64 76
REMARK SMILES IDX 61 77 63 78 62 79 49 80 50 81 54 82 51 83 53 84 52 85
REMARK H PARENT 18 7 13 18 25 34 69 53 47 64
REMARK Flexibility Score: inf
ROOT
ATOM      1  C   UNL     1      -4.801   5.968   9.064  1.00  0.00     0.002 C 
ENDROOT
BRANCH   1   2
ATOM      2  C   UNL     1      -5.105   4.537   8.619  1.00  0.00     0.021 C 
BRANCH   2   3
ATOM      3  C   UNL     1      -4.045   3.839   7.786  1.00  0.00     0.116 C 
BRANCH   3   4
ATOM      4  N   UNL     1      -2.794   3.503   8.424  1.00  0.00    -0.351 N 
ATOM      5  C   UNL     1      -1.876   2.517   8.082  1.00  0.00     0.273 C 
ATOM      6  O   UNL     1      -0.831   2.486   8.735  1.00  0.00    -0.267 OA
ATOM      7  H   UNL     1      -2.559   4.048   9.209  1.00  0.00     0.163 HD
BRANCH   5   8
ATOM      8  C   UNL     1      -2.181   1.516   7.028  1.00  0.00     0.165 A 
ATOM      9  C   UNL     1      -3.935   0.285   3.923  1.00  0.00     0.073 C 
ATOM     10  C   UNL     1      -4.704   1.566   3.533  1.00  0.00     0.114 C 
ATOM     11  C   UNL     1      -3.159   0.480   5.183  1.00  0.00     0.058 A 
ATOM     12  C   UNL     1      -4.309   2.852   4.237  1.00  0.00     0.225 C 
ATOM     13  C   UNL     1      -2.858   1.687   5.760  1.00  0.00     0.089 A 
ATOM     14  S   UNL     1      -2.444  -0.755   6.095  1.00  0.00    -0.038 S 
ATOM     15  O   UNL     1      -4.920   3.905   4.040  1.00  0.00    -0.275 OA
ATOM     16  N   UNL     1      -3.285   2.841   5.139  1.00  0.00    -0.323 N 
ATOM     17  N   UNL     1      -1.840   0.239   7.272  1.00  0.00    -0.185 NA
ATOM     18  H   UNL     1      -2.833   3.689   5.354  1.00  0.00     0.170 HD
BRANCH   9  19
ATOM     19  C   UNL     1      -3.054  -0.151   2.766  1.00  0.00    -0.039 A 
ATOM     20  C   UNL     1      -1.455  -0.902   0.586  1.00  0.00     0.119 A 
ATOM     21  C   UNL     1      -2.545  -1.688   0.958  1.00  0.00     0.047 A 
ATOM     22  C   UNL     1      -1.198   0.283   1.264  1.00  0.00     0.047 A 
ATOM     23  C   UNL     1      -3.341  -1.320   2.046  1.00  0.00     0.008 A 
ATOM     24  C   UNL     1      -1.974   0.645   2.359  1.00  0.00     0.008 A 
BRANCH  20  25
ATOM     25  O   UNL     1      -0.747  -1.299  -0.510  1.00  0.00    -0.491 OA
BRANCH  25  26
ATOM     26  C   UNL     1       0.676  -1.468  -0.368  1.00  0.00     0.167 C 
ATOM     27  C   UNL     1       1.459  -0.157  -0.385  1.00  0.00     0.052 C 
ATOM     28  C   UNL     1       1.075  -2.376   0.795  1.00  0.00     0.052 C 
ENDBRANCH  25  26
ENDBRANCH  20  25
ENDBRANCH   9  19
ENDBRANCH   5   8
ENDBRANCH   3   4
ENDBRANCH   2   3
ENDBRANCH   1   2
BRANCH   1  29
ATOM     29  C   UNL     1      -4.200   6.952   8.047  1.00  0.00     0.002 C 
BRANCH  29  30
ATOM     30  C   UNL     1      -4.889   7.149   6.688  1.00  0.00     0.021 C 
BRANCH  30  31
ATOM     31  C   UNL     1      -6.365   7.507   6.734  1.00  0.00     0.116 C 
BRANCH  31  32
ATOM     32  N   UNL     1      -6.649   8.748   7.449  1.00  0.00    -0.352 N 
ATOM     33  C   UNL     1      -7.883   9.307   7.740  1.00  0.00     0.251 C 
ATOM     34  H   UNL     1      -5.863   9.252   7.763  1.00  0.00     0.163 HD
ATOM     35  O   UNL     1      -7.990  10.489   8.014  1.00  0.00    -0.269 OA
BRANCH  33  36
ATOM     36  C   UNL     1      -9.077   8.439   7.710  1.00  0.00     0.039 A 
ATOM     37  C   UNL     1     -10.290   8.889   7.182  1.00  0.00     0.014 A 
ATOM     38  C   UNL     1      -8.958   7.142   8.198  1.00  0.00     0.014 A 
ATOM     39  C   UNL     1     -11.348   7.988   7.066  1.00  0.00     0.010 A 
ATOM     40  C   UNL     1      -9.935   6.218   7.928  1.00  0.00     0.010 A 
ATOM     41  C   UNL     1     -11.155   6.641   7.416  1.00  0.00    -0.014 A 
BRANCH  41  42
ATOM     42  C   UNL     1     -12.181   5.640   7.137  1.00  0.00     0.031 A 
ATOM     43  C   UNL     1     -12.674   5.632   5.732  1.00  0.00     0.074 A 
ATOM     44  C   UNL     1     -12.513   4.648   7.993  1.00  0.00     0.049 A 
ATOM     45  N   UNL     1     -13.864   5.909   5.316  1.00  0.00    -0.248 NA
ATOM     46  C   UNL     1     -11.699   5.401   4.653  1.00  0.00     0.031 C 
ATOM     47  C   UNL     1     -11.900   4.317   9.287  1.00  0.00     0.029 A 
ATOM     48  N   UNL     1     -13.406   3.634   7.823  1.00  0.00    -0.354 N 
ATOM     49  C   UNL     1     -13.846   5.701   3.940  1.00  0.00     0.074 A 
ATOM     50  C   UNL     1     -12.461   5.553   3.569  1.00  0.00     0.031 C 
ATOM     51  C   UNL     1     -12.258   3.066   9.653  1.00  0.00     0.029 A 
ATOM     52  C   UNL     1     -13.264   2.586   8.726  1.00  0.00     0.049 A 
ATOM     53  H   UNL     1     -14.095   3.642   7.120  1.00  0.00     0.167 HD
ATOM     54  C   UNL     1     -14.985   5.414   3.251  1.00  0.00     0.031 A 
ATOM     55  C   UNL     1     -13.915   1.398   8.707  1.00  0.00     0.031 A 
ATOM     56  C   UNL     1     -16.167   5.739   4.009  1.00  0.00     0.049 A 
ATOM     57  C   UNL     1     -15.123   1.569   7.873  1.00  0.00     0.074 A 
ATOM     58  C   UNL     1     -16.671   6.891   4.579  1.00  0.00     0.029 A 
ATOM     59  N   UNL     1     -16.821   4.700   4.627  1.00  0.00    -0.354 N 
ATOM     60  N   UNL     1     -16.130   2.319   8.215  1.00  0.00    -0.248 NA
ATOM     61  C   UNL     1     -15.032   1.249   6.459  1.00  0.00     0.031 C 
ATOM     62  C   UNL     1     -17.216   6.473   5.830  1.00  0.00     0.029 A 
ATOM     63  C   UNL     1     -17.087   5.086   5.917  1.00  0.00     0.049 A 
ATOM     64  H   UNL     1     -17.057   3.836   4.219  1.00  0.00     0.167 HD
ATOM     65  C   UNL     1     -16.519   2.936   7.036  1.00  0.00     0.074 A 
ATOM     66  C   UNL     1     -15.890   2.151   5.976  1.00  0.00     0.031 C 
ATOM     67  C   UNL     1     -17.076   4.184   7.048  1.00  0.00     0.031 A 
BRANCH  54  68
ATOM     68  C   UNL     1     -15.016   4.459   2.084  1.00  0.00    -0.014 A 
ATOM     69  C   UNL     1     -16.218   4.278   1.378  1.00  0.00     0.009 A 
ATOM     70  C   UNL     1     -13.989   3.528   1.830  1.00  0.00     0.009 A 
ATOM     71  C   UNL     1     -16.396   3.193   0.510  1.00  0.00     0.001 A 
ATOM     72  C   UNL     1     -14.148   2.469   0.933  1.00  0.00     0.001 A 
ATOM     73  C   UNL     1     -15.363   2.286   0.292  1.00  0.00     0.000 A 
ENDBRANCH  54  68
BRANCH  55  74
ATOM     74  C   UNL     1     -13.460   0.064   9.149  1.00  0.00    -0.014 A 
ATOM     75  C   UNL     1     -14.386  -0.967   9.375  1.00  0.00     0.009 A 
ATOM     76  C   UNL     1     -12.100  -0.281   9.061  1.00  0.00     0.009 A 
ATOM     77  C   UNL     1     -13.970  -2.303   9.454  1.00  0.00     0.001 A 
ATOM     78  C   UNL     1     -11.685  -1.615   9.142  1.00  0.00     0.001 A 
ATOM     79  C   UNL     1     -12.623  -2.627   9.319  1.00  0.00     0.000 A 
ENDBRANCH  55  74
BRANCH  67  80
ATOM     80  C   UNL     1     -17.489   4.757   8.387  1.00  0.00    -0.014 A 
ATOM     81  C   UNL     1     -16.600   4.943   9.463  1.00  0.00     0.009 A 
ATOM     82  C   UNL     1     -18.802   5.228   8.531  1.00  0.00     0.009 A 
ATOM     83  C   UNL     1     -17.027   5.537  10.656  1.00  0.00     0.001 A 
ATOM     84  C   UNL     1     -19.222   5.843   9.713  1.00  0.00     0.001 A 
ATOM     85  C   UNL     1     -18.338   5.988  10.779  1.00  0.00     0.000 A 
ENDBRANCH  67  80
ENDBRANCH  41  42
ENDBRANCH  33  36
ENDBRANCH  31  32
ENDBRANCH  30  31
ENDBRANCH  29  30
ENDBRANCH   1  29
TORSDOF 16
