REMARK SMILES O=C(NCCCCCCNC(=O)[C@H]1Cc2ccc(Cl)cc2C[N@@H+]1Cc1ccccc1Cl)c1ccc(-c2c3nc(c(-c4ccccc4)c4ccc([nH]4)c(-c4ccccc4)c4nc(c(-c5ccccc5)c5ccc2[nH]5)C=C4)C=C3)cc1
REMARK SMILES IDX 6 1 5 2 4 3 3 4 1 5 2 6 32 8 33 9 79 10 34 11 78 12 35 13
REMARK SMILES IDX 36 14 37 15 72 16 38 17 77 18 71 19 73 20 39 21 76 22 70 23
REMARK SMILES IDX 69 24 40 26 62 27 47 28 61 29 48 30 51 31 60 32 74 33 49 34
REMARK SMILES IDX 50 35 59 37 75 38 52 39 41 40 42 41 46 42 43 43 45 44 44 45
REMARK SMILES IDX 63 46 64 47 68 48 65 49 67 50 66 51 53 52 54 53 58 54 55 55
REMARK SMILES IDX 57 56 56 57 7 58 8 59 9 60 10 61 11 62 12 64 13 65 14 66
REMARK SMILES IDX 23 67 15 68 22 69 16 71 21 72 17 73 20 74 18 75 19 76 24 77
REMARK SMILES IDX 25 78 26 79 30 80 27 81 29 82 31 83 28 84
REMARK H PARENT 3 7 73 25 51 36 10 63 23 70
REMARK Flexibility Score: inf
ROOT
ATOM      1  C   UNL     1       3.830   3.867   0.379  1.00  0.00     0.002 C 
ENDROOT
BRANCH   1   2
ATOM      2  C   UNL     1       4.601   2.677  -0.202  1.00  0.00     0.021 C 
BRANCH   2   3
ATOM      3  C   UNL     1       4.370   1.334   0.490  1.00  0.00     0.116 C 
BRANCH   3   4
ATOM      4  N   UNL     1       2.962   0.984   0.564  1.00  0.00    -0.352 N 
ATOM      5  O   UNL     1       1.054  -0.094   0.101  1.00  0.00    -0.269 OA
ATOM      6  C   UNL     1       2.280  -0.109   0.099  1.00  0.00     0.251 C 
ATOM      7  H   UNL     1       2.402   1.647   1.028  1.00  0.00     0.163 HD
BRANCH   6   8
ATOM      8  C   UNL     1       2.988  -1.313  -0.393  1.00  0.00     0.039 A 
ATOM      9  C   UNL     1       2.418  -2.029  -1.452  1.00  0.00     0.014 A 
ATOM     10  C   UNL     1       4.128  -1.812   0.244  1.00  0.00     0.014 A 
ATOM     11  C   UNL     1       2.983  -3.237  -1.869  1.00  0.00     0.010 A 
ATOM     12  C   UNL     1       4.731  -2.982  -0.215  1.00  0.00     0.010 A 
ATOM     13  C   UNL     1       4.142  -3.725  -1.250  1.00  0.00    -0.014 A 
BRANCH  13  14
ATOM     14  C   UNL     1       4.699  -5.053  -1.610  1.00  0.00     0.031 A 
ATOM     15  C   UNL     1       4.654  -6.176  -0.610  1.00  0.00     0.074 A 
ATOM     16  C   UNL     1       5.263  -5.247  -2.816  1.00  0.00     0.049 A 
ATOM     17  N   UNL     1       5.129  -7.392  -0.711  1.00  0.00    -0.248 NA
ATOM     18  C   UNL     1       4.008  -5.891   0.682  1.00  0.00     0.031 C 
ATOM     19  C   UNL     1       5.372  -4.239  -3.869  1.00  0.00     0.029 A 
ATOM     20  N   UNL     1       5.848  -6.364  -3.358  1.00  0.00    -0.354 N 
ATOM     21  C   UNL     1       4.860  -8.004   0.508  1.00  0.00     0.074 A 
ATOM     22  C   UNL     1       4.223  -7.015   1.349  1.00  0.00     0.031 C 
ATOM     23  C   UNL     1       5.958  -4.792  -4.943  1.00  0.00     0.029 A 
ATOM     24  C   UNL     1       6.303  -6.179  -4.640  1.00  0.00     0.049 A 
ATOM     25  H   UNL     1       5.934  -7.217  -2.874  1.00  0.00     0.167 HD
ATOM     26  C   UNL     1       5.103  -9.280   0.886  1.00  0.00     0.031 A 
ATOM     27  C   UNL     1       6.928  -7.027  -5.479  1.00  0.00     0.031 A 
ATOM     28  C   UNL     1       5.708 -10.270   0.037  1.00  0.00     0.049 A 
ATOM     29  C   UNL     1       7.207  -8.435  -5.035  1.00  0.00     0.074 A 
ATOM     30  C   UNL     1       5.936 -11.608   0.307  1.00  0.00     0.029 A 
ATOM     31  N   UNL     1       6.177 -10.032  -1.246  1.00  0.00    -0.354 N 
ATOM     32  N   UNL     1       6.913  -9.011  -3.894  1.00  0.00    -0.248 NA
ATOM     33  C   UNL     1       7.899  -9.312  -5.990  1.00  0.00     0.031 C 
ATOM     34  C   UNL     1       6.597 -12.166  -0.790  1.00  0.00     0.029 A 
ATOM     35  C   UNL     1       6.723 -11.191  -1.768  1.00  0.00     0.049 A 
ATOM     36  H   UNL     1       6.129  -9.168  -1.714  1.00  0.00     0.167 HD
ATOM     37  C   UNL     1       7.368 -10.319  -3.998  1.00  0.00     0.074 A 
ATOM     38  C   UNL     1       7.947 -10.457  -5.319  1.00  0.00     0.031 C 
ATOM     39  C   UNL     1       7.308 -11.313  -3.080  1.00  0.00     0.031 A 
BRANCH  26  40
ATOM     40  C   UNL     1       4.718  -9.685   2.283  1.00  0.00    -0.014 A 
ATOM     41  C   UNL     1       5.718 -10.006   3.215  1.00  0.00     0.009 A 
ATOM     42  C   UNL     1       3.372  -9.810   2.662  1.00  0.00     0.009 A 
ATOM     43  C   UNL     1       5.378 -10.444   4.497  1.00  0.00     0.001 A 
ATOM     44  C   UNL     1       3.036 -10.218   3.954  1.00  0.00     0.001 A 
ATOM     45  C   UNL     1       4.038 -10.541   4.867  1.00  0.00     0.000 A 
ENDBRANCH  26  40
BRANCH  27  46
ATOM     46  C   UNL     1       7.293  -6.557  -6.841  1.00  0.00    -0.014 A 
ATOM     47  C   UNL     1       8.322  -5.620  -7.024  1.00  0.00     0.009 A 
ATOM     48  C   UNL     1       6.558  -6.984  -7.956  1.00  0.00     0.009 A 
ATOM     49  C   UNL     1       8.587  -5.097  -8.292  1.00  0.00     0.001 A 
ATOM     50  C   UNL     1       6.841  -6.478  -9.227  1.00  0.00     0.001 A 
ATOM     51  C   UNL     1       7.847  -5.526  -9.392  1.00  0.00     0.000 A 
ENDBRANCH  27  46
BRANCH  39  52
ATOM     52  C   UNL     1       7.880 -12.652  -3.451  1.00  0.00    -0.014 A 
ATOM     53  C   UNL     1       7.023 -13.748  -3.645  1.00  0.00     0.009 A 
ATOM     54  C   UNL     1       9.267 -12.858  -3.486  1.00  0.00     0.009 A 
ATOM     55  C   UNL     1       7.543 -15.027  -3.845  1.00  0.00     0.001 A 
ATOM     56  C   UNL     1       9.785 -14.134  -3.714  1.00  0.00     0.001 A 
ATOM     57  C   UNL     1       8.923 -15.219  -3.882  1.00  0.00     0.000 A 
ENDBRANCH  39  52
ENDBRANCH  13  14
ENDBRANCH   6   8
ENDBRANCH   3   4
ENDBRANCH   2   3
ENDBRANCH   1   2
BRANCH   1  58
ATOM     58  C   UNL     1       3.993   4.092   1.883  1.00  0.00     0.002 C 
BRANCH  58  59
ATOM     59  C   UNL     1       5.401   4.485   2.333  1.00  0.00     0.021 C 
BRANCH  59  60
ATOM     60  C   UNL     1       5.827   5.871   1.838  1.00  0.00     0.116 C 
BRANCH  60  61
ATOM     61  N   UNL     1       6.606   6.570   2.832  1.00  0.00    -0.351 N 
ATOM     62  C   UNL     1       7.789   7.227   2.836  1.00  0.00     0.278 C 
ATOM     63  H   UNL     1       6.175   6.568   3.716  1.00  0.00     0.163 HD
ATOM     64  O   UNL     1       7.825   8.065   3.752  1.00  0.00    -0.268 OA
BRANCH  62  65
ATOM     65  C   UNL     1       8.996   7.041   1.821  1.00  0.00     0.279 C 
ATOM     66  C   UNL     1       9.936   8.285   2.092  1.00  0.00     0.111 C 
ATOM     67  N   UNL     1       9.641   5.708   1.983  1.00  0.00    -0.317 N 
ATOM     68  C   UNL     1      11.414   8.072   2.257  1.00  0.00    -0.033 A 
ATOM     69  C   UNL     1      11.097   5.628   1.847  1.00  0.00     0.300 C 
ATOM     70  H   UNL     1       9.445   5.601   2.978  1.00  0.00     0.349 HD
ATOM     71  C   UNL     1      12.269   9.168   2.468  1.00  0.00     0.006 A 
ATOM     72  C   UNL     1      11.935   6.788   2.275  1.00  0.00     0.011 A 
ATOM     73  C   UNL     1      13.636   8.979   2.678  1.00  0.00     0.021 A 
ATOM     74  C   UNL     1      13.313   6.598   2.496  1.00  0.00     0.030 A 
ATOM     75  C   UNL     1      14.153   7.690   2.697  1.00  0.00     0.041 A 
ATOM     76  Cl  UNL     1      15.839   7.440   2.932  1.00  0.00    -0.084 Cl
BRANCH  67  77
ATOM     77  C   UNL     1       9.009   4.570   1.271  1.00  0.00     0.301 C 
BRANCH  77  78
ATOM     78  C   UNL     1       9.433   4.214  -0.159  1.00  0.00     0.025 A 
ATOM     79  C   UNL     1      10.586   3.412  -0.328  1.00  0.00     0.011 A 
ATOM     80  C   UNL     1       8.732   4.559  -1.330  1.00  0.00     0.049 A 
ATOM     81  C   UNL     1      11.043   3.022  -1.591  1.00  0.00     0.001 A 
ATOM     82  C   UNL     1       9.169   4.126  -2.592  1.00  0.00     0.021 A 
ATOM     83  Cl  UNL     1       7.294   5.498  -1.358  1.00  0.00    -0.084 Cl
ATOM     84  C   UNL     1      10.328   3.372  -2.726  1.00  0.00     0.002 A 
ENDBRANCH  77  78
ENDBRANCH  67  77
ENDBRANCH  62  65
ENDBRANCH  60  61
ENDBRANCH  59  60
ENDBRANCH  58  59
ENDBRANCH   1  58
TORSDOF 15
