REMARK SMILES O=C(NCCCCCCNC(=O)c1sccc1NS(=O)(=O)N1CCCC1)c1ccc(-c2c3nc(c(-c4ccccc4)c4ccc([nH]4)c(-c4ccccc4)c4nc(c(-c5ccccc5)c5ccc2[nH]5)C=C4)C=C3)cc1
REMARK SMILES IDX 7 1 6 2 5 3 4 4 3 5 1 6 2 7 27 9 28 10 74 11 29 12 73 13
REMARK SMILES IDX 30 14 31 15 32 16 67 17 33 18 72 19 66 20 68 21 34 22 71 23
REMARK SMILES IDX 65 24 64 25 35 27 57 28 42 29 56 30 43 31 46 32 55 33 69 34
REMARK SMILES IDX 44 35 45 36 54 38 70 39 47 40 36 41 37 42 41 43 38 44 40 45
REMARK SMILES IDX 39 46 58 47 59 48 63 49 60 50 62 51 61 52 48 53 49 54 53 55
REMARK SMILES IDX 50 56 52 57 51 58 8 59 9 60 10 61 11 62 12 64 13 65 14 66
REMARK SMILES IDX 17 67 15 68 16 69 18 70 19 72 20 73 21 74 22 75 23 76 26 77
REMARK SMILES IDX 24 78 25 79
REMARK H PARENT 3 8 68 26 46 37 10 63 18 71
REMARK Flexibility Score: inf
ROOT
ATOM      1  C   UNL     1       4.620  -4.070   1.670  1.00  0.00     0.002 C 
ENDROOT
BRANCH   1   2
ATOM      2  C   UNL     1       4.148  -2.888   2.522  1.00  0.00     0.002 C 
BRANCH   2   3
ATOM      3  C   UNL     1       4.668  -1.516   2.087  1.00  0.00     0.021 C 
BRANCH   3   4
ATOM      4  C   UNL     1       4.408  -1.166   0.627  1.00  0.00     0.116 C 
BRANCH   4   5
ATOM      5  N   UNL     1       2.990  -1.125   0.313  1.00  0.00    -0.352 N 
ATOM      6  O   UNL     1       1.017  -0.175  -0.227  1.00  0.00    -0.269 OA
ATOM      7  C   UNL     1       2.240  -0.093  -0.190  1.00  0.00     0.251 C 
ATOM      8  H   UNL     1       2.496  -1.959   0.486  1.00  0.00     0.163 HD
BRANCH   7   9
ATOM      9  C   UNL     1       2.911   1.133  -0.669  1.00  0.00     0.039 A 
ATOM     10  C   UNL     1       4.042   1.056  -1.487  1.00  0.00     0.014 A 
ATOM     11  C   UNL     1       2.391   2.376  -0.300  1.00  0.00     0.014 A 
ATOM     12  C   UNL     1       4.729   2.216  -1.828  1.00  0.00     0.010 A 
ATOM     13  C   UNL     1       3.035   3.543  -0.713  1.00  0.00     0.010 A 
ATOM     14  C   UNL     1       4.224   3.472  -1.457  1.00  0.00    -0.014 A 
BRANCH  14  15
ATOM     15  C   UNL     1       4.917   4.708  -1.895  1.00  0.00     0.031 A 
ATOM     16  C   UNL     1       5.521   5.651  -0.894  1.00  0.00     0.074 A 
ATOM     17  C   UNL     1       4.981   4.986  -3.211  1.00  0.00     0.049 A 
ATOM     18  N   UNL     1       6.112   6.801  -1.098  1.00  0.00    -0.248 NA
ATOM     19  C   UNL     1       5.446   5.255   0.520  1.00  0.00     0.031 C 
ATOM     20  C   UNL     1       4.438   4.145  -4.280  1.00  0.00     0.029 A 
ATOM     21  N   UNL     1       5.530   6.054  -3.874  1.00  0.00    -0.354 N 
ATOM     22  C   UNL     1       6.457   7.279   0.160  1.00  0.00     0.074 A 
ATOM     23  C   UNL     1       5.985   6.306   1.122  1.00  0.00     0.031 C 
ATOM     24  C   UNL     1       4.702   4.715  -5.464  1.00  0.00     0.029 A 
ATOM     25  C   UNL     1       5.370   5.991  -5.236  1.00  0.00     0.049 A 
ATOM     26  H   UNL     1       5.994   6.793  -3.418  1.00  0.00     0.167 HD
ATOM     27  C   UNL     1       7.109   8.423   0.481  1.00  0.00     0.031 A 
ATOM     28  C   UNL     1       5.694   6.874  -6.197  1.00  0.00     0.031 A 
ATOM     29  C   UNL     1       7.562   9.394  -0.482  1.00  0.00     0.049 A 
ATOM     30  C   UNL     1       6.361   8.162  -5.811  1.00  0.00     0.074 A 
ATOM     31  C   UNL     1       8.256  10.570  -0.260  1.00  0.00     0.029 A 
ATOM     32  N   UNL     1       7.355   9.306  -1.851  1.00  0.00    -0.354 N 
ATOM     33  N   UNL     1       6.711   8.585  -4.621  1.00  0.00    -0.248 NA
ATOM     34  C   UNL     1       6.683   9.091  -6.902  1.00  0.00     0.031 C 
ATOM     35  C   UNL     1       8.411  11.226  -1.486  1.00  0.00     0.029 A 
ATOM     36  C   UNL     1       7.881  10.422  -2.482  1.00  0.00     0.049 A 
ATOM     37  H   UNL     1       6.902   8.560  -2.307  1.00  0.00     0.167 HD
ATOM     38  C   UNL     1       7.322   9.815  -4.821  1.00  0.00     0.074 A 
ATOM     39  C   UNL     1       7.303  10.064  -6.249  1.00  0.00     0.031 C 
ATOM     40  C   UNL     1       7.855  10.659  -3.904  1.00  0.00     0.031 A 
BRANCH  27  41
ATOM     41  C   UNL     1       7.329   8.708   1.943  1.00  0.00    -0.014 A 
ATOM     42  C   UNL     1       8.211   7.938   2.719  1.00  0.00     0.009 A 
ATOM     43  C   UNL     1       6.657   9.781   2.551  1.00  0.00     0.009 A 
ATOM     44  C   UNL     1       8.379   8.208   4.080  1.00  0.00     0.001 A 
ATOM     45  C   UNL     1       6.853  10.069   3.903  1.00  0.00     0.001 A 
ATOM     46  C   UNL     1       7.703   9.275   4.669  1.00  0.00     0.000 A 
ENDBRANCH  27  41
BRANCH  28  47
ATOM     47  C   UNL     1       5.373   6.566  -7.614  1.00  0.00    -0.014 A 
ATOM     48  C   UNL     1       6.393   6.282  -8.533  1.00  0.00     0.009 A 
ATOM     49  C   UNL     1       4.037   6.526  -8.047  1.00  0.00     0.009 A 
ATOM     50  C   UNL     1       6.083   5.981  -9.861  1.00  0.00     0.001 A 
ATOM     51  C   UNL     1       3.729   6.193  -9.367  1.00  0.00     0.001 A 
ATOM     52  C   UNL     1       4.752   5.929 -10.275  1.00  0.00     0.000 A 
ENDBRANCH  28  47
BRANCH  40  53
ATOM     53  C   UNL     1       8.511  11.910  -4.418  1.00  0.00    -0.014 A 
ATOM     54  C   UNL     1       7.761  12.971  -4.947  1.00  0.00     0.009 A 
ATOM     55  C   UNL     1       9.906  12.044  -4.326  1.00  0.00     0.009 A 
ATOM     56  C   UNL     1       8.398  14.128  -5.401  1.00  0.00     0.001 A 
ATOM     57  C   UNL     1      10.537  13.213  -4.751  1.00  0.00     0.001 A 
ATOM     58  C   UNL     1       9.784  14.251  -5.296  1.00  0.00     0.000 A 
ENDBRANCH  40  53
ENDBRANCH  14  15
ENDBRANCH   7   9
ENDBRANCH   4   5
ENDBRANCH   3   4
ENDBRANCH   2   3
ENDBRANCH   1   2
BRANCH   1  59
ATOM     59  C   UNL     1       6.133  -4.179   1.479  1.00  0.00     0.021 C 
BRANCH  59  60
ATOM     60  C   UNL     1       6.940  -4.195   2.772  1.00  0.00     0.116 C 
BRANCH  60  61
ATOM     61  N   UNL     1       6.671  -5.376   3.580  1.00  0.00    -0.351 N 
ATOM     62  C   UNL     1       7.552  -6.354   3.993  1.00  0.00     0.263 C 
ATOM     63  H   UNL     1       5.737  -5.491   3.871  1.00  0.00     0.163 HD
ATOM     64  O   UNL     1       7.090  -7.356   4.536  1.00  0.00    -0.268 OA
BRANCH  62  65
ATOM     65  C   UNL     1       8.962  -6.123   3.770  1.00  0.00     0.116 A 
ATOM     66  S   UNL     1       9.882  -7.331   2.987  1.00  0.00    -0.136 S 
ATOM     67  C   UNL     1       9.726  -5.019   4.119  1.00  0.00     0.073 A 
ATOM     68  C   UNL     1      11.240  -6.304   2.892  1.00  0.00     0.068 A 
ATOM     69  C   UNL     1      11.003  -5.083   3.485  1.00  0.00     0.039 A 
BRANCH  67  70
ATOM     70  N   UNL     1       9.255  -4.003   4.965  1.00  0.00    -0.269 N 
ATOM     71  H   UNL     1       8.424  -4.220   5.446  1.00  0.00     0.181 HD
BRANCH  70  72
ATOM     72  S   UNL     1       9.869  -2.502   5.287  1.00  0.00     0.301 S 
ATOM     73  O   UNL     1       9.634  -1.662   4.137  1.00  0.00    -0.189 OA
ATOM     74  O   UNL     1       9.337  -2.135   6.582  1.00  0.00    -0.189 OA
BRANCH  72  75
ATOM     75  N   UNL     1      11.528  -2.720   5.456  1.00  0.00    -0.185 NA
ATOM     76  C   UNL     1      11.994  -3.818   6.339  1.00  0.00     0.104 C 
ATOM     77  C   UNL     1      12.244  -1.476   5.883  1.00  0.00     0.104 C 
ATOM     78  C   UNL     1      12.460  -3.139   7.604  1.00  0.00     0.018 C 
ATOM     79  C   UNL     1      13.102  -1.873   7.080  1.00  0.00     0.018 C 
ENDBRANCH  72  75
ENDBRANCH  70  72
ENDBRANCH  67  70
ENDBRANCH  62  65
ENDBRANCH  60  61
ENDBRANCH  59  60
ENDBRANCH   1  59
TORSDOF 16
