REMARK SMILES C[C@H](C(=O)NCCCCCCNC(=O)c1ccc(-c2c3nc(c(-c4ccccc4)c4ccc([nH]4)c(-c4ccccc4)c4nc(c(-c5ccccc5)c5ccc2[nH]5)C=C4)C=C3)cc1)N1C(=O)C[C@@H](N2C(=O)/C(=C/c3ccccc3)SC2=S)C1=O
REMARK SMILES IDX 8 1 7 2 6 3 5 4 3 5 4 6 2 8 1 9 63 10 64 11 82 12 65 13
REMARK SMILES IDX 66 14 67 15 83 16 68 17 69 18 80 19 70 20 71 21 79 22 81 23
REMARK SMILES IDX 72 24 73 25 74 26 78 27 75 28 77 29 76 30 9 31 10 32 11 33
REMARK SMILES IDX 12 34 13 35 14 37 15 38 16 39 62 40 17 41 61 42 18 43 19 44
REMARK SMILES IDX 20 45 55 46 21 47 60 48 54 49 56 50 22 51 59 52 53 53 52 54
REMARK SMILES IDX 23 56 45 57 30 58 44 59 31 60 34 61 43 62 57 63 32 64 33 65
REMARK SMILES IDX 42 67 58 68 35 69 24 70 25 71 29 72 26 73 28 74 27 75 46 76
REMARK SMILES IDX 47 77 51 78 48 79 50 80 49 81 36 82 37 83 41 84 38 85 40 86
REMARK SMILES IDX 39 87
REMARK H PARENT 5 7 12 36 56 55 34 66
REMARK Flexibility Score: inf
ROOT
ATOM      1  C   UNL     1      -0.920  -3.372   1.617  1.00  0.00     0.002 C 
ENDROOT
BRANCH   1   2
ATOM      2  C   UNL     1      -1.137  -2.196   0.661  1.00  0.00     0.021 C 
BRANCH   2   3
ATOM      3  C   UNL     1      -0.730  -0.837   1.236  1.00  0.00     0.116 C 
BRANCH   3   4
ATOM      4  N   UNL     1       0.661  -0.545   0.961  1.00  0.00    -0.354 N 
ATOM      5  C   UNL     1       1.303   0.125  -0.028  1.00  0.00     0.243 C 
ATOM      6  O   UNL     1       2.540   0.065   0.021  1.00  0.00    -0.273 OA
ATOM      7  H   UNL     1       1.273  -0.912   1.639  1.00  0.00     0.163 HD
BRANCH   5   8
ATOM      8  C   UNL     1       0.631   0.994  -1.121  1.00  0.00     0.179 C 
ATOM      9  C   UNL     1       1.289   0.705  -2.477  1.00  0.00     0.042 C 
BRANCH   8  10
ATOM     10  N   UNL     1      -0.821   1.036  -1.235  1.00  0.00    -0.268 N 
ATOM     11  C   UNL     1      -1.563   2.139  -0.910  1.00  0.00     0.232 C 
ATOM     12  C   UNL     1      -1.589   0.036  -1.760  1.00  0.00     0.253 C 
ATOM     13  O   UNL     1      -1.157   3.164  -0.383  1.00  0.00    -0.274 OA
ATOM     14  C   UNL     1      -2.994   1.928  -1.321  1.00  0.00     0.136 C 
ATOM     15  C   UNL     1      -3.045   0.436  -1.592  1.00  0.00     0.191 C 
ATOM     16  O   UNL     1      -1.214  -1.026  -2.221  1.00  0.00    -0.272 OA
BRANCH  15  17
ATOM     17  N   UNL     1      -3.803  -0.022  -2.751  1.00  0.00    -0.280 N 
ATOM     18  C   UNL     1      -3.428   0.437  -4.002  1.00  0.00     0.266 C 
ATOM     19  C   UNL     1      -4.774  -1.002  -2.722  1.00  0.00     0.149 C 
ATOM     20  O   UNL     1      -2.575   1.288  -4.215  1.00  0.00    -0.268 OA
ATOM     21  C   UNL     1      -4.173  -0.281  -5.061  1.00  0.00     0.081 C 
ATOM     22  S   UNL     1      -5.318  -1.348  -4.358  1.00  0.00    -0.054 SA
ATOM     23  S   UNL     1      -5.411  -1.780  -1.389  1.00  0.00    -0.052 S 
ATOM     24  C   UNL     1      -3.880  -0.098  -6.354  1.00  0.00     0.029 C 
BRANCH  24  25
ATOM     25  C   UNL     1      -4.548  -0.739  -7.487  1.00  0.00    -0.024 A 
ATOM     26  C   UNL     1      -3.816  -1.556  -8.356  1.00  0.00     0.008 A 
ATOM     27  C   UNL     1      -5.902  -0.496  -7.746  1.00  0.00     0.008 A 
ATOM     28  C   UNL     1      -4.437  -2.130  -9.467  1.00  0.00     0.001 A 
ATOM     29  C   UNL     1      -6.520  -1.071  -8.856  1.00  0.00     0.001 A 
ATOM     30  C   UNL     1      -5.787  -1.887  -9.716  1.00  0.00     0.000 A 
ENDBRANCH  24  25
ENDBRANCH  15  17
ENDBRANCH   8  10
ENDBRANCH   5   8
ENDBRANCH   3   4
ENDBRANCH   2   3
ENDBRANCH   1   2
BRANCH   1  31
ATOM     31  C   UNL     1      -1.765  -3.332   2.896  1.00  0.00     0.002 C 
BRANCH  31  32
ATOM     32  C   UNL     1      -3.278  -3.227   2.681  1.00  0.00     0.021 C 
BRANCH  32  33
ATOM     33  C   UNL     1      -3.895  -4.379   1.890  1.00  0.00     0.116 C 
BRANCH  33  34
ATOM     34  N   UNL     1      -3.719  -5.653   2.569  1.00  0.00    -0.352 N 
ATOM     35  C   UNL     1      -4.658  -6.538   3.034  1.00  0.00     0.251 C 
ATOM     36  H   UNL     1      -2.784  -5.921   2.716  1.00  0.00     0.163 HD
ATOM     37  O   UNL     1      -4.322  -7.446   3.789  1.00  0.00    -0.269 OA
BRANCH  35  38
ATOM     38  C   UNL     1      -6.075  -6.406   2.635  1.00  0.00     0.039 A 
ATOM     39  C   UNL     1      -7.069  -6.614   3.596  1.00  0.00     0.014 A 
ATOM     40  C   UNL     1      -6.428  -6.134   1.310  1.00  0.00     0.014 A 
ATOM     41  C   UNL     1      -8.414  -6.509   3.238  1.00  0.00     0.010 A 
ATOM     42  C   UNL     1      -7.767  -5.966   0.968  1.00  0.00     0.010 A 
ATOM     43  C   UNL     1      -8.773  -6.165   1.925  1.00  0.00    -0.014 A 
BRANCH  43  44
ATOM     44  C   UNL     1     -10.197  -6.030   1.531  1.00  0.00     0.031 A 
ATOM     45  C   UNL     1     -10.805  -6.995   0.550  1.00  0.00     0.074 A 
ATOM     46  C   UNL     1     -10.930  -5.010   2.016  1.00  0.00     0.049 A 
ATOM     47  N   UNL     1     -12.017  -7.016   0.056  1.00  0.00    -0.248 NA
ATOM     48  C   UNL     1      -9.929  -8.063   0.042  1.00  0.00     0.031 C 
ATOM     49  C   UNL     1     -10.448  -3.988   2.948  1.00  0.00     0.029 A 
ATOM     50  N   UNL     1     -12.237  -4.663   1.788  1.00  0.00    -0.354 N 
ATOM     51  C   UNL     1     -12.043  -8.084  -0.833  1.00  0.00     0.074 A 
ATOM     52  C   UNL     1     -10.715  -8.657  -0.844  1.00  0.00     0.031 C 
ATOM     53  C   UNL     1     -11.455  -3.147   3.234  1.00  0.00     0.029 A 
ATOM     54  C   UNL     1     -12.639  -3.548   2.481  1.00  0.00     0.049 A 
ATOM     55  H   UNL     1     -12.831  -5.167   1.185  1.00  0.00     0.167 HD
ATOM     56  C   UNL     1     -13.082  -8.556  -1.563  1.00  0.00     0.031 A 
ATOM     57  C   UNL     1     -13.828  -2.918   2.506  1.00  0.00     0.031 A 
ATOM     58  C   UNL     1     -14.406  -7.994  -1.544  1.00  0.00     0.049 A 
ATOM     59  C   UNL     1     -14.963  -3.457   1.681  1.00  0.00     0.074 A 
ATOM     60  C   UNL     1     -15.540  -8.434  -2.204  1.00  0.00     0.029 A 
ATOM     61  N   UNL     1     -14.772  -6.866  -0.826  1.00  0.00    -0.354 N 
ATOM     62  N   UNL     1     -14.989  -4.505   0.894  1.00  0.00    -0.248 NA
ATOM     63  C   UNL     1     -16.238  -2.729   1.760  1.00  0.00     0.031 C 
ATOM     64  C   UNL     1     -16.583  -7.545  -1.920  1.00  0.00     0.029 A 
ATOM     65  C   UNL     1     -16.110  -6.582  -1.044  1.00  0.00     0.049 A 
ATOM     66  H   UNL     1     -14.170  -6.344  -0.248  1.00  0.00     0.167 HD
ATOM     67  C   UNL     1     -16.287  -4.580   0.407  1.00  0.00     0.074 A 
ATOM     68  C   UNL     1     -17.021  -3.480   0.997  1.00  0.00     0.031 C 
ATOM     69  C   UNL     1     -16.824  -5.483  -0.450  1.00  0.00     0.031 A 
BRANCH  56  70
ATOM     70  C   UNL     1     -12.818  -9.739  -2.452  1.00  0.00    -0.014 A 
ATOM     71  C   UNL     1     -12.588 -11.016  -1.915  1.00  0.00     0.009 A 
ATOM     72  C   UNL     1     -12.820  -9.580  -3.846  1.00  0.00     0.009 A 
ATOM     73  C   UNL     1     -12.326 -12.101  -2.755  1.00  0.00     0.001 A 
ATOM     74  C   UNL     1     -12.586 -10.672  -4.685  1.00  0.00     0.001 A 
ATOM     75  C   UNL     1     -12.329 -11.928  -4.138  1.00  0.00     0.000 A 
ENDBRANCH  56  70
BRANCH  57  76
ATOM     76  C   UNL     1     -14.018  -1.722   3.365  1.00  0.00    -0.014 A 
ATOM     77  C   UNL     1     -14.802  -1.801   4.526  1.00  0.00     0.009 A 
ATOM     78  C   UNL     1     -13.421  -0.497   3.030  1.00  0.00     0.009 A 
ATOM     79  C   UNL     1     -15.006  -0.671   5.320  1.00  0.00     0.001 A 
ATOM     80  C   UNL     1     -13.605   0.625   3.841  1.00  0.00     0.001 A 
ATOM     81  C   UNL     1     -14.404   0.540   4.980  1.00  0.00     0.000 A 
ENDBRANCH  57  76
BRANCH  69  82
ATOM     82  C   UNL     1     -18.284  -5.336  -0.770  1.00  0.00    -0.014 A 
ATOM     83  C   UNL     1     -18.747  -4.308  -1.605  1.00  0.00     0.009 A 
ATOM     84  C   UNL     1     -19.204  -6.261  -0.252  1.00  0.00     0.009 A 
ATOM     85  C   UNL     1     -20.110  -4.190  -1.887  1.00  0.00     0.001 A 
ATOM     86  C   UNL     1     -20.561  -6.156  -0.558  1.00  0.00     0.001 A 
ATOM     87  C   UNL     1     -21.014  -5.115  -1.367  1.00  0.00     0.000 A 
ENDBRANCH  69  82
ENDBRANCH  43  44
ENDBRANCH  35  38
ENDBRANCH  33  34
ENDBRANCH  32  33
ENDBRANCH  31  32
ENDBRANCH   1  31
TORSDOF 16
