REMARK SMILES C/C(=N\NC(N)=O)c1nnn(-c2ccc(C(=O)NCCCCCCNC(=O)c3ccc(-c4c5nc(c(-c6ccccc6)c6ccc([nH]6)c(-c6ccccc6)c6nc(c(-c7ccccc7)c7ccc4[nH]7)C=C6)C=C5)cc3)cc2)c1C
REMARK SMILES IDX 21 1 20 2 19 3 18 4 16 5 17 6 15 8 12 9 13 10 77 11 14 12
REMARK SMILES IDX 76 13 11 14 8 15 9 16 78 17 10 18 79 19 2 20 1 21 3 22 4 23
REMARK SMILES IDX 5 24 6 26 7 27 22 30 23 31 24 32 25 33 26 34 27 36 28 37
REMARK SMILES IDX 29 38 75 39 30 40 74 41 31 42 32 43 33 44 68 45 34 46 73 47
REMARK SMILES IDX 67 48 69 49 35 50 72 51 66 52 65 53 36 55 58 56 43 57 57 58
REMARK SMILES IDX 44 59 47 60 56 61 70 62 45 63 46 64 55 66 71 67 48 68 37 69
REMARK SMILES IDX 38 70 42 71 39 72 41 73 40 74 59 75 60 76 64 77 61 78 63 79
REMARK SMILES IDX 62 80 49 81 50 82 54 83 51 84 53 85 52 86
REMARK H PARENT 18 7 4 25 6 28 6 29 25 35 69 54 47 65
REMARK Flexibility Score: inf
ROOT
ATOM      1  C   UNL     1       9.904   2.323   7.592  1.00  0.00     0.002 C 
ENDROOT
BRANCH   1   2
ATOM      2  C   UNL     1       8.509   2.274   6.954  1.00  0.00     0.021 C 
BRANCH   2   3
ATOM      3  C   UNL     1       8.251   0.985   6.168  1.00  0.00     0.116 C 
BRANCH   3   4
ATOM      4  N   UNL     1       7.858  -0.082   7.071  1.00  0.00    -0.352 N 
ATOM      5  C   UNL     1       6.647  -0.648   7.381  1.00  0.00     0.251 C 
ATOM      6  O   UNL     1       6.641  -1.565   8.203  1.00  0.00    -0.269 OA
ATOM      7  H   UNL     1       8.614  -0.480   7.560  1.00  0.00     0.163 HD
BRANCH   5   8
ATOM      8  C   UNL     1       5.370  -0.263   6.716  1.00  0.00     0.039 A 
ATOM      9  C   UNL     1       3.067   0.182   5.203  1.00  0.00     0.067 A 
ATOM     10  C   UNL     1       3.188  -1.012   5.913  1.00  0.00     0.029 A 
ATOM     11  C   UNL     1       4.013   1.199   5.343  1.00  0.00     0.029 A 
ATOM     12  C   UNL     1       4.359  -1.241   6.642  1.00  0.00     0.016 A 
ATOM     13  C   UNL     1       5.130   0.991   6.149  1.00  0.00     0.016 A 
BRANCH   9  14
ATOM     14  N   UNL     1       2.037   0.337   4.260  1.00  0.00    -0.217 N 
ATOM     15  C   UNL     1       0.876   0.588   2.442  1.00  0.00     0.132 A 
ATOM     16  N   UNL     1       0.016   0.426   3.498  1.00  0.00    -0.128 NA
ATOM     17  C   UNL     1       2.179   0.514   2.897  1.00  0.00     0.071 A 
ATOM     18  N   UNL     1       0.738   0.192   4.587  1.00  0.00    -0.061 NA
ATOM     19  C   UNL     1       3.468   0.448   2.168  1.00  0.00     0.069 C 
BRANCH  15  20
ATOM     20  C   UNL     1       0.425   0.595   1.060  1.00  0.00     0.087 C 
ATOM     21  C   UNL     1       0.628  -0.693   0.307  1.00  0.00     0.071 C 
ATOM     22  N   UNL     1      -0.129   1.698   0.652  1.00  0.00    -0.174 NA
BRANCH  22  23
ATOM     23  N   UNL     1      -0.586   1.875  -0.625  1.00  0.00    -0.229 N 
ATOM     24  C   UNL     1       0.017   1.470  -1.798  1.00  0.00     0.332 C 
ATOM     25  H   UNL     1      -1.445   2.346  -0.719  1.00  0.00     0.195 HD
ATOM     26  N   UNL     1      -0.733   1.780  -2.897  1.00  0.00    -0.350 N 
ATOM     27  O   UNL     1       1.079   0.889  -1.929  1.00  0.00    -0.247 OA
ATOM     28  H   UNL     1      -1.591   2.250  -2.790  1.00  0.00     0.161 HD
ATOM     29  H   UNL     1      -0.414   1.534  -3.795  1.00  0.00     0.161 HD
ENDBRANCH  22  23
ENDBRANCH  15  20
ENDBRANCH   9  14
ENDBRANCH   5   8
ENDBRANCH   3   4
ENDBRANCH   2   3
ENDBRANCH   1   2
BRANCH   1  30
ATOM     30  C   UNL     1      11.078   2.255   6.601  1.00  0.00     0.002 C 
BRANCH  30  31
ATOM     31  C   UNL     1      11.038   3.271   5.450  1.00  0.00     0.021 C 
BRANCH  31  32
ATOM     32  C   UNL     1      11.192   4.711   5.918  1.00  0.00     0.116 C 
BRANCH  32  33
ATOM     33  N   UNL     1      12.537   4.975   6.417  1.00  0.00    -0.352 N 
ATOM     34  C   UNL     1      13.086   6.173   6.808  1.00  0.00     0.251 C 
ATOM     35  H   UNL     1      13.129   4.191   6.482  1.00  0.00     0.163 HD
ATOM     36  O   UNL     1      14.303   6.314   6.849  1.00  0.00    -0.269 OA
BRANCH  34  37
ATOM     37  C   UNL     1      12.200   7.290   7.182  1.00  0.00     0.039 A 
ATOM     38  C   UNL     1      12.540   8.601   6.837  1.00  0.00     0.014 A 
ATOM     39  C   UNL     1      11.039   7.028   7.911  1.00  0.00     0.014 A 
ATOM     40  C   UNL     1      11.670   9.635   7.169  1.00  0.00     0.010 A 
ATOM     41  C   UNL     1      10.131   8.034   8.156  1.00  0.00     0.010 A 
ATOM     42  C   UNL     1      10.455   9.342   7.812  1.00  0.00    -0.014 A 
BRANCH  42  43
ATOM     43  C   UNL     1       9.436  10.380   7.948  1.00  0.00     0.031 A 
ATOM     44  C   UNL     1       9.041  10.984   6.646  1.00  0.00     0.074 A 
ATOM     45  C   UNL     1       8.756  10.632   9.088  1.00  0.00     0.049 A 
ATOM     46  N   UNL     1       9.261  12.191   6.246  1.00  0.00    -0.248 NA
ATOM     47  C   UNL     1       8.481  10.104   5.603  1.00  0.00     0.031 C 
ATOM     48  C   UNL     1       8.828   9.905  10.360  1.00  0.00     0.029 A 
ATOM     49  N   UNL     1       7.760  11.535   9.321  1.00  0.00    -0.354 N 
ATOM     50  C   UNL     1       8.674  12.291   4.988  1.00  0.00     0.074 A 
ATOM     51  C   UNL     1       8.383  10.943   4.571  1.00  0.00     0.031 C 
ATOM     52  C   UNL     1       7.766  10.234  11.133  1.00  0.00     0.029 A 
ATOM     53  C   UNL     1       7.031  11.306  10.486  1.00  0.00     0.049 A 
ATOM     54  H   UNL     1       7.573  12.288   8.715  1.00  0.00     0.167 HD
ATOM     55  C   UNL     1       8.222  13.489   4.525  1.00  0.00     0.031 A 
ATOM     56  C   UNL     1       5.893  11.934  10.879  1.00  0.00     0.031 A 
ATOM     57  C   UNL     1       8.755  14.581   5.303  1.00  0.00     0.049 A 
ATOM     58  C   UNL     1       5.802  13.198  10.119  1.00  0.00     0.074 A 
ATOM     59  C   UNL     1      10.016  15.062   5.590  1.00  0.00     0.029 A 
ATOM     60  N   UNL     1       7.917  15.107   6.256  1.00  0.00    -0.354 N 
ATOM     61  N   UNL     1       6.606  14.202  10.303  1.00  0.00    -0.248 NA
ATOM     62  C   UNL     1       5.085  13.189   8.856  1.00  0.00     0.031 C 
ATOM     63  C   UNL     1       9.949  15.480   6.952  1.00  0.00     0.029 A 
ATOM     64  C   UNL     1       8.637  15.317   7.399  1.00  0.00     0.049 A 
ATOM     65  H   UNL     1       6.959  15.300   6.136  1.00  0.00     0.167 HD
ATOM     66  C   UNL     1       6.862  14.673   9.025  1.00  0.00     0.074 A 
ATOM     67  C   UNL     1       5.807  14.096   8.192  1.00  0.00     0.031 C 
ATOM     68  C   UNL     1       8.067  15.242   8.725  1.00  0.00     0.031 A 
BRANCH  55  69
ATOM     69  C   UNL     1       6.941  13.645   3.731  1.00  0.00    -0.014 A 
ATOM     70  C   UNL     1       6.521  14.948   3.396  1.00  0.00     0.009 A 
ATOM     71  C   UNL     1       5.987  12.622   3.579  1.00  0.00     0.009 A 
ATOM     72  C   UNL     1       5.195  15.221   3.043  1.00  0.00     0.001 A 
ATOM     73  C   UNL     1       4.672  12.885   3.185  1.00  0.00     0.001 A 
ATOM     74  C   UNL     1       4.267  14.190   2.951  1.00  0.00     0.000 A 
ENDBRANCH  55  69
BRANCH  56  75
ATOM     75  C   UNL     1       4.749  11.457  11.689  1.00  0.00    -0.014 A 
ATOM     76  C   UNL     1       3.838  12.371  12.249  1.00  0.00     0.009 A 
ATOM     77  C   UNL     1       4.374  10.103  11.654  1.00  0.00     0.009 A 
ATOM     78  C   UNL     1       2.579  11.954  12.703  1.00  0.00     0.001 A 
ATOM     79  C   UNL     1       3.117   9.686  12.110  1.00  0.00     0.001 A 
ATOM     80  C   UNL     1       2.212  10.614  12.617  1.00  0.00     0.000 A 
ENDBRANCH  56  75
BRANCH  68  81
ATOM     81  C   UNL     1       8.969  15.630   9.871  1.00  0.00    -0.014 A 
ATOM     82  C   UNL     1       9.471  14.722  10.820  1.00  0.00     0.009 A 
ATOM     83  C   UNL     1       9.422  16.956   9.915  1.00  0.00     0.009 A 
ATOM     84  C   UNL     1      10.371  15.144  11.805  1.00  0.00     0.001 A 
ATOM     85  C   UNL     1      10.338  17.372  10.881  1.00  0.00     0.001 A 
ATOM     86  C   UNL     1      10.806  16.468  11.832  1.00  0.00     0.000 A 
ENDBRANCH  68  81
ENDBRANCH  42  43
ENDBRANCH  34  37
ENDBRANCH  32  33
ENDBRANCH  31  32
ENDBRANCH  30  31
ENDBRANCH   1  30
TORSDOF 16
