REMARK SMILES C[C@H](C(=O)NCCCCCCNC(=O)c1ccc(-c2c3nc(c(-c4ccccc4)c4ccc([nH]4)c(-c4ccccc4)c4nc(c(-c5ccccc5)c5ccc2[nH]5)C=C4)C=C3)cc1)c1ccc2c(c1)OCCO2
REMARK SMILES IDX 9 1 8 2 7 3 6 4 5 5 3 6 4 7 2 9 1 10 63 11 64 12 68 13 65 14
REMARK SMILES IDX 67 15 66 16 69 17 72 18 70 19 71 20 10 21 11 22 12 23 13 24
REMARK SMILES IDX 14 26 15 27 16 28 62 29 17 30 61 31 18 32 19 33 20 34 55 35
REMARK SMILES IDX 21 36 60 37 54 38 56 39 22 40 59 41 53 42 52 43 23 45 45 46
REMARK SMILES IDX 30 47 44 48 31 49 34 50 43 51 57 52 32 53 33 54 42 56 58 57
REMARK SMILES IDX 35 58 24 59 25 60 29 61 26 62 28 63 27 64 46 65 47 66 51 67
REMARK SMILES IDX 48 68 50 69 49 70 36 71 37 72 41 73 38 74 40 75 39 76
REMARK H PARENT 5 8 12 25 56 44 34 55
REMARK Flexibility Score: inf
ROOT
ATOM      1  C   UNL     1       0.114   4.886   1.063  1.00  0.00     0.002 C 
ENDROOT
BRANCH   1   2
ATOM      2  C   UNL     1       1.188   4.108   1.831  1.00  0.00     0.002 C 
BRANCH   2   3
ATOM      3  C   UNL     1       0.697   2.833   2.524  1.00  0.00     0.021 C 
BRANCH   3   4
ATOM      4  C   UNL     1      -0.049   1.880   1.603  1.00  0.00     0.116 C 
BRANCH   4   5
ATOM      5  N   UNL     1       0.790   1.440   0.509  1.00  0.00    -0.356 N 
ATOM      6  C   UNL     1       1.119   0.175   0.132  1.00  0.00     0.227 C 
ATOM      7  O   UNL     1       1.783   0.036  -0.898  1.00  0.00    -0.274 OA
ATOM      8  H   UNL     1       1.179   2.158  -0.041  1.00  0.00     0.163 HD
BRANCH   6   9
ATOM      9  C   UNL     1       0.694  -1.024   0.967  1.00  0.00     0.105 C 
ATOM     10  C   UNL     1       1.415  -1.035   2.318  1.00  0.00     0.023 C 
BRANCH   9  11
ATOM     11  C   UNL     1      -0.805  -1.309   1.018  1.00  0.00    -0.032 A 
ATOM     12  C   UNL     1      -1.746  -0.611   0.227  1.00  0.00     0.008 A 
ATOM     13  C   UNL     1      -1.233  -2.446   1.719  1.00  0.00     0.055 A 
ATOM     14  C   UNL     1      -3.045  -1.088   0.057  1.00  0.00     0.051 A 
ATOM     15  C   UNL     1      -2.480  -2.983   1.451  1.00  0.00     0.161 A 
ATOM     16  C   UNL     1      -3.361  -2.325   0.592  1.00  0.00     0.161 A 
ATOM     17  O   UNL     1      -2.712  -4.249   1.913  1.00  0.00    -0.486 OA
ATOM     18  O   UNL     1      -4.441  -2.996   0.071  1.00  0.00    -0.486 OA
ATOM     19  C   UNL     1      -3.503  -5.028   1.002  1.00  0.00     0.271 C 
ATOM     20  C   UNL     1      -3.924  -4.292  -0.270  1.00  0.00     0.271 C 
ENDBRANCH   9  11
ENDBRANCH   6   9
ENDBRANCH   4   5
ENDBRANCH   3   4
ENDBRANCH   2   3
ENDBRANCH   1   2
BRANCH   1  21
ATOM     21  C   UNL     1      -1.130   5.248   1.876  1.00  0.00     0.021 C 
BRANCH  21  22
ATOM     22  C   UNL     1      -0.846   5.992   3.173  1.00  0.00     0.116 C 
BRANCH  22  23
ATOM     23  N   UNL     1      -0.158   7.252   2.947  1.00  0.00    -0.352 N 
ATOM     24  C   UNL     1      -0.467   8.501   3.416  1.00  0.00     0.251 C 
ATOM     25  H   UNL     1       0.642   7.200   2.376  1.00  0.00     0.163 HD
ATOM     26  O   UNL     1       0.123   9.489   2.985  1.00  0.00    -0.269 OA
BRANCH  24  27
ATOM     27  C   UNL     1      -1.532   8.661   4.427  1.00  0.00     0.039 A 
ATOM     28  C   UNL     1      -2.475   9.675   4.256  1.00  0.00     0.014 A 
ATOM     29  C   UNL     1      -1.605   7.808   5.532  1.00  0.00     0.014 A 
ATOM     30  C   UNL     1      -3.527   9.799   5.164  1.00  0.00     0.010 A 
ATOM     31  C   UNL     1      -2.697   7.881   6.391  1.00  0.00     0.010 A 
ATOM     32  C   UNL     1      -3.666   8.881   6.219  1.00  0.00    -0.014 A 
BRANCH  32  33
ATOM     33  C   UNL     1      -4.820   8.952   7.149  1.00  0.00     0.031 A 
ATOM     34  C   UNL     1      -4.599   9.230   8.611  1.00  0.00     0.074 A 
ATOM     35  C   UNL     1      -6.063   8.715   6.688  1.00  0.00     0.049 A 
ATOM     36  N   UNL     1      -5.476   9.287   9.581  1.00  0.00    -0.248 NA
ATOM     37  C   UNL     1      -3.209   9.450   9.043  1.00  0.00     0.031 C 
ATOM     38  C   UNL     1      -6.408   8.402   5.299  1.00  0.00     0.029 A 
ATOM     39  N   UNL     1      -7.271   8.698   7.340  1.00  0.00    -0.354 N 
ATOM     40  C   UNL     1      -4.745   9.537  10.736  1.00  0.00     0.074 A 
ATOM     41  C   UNL     1      -3.350   9.565  10.355  1.00  0.00     0.031 C 
ATOM     42  C   UNL     1      -7.739   8.259   5.198  1.00  0.00     0.029 A 
ATOM     43  C   UNL     1      -8.337   8.422   6.519  1.00  0.00     0.049 A 
ATOM     44  H   UNL     1      -7.364   8.868   8.305  1.00  0.00     0.167 HD
ATOM     45  C   UNL     1      -5.194   9.746  11.996  1.00  0.00     0.031 A 
ATOM     46  C   UNL     1      -9.649   8.305   6.798  1.00  0.00     0.031 A 
ATOM     47  C   UNL     1      -6.582   9.718  12.374  1.00  0.00     0.049 A 
ATOM     48  C   UNL     1     -10.117   8.504   8.213  1.00  0.00     0.074 A 
ATOM     49  C   UNL     1      -7.141   9.963  13.616  1.00  0.00     0.029 A 
ATOM     50  N   UNL     1      -7.629   9.423  11.515  1.00  0.00    -0.354 N 
ATOM     51  N   UNL     1      -9.419   8.805   9.281  1.00  0.00    -0.248 NA
ATOM     52  C   UNL     1     -11.559   8.357   8.457  1.00  0.00     0.031 C 
ATOM     53  C   UNL     1      -8.521   9.755  13.522  1.00  0.00     0.029 A 
ATOM     54  C   UNL     1      -8.829   9.450  12.206  1.00  0.00     0.049 A 
ATOM     55  H   UNL     1      -7.534   9.223  10.555  1.00  0.00     0.167 HD
ATOM     56  C   UNL     1     -10.339   8.915  10.316  1.00  0.00     0.074 A 
ATOM     57  C   UNL     1     -11.646   8.666   9.743  1.00  0.00     0.031 C 
ATOM     58  C   UNL     1     -10.122   9.200  11.623  1.00  0.00     0.031 A 
BRANCH  45  59
ATOM     59  C   UNL     1      -4.168  10.013  13.063  1.00  0.00    -0.014 A 
ATOM     60  C   UNL     1      -3.426  11.205  13.080  1.00  0.00     0.009 A 
ATOM     61  C   UNL     1      -3.966   9.075  14.089  1.00  0.00     0.009 A 
ATOM     62  C   UNL     1      -2.477  11.436  14.079  1.00  0.00     0.001 A 
ATOM     63  C   UNL     1      -3.041   9.323  15.104  1.00  0.00     0.001 A 
ATOM     64  C   UNL     1      -2.290  10.498  15.093  1.00  0.00     0.000 A 
ENDBRANCH  45  59
BRANCH  46  65
ATOM     65  C   UNL     1     -10.619   7.995   5.715  1.00  0.00    -0.014 A 
ATOM     66  C   UNL     1     -11.555   8.956   5.301  1.00  0.00     0.009 A 
ATOM     67  C   UNL     1     -10.626   6.734   5.099  1.00  0.00     0.009 A 
ATOM     68  C   UNL     1     -12.496   8.649   4.315  1.00  0.00     0.001 A 
ATOM     69  C   UNL     1     -11.547   6.441   4.091  1.00  0.00     0.001 A 
ATOM     70  C   UNL     1     -12.489   7.395   3.708  1.00  0.00     0.000 A 
ENDBRANCH  46  65
BRANCH  58  71
ATOM     71  C   UNL     1     -11.327   9.299  12.517  1.00  0.00    -0.014 A 
ATOM     72  C   UNL     1     -12.070   8.163  12.877  1.00  0.00     0.009 A 
ATOM     73  C   UNL     1     -11.700  10.547  13.040  1.00  0.00     0.009 A 
ATOM     74  C   UNL     1     -13.183   8.283  13.711  1.00  0.00     0.001 A 
ATOM     75  C   UNL     1     -12.792  10.659  13.901  1.00  0.00     0.001 A 
ATOM     76  C   UNL     1     -13.539   9.529  14.228  1.00  0.00     0.000 A 
ENDBRANCH  58  71
ENDBRANCH  32  33
ENDBRANCH  24  27
ENDBRANCH  22  23
ENDBRANCH  21  22
ENDBRANCH   1  21
TORSDOF 14
