REMARK SMILES C[C@H]1C[C@](C(=O)NCCCCCCNC(=O)c2ccc(-c3c4nc(c(-c5ccccc5)c5ccc([nH]5)c(-c5ccccc5)c5nc(c(-c6ccccc6)c6ccc3[nH]6)C=C5)C=C4)cc2)(N(C=O)C2CC2)CS1
REMARK SMILES IDX 10 1 9 2 8 3 7 4 5 5 6 6 4 8 1 9 2 10 3 11 72 12 71 13 65 14
REMARK SMILES IDX 66 15 67 16 68 17 69 18 70 19 11 20 12 21 13 22 14 23 15 24
REMARK SMILES IDX 16 26 17 27 18 28 64 29 19 30 63 31 20 32 21 33 22 34 57 35
REMARK SMILES IDX 23 36 62 37 56 38 58 39 24 40 61 41 55 42 54 43 25 45 47 46
REMARK SMILES IDX 32 47 46 48 33 49 36 50 45 51 59 52 34 53 35 54 44 56 60 57
REMARK SMILES IDX 37 58 26 59 27 60 31 61 28 62 30 63 29 64 48 65 49 66 53 67
REMARK SMILES IDX 50 68 52 69 51 70 38 71 39 72 43 73 40 74 42 75 41 76
REMARK H PARENT 7 7 14 25 58 44 36 55
REMARK Flexibility Score: inf
ROOT
ATOM      1  C   UNL     1      -5.822  -3.155   2.199  1.00  0.00     0.002 C 
ENDROOT
BRANCH   1   2
ATOM      2  C   UNL     1      -4.341  -2.792   2.384  1.00  0.00     0.021 C 
BRANCH   2   3
ATOM      3  C   UNL     1      -3.377  -3.931   2.036  1.00  0.00     0.116 C 
BRANCH   3   4
ATOM      4  N   UNL     1      -2.997  -3.856   0.642  1.00  0.00    -0.354 N 
ATOM      5  C   UNL     1      -1.931  -3.395  -0.046  1.00  0.00     0.246 C 
ATOM      6  O   UNL     1      -2.110  -3.416  -1.276  1.00  0.00    -0.272 OA
ATOM      7  H   UNL     1      -3.686  -4.234   0.049  1.00  0.00     0.163 HD
BRANCH   5   8
ATOM      8  C   UNL     1      -0.575  -2.819   0.523  1.00  0.00     0.131 C 
ATOM      9  C   UNL     1       0.188  -0.989  -2.395  1.00  0.00     0.019 C 
ATOM     10  C   UNL     1       0.655  -1.069  -0.950  1.00  0.00     0.046 C 
ATOM     11  C   UNL     1      -0.491  -1.323   0.028  1.00  0.00     0.054 C 
ATOM     12  S   UNL     1       1.808  -2.427  -0.699  1.00  0.00    -0.156 SA
ATOM     13  C   UNL     1       0.495  -3.603  -0.290  1.00  0.00     0.108 C 
BRANCH   8  14
ATOM     14  N   UNL     1      -0.378  -2.827   2.011  1.00  0.00    -0.327 N 
BRANCH  14  15
ATOM     15  C   UNL     1      -1.127  -1.961   2.816  1.00  0.00     0.341 C 
ATOM     16  O   UNL     1      -1.115  -1.913   4.041  1.00  0.00    -0.279 OA
ENDBRANCH  14  15
BRANCH  14  17
ATOM     17  C   UNL     1       0.557  -3.689   2.721  1.00  0.00     0.086 C 
ATOM     18  C   UNL     1       1.977  -4.109   2.436  1.00  0.00     0.027 C 
ATOM     19  C   UNL     1       1.742  -2.971   3.361  1.00  0.00     0.027 C 
ENDBRANCH  14  17
ENDBRANCH   8  14
ENDBRANCH   5   8
ENDBRANCH   3   4
ENDBRANCH   2   3
ENDBRANCH   1   2
BRANCH   1  20
ATOM     20  C   UNL     1      -6.322  -4.304   3.084  1.00  0.00     0.002 C 
BRANCH  20  21
ATOM     21  C   UNL     1      -6.033  -4.141   4.578  1.00  0.00     0.021 C 
BRANCH  21  22
ATOM     22  C   UNL     1      -6.651  -2.896   5.203  1.00  0.00     0.116 C 
BRANCH  22  23
ATOM     23  N   UNL     1      -8.106  -2.927   5.136  1.00  0.00    -0.352 N 
ATOM     24  C   UNL     1      -9.017  -2.910   6.158  1.00  0.00     0.251 C 
ATOM     25  H   UNL     1      -8.488  -2.965   4.229  1.00  0.00     0.163 HD
ATOM     26  O   UNL     1     -10.199  -3.185   5.946  1.00  0.00    -0.269 OA
BRANCH  24  27
ATOM     27  C   UNL     1      -8.576  -2.563   7.522  1.00  0.00     0.039 A 
ATOM     28  C   UNL     1      -9.007  -3.340   8.601  1.00  0.00     0.014 A 
ATOM     29  C   UNL     1      -7.743  -1.461   7.730  1.00  0.00     0.014 A 
ATOM     30  C   UNL     1      -8.558  -3.040   9.888  1.00  0.00     0.010 A 
ATOM     31  C   UNL     1      -7.240  -1.208   9.000  1.00  0.00     0.010 A 
ATOM     32  C   UNL     1      -7.651  -1.988  10.092  1.00  0.00    -0.014 A 
BRANCH  32  33
ATOM     33  C   UNL     1      -7.132  -1.657  11.440  1.00  0.00     0.031 A 
ATOM     34  C   UNL     1      -7.470  -0.331  12.062  1.00  0.00     0.074 A 
ATOM     35  C   UNL     1      -6.297  -2.507  12.066  1.00  0.00     0.049 A 
ATOM     36  N   UNL     1      -7.033   0.196  13.178  1.00  0.00    -0.248 NA
ATOM     37  C   UNL     1      -8.402   0.529  11.314  1.00  0.00     0.031 C 
ATOM     38  C   UNL     1      -5.878  -3.814  11.558  1.00  0.00     0.029 A 
ATOM     39  N   UNL     1      -5.641  -2.389  13.264  1.00  0.00    -0.354 N 
ATOM     40  C   UNL     1      -7.616   1.455  13.251  1.00  0.00     0.074 A 
ATOM     41  C   UNL     1      -8.396   1.632  12.047  1.00  0.00     0.031 C 
ATOM     42  C   UNL     1      -5.058  -4.389  12.453  1.00  0.00     0.029 A 
ATOM     43  C   UNL     1      -4.856  -3.473  13.570  1.00  0.00     0.049 A 
ATOM     44  H   UNL     1      -5.724  -1.601  13.850  1.00  0.00     0.167 HD
ATOM     45  C   UNL     1      -7.523   2.375  14.241  1.00  0.00     0.031 A 
ATOM     46  C   UNL     1      -4.056  -3.698  14.629  1.00  0.00     0.031 A 
ATOM     47  C   UNL     1      -6.752   2.192  15.440  1.00  0.00     0.049 A 
ATOM     48  C   UNL     1      -3.938  -2.646  15.696  1.00  0.00     0.074 A 
ATOM     49  C   UNL     1      -6.632   3.040  16.527  1.00  0.00     0.029 A 
ATOM     50  N   UNL     1      -5.966   1.082  15.708  1.00  0.00    -0.354 N 
ATOM     51  N   UNL     1      -4.537  -1.482  15.780  1.00  0.00    -0.248 NA
ATOM     52  C   UNL     1      -3.035  -2.941  16.817  1.00  0.00     0.031 C 
ATOM     53  C   UNL     1      -5.733   2.464  17.431  1.00  0.00     0.029 A 
ATOM     54  C   UNL     1      -5.338   1.233  16.932  1.00  0.00     0.049 A 
ATOM     55  H   UNL     1      -5.868   0.302  15.115  1.00  0.00     0.167 HD
ATOM     56  C   UNL     1      -4.113  -0.924  16.979  1.00  0.00     0.074 A 
ATOM     57  C   UNL     1      -3.209  -1.877  17.590  1.00  0.00     0.031 C 
ATOM     58  C   UNL     1      -4.449   0.269  17.528  1.00  0.00     0.031 A 
BRANCH  45  59
ATOM     59  C   UNL     1      -8.266   3.668  14.047  1.00  0.00    -0.014 A 
ATOM     60  C   UNL     1      -9.670   3.712  14.065  1.00  0.00     0.009 A 
ATOM     61  C   UNL     1      -7.553   4.860  13.848  1.00  0.00     0.009 A 
ATOM     62  C   UNL     1     -10.344   4.914  13.836  1.00  0.00     0.001 A 
ATOM     63  C   UNL     1      -8.229   6.066  13.652  1.00  0.00     0.001 A 
ATOM     64  C   UNL     1      -9.623   6.090  13.633  1.00  0.00     0.000 A 
ENDBRANCH  45  59
BRANCH  46  65
ATOM     65  C   UNL     1      -3.326  -4.986  14.749  1.00  0.00    -0.014 A 
ATOM     66  C   UNL     1      -3.717  -5.929  15.712  1.00  0.00     0.009 A 
ATOM     67  C   UNL     1      -2.244  -5.285  13.906  1.00  0.00     0.009 A 
ATOM     68  C   UNL     1      -3.025  -7.136  15.844  1.00  0.00     0.001 A 
ATOM     69  C   UNL     1      -1.572  -6.503  14.022  1.00  0.00     0.001 A 
ATOM     70  C   UNL     1      -1.957  -7.424  14.996  1.00  0.00     0.000 A 
ENDBRANCH  46  65
BRANCH  58  71
ATOM     71  C   UNL     1      -3.880   0.590  18.880  1.00  0.00    -0.014 A 
ATOM     72  C   UNL     1      -2.533   0.948  19.041  1.00  0.00     0.009 A 
ATOM     73  C   UNL     1      -4.724   0.590  20.002  1.00  0.00     0.009 A 
ATOM     74  C   UNL     1      -2.038   1.276  20.305  1.00  0.00     0.001 A 
ATOM     75  C   UNL     1      -4.234   0.944  21.258  1.00  0.00     0.001 A 
ATOM     76  C   UNL     1      -2.889   1.280  21.410  1.00  0.00     0.000 A 
ENDBRANCH  58  71
ENDBRANCH  32  33
ENDBRANCH  24  27
ENDBRANCH  22  23
ENDBRANCH  21  22
ENDBRANCH  20  21
ENDBRANCH   1  20
TORSDOF 16
