REMARK SMILES O=C(CCC(=O)/[NH+]=C1\S[C@H]2CS(=O)(=O)C[C@@H]2N1c1ccc(Oc2ccccc2)cc1)NCCCCCCNC(=O)c1ccc(-c2c3nc(c(-c4ccccc4)c4ccc([nH]4)c(-c4ccccc4)c4nc(c(-c5ccccc5)c5ccc2[nH]5)C=C4)C=C3)cc1
REMARK SMILES IDX 33 1 32 2 31 3 2 4 1 5 3 7 4 8 5 9 6 10 7 11 8 12 9 14 17 15
REMARK SMILES IDX 10 16 16 17 11 18 15 19 12 20 13 21 14 22 18 23 19 24 30 25
REMARK SMILES IDX 20 26 29 27 21 28 22 29 23 30 24 31 28 32 25 33 27 34 26 35
REMARK SMILES IDX 34 36 35 37 36 38 37 39 38 40 39 41 40 43 41 44 42 45 88 46
REMARK SMILES IDX 43 47 87 48 44 49 45 50 46 51 81 52 47 53 86 54 80 55 82 56
REMARK SMILES IDX 48 57 85 58 79 59 78 60 49 62 71 63 56 64 70 65 57 66 60 67
REMARK SMILES IDX 69 68 83 69 58 70 59 71 68 73 84 74 61 75 50 76 51 77 55 78
REMARK SMILES IDX 52 79 54 80 53 81 72 82 73 83 77 84 74 85 76 86 75 87 62 88
REMARK SMILES IDX 63 89 67 90 64 91 66 92 65 93
REMARK H PARENT 31 6 7 13 38 42 82 61 60 72
REMARK Flexibility Score: inf
ROOT
ATOM      1  C   UNL     1       1.786   0.275  -2.530  1.00  0.00     0.021 C 
ENDROOT
BRANCH   1   2
ATOM      2  C   UNL     1       2.186  -1.193  -2.400  1.00  0.00     0.116 C 
BRANCH   2   3
ATOM      3  N   UNL     1       3.608  -1.375  -2.156  1.00  0.00    -0.356 N 
ATOM      4  C   UNL     1       4.288  -1.568  -0.998  1.00  0.00     0.220 C 
ATOM      5  O   UNL     1       5.520  -1.592  -1.027  1.00  0.00    -0.275 OA
ATOM      6  H   UNL     1       4.170  -1.354  -2.964  1.00  0.00     0.163 HD
BRANCH   4   7
ATOM      7  C   UNL     1       3.535  -1.783   0.285  1.00  0.00     0.112 C 
BRANCH   7   8
ATOM      8  C   UNL     1       3.254  -0.582   1.175  1.00  0.00     0.138 C 
BRANCH   8   9
ATOM      9  C   UNL     1       3.138   0.857   0.663  1.00  0.00     0.308 C 
ATOM     10  O   UNL     1       2.318   1.598   1.208  1.00  0.00    -0.247 OA
ATOM     11  N   UNL     1       3.884   1.308  -0.394  1.00  0.00    -0.204 N 
ATOM     12  C   UNL     1       5.165   1.436  -0.340  1.00  0.00     0.319 C 
ATOM     13  H   UNL     1       3.422   1.544  -1.231  1.00  0.00     0.316 HD
ATOM     14  S   UNL     1       6.135   0.940   1.083  1.00  0.00    -0.029 SA
ATOM     15  N   UNL     1       6.019   1.845  -1.372  1.00  0.00    -0.217 N 
ATOM     16  C   UNL     1       7.669   1.294   0.224  1.00  0.00     0.120 C 
ATOM     17  C   UNL     1       7.320   1.187  -1.266  1.00  0.00     0.212 C 
ATOM     18  C   UNL     1       8.868   0.399   0.391  1.00  0.00     0.156 C 
ATOM     19  C   UNL     1       8.560   1.733  -1.944  1.00  0.00     0.188 C 
ATOM     20  S   UNL     1       9.877   0.948  -0.996  1.00  0.00     0.155 S 
ATOM     21  O   UNL     1      10.772   1.987  -0.524  1.00  0.00    -0.229 OA
ATOM     22  O   UNL     1      10.344  -0.209  -1.720  1.00  0.00    -0.229 OA
BRANCH  15  23
ATOM     23  C   UNL     1       5.682   2.622  -2.488  1.00  0.00     0.128 A 
ATOM     24  C   UNL     1       6.152   2.321  -3.776  1.00  0.00     0.056 A 
ATOM     25  C   UNL     1       4.881   3.769  -2.367  1.00  0.00     0.056 A 
ATOM     26  C   UNL     1       5.938   3.180  -4.862  1.00  0.00     0.051 A 
ATOM     27  C   UNL     1       4.640   4.624  -3.462  1.00  0.00     0.051 A 
ATOM     28  C   UNL     1       5.218   4.362  -4.703  1.00  0.00     0.127 A 
BRANCH  28  29
ATOM     29  O   UNL     1       5.111   5.124  -5.844  1.00  0.00    -0.457 OA
BRANCH  29  30
ATOM     30  C   UNL     1       4.660   6.420  -5.794  1.00  0.00     0.127 A 
ATOM     31  C   UNL     1       3.741   6.790  -6.775  1.00  0.00     0.047 A 
ATOM     32  C   UNL     1       5.132   7.382  -4.904  1.00  0.00     0.047 A 
ATOM     33  C   UNL     1       3.186   8.068  -6.788  1.00  0.00     0.004 A 
ATOM     34  C   UNL     1       4.588   8.670  -4.921  1.00  0.00     0.004 A 
ATOM     35  C   UNL     1       3.598   9.006  -5.846  1.00  0.00     0.000 A 
ENDBRANCH  29  30
ENDBRANCH  28  29
ENDBRANCH  15  23
ENDBRANCH   8   9
ENDBRANCH   7   8
ENDBRANCH   4   7
ENDBRANCH   2   3
ENDBRANCH   1   2
BRANCH   1  36
ATOM     36  C   UNL     1       2.733   1.097  -3.407  1.00  0.00     0.002 C 
BRANCH  36  37
ATOM     37  C   UNL     1       2.559   0.899  -4.908  1.00  0.00     0.002 C 
BRANCH  37  38
ATOM     38  C   UNL     1       1.170   1.271  -5.413  1.00  0.00     0.021 C 
BRANCH  38  39
ATOM     39  C   UNL     1       0.742   2.683  -5.029  1.00  0.00     0.116 C 
BRANCH  39  40
ATOM     40  N   UNL     1       1.447   3.675  -5.825  1.00  0.00    -0.352 N 
ATOM     41  C   UNL     1       0.905   4.424  -6.840  1.00  0.00     0.251 C 
ATOM     42  H   UNL     1       2.398   3.823  -5.618  1.00  0.00     0.163 HD
ATOM     43  O   UNL     1       1.583   4.828  -7.777  1.00  0.00    -0.269 OA
BRANCH  41  44
ATOM     44  C   UNL     1      -0.543   4.688  -6.822  1.00  0.00     0.039 A 
ATOM     45  C   UNL     1      -1.246   4.597  -8.022  1.00  0.00     0.014 A 
ATOM     46  C   UNL     1      -1.206   4.937  -5.616  1.00  0.00     0.014 A 
ATOM     47  C   UNL     1      -2.634   4.659  -8.000  1.00  0.00     0.010 A 
ATOM     48  C   UNL     1      -2.591   4.893  -5.583  1.00  0.00     0.010 A 
ATOM     49  C   UNL     1      -3.315   4.749  -6.776  1.00  0.00    -0.014 A 
BRANCH  49  50
ATOM     50  C   UNL     1      -4.791   4.676  -6.732  1.00  0.00     0.031 A 
ATOM     51  C   UNL     1      -5.584   5.846  -6.231  1.00  0.00     0.074 A 
ATOM     52  C   UNL     1      -5.404   3.536  -7.107  1.00  0.00     0.049 A 
ATOM     53  N   UNL     1      -6.880   5.971  -6.115  1.00  0.00    -0.248 NA
ATOM     54  C   UNL     1      -4.822   7.022  -5.776  1.00  0.00     0.031 C 
ATOM     55  C   UNL     1      -4.729   2.318  -7.565  1.00  0.00     0.029 A 
ATOM     56  N   UNL     1      -6.736   3.218  -7.169  1.00  0.00    -0.354 N 
ATOM     57  C   UNL     1      -7.086   7.228  -5.562  1.00  0.00     0.074 A 
ATOM     58  C   UNL     1      -5.784   7.803  -5.310  1.00  0.00     0.031 C 
ATOM     59  C   UNL     1      -5.652   1.405  -7.908  1.00  0.00     0.029 A 
ATOM     60  C   UNL     1      -6.978   1.954  -7.649  1.00  0.00     0.049 A 
ATOM     61  H   UNL     1      -7.451   3.837  -6.896  1.00  0.00     0.167 HD
ATOM     62  C   UNL     1      -8.257   7.857  -5.310  1.00  0.00     0.031 A 
ATOM     63  C   UNL     1      -8.141   1.311  -7.857  1.00  0.00     0.031 A 
ATOM     64  C   UNL     1      -9.547   7.279  -5.571  1.00  0.00     0.049 A 
ATOM     65  C   UNL     1      -9.427   2.026  -7.550  1.00  0.00     0.074 A 
ATOM     66  C   UNL     1     -10.795   7.850  -5.404  1.00  0.00     0.029 A 
ATOM     67  N   UNL     1      -9.751   5.993  -6.047  1.00  0.00    -0.354 N 
ATOM     68  N   UNL     1      -9.608   3.245  -7.103  1.00  0.00    -0.248 NA
ATOM     69  C   UNL     1     -10.669   1.279  -7.787  1.00  0.00     0.031 C 
ATOM     70  C   UNL     1     -11.758   6.887  -5.723  1.00  0.00     0.029 A 
ATOM     71  C   UNL     1     -11.108   5.740  -6.152  1.00  0.00     0.049 A 
ATOM     72  H   UNL     1      -9.038   5.354  -6.277  1.00  0.00     0.167 HD
ATOM     73  C   UNL     1     -10.984   3.423  -7.033  1.00  0.00     0.074 A 
ATOM     74  C   UNL     1     -11.587   2.192  -7.502  1.00  0.00     0.031 C 
ATOM     75  C   UNL     1     -11.685   4.506  -6.620  1.00  0.00     0.031 A 
BRANCH  62  76
ATOM     76  C   UNL     1      -8.187   9.233  -4.710  1.00  0.00    -0.014 A 
ATOM     77  C   UNL     1      -7.696  10.326  -5.444  1.00  0.00     0.009 A 
ATOM     78  C   UNL     1      -8.638   9.445  -3.399  1.00  0.00     0.009 A 
ATOM     79  C   UNL     1      -7.621  11.593  -4.862  1.00  0.00     0.001 A 
ATOM     80  C   UNL     1      -8.593  10.719  -2.831  1.00  0.00     0.001 A 
ATOM     81  C   UNL     1      -8.075  11.790  -3.558  1.00  0.00     0.000 A 
ENDBRANCH  62  76
BRANCH  63  82
ATOM     82  C   UNL     1      -8.147  -0.074  -8.398  1.00  0.00    -0.014 A 
ATOM     83  C   UNL     1      -8.631  -0.333  -9.690  1.00  0.00     0.009 A 
ATOM     84  C   UNL     1      -7.678  -1.147  -7.624  1.00  0.00     0.009 A 
ATOM     85  C   UNL     1      -8.675  -1.640 -10.182  1.00  0.00     0.001 A 
ATOM     86  C   UNL     1      -7.693  -2.449  -8.131  1.00  0.00     0.001 A 
ATOM     87  C   UNL     1      -8.202  -2.696  -9.404  1.00  0.00     0.000 A 
ENDBRANCH  63  82
BRANCH  75  88
ATOM     88  C   UNL     1     -13.184   4.420  -6.693  1.00  0.00    -0.014 A 
ATOM     89  C   UNL     1     -13.914   3.604  -5.816  1.00  0.00     0.009 A 
ATOM     90  C   UNL     1     -13.876   5.205  -7.629  1.00  0.00     0.009 A 
ATOM     91  C   UNL     1     -15.306   3.548  -5.899  1.00  0.00     0.001 A 
ATOM     92  C   UNL     1     -15.270   5.174  -7.687  1.00  0.00     0.001 A 
ATOM     93  C   UNL     1     -15.982   4.337  -6.829  1.00  0.00     0.000 A 
ENDBRANCH  75  88
ENDBRANCH  49  50
ENDBRANCH  41  44
ENDBRANCH  39  40
ENDBRANCH  38  39
ENDBRANCH  37  38
ENDBRANCH  36  37
ENDBRANCH   1  36
TORSDOF 18
