REMARK SMILES CC(C)[C@@H](NC(=O)[C@@H]1CC[C@H]2CCCC[C@@H]2[NH2+]1)C(=O)NCCCCCCNC(=O)c1ccc(-c2c3nc(c(-c4ccccc4)c4ccc([nH]4)c(-c4ccccc4)c4nc(c(-c5ccccc5)c5ccc2[nH]5)C=C4)C=C3)cc1
REMARK SMILES IDX 23 1 22 2 21 3 20 4 18 5 19 6 4 8 2 9 1 10 3 11 5 12 6 13
REMARK SMILES IDX 7 15 8 16 9 17 17 18 10 19 16 20 11 23 15 24 12 25 14 26
REMARK SMILES IDX 13 27 24 28 25 29 26 30 27 31 28 32 29 34 30 35 31 36 77 37
REMARK SMILES IDX 32 38 76 39 33 40 34 41 35 42 70 43 36 44 75 45 69 46 71 47
REMARK SMILES IDX 37 48 74 49 68 50 67 51 38 53 60 54 45 55 59 56 46 57 49 58
REMARK SMILES IDX 58 59 72 60 47 61 48 62 57 64 73 65 50 66 39 67 40 68 44 69
REMARK SMILES IDX 41 70 43 71 42 72 61 73 62 74 66 75 63 76 65 77 64 78 51 79
REMARK SMILES IDX 52 80 56 81 53 82 55 83 54 84
REMARK H PARENT 20 7 5 14 17 21 17 22 27 33 71 52 49 63
REMARK Flexibility Score: inf
ROOT
ATOM      1  C   UNL     1      -1.580   1.439  -1.385  1.00  0.00     0.002 C 
ENDROOT
BRANCH   1   2
ATOM      2  C   UNL     1      -3.052   1.250  -1.001  1.00  0.00     0.021 C 
BRANCH   2   3
ATOM      3  C   UNL     1      -3.425  -0.204  -0.768  1.00  0.00     0.116 C 
BRANCH   3   4
ATOM      4  N   UNL     1      -2.778  -0.680   0.432  1.00  0.00    -0.354 N 
ATOM      5  C   UNL     1      -3.263  -1.497   1.404  1.00  0.00     0.242 C 
ATOM      6  O   UNL     1      -2.632  -1.543   2.466  1.00  0.00    -0.273 OA
ATOM      7  H   UNL     1      -1.854  -0.369   0.565  1.00  0.00     0.163 HD
BRANCH   5   8
ATOM      8  C   UNL     1      -4.638  -2.176   1.248  1.00  0.00     0.174 C 
BRANCH   8   9
ATOM      9  C   UNL     1      -5.756  -1.147   1.635  1.00  0.00     0.015 C 
ATOM     10  C   UNL     1      -7.147  -1.789   1.714  1.00  0.00     0.010 C 
ATOM     11  C   UNL     1      -5.474  -0.446   2.973  1.00  0.00     0.010 C 
ENDBRANCH   8   9
BRANCH   8  12
ATOM     12  N   UNL     1      -4.895  -2.777  -0.085  1.00  0.00    -0.339 N 
ATOM     13  C   UNL     1      -4.207  -3.745  -0.777  1.00  0.00     0.278 C 
ATOM     14  H   UNL     1      -5.688  -2.424  -0.549  1.00  0.00     0.164 HD
ATOM     15  O   UNL     1      -4.874  -4.415  -1.574  1.00  0.00    -0.268 OA
BRANCH  13  16
ATOM     16  C   UNL     1      -2.656  -3.855  -0.724  1.00  0.00     0.272 C 
ATOM     17  C   UNL     1      -2.045  -4.936  -1.649  1.00  0.00     0.076 C 
ATOM     18  N   UNL     1      -2.155  -3.947   0.648  1.00  0.00    -0.333 N 
ATOM     19  C   UNL     1      -1.733  -6.269  -0.952  1.00  0.00     0.016 C 
ATOM     20  C   UNL     1      -2.237  -5.266   1.268  1.00  0.00     0.186 C 
ATOM     21  H   UNL     1      -2.694  -3.298   1.222  1.00  0.00     0.347 HD
ATOM     22  H   UNL     1      -1.161  -3.727   0.595  1.00  0.00     0.347 HD
ATOM     23  C   UNL     1      -2.585  -6.407   0.301  1.00  0.00     0.048 C 
ATOM     24  C   UNL     1      -3.235  -5.263   2.427  1.00  0.00     0.065 C 
ATOM     25  C   UNL     1      -2.419  -7.740   1.035  1.00  0.00     0.010 C 
ATOM     26  C   UNL     1      -3.200  -6.593   3.175  1.00  0.00     0.006 C 
ATOM     27  C   UNL     1      -3.367  -7.791   2.239  1.00  0.00     0.001 C 
ENDBRANCH  13  16
ENDBRANCH   8  12
ENDBRANCH   5   8
ENDBRANCH   3   4
ENDBRANCH   2   3
ENDBRANCH   1   2
BRANCH   1  28
ATOM     28  C   UNL     1      -1.146   0.679  -2.643  1.00  0.00     0.002 C 
BRANCH  28  29
ATOM     29  C   UNL     1      -2.008   0.945  -3.878  1.00  0.00     0.021 C 
BRANCH  29  30
ATOM     30  C   UNL     1      -2.224   2.420  -4.187  1.00  0.00     0.116 C 
BRANCH  30  31
ATOM     31  N   UNL     1      -0.980   3.142  -4.373  1.00  0.00    -0.352 N 
ATOM     32  C   UNL     1      -0.735   4.195  -5.225  1.00  0.00     0.251 C 
ATOM     33  H   UNL     1      -0.219   2.842  -3.825  1.00  0.00     0.163 HD
ATOM     34  O   UNL     1       0.384   4.649  -5.368  1.00  0.00    -0.269 OA
BRANCH  32  35
ATOM     35  C   UNL     1      -1.874   4.738  -5.990  1.00  0.00     0.039 A 
ATOM     36  C   UNL     1      -1.783   4.785  -7.381  1.00  0.00     0.014 A 
ATOM     37  C   UNL     1      -3.041   5.132  -5.330  1.00  0.00     0.014 A 
ATOM     38  C   UNL     1      -2.893   5.188  -8.123  1.00  0.00     0.010 A 
ATOM     39  C   UNL     1      -4.164   5.469  -6.073  1.00  0.00     0.010 A 
ATOM     40  C   UNL     1      -4.097   5.507  -7.475  1.00  0.00    -0.014 A 
BRANCH  40  41
ATOM     41  C   UNL     1      -5.298   5.910  -8.240  1.00  0.00     0.031 A 
ATOM     42  C   UNL     1      -5.835   7.306  -8.094  1.00  0.00     0.074 A 
ATOM     43  C   UNL     1      -5.941   5.009  -9.007  1.00  0.00     0.049 A 
ATOM     44  N   UNL     1      -6.921   7.830  -8.600  1.00  0.00    -0.248 NA
ATOM     45  C   UNL     1      -5.061   8.225  -7.244  1.00  0.00     0.031 C 
ATOM     46  C   UNL     1      -5.531   3.618  -9.207  1.00  0.00     0.029 A 
ATOM     47  N   UNL     1      -7.085   5.131  -9.754  1.00  0.00    -0.354 N 
ATOM     48  C   UNL     1      -6.972   9.129  -8.112  1.00  0.00     0.074 A 
ATOM     49  C   UNL     1      -5.835   9.299  -7.234  1.00  0.00     0.031 C 
ATOM     50  C   UNL     1      -6.399   3.021 -10.041  1.00  0.00     0.029 A 
ATOM     51  C   UNL     1      -7.444   3.974 -10.400  1.00  0.00     0.049 A 
ATOM     52  H   UNL     1      -7.599   5.968  -9.820  1.00  0.00     0.167 HD
ATOM     53  C   UNL     1      -7.873  10.101  -8.386  1.00  0.00     0.031 A 
ATOM     54  C   UNL     1      -8.504   3.710 -11.187  1.00  0.00     0.031 A 
ATOM     55  C   UNL     1      -8.993   9.933  -9.271  1.00  0.00     0.049 A 
ATOM     56  C   UNL     1      -9.504   4.799 -11.460  1.00  0.00     0.074 A 
ATOM     57  C   UNL     1      -9.937  10.870  -9.654  1.00  0.00     0.029 A 
ATOM     58  N   UNL     1      -9.319   8.748  -9.911  1.00  0.00    -0.354 N 
ATOM     59  N   UNL     1      -9.510   6.039 -11.034  1.00  0.00    -0.248 NA
ATOM     60  C   UNL     1     -10.638   4.454 -12.329  1.00  0.00     0.031 C 
ATOM     61  C   UNL     1     -10.860  10.238 -10.494  1.00  0.00     0.029 A 
ATOM     62  C   UNL     1     -10.460   8.923 -10.673  1.00  0.00     0.049 A 
ATOM     63  H   UNL     1      -8.813   7.907  -9.835  1.00  0.00     0.167 HD
ATOM     64  C   UNL     1     -10.628   6.631 -11.607  1.00  0.00     0.074 A 
ATOM     65  C   UNL     1     -11.271   5.616 -12.416  1.00  0.00     0.031 C 
ATOM     66  C   UNL     1     -11.080   7.902 -11.477  1.00  0.00     0.031 A 
BRANCH  53  67
ATOM     67  C   UNL     1      -7.682  11.427  -7.707  1.00  0.00    -0.014 A 
ATOM     68  C   UNL     1      -6.619  12.276  -8.055  1.00  0.00     0.009 A 
ATOM     69  C   UNL     1      -8.587  11.843  -6.718  1.00  0.00     0.009 A 
ATOM     70  C   UNL     1      -6.442  13.495  -7.398  1.00  0.00     0.001 A 
ATOM     71  C   UNL     1      -8.425  13.075  -6.083  1.00  0.00     0.001 A 
ATOM     72  C   UNL     1      -7.347  13.895  -6.415  1.00  0.00     0.000 A 
ENDBRANCH  53  67
BRANCH  54  73
ATOM     73  C   UNL     1      -8.667   2.361 -11.788  1.00  0.00    -0.014 A 
ATOM     74  C   UNL     1      -8.468   2.170 -13.164  1.00  0.00     0.009 A 
ATOM     75  C   UNL     1      -9.020   1.260 -10.993  1.00  0.00     0.009 A 
ATOM     76  C   UNL     1      -8.642   0.907 -13.735  1.00  0.00     0.001 A 
ATOM     77  C   UNL     1      -9.167  -0.007 -11.563  1.00  0.00     0.001 A 
ATOM     78  C   UNL     1      -8.987  -0.180 -12.934  1.00  0.00     0.000 A 
ENDBRANCH  54  73
BRANCH  66  79
ATOM     79  C   UNL     1     -12.304   8.281 -12.259  1.00  0.00    -0.014 A 
ATOM     80  C   UNL     1     -13.580   7.846 -11.871  1.00  0.00     0.009 A 
ATOM     81  C   UNL     1     -12.180   9.136 -13.365  1.00  0.00     0.009 A 
ATOM     82  C   UNL     1     -14.708   8.244 -12.593  1.00  0.00     0.001 A 
ATOM     83  C   UNL     1     -13.311   9.553 -14.068  1.00  0.00     0.001 A 
ATOM     84  C   UNL     1     -14.573   9.101 -13.685  1.00  0.00     0.000 A 
ENDBRANCH  66  79
ENDBRANCH  40  41
ENDBRANCH  32  35
ENDBRANCH  30  31
ENDBRANCH  29  30
ENDBRANCH  28  29
ENDBRANCH   1  28
TORSDOF 16
