REMARK SMILES Cc1ccc(-c2[nH]c3ccccc3c2[C@@H]2c3ccccc3C(=O)N2[C@H](C)C(=O)NCCCCCCNC(=O)c2ccc(-c3c4nc(c(-c5ccccc5)c5ccc([nH]5)c(-c5ccccc5)c5nc(c(-c6ccccc6)c6ccc3[nH]6)C=C5)C=C4)cc2)cc1
REMARK SMILES IDX 32 1 31 2 30 3 29 4 27 5 28 6 25 8 26 9 24 10 15 11 16 12
REMARK SMILES IDX 17 13 21 14 22 15 18 16 20 17 23 18 19 19 14 20 6 21 7 22
REMARK SMILES IDX 8 23 13 25 9 26 12 27 10 28 11 29 5 30 1 31 2 32 3 33 88 34
REMARK SMILES IDX 4 35 87 36 33 37 34 38 35 39 36 40 37 41 38 43 39 44 40 45
REMARK SMILES IDX 86 46 41 47 85 48 42 49 43 50 44 51 79 52 45 53 84 54 78 55
REMARK SMILES IDX 80 56 46 57 83 58 77 59 76 60 47 62 69 63 54 64 68 65 55 66
REMARK SMILES IDX 58 67 67 68 81 69 56 70 57 71 66 73 82 74 59 75 48 76 49 77
REMARK SMILES IDX 53 78 50 79 52 80 51 81 70 82 71 83 75 84 72 85 74 86 73 87
REMARK SMILES IDX 60 88 61 89 65 90 62 91 64 92 63 93
REMARK H PARENT 29 7 7 24 36 42 80 61 58 72
REMARK Flexibility Score: inf
ROOT
ATOM      1  C   UNL     1      -5.894  -5.175   0.771  1.00  0.00     0.002 C 
ENDROOT
BRANCH   1   2
ATOM      2  C   UNL     1      -5.188  -3.885   1.191  1.00  0.00     0.021 C 
BRANCH   2   3
ATOM      3  C   UNL     1      -6.019  -2.611   1.292  1.00  0.00     0.116 C 
BRANCH   3   4
ATOM      4  N   UNL     1      -6.975  -2.530   2.354  1.00  0.00    -0.354 N 
ATOM      5  C   UNL     1      -7.071  -1.538   3.291  1.00  0.00     0.242 C 
ATOM      6  O   UNL     1      -8.197  -1.351   3.769  1.00  0.00    -0.273 OA
ATOM      7  H   UNL     1      -7.630  -3.262   2.417  1.00  0.00     0.163 HD
BRANCH   5   8
ATOM      8  C   UNL     1      -5.827  -0.819   3.908  1.00  0.00     0.172 C 
ATOM      9  C   UNL     1      -5.021  -1.924   4.618  1.00  0.00     0.042 C 
BRANCH   8  10
ATOM     10  N   UNL     1      -4.930   0.220   3.340  1.00  0.00    -0.316 N 
ATOM     11  C   UNL     1      -4.882   0.797   1.978  1.00  0.00     0.151 C 
ATOM     12  C   UNL     1      -4.207   2.130   2.223  1.00  0.00    -0.008 A 
ATOM     13  C   UNL     1      -4.100   3.277   1.453  1.00  0.00     0.007 A 
ATOM     14  C   UNL     1      -3.680   2.160   3.509  1.00  0.00     0.045 A 
ATOM     15  C   UNL     1      -4.188   1.004   4.238  1.00  0.00     0.255 C 
ATOM     16  C   UNL     1      -3.363   4.368   1.946  1.00  0.00     0.000 A 
ATOM     17  C   UNL     1      -2.932   3.206   4.022  1.00  0.00     0.014 A 
ATOM     18  O   UNL     1      -4.027   0.852   5.425  1.00  0.00    -0.269 OA
ATOM     19  C   UNL     1      -2.754   4.320   3.210  1.00  0.00     0.001 A 
BRANCH  11  20
ATOM     20  C   UNL     1      -3.930   0.035   1.045  1.00  0.00     0.013 A 
ATOM     21  C   UNL     1      -4.011  -0.058  -0.355  1.00  0.00     0.052 A 
ATOM     22  N   UNL     1      -3.104  -1.009  -0.766  1.00  0.00    -0.354 N 
ATOM     23  C   UNL     1      -2.453  -1.573   0.294  1.00  0.00     0.046 A 
ATOM     24  H   UNL     1      -2.946  -1.253  -1.706  1.00  0.00     0.167 HD
ATOM     25  C   UNL     1      -2.848  -0.868   1.431  1.00  0.00     0.006 A 
ATOM     26  C   UNL     1      -1.564  -2.657   0.325  1.00  0.00     0.027 A 
ATOM     27  C   UNL     1      -2.227  -1.230   2.648  1.00  0.00     0.011 A 
ATOM     28  C   UNL     1      -1.035  -3.032   1.560  1.00  0.00     0.002 A 
ATOM     29  C   UNL     1      -1.341  -2.312   2.705  1.00  0.00     0.001 A 
BRANCH  21  30
ATOM     30  C   UNL     1      -4.836   0.593  -1.373  1.00  0.00    -0.002 A 
ATOM     31  C   UNL     1      -7.059   2.453  -4.584  1.00  0.00     0.044 C 
ATOM     32  C   UNL     1      -6.284   1.793  -3.482  1.00  0.00    -0.051 A 
ATOM     33  C   UNL     1      -5.298   2.510  -2.795  1.00  0.00     0.004 A 
ATOM     34  C   UNL     1      -6.524   0.464  -3.123  1.00  0.00     0.004 A 
ATOM     35  C   UNL     1      -4.565   1.904  -1.769  1.00  0.00     0.010 A 
ATOM     36  C   UNL     1      -5.809  -0.128  -2.075  1.00  0.00     0.010 A 
ENDBRANCH  21  30
ENDBRANCH  11  20
ENDBRANCH   8  10
ENDBRANCH   5   8
ENDBRANCH   3   4
ENDBRANCH   2   3
ENDBRANCH   1   2
BRANCH   1  37
ATOM     37  C   UNL     1      -6.866  -5.103  -0.415  1.00  0.00     0.002 C 
BRANCH  37  38
ATOM     38  C   UNL     1      -6.393  -4.343  -1.654  1.00  0.00     0.021 C 
BRANCH  38  39
ATOM     39  C   UNL     1      -5.317  -5.037  -2.475  1.00  0.00     0.116 C 
BRANCH  39  40
ATOM     40  N   UNL     1      -5.842  -5.708  -3.662  1.00  0.00    -0.352 N 
ATOM     41  C   UNL     1      -5.133  -6.322  -4.678  1.00  0.00     0.251 C 
ATOM     42  H   UNL     1      -6.823  -5.724  -3.749  1.00  0.00     0.163 HD
ATOM     43  O   UNL     1      -5.701  -6.930  -5.577  1.00  0.00    -0.269 OA
BRANCH  41  44
ATOM     44  C   UNL     1      -3.660  -6.325  -4.587  1.00  0.00     0.039 A 
ATOM     45  C   UNL     1      -3.024  -7.559  -4.442  1.00  0.00     0.014 A 
ATOM     46  C   UNL     1      -2.978  -5.130  -4.358  1.00  0.00     0.014 A 
ATOM     47  C   UNL     1      -1.785  -7.605  -3.816  1.00  0.00     0.010 A 
ATOM     48  C   UNL     1      -1.784  -5.178  -3.666  1.00  0.00     0.010 A 
ATOM     49  C   UNL     1      -1.234  -6.419  -3.325  1.00  0.00    -0.014 A 
BRANCH  49  50
ATOM     50  C   UNL     1      -0.176  -6.417  -2.324  1.00  0.00     0.031 A 
ATOM     51  C   UNL     1       1.222  -6.178  -2.714  1.00  0.00     0.074 A 
ATOM     52  C   UNL     1      -0.483  -6.660  -1.031  1.00  0.00     0.049 A 
ATOM     53  N   UNL     1       2.247  -6.644  -2.081  1.00  0.00    -0.248 NA
ATOM     54  C   UNL     1       1.569  -5.438  -3.920  1.00  0.00     0.031 C 
ATOM     55  C   UNL     1       0.381  -6.518   0.136  1.00  0.00     0.029 A 
ATOM     56  N   UNL     1      -1.605  -7.332  -0.553  1.00  0.00    -0.354 N 
ATOM     57  C   UNL     1       3.359  -6.020  -2.596  1.00  0.00     0.074 A 
ATOM     58  C   UNL     1       2.898  -5.382  -3.808  1.00  0.00     0.031 C 
ATOM     59  C   UNL     1      -0.106  -7.279   1.130  1.00  0.00     0.029 A 
ATOM     60  C   UNL     1      -1.212  -8.052   0.586  1.00  0.00     0.049 A 
ATOM     61  H   UNL     1      -2.509  -7.306  -0.942  1.00  0.00     0.167 HD
ATOM     62  C   UNL     1       4.502  -5.969  -1.853  1.00  0.00     0.031 A 
ATOM     63  C   UNL     1      -1.296  -9.414   0.614  1.00  0.00     0.031 A 
ATOM     64  C   UNL     1       4.403  -6.789  -0.643  1.00  0.00     0.049 A 
ATOM     65  C   UNL     1       0.040 -10.104   0.784  1.00  0.00     0.074 A 
ATOM     66  C   UNL     1       4.181  -6.481   0.690  1.00  0.00     0.029 A 
ATOM     67  N   UNL     1       4.241  -8.167  -0.759  1.00  0.00    -0.354 N 
ATOM     68  N   UNL     1       1.192  -9.530   0.575  1.00  0.00    -0.248 NA
ATOM     69  C   UNL     1       0.177 -11.513   1.151  1.00  0.00     0.031 C 
ATOM     70  C   UNL     1       3.793  -7.672   1.357  1.00  0.00     0.029 A 
ATOM     71  C   UNL     1       3.810  -8.707   0.439  1.00  0.00     0.049 A 
ATOM     72  H   UNL     1       4.410  -8.684  -1.579  1.00  0.00     0.167 HD
ATOM     73  C   UNL     1       2.196 -10.445   0.746  1.00  0.00     0.074 A 
ATOM     74  C   UNL     1       1.512 -11.669   1.123  1.00  0.00     0.031 C 
ATOM     75  C   UNL     1       3.508 -10.128   0.547  1.00  0.00     0.031 A 
BRANCH  62  76
ATOM     76  C   UNL     1       5.564  -4.906  -2.060  1.00  0.00    -0.014 A 
ATOM     77  C   UNL     1       6.367  -4.506  -0.975  1.00  0.00     0.009 A 
ATOM     78  C   UNL     1       5.766  -4.194  -3.255  1.00  0.00     0.009 A 
ATOM     79  C   UNL     1       7.226  -3.399  -1.048  1.00  0.00     0.001 A 
ATOM     80  C   UNL     1       6.594  -3.065  -3.329  1.00  0.00     0.001 A 
ATOM     81  C   UNL     1       7.314  -2.657  -2.218  1.00  0.00     0.000 A 
ENDBRANCH  62  76
BRANCH  63  82
ATOM     82  C   UNL     1      -2.424  -9.966  -0.189  1.00  0.00    -0.014 A 
ATOM     83  C   UNL     1      -3.743  -9.662   0.205  1.00  0.00     0.009 A 
ATOM     84  C   UNL     1      -2.212 -10.475  -1.478  1.00  0.00     0.009 A 
ATOM     85  C   UNL     1      -4.803  -9.756  -0.702  1.00  0.00     0.001 A 
ATOM     86  C   UNL     1      -3.280 -10.583  -2.378  1.00  0.00     0.001 A 
ATOM     87  C   UNL     1      -4.565 -10.190  -2.002  1.00  0.00     0.000 A 
ENDBRANCH  63  82
BRANCH  75  88
ATOM     88  C   UNL     1       4.644 -11.117   0.512  1.00  0.00    -0.014 A 
ATOM     89  C   UNL     1       4.502 -12.462   0.142  1.00  0.00     0.009 A 
ATOM     90  C   UNL     1       5.959 -10.655   0.737  1.00  0.00     0.009 A 
ATOM     91  C   UNL     1       5.611 -13.316   0.059  1.00  0.00     0.001 A 
ATOM     92  C   UNL     1       7.071 -11.492   0.613  1.00  0.00     0.001 A 
ATOM     93  C   UNL     1       6.894 -12.829   0.287  1.00  0.00     0.000 A 
ENDBRANCH  75  88
ENDBRANCH  49  50
ENDBRANCH  41  44
ENDBRANCH  39  40
ENDBRANCH  38  39
ENDBRANCH  37  38
ENDBRANCH   1  37
TORSDOF 16
