REMARK SMILES CCC(=O)N1CCc2cc(C(=O)NC3(C(=O)NCCCCCCNC(=O)c4ccc(-c5c6nc(c(-c7ccccc7)c7ccc([nH]7)c(-c7ccccc7)c7nc(c(-c8ccccc8)c8ccc5[nH]8)C=C7)C=C6)cc4)CCCC3)ccc21
REMARK SMILES IDX 19 1 18 2 17 3 15 4 16 5 14 7 75 8 78 9 76 10 77 11 13 12
REMARK SMILES IDX 11 13 12 14 10 16 5 17 6 18 81 19 7 20 8 21 80 22 9 23 79 24
REMARK SMILES IDX 3 25 4 26 2 27 1 28 20 29 21 30 22 31 23 32 24 33 25 34
REMARK SMILES IDX 26 36 27 37 28 38 74 39 29 40 73 41 30 42 31 43 32 44 67 45
REMARK SMILES IDX 33 46 72 47 66 48 68 49 34 50 71 51 65 52 64 53 35 55 57 56
REMARK SMILES IDX 42 57 56 58 43 59 46 60 55 61 69 62 44 63 45 64 54 66 70 67
REMARK SMILES IDX 47 68 36 69 37 70 41 71 38 72 40 73 39 74 58 75 59 76 63 77
REMARK SMILES IDX 60 78 62 79 61 80 48 81 49 82 53 83 50 84 52 85 51 86
REMARK H PARENT 17 6 13 15 24 35 68 54 46 65
REMARK Flexibility Score: inf
ROOT
ATOM      1  C   UNL     1       2.697  -5.398   2.328  1.00  0.00     0.021 C 
ENDROOT
BRANCH   1   2
ATOM      2  C   UNL     1       2.949  -4.035   1.690  1.00  0.00     0.116 C 
BRANCH   2   3
ATOM      3  N   UNL     1       4.307  -3.604   1.908  1.00  0.00    -0.354 N 
ATOM      4  C   UNL     1       5.323  -3.305   1.064  1.00  0.00     0.245 C 
ATOM      5  O   UNL     1       6.402  -3.078   1.631  1.00  0.00    -0.272 OA
ATOM      6  H   UNL     1       4.542  -3.507   2.859  1.00  0.00     0.163 HD
BRANCH   4   7
ATOM      7  C   UNL     1       5.221  -3.288  -0.505  1.00  0.00     0.119 C 
ATOM      8  C   UNL     1       3.936  -2.753  -1.165  1.00  0.00     0.038 C 
ATOM      9  C   UNL     1       5.335  -4.737  -1.030  1.00  0.00     0.038 C 
ATOM     10  C   UNL     1       3.212  -3.912  -1.848  1.00  0.00     0.003 C 
ATOM     11  C   UNL     1       3.945  -5.179  -1.459  1.00  0.00     0.003 C 
BRANCH   7  12
ATOM     12  N   UNL     1       6.439  -2.531  -0.941  1.00  0.00    -0.338 N 
ATOM     13  C   UNL     1       6.783  -1.199  -1.020  1.00  0.00     0.252 C 
ATOM     14  O   UNL     1       7.931  -0.908  -1.353  1.00  0.00    -0.269 OA
ATOM     15  H   UNL     1       7.163  -3.125  -1.242  1.00  0.00     0.164 HD
BRANCH  13  16
ATOM     16  C   UNL     1       5.802  -0.102  -0.821  1.00  0.00     0.040 A 
ATOM     17  N   UNL     1       2.629   2.540  -1.263  1.00  0.00    -0.312 N 
ATOM     18  C   UNL     1       3.187   3.523  -2.210  1.00  0.00     0.130 C 
ATOM     19  C   UNL     1       3.670   1.692  -0.855  1.00  0.00     0.047 A 
ATOM     20  C   UNL     1       4.630   3.116  -2.520  1.00  0.00     0.059 C 
ATOM     21  C   UNL     1       4.792   1.903  -1.662  1.00  0.00    -0.022 A 
ATOM     22  C   UNL     1       3.700   0.704   0.102  1.00  0.00     0.027 A 
ATOM     23  C   UNL     1       5.857   1.007  -1.673  1.00  0.00     0.019 A 
ATOM     24  C   UNL     1       4.799  -0.158   0.150  1.00  0.00     0.016 A 
BRANCH  17  25
ATOM     25  C   UNL     1       1.269   2.504  -1.039  1.00  0.00     0.226 C 
ATOM     26  O   UNL     1       0.495   3.119  -1.784  1.00  0.00    -0.275 OA
BRANCH  25  27
ATOM     27  C   UNL     1       0.680   1.773   0.155  1.00  0.00     0.097 C 
ATOM     28  C   UNL     1       0.424   0.283  -0.011  1.00  0.00     0.014 C 
ENDBRANCH  25  27
ENDBRANCH  17  25
ENDBRANCH  13  16
ENDBRANCH   7  12
ENDBRANCH   4   7
ENDBRANCH   2   3
ENDBRANCH   1   2
BRANCH   1  29
ATOM     29  C   UNL     1       2.328  -5.327   3.812  1.00  0.00     0.002 C 
BRANCH  29  30
ATOM     30  C   UNL     1       1.090  -4.481   4.132  1.00  0.00     0.002 C 
BRANCH  30  31
ATOM     31  C   UNL     1      -0.153  -4.805   3.300  1.00  0.00     0.021 C 
BRANCH  31  32
ATOM     32  C   UNL     1      -0.614  -6.255   3.395  1.00  0.00     0.116 C 
BRANCH  32  33
ATOM     33  N   UNL     1      -0.960  -6.626   4.758  1.00  0.00    -0.352 N 
ATOM     34  C   UNL     1      -2.139  -7.119   5.250  1.00  0.00     0.251 C 
ATOM     35  H   UNL     1      -0.243  -6.506   5.422  1.00  0.00     0.163 HD
ATOM     36  O   UNL     1      -2.332  -7.171   6.463  1.00  0.00    -0.269 OA
BRANCH  34  37
ATOM     37  C   UNL     1      -3.186  -7.576   4.316  1.00  0.00     0.039 A 
ATOM     38  C   UNL     1      -4.511  -7.200   4.544  1.00  0.00     0.014 A 
ATOM     39  C   UNL     1      -2.857  -8.377   3.219  1.00  0.00     0.014 A 
ATOM     40  C   UNL     1      -5.501  -7.580   3.636  1.00  0.00     0.010 A 
ATOM     41  C   UNL     1      -3.829  -8.688   2.276  1.00  0.00     0.010 A 
ATOM     42  C   UNL     1      -5.162  -8.299   2.478  1.00  0.00    -0.014 A 
BRANCH  42  43
ATOM     43  C   UNL     1      -6.185  -8.659   1.466  1.00  0.00     0.031 A 
ATOM     44  C   UNL     1      -6.493 -10.105   1.189  1.00  0.00     0.074 A 
ATOM     45  C   UNL     1      -6.784  -7.690   0.748  1.00  0.00     0.049 A 
ATOM     46  N   UNL     1      -7.298 -10.621   0.296  1.00  0.00    -0.248 NA
ATOM     47  C   UNL     1      -5.782 -11.102   2.005  1.00  0.00     0.031 C 
ATOM     48  C   UNL     1      -6.551  -6.252   0.903  1.00  0.00     0.029 A 
ATOM     49  N   UNL     1      -7.709  -7.769  -0.262  1.00  0.00    -0.354 N 
ATOM     50  C   UNL     1      -7.177 -11.998   0.431  1.00  0.00     0.074 A 
ATOM     51  C   UNL     1      -6.181 -12.237   1.452  1.00  0.00     0.031 C 
ATOM     52  C   UNL     1      -7.338  -5.585   0.043  1.00  0.00     0.029 A 
ATOM     53  C   UNL     1      -8.091  -6.546  -0.757  1.00  0.00     0.049 A 
ATOM     54  H   UNL     1      -8.066  -8.622  -0.600  1.00  0.00     0.167 HD
ATOM     55  C   UNL     1      -7.847 -12.977  -0.223  1.00  0.00     0.031 A 
ATOM     56  C   UNL     1      -8.944  -6.233  -1.750  1.00  0.00     0.031 A 
ATOM     57  C   UNL     1      -8.838 -12.736  -1.237  1.00  0.00     0.049 A 
ATOM     58  C   UNL     1      -9.643  -7.340  -2.490  1.00  0.00     0.074 A 
ATOM     59  C   UNL     1      -9.612 -13.656  -1.922  1.00  0.00     0.029 A 
ATOM     60  N   UNL     1      -9.186 -11.483  -1.718  1.00  0.00    -0.354 N 
ATOM     61  N   UNL     1      -9.570  -8.636  -2.304  1.00  0.00    -0.248 NA
ATOM     62  C   UNL     1     -10.550  -6.938  -3.575  1.00  0.00     0.031 C 
ATOM     63  C   UNL     1     -10.382 -12.964  -2.863  1.00  0.00     0.029 A 
ATOM     64  C   UNL     1     -10.139 -11.608  -2.715  1.00  0.00     0.049 A 
ATOM     65  H   UNL     1      -8.811 -10.630  -1.398  1.00  0.00     0.167 HD
ATOM     66  C   UNL     1     -10.446  -9.201  -3.221  1.00  0.00     0.074 A 
ATOM     67  C   UNL     1     -11.048  -8.106  -3.955  1.00  0.00     0.031 C 
ATOM     68  C   UNL     1     -10.731 -10.509  -3.434  1.00  0.00     0.031 A 
BRANCH  55  69
ATOM     69  C   UNL     1      -7.509 -14.401   0.129  1.00  0.00    -0.014 A 
ATOM     70  C   UNL     1      -7.827 -14.940   1.386  1.00  0.00     0.009 A 
ATOM     71  C   UNL     1      -6.883 -15.224  -0.821  1.00  0.00     0.009 A 
ATOM     72  C   UNL     1      -7.483 -16.256   1.700  1.00  0.00     0.001 A 
ATOM     73  C   UNL     1      -6.572 -16.550  -0.516  1.00  0.00     0.001 A 
ATOM     74  C   UNL     1      -6.860 -17.061   0.748  1.00  0.00     0.000 A 
ENDBRANCH  55  69
BRANCH  56  75
ATOM     75  C   UNL     1      -9.201  -4.810  -2.095  1.00  0.00    -0.014 A 
ATOM     76  C   UNL     1     -10.453  -4.231  -1.834  1.00  0.00     0.009 A 
ATOM     77  C   UNL     1      -8.204  -4.024  -2.694  1.00  0.00     0.009 A 
ATOM     78  C   UNL     1     -10.710  -2.906  -2.193  1.00  0.00     0.001 A 
ATOM     79  C   UNL     1      -8.454  -2.690  -3.023  1.00  0.00     0.001 A 
ATOM     80  C   UNL     1      -9.710  -2.136  -2.783  1.00  0.00     0.000 A 
ENDBRANCH  56  75
BRANCH  68  81
ATOM     81  C   UNL     1     -11.771 -10.830  -4.471  1.00  0.00    -0.014 A 
ATOM     82  C   UNL     1     -11.518 -10.665  -5.841  1.00  0.00     0.009 A 
ATOM     83  C   UNL     1     -13.009 -11.356  -4.067  1.00  0.00     0.009 A 
ATOM     84  C   UNL     1     -12.496 -10.991  -6.784  1.00  0.00     0.001 A 
ATOM     85  C   UNL     1     -13.972 -11.711  -5.012  1.00  0.00     0.001 A 
ATOM     86  C   UNL     1     -13.718 -11.520  -6.369  1.00  0.00     0.000 A 
ENDBRANCH  68  81
ENDBRANCH  42  43
ENDBRANCH  34  37
ENDBRANCH  32  33
ENDBRANCH  31  32
ENDBRANCH  30  31
ENDBRANCH  29  30
ENDBRANCH   1  29
TORSDOF 17
