REMARK SMILES CC(C)[C@H](NC(N)=O)C(=O)N[C@H](C)C(=O)NCCCCCCNC(=O)c1ccc(-c2c3nc(c(-c4ccccc4)c4ccc([nH]4)c(-c4ccccc4)c4nc(c(-c5ccccc5)c5ccc2[nH]5)C=C4)C=C3)cc1
REMARK SMILES IDX 19 1 18 2 17 3 16 4 14 5 15 6 12 8 13 9 11 10 9 11 10 12
REMARK SMILES IDX 4 14 2 15 1 16 3 17 5 18 6 19 7 21 8 22 20 25 21 26 22 27
REMARK SMILES IDX 23 28 24 29 25 31 26 32 27 33 73 34 28 35 72 36 29 37 30 38
REMARK SMILES IDX 31 39 66 40 32 41 71 42 65 43 67 44 33 45 70 46 64 47 63 48
REMARK SMILES IDX 34 50 56 51 41 52 55 53 42 54 45 55 54 56 68 57 43 58 44 59
REMARK SMILES IDX 53 61 69 62 46 63 35 64 36 65 40 66 37 67 39 68 38 69 57 70
REMARK SMILES IDX 58 71 62 72 59 73 61 74 60 75 47 76 48 77 52 78 49 79 51 80
REMARK SMILES IDX 50 81
REMARK H PARENT 16 7 11 13 5 20 7 23 7 24 23 30 67 49 45 60
REMARK Flexibility Score: inf
ROOT
ATOM      1  C   UNL     1      -3.269  -6.776  -4.724  1.00  0.00     0.002 C 
ENDROOT
BRANCH   1   2
ATOM      2  C   UNL     1      -2.519  -6.300  -3.480  1.00  0.00     0.021 C 
BRANCH   2   3
ATOM      3  C   UNL     1      -1.102  -5.786  -3.734  1.00  0.00     0.116 C 
BRANCH   3   4
ATOM      4  N   UNL     1      -1.074  -4.515  -4.441  1.00  0.00    -0.354 N 
ATOM      5  C   UNL     1      -0.672  -3.266  -4.049  1.00  0.00     0.242 C 
ATOM      6  O   UNL     1      -0.823  -2.343  -4.855  1.00  0.00    -0.273 OA
ATOM      7  H   UNL     1      -1.403  -4.561  -5.368  1.00  0.00     0.163 HD
BRANCH   5   8
ATOM      8  C   UNL     1      -0.237  -2.968  -2.588  1.00  0.00     0.168 C 
ATOM      9  C   UNL     1      -1.522  -2.677  -1.830  1.00  0.00     0.041 C 
BRANCH   8  10
ATOM     10  N   UNL     1       0.737  -3.988  -2.159  1.00  0.00    -0.343 N 
ATOM     11  C   UNL     1       1.194  -4.624  -1.055  1.00  0.00     0.243 C 
ATOM     12  O   UNL     1       2.152  -5.383  -1.264  1.00  0.00    -0.273 OA
ATOM     13  H   UNL     1       1.222  -4.323  -2.947  1.00  0.00     0.164 HD
BRANCH  11  14
ATOM     14  C   UNL     1       0.521  -4.636   0.335  1.00  0.00     0.175 C 
BRANCH  14  15
ATOM     15  C   UNL     1      -0.519  -5.797   0.386  1.00  0.00     0.015 C 
ATOM     16  C   UNL     1      -0.530  -6.523   1.736  1.00  0.00     0.010 C 
ATOM     17  C   UNL     1      -1.944  -5.473  -0.042  1.00  0.00     0.010 C 
ENDBRANCH  14  15
BRANCH  14  18
ATOM     18  N   UNL     1       0.187  -3.272   0.715  1.00  0.00    -0.326 N 
ATOM     19  C   UNL     1      -0.637  -2.863   1.710  1.00  0.00     0.312 C 
ATOM     20  H   UNL     1       0.611  -2.560   0.185  1.00  0.00     0.166 HD
ATOM     21  N   UNL     1      -0.737  -1.512   1.768  1.00  0.00    -0.352 N 
ATOM     22  O   UNL     1      -1.293  -3.568   2.458  1.00  0.00    -0.249 OA
ATOM     23  H   UNL     1      -0.203  -0.953   1.159  1.00  0.00     0.161 HD
ATOM     24  H   UNL     1      -1.343  -1.091   2.419  1.00  0.00     0.161 HD
ENDBRANCH  14  18
ENDBRANCH  11  14
ENDBRANCH   8  10
ENDBRANCH   5   8
ENDBRANCH   3   4
ENDBRANCH   2   3
ENDBRANCH   1   2
BRANCH   1  25
ATOM     25  C   UNL     1      -2.560  -7.863  -5.535  1.00  0.00     0.002 C 
BRANCH  25  26
ATOM     26  C   UNL     1      -2.185  -9.127  -4.755  1.00  0.00     0.021 C 
BRANCH  26  27
ATOM     27  C   UNL     1      -3.358  -9.860  -4.109  1.00  0.00     0.116 C 
BRANCH  27  28
ATOM     28  N   UNL     1      -4.342 -10.284  -5.090  1.00  0.00    -0.352 N 
ATOM     29  C   UNL     1      -4.842 -11.531  -5.362  1.00  0.00     0.251 C 
ATOM     30  H   UNL     1      -4.708  -9.561  -5.649  1.00  0.00     0.163 HD
ATOM     31  O   UNL     1      -5.502 -11.710  -6.382  1.00  0.00    -0.269 OA
BRANCH  29  32
ATOM     32  C   UNL     1      -4.595 -12.665  -4.444  1.00  0.00     0.039 A 
ATOM     33  C   UNL     1      -4.372 -13.931  -4.994  1.00  0.00     0.014 A 
ATOM     34  C   UNL     1      -4.641 -12.508  -3.056  1.00  0.00     0.014 A 
ATOM     35  C   UNL     1      -4.164 -15.026  -4.155  1.00  0.00     0.010 A 
ATOM     36  C   UNL     1      -4.354 -13.587  -2.220  1.00  0.00     0.010 A 
ATOM     37  C   UNL     1      -4.130 -14.861  -2.760  1.00  0.00    -0.014 A 
BRANCH  37  38
ATOM     38  C   UNL     1      -3.871 -16.022  -1.870  1.00  0.00     0.031 A 
ATOM     39  C   UNL     1      -4.926 -16.505  -0.910  1.00  0.00     0.074 A 
ATOM     40  C   UNL     1      -2.673 -16.636  -1.916  1.00  0.00     0.049 A 
ATOM     41  N   UNL     1      -4.890 -17.527  -0.092  1.00  0.00    -0.248 NA
ATOM     42  C   UNL     1      -6.175 -15.729  -0.844  1.00  0.00     0.031 C 
ATOM     43  C   UNL     1      -1.550 -16.238  -2.769  1.00  0.00     0.029 A 
ATOM     44  N   UNL     1      -2.203 -17.733  -1.239  1.00  0.00    -0.354 N 
ATOM     45  C   UNL     1      -6.102 -17.512   0.587  1.00  0.00     0.074 A 
ATOM     46  C   UNL     1      -6.827 -16.347   0.130  1.00  0.00     0.031 C 
ATOM     47  C   UNL     1      -0.540 -17.105  -2.598  1.00  0.00     0.029 A 
ATOM     48  C   UNL     1      -0.927 -18.096  -1.599  1.00  0.00     0.049 A 
ATOM     49  H   UNL     1      -2.729 -18.215  -0.561  1.00  0.00     0.167 HD
ATOM     50  C   UNL     1      -6.580 -18.399   1.493  1.00  0.00     0.031 A 
ATOM     51  C   UNL     1      -0.156 -19.115  -1.177  1.00  0.00     0.031 A 
ATOM     52  C   UNL     1      -5.859 -19.558   1.949  1.00  0.00     0.049 A 
ATOM     53  C   UNL     1      -0.706 -20.080  -0.164  1.00  0.00     0.074 A 
ATOM     54  C   UNL     1      -6.275 -20.542   2.829  1.00  0.00     0.029 A 
ATOM     55  N   UNL     1      -4.567 -19.884   1.566  1.00  0.00    -0.354 N 
ATOM     56  N   UNL     1      -1.884 -20.094   0.411  1.00  0.00    -0.248 NA
ATOM     57  C   UNL     1       0.176 -21.183   0.241  1.00  0.00     0.031 C 
ATOM     58  C   UNL     1      -5.214 -21.433   3.022  1.00  0.00     0.029 A 
ATOM     59  C   UNL     1      -4.162 -21.043   2.208  1.00  0.00     0.049 A 
ATOM     60  H   UNL     1      -4.019 -19.370   0.931  1.00  0.00     0.167 HD
ATOM     61  C   UNL     1      -1.898 -21.225   1.218  1.00  0.00     0.074 A 
ATOM     62  C   UNL     1      -0.617 -21.879   1.043  1.00  0.00     0.031 C 
ATOM     63  C   UNL     1      -2.884 -21.683   2.027  1.00  0.00     0.031 A 
BRANCH  50  64
ATOM     64  C   UNL     1      -7.951 -18.141   2.059  1.00  0.00    -0.014 A 
ATOM     65  C   UNL     1      -9.103 -18.257   1.263  1.00  0.00     0.009 A 
ATOM     66  C   UNL     1      -8.098 -17.815   3.416  1.00  0.00     0.009 A 
ATOM     67  C   UNL     1     -10.367 -18.011   1.804  1.00  0.00     0.001 A 
ATOM     68  C   UNL     1      -9.366 -17.602   3.963  1.00  0.00     0.001 A 
ATOM     69  C   UNL     1     -10.498 -17.690   3.155  1.00  0.00     0.000 A 
ENDBRANCH  50  64
BRANCH  51  70
ATOM     70  C   UNL     1       1.211 -19.295  -1.734  1.00  0.00    -0.014 A 
ATOM     71  C   UNL     1       1.506 -20.383  -2.570  1.00  0.00     0.009 A 
ATOM     72  C   UNL     1       2.232 -18.382  -1.426  1.00  0.00     0.009 A 
ATOM     73  C   UNL     1       2.800 -20.570  -3.060  1.00  0.00     0.001 A 
ATOM     74  C   UNL     1       3.518 -18.553  -1.944  1.00  0.00     0.001 A 
ATOM     75  C   UNL     1       3.803 -19.653  -2.751  1.00  0.00     0.000 A 
ENDBRANCH  51  70
BRANCH  63  76
ATOM     76  C   UNL     1      -2.634 -22.980   2.748  1.00  0.00    -0.014 A 
ATOM     77  C   UNL     1      -1.697 -23.076   3.788  1.00  0.00     0.009 A 
ATOM     78  C   UNL     1      -3.369 -24.121   2.388  1.00  0.00     0.009 A 
ATOM     79  C   UNL     1      -1.468 -24.300   4.421  1.00  0.00     0.001 A 
ATOM     80  C   UNL     1      -3.164 -25.334   3.046  1.00  0.00     0.001 A 
ATOM     81  C   UNL     1      -2.204 -25.426   4.052  1.00  0.00     0.000 A 
ENDBRANCH  63  76
ENDBRANCH  37  38
ENDBRANCH  29  32
ENDBRANCH  27  28
ENDBRANCH  26  27
ENDBRANCH  25  26
ENDBRANCH   1  25
TORSDOF 17
