REMARK SMILES O=C(NCCCCCCNC(=O)[C@@H]1[C@H](C(=O)Nc2ccc(Cn3cncn3)cc2)[C@@H]2C=C[C@H]1CC2)c1ccc(-c2c3nc(c(-c4ccccc4)c4ccc([nH]4)c(-c4ccccc4)c4nc(c(-c5ccccc5)c5ccc2[nH]5)C=C4)C=C3)cc1
REMARK SMILES IDX 7 1 6 2 5 3 4 4 3 5 1 6 2 7 36 9 37 10 83 11 38 12 82 13
REMARK SMILES IDX 39 14 40 15 41 16 76 17 42 18 81 19 75 20 77 21 43 22 80 23
REMARK SMILES IDX 74 24 73 25 44 27 66 28 51 29 65 30 52 31 55 32 64 33 78 34
REMARK SMILES IDX 53 35 54 36 63 38 79 39 56 40 45 41 46 42 50 43 47 44 49 45
REMARK SMILES IDX 48 46 67 47 68 48 72 49 69 50 71 51 70 52 57 53 58 54 62 55
REMARK SMILES IDX 59 56 61 57 60 58 8 59 9 60 10 61 11 62 12 64 13 65 14 66
REMARK SMILES IDX 33 67 30 68 32 69 34 70 31 71 35 72 15 73 16 74 17 75 18 77
REMARK SMILES IDX 19 78 29 79 20 80 28 81 21 82 22 83 23 84 24 85 27 86 25 87
REMARK SMILES IDX 26 88
REMARK H PARENT 3 8 77 26 55 37 10 63 17 76
REMARK Flexibility Score: inf
ROOT
ATOM      1  C   UNL     1       4.914   0.337   4.048  1.00  0.00     0.002 C 
ENDROOT
BRANCH   1   2
ATOM      2  C   UNL     1       4.347   1.452   3.164  1.00  0.00     0.002 C 
BRANCH   2   3
ATOM      3  C   UNL     1       4.761   1.444   1.687  1.00  0.00     0.021 C 
BRANCH   3   4
ATOM      4  C   UNL     1       4.485   0.145   0.932  1.00  0.00     0.116 C 
BRANCH   4   5
ATOM      5  N   UNL     1       3.083  -0.210   0.854  1.00  0.00    -0.352 N 
ATOM      6  O   UNL     1       1.013  -0.568   0.179  1.00  0.00    -0.269 OA
ATOM      7  C   UNL     1       2.057   0.081   0.003  1.00  0.00     0.251 C 
ATOM      8  H   UNL     1       2.804  -0.801   1.589  1.00  0.00     0.163 HD
BRANCH   7   9
ATOM      9  C   UNL     1       2.061   1.124  -1.062  1.00  0.00     0.039 A 
ATOM     10  C   UNL     1       3.169   1.846  -1.505  1.00  0.00     0.014 A 
ATOM     11  C   UNL     1       0.808   1.405  -1.649  1.00  0.00     0.014 A 
ATOM     12  C   UNL     1       3.017   2.852  -2.464  1.00  0.00     0.010 A 
ATOM     13  C   UNL     1       0.651   2.406  -2.605  1.00  0.00     0.010 A 
ATOM     14  C   UNL     1       1.756   3.148  -3.000  1.00  0.00    -0.014 A 
BRANCH  14  15
ATOM     15  C   UNL     1       1.677   4.101  -4.109  1.00  0.00     0.031 A 
ATOM     16  C   UNL     1       2.379   3.651  -5.343  1.00  0.00     0.074 A 
ATOM     17  C   UNL     1       0.951   5.237  -4.136  1.00  0.00     0.049 A 
ATOM     18  N   UNL     1       3.442   4.161  -5.872  1.00  0.00    -0.248 NA
ATOM     19  C   UNL     1       1.901   2.430  -6.009  1.00  0.00     0.031 C 
ATOM     20  C   UNL     1      -0.035   5.710  -3.164  1.00  0.00     0.029 A 
ATOM     21  N   UNL     1       0.890   6.186  -5.120  1.00  0.00    -0.354 N 
ATOM     22  C   UNL     1       3.678   3.438  -7.039  1.00  0.00     0.074 A 
ATOM     23  C   UNL     1       2.784   2.308  -7.002  1.00  0.00     0.031 C 
ATOM     24  C   UNL     1      -0.742   6.733  -3.704  1.00  0.00     0.029 A 
ATOM     25  C   UNL     1      -0.169   7.078  -4.996  1.00  0.00     0.049 A 
ATOM     26  H   UNL     1       1.542   6.234  -5.856  1.00  0.00     0.167 HD
ATOM     27  C   UNL     1       4.439   3.945  -8.049  1.00  0.00     0.031 A 
ATOM     28  C   UNL     1      -0.567   8.008  -5.903  1.00  0.00     0.031 A 
ATOM     29  C   UNL     1       5.227   5.070  -7.614  1.00  0.00     0.049 A 
ATOM     30  C   UNL     1       0.564   8.266  -6.820  1.00  0.00     0.074 A 
ATOM     31  C   UNL     1       6.189   5.278  -6.647  1.00  0.00     0.029 A 
ATOM     32  N   UNL     1       4.793   6.319  -7.984  1.00  0.00    -0.354 N 
ATOM     33  N   UNL     1       1.643   8.902  -6.471  1.00  0.00    -0.248 NA
ATOM     34  C   UNL     1       0.668   7.473  -8.032  1.00  0.00     0.031 C 
ATOM     35  C   UNL     1       5.925   6.586  -6.143  1.00  0.00     0.029 A 
ATOM     36  C   UNL     1       4.866   7.120  -6.877  1.00  0.00     0.049 A 
ATOM     37  H   UNL     1       4.486   6.589  -8.880  1.00  0.00     0.167 HD
ATOM     38  C   UNL     1       2.664   8.233  -7.126  1.00  0.00     0.074 A 
ATOM     39  C   UNL     1       1.997   7.444  -8.159  1.00  0.00     0.031 C 
ATOM     40  C   UNL     1       3.917   8.169  -6.587  1.00  0.00     0.031 A 
BRANCH  27  41
ATOM     41  C   UNL     1       4.152   3.705  -9.513  1.00  0.00    -0.014 A 
ATOM     42  C   UNL     1       4.997   4.300 -10.470  1.00  0.00     0.009 A 
ATOM     43  C   UNL     1       2.930   3.190  -9.984  1.00  0.00     0.009 A 
ATOM     44  C   UNL     1       4.593   4.465 -11.800  1.00  0.00     0.001 A 
ATOM     45  C   UNL     1       2.543   3.313 -11.322  1.00  0.00     0.001 A 
ATOM     46  C   UNL     1       3.359   3.982 -12.222  1.00  0.00     0.000 A 
ENDBRANCH  27  41
BRANCH  28  47
ATOM     47  C   UNL     1      -1.912   8.550  -6.195  1.00  0.00    -0.014 A 
ATOM     48  C   UNL     1      -2.065   9.735  -6.938  1.00  0.00     0.009 A 
ATOM     49  C   UNL     1      -3.048   7.744  -6.010  1.00  0.00     0.009 A 
ATOM     50  C   UNL     1      -3.297  10.071  -7.516  1.00  0.00     0.001 A 
ATOM     51  C   UNL     1      -4.279   8.082  -6.586  1.00  0.00     0.001 A 
ATOM     52  C   UNL     1      -4.398   9.236  -7.354  1.00  0.00     0.000 A 
ENDBRANCH  28  47
BRANCH  40  53
ATOM     53  C   UNL     1       4.245   9.084  -5.434  1.00  0.00    -0.014 A 
ATOM     54  C   UNL     1       3.516   9.117  -4.232  1.00  0.00     0.009 A 
ATOM     55  C   UNL     1       5.412   9.859  -5.523  1.00  0.00     0.009 A 
ATOM     56  C   UNL     1       3.919   9.937  -3.172  1.00  0.00     0.001 A 
ATOM     57  C   UNL     1       5.829  10.657  -4.457  1.00  0.00     0.001 A 
ATOM     58  C   UNL     1       5.077  10.704  -3.285  1.00  0.00     0.000 A 
ENDBRANCH  40  53
ENDBRANCH  14  15
ENDBRANCH   7   9
ENDBRANCH   4   5
ENDBRANCH   3   4
ENDBRANCH   2   3
ENDBRANCH   1   2
BRANCH   1  59
ATOM     59  C   UNL     1       6.435   0.154   4.053  1.00  0.00     0.021 C 
BRANCH  59  60
ATOM     60  C   UNL     1       7.275   1.381   4.395  1.00  0.00     0.116 C 
BRANCH  60  61
ATOM     61  N   UNL     1       6.884   2.062   5.617  1.00  0.00    -0.356 N 
ATOM     62  C   UNL     1       7.709   2.698   6.501  1.00  0.00     0.224 C 
ATOM     63  H   UNL     1       5.923   2.065   5.831  1.00  0.00     0.163 HD
ATOM     64  O   UNL     1       7.306   3.750   7.003  1.00  0.00    -0.275 OA
BRANCH  62  65
ATOM     65  C   UNL     1       9.089   2.136   6.784  1.00  0.00     0.098 C 
ATOM     66  C   UNL     1       9.233   0.693   7.344  1.00  0.00     0.098 C 
ATOM     67  C   UNL     1      10.048   3.095   7.571  1.00  0.00     0.025 C 
ATOM     68  C   UNL     1      10.538   0.616   8.205  1.00  0.00     0.025 C 
ATOM     69  C   UNL     1      10.094   2.804   9.059  1.00  0.00    -0.027 C 
ATOM     70  C   UNL     1      11.477   2.727   7.098  1.00  0.00     0.009 C 
ATOM     71  C   UNL     1      10.388   1.536   9.387  1.00  0.00    -0.027 C 
ATOM     72  C   UNL     1      11.721   1.214   7.378  1.00  0.00     0.009 C 
BRANCH  66  73
ATOM     73  C   UNL     1       8.061  -0.167   7.900  1.00  0.00     0.228 C 
ATOM     74  O   UNL     1       7.670  -1.121   7.207  1.00  0.00    -0.274 OA
ATOM     75  N   UNL     1       7.559  -0.121   9.173  1.00  0.00    -0.326 N 
ATOM     76  H   UNL     1       7.248  -0.991   9.512  1.00  0.00     0.169 HD
BRANCH  75  77
ATOM     77  C   UNL     1       7.406   0.930  10.082  1.00  0.00     0.041 A 
ATOM     78  C   UNL     1       7.525   0.702  11.452  1.00  0.00     0.026 A 
ATOM     79  C   UNL     1       7.068   2.201   9.656  1.00  0.00     0.026 A 
ATOM     80  C   UNL     1       7.548   1.788  12.342  1.00  0.00     0.008 A 
ATOM     81  C   UNL     1       7.101   3.291  10.520  1.00  0.00     0.008 A 
ATOM     82  C   UNL     1       7.413   3.102  11.866  1.00  0.00    -0.026 A 
BRANCH  82  83
ATOM     83  C   UNL     1       7.583   4.302  12.759  1.00  0.00     0.181 C 
BRANCH  83  84
ATOM     84  N   UNL     1       6.309   4.792  13.239  1.00  0.00    -0.249 N 
ATOM     85  C   UNL     1       5.501   4.218  14.169  1.00  0.00     0.220 A 
ATOM     86  N   UNL     1       5.798   5.963  12.809  1.00  0.00    -0.160 NA
ATOM     87  N   UNL     1       4.442   4.970  14.354  1.00  0.00    -0.224 NA
ATOM     88  C   UNL     1       4.656   6.015  13.500  1.00  0.00     0.246 A 
ENDBRANCH  83  84
ENDBRANCH  82  83
ENDBRANCH  75  77
ENDBRANCH  66  73
ENDBRANCH  62  65
ENDBRANCH  60  61
ENDBRANCH  59  60
ENDBRANCH   1  59
TORSDOF 17
