REMARK SMILES COc1ccc(/C=C2/C(=O)N(c3ccccc3)C(=O)[NH+]=C2NCCCCCCNC(=O)c2ccc(-c3c4nc(c(-c5ccccc5)c5ccc([nH]5)c(-c5ccccc5)c5nc(c(-c6ccccc6)c6ccc3[nH]6)C=C5)C=C4)cc2)cc1C(=O)[O-]
REMARK SMILES IDX 26 1 25 2 24 3 23 4 22 5 7 6 8 7 9 8 21 9 10 10 11 11 20 12
REMARK SMILES IDX 18 13 19 16 6 17 3 18 4 19 81 20 5 21 80 22 2 23 1 24 82 25
REMARK SMILES IDX 83 26 84 27 12 28 13 29 17 30 14 31 16 32 15 33 27 34 28 35
REMARK SMILES IDX 29 36 30 37 31 39 32 40 33 41 79 42 34 43 78 44 35 45 36 46
REMARK SMILES IDX 37 47 72 48 38 49 77 50 71 51 73 52 39 53 76 54 70 55 69 56
REMARK SMILES IDX 40 58 62 59 47 60 61 61 48 62 51 63 60 64 74 65 49 66 50 67
REMARK SMILES IDX 59 69 75 70 52 71 41 72 42 73 46 74 43 75 45 76 44 77 63 78
REMARK SMILES IDX 64 79 68 80 65 81 67 82 66 83 53 84 54 85 58 86 55 87 57 88
REMARK SMILES IDX 56 89
REMARK H PARENT 20 14 22 15 29 38 73 57 51 68
REMARK Flexibility Score: inf
ROOT
ATOM      1  C   UNL     1      -1.935   1.599  -1.235  1.00  0.00     0.002 C 
ENDROOT
BRANCH   1   2
ATOM      2  C   UNL     1      -0.849   2.516  -0.575  1.00  0.00     0.003 C 
BRANCH   2   3
ATOM      3  C   UNL     1       0.775   3.088  -1.084  1.00  0.00     0.037 C 
BRANCH   3   4
ATOM      4  C   UNL     1       1.743   3.598  -2.982  1.00  0.00     0.194 C 
BRANCH   4   5
ATOM      5  N   UNL     1       1.208   4.544  -4.215  1.00  0.00    -0.305 N 
ATOM      6  C   UNL     1       1.323   6.504  -1.915  1.00  0.00     0.030 C 
ATOM      7  C   UNL     1       1.463   6.851  -3.198  1.00  0.00     0.129 C 
ATOM      8  C   UNL     1       1.898   8.196  -3.607  1.00  0.00     0.328 C 
ATOM      9  C   UNL     1       1.076   5.922  -4.285  1.00  0.00     0.236 C 
ATOM     10  O   UNL     1       2.692   8.838  -2.924  1.00  0.00    -0.249 OA
ATOM     11  N   UNL     1       1.301   8.598  -4.785  1.00  0.00    -0.155 N 
ATOM     12  N   UNL     1       0.518   6.438  -5.345  1.00  0.00    -0.209 N 
ATOM     13  C   UNL     1       0.314   7.809  -5.370  1.00  0.00     0.448 C 
ATOM     14  H   UNL     1       0.250   5.871  -6.104  1.00  0.00     0.270 HD
ATOM     15  H   UNL     1       0.940   4.057  -5.028  1.00  0.00     0.256 HD
ATOM     16  O   UNL     1      -0.712   8.285  -5.853  1.00  0.00    -0.212 OA
BRANCH   6  17
ATOM     17  C   UNL     1       1.085   5.091  -1.670  1.00  0.00    -0.024 A 
ATOM     18  C   UNL     1       1.592   1.573  -2.268  1.00  0.00     0.127 A 
ATOM     19  C   UNL     1       0.092   2.375  -2.886  1.00  0.00     0.048 A 
ATOM     20  C   UNL     1       2.856   2.543  -1.456  1.00  0.00     0.040 A 
ATOM     21  C   UNL     1      -0.218   4.135  -2.508  1.00  0.00     0.012 A 
ATOM     22  C   UNL     1       2.581   4.266  -1.109  1.00  0.00     0.022 A 
BRANCH  18  23
ATOM     23  O   UNL     1       1.635   0.202  -2.237  1.00  0.00    -0.496 OA
ATOM     24  C   UNL     1       1.826  -0.249  -0.886  1.00  0.00     0.278 C 
ENDBRANCH  18  23
BRANCH  20  25
ATOM     25  C   UNL     1       4.192   2.020  -1.136  1.00  0.00     0.075 C 
ATOM     26  O   UNL     1       4.979   2.538  -0.370  1.00  0.00    -0.545 OA
ATOM     27  O   UNL     1       4.480   0.920  -1.842  1.00  0.00    -0.545 OA
ENDBRANCH  20  25
ENDBRANCH   6  17
BRANCH  11  28
ATOM     28  C   UNL     1       1.476   9.938  -5.197  1.00  0.00     0.111 A 
ATOM     29  C   UNL     1       0.712  10.974  -4.650  1.00  0.00     0.044 A 
ATOM     30  C   UNL     1       2.502  10.227  -6.104  1.00  0.00     0.044 A 
ATOM     31  C   UNL     1       0.981  12.296  -5.010  1.00  0.00     0.004 A 
ATOM     32  C   UNL     1       2.765  11.549  -6.461  1.00  0.00     0.004 A 
ATOM     33  C   UNL     1       2.008  12.583  -5.912  1.00  0.00     0.000 A 
ENDBRANCH  11  28
ENDBRANCH   4   5
ENDBRANCH   3   4
ENDBRANCH   2   3
ENDBRANCH   1   2
BRANCH   1  34
ATOM     34  C   UNL     1      -1.683   0.118  -1.588  1.00  0.00     0.021 C 
BRANCH  34  35
ATOM     35  C   UNL     1      -1.340  -0.796  -0.418  1.00  0.00     0.116 C 
BRANCH  35  36
ATOM     36  N   UNL     1      -2.421  -1.647   0.030  1.00  0.00    -0.352 N 
ATOM     37  C   UNL     1      -2.307  -2.865   0.666  1.00  0.00     0.251 C 
ATOM     38  H   UNL     1      -3.335  -1.323  -0.138  1.00  0.00     0.163 HD
ATOM     39  O   UNL     1      -3.307  -3.544   0.882  1.00  0.00    -0.269 OA
BRANCH  37  40
ATOM     40  C   UNL     1      -0.971  -3.387   1.065  1.00  0.00     0.039 A 
ATOM     41  C   UNL     1      -0.665  -4.721   0.782  1.00  0.00     0.014 A 
ATOM     42  C   UNL     1      -0.042  -2.601   1.757  1.00  0.00     0.014 A 
ATOM     43  C   UNL     1       0.565  -5.260   1.175  1.00  0.00     0.010 A 
ATOM     44  C   UNL     1       1.211  -3.124   2.100  1.00  0.00     0.010 A 
ATOM     45  C   UNL     1       1.520  -4.467   1.836  1.00  0.00    -0.014 A 
BRANCH  45  46
ATOM     46  C   UNL     1       2.807  -5.070   2.285  1.00  0.00     0.031 A 
ATOM     47  C   UNL     1       3.100  -5.251   3.752  1.00  0.00     0.074 A 
ATOM     48  C   UNL     1       3.710  -5.489   1.376  1.00  0.00     0.049 A 
ATOM     49  N   UNL     1       4.112  -5.857   4.324  1.00  0.00    -0.248 NA
ATOM     50  C   UNL     1       2.141  -4.665   4.701  1.00  0.00     0.031 C 
ATOM     51  C   UNL     1       3.578  -5.350  -0.075  1.00  0.00     0.029 A 
ATOM     52  N   UNL     1       4.910  -6.139   1.540  1.00  0.00    -0.354 N 
ATOM     53  C   UNL     1       3.910  -5.726   5.693  1.00  0.00     0.074 A 
ATOM     54  C   UNL     1       2.712  -4.933   5.866  1.00  0.00     0.031 C 
ATOM     55  C   UNL     1       4.628  -5.939  -0.669  1.00  0.00     0.029 A 
ATOM     56  C   UNL     1       5.520  -6.476   0.356  1.00  0.00     0.049 A 
ATOM     57  H   UNL     1       5.296  -6.343   2.422  1.00  0.00     0.167 HD
ATOM     58  C   UNL     1       4.636  -6.238   6.717  1.00  0.00     0.031 A 
ATOM     59  C   UNL     1       6.659  -7.155   0.116  1.00  0.00     0.031 A 
ATOM     60  C   UNL     1       5.827  -7.029   6.558  1.00  0.00     0.049 A 
ATOM     61  C   UNL     1       7.458  -7.699   1.269  1.00  0.00     0.074 A 
ATOM     62  C   UNL     1       6.598  -7.634   7.536  1.00  0.00     0.029 A 
ATOM     63  N   UNL     1       6.426  -7.319   5.342  1.00  0.00    -0.354 N 
ATOM     64  N   UNL     1       7.205  -7.637   2.553  1.00  0.00    -0.248 NA
ATOM     65  C   UNL     1       8.695  -8.421   0.934  1.00  0.00     0.031 C 
ATOM     66  C   UNL     1       7.695  -8.243   6.916  1.00  0.00     0.029 A 
ATOM     67  C   UNL     1       7.574  -8.066   5.547  1.00  0.00     0.049 A 
ATOM     68  H   UNL     1       6.085  -7.035   4.463  1.00  0.00     0.167 HD
ATOM     69  C   UNL     1       8.235  -8.330   3.177  1.00  0.00     0.074 A 
ATOM     70  C   UNL     1       9.105  -8.822   2.129  1.00  0.00     0.031 C 
ATOM     71  C   UNL     1       8.441  -8.541   4.500  1.00  0.00     0.031 A 
BRANCH  58  72
ATOM     72  C   UNL     1       4.159  -5.946   8.114  1.00  0.00    -0.014 A 
ATOM     73  C   UNL     1       2.985  -6.529   8.619  1.00  0.00     0.009 A 
ATOM     74  C   UNL     1       4.910  -5.104   8.949  1.00  0.00     0.009 A 
ATOM     75  C   UNL     1       2.551  -6.240   9.915  1.00  0.00     0.001 A 
ATOM     76  C   UNL     1       4.490  -4.841  10.255  1.00  0.00     0.001 A 
ATOM     77  C   UNL     1       3.305  -5.400  10.732  1.00  0.00     0.000 A 
ENDBRANCH  58  72
BRANCH  59  78
ATOM     78  C   UNL     1       7.104  -7.390  -1.283  1.00  0.00    -0.014 A 
ATOM     79  C   UNL     1       7.058  -8.676  -1.843  1.00  0.00     0.009 A 
ATOM     80  C   UNL     1       7.587  -6.328  -2.064  1.00  0.00     0.009 A 
ATOM     81  C   UNL     1       7.509  -8.898  -3.146  1.00  0.00     0.001 A 
ATOM     82  C   UNL     1       8.010  -6.548  -3.376  1.00  0.00     0.001 A 
ATOM     83  C   UNL     1       7.979  -7.834  -3.913  1.00  0.00     0.000 A 
ENDBRANCH  59  78
BRANCH  71  84
ATOM     84  C   UNL     1       9.645  -9.354   4.890  1.00  0.00    -0.014 A 
ATOM     85  C   UNL     1      10.944  -8.836   4.770  1.00  0.00     0.009 A 
ATOM     86  C   UNL     1       9.474 -10.643   5.419  1.00  0.00     0.009 A 
ATOM     87  C   UNL     1      12.049  -9.606   5.138  1.00  0.00     0.001 A 
ATOM     88  C   UNL     1      10.579 -11.400   5.814  1.00  0.00     0.001 A 
ATOM     89  C   UNL     1      11.866 -10.885   5.663  1.00  0.00     0.000 A 
ENDBRANCH  71  84
ENDBRANCH  45  46
ENDBRANCH  37  40
ENDBRANCH  35  36
ENDBRANCH  34  35
ENDBRANCH   1  34
TORSDOF 16
