REMARK SMILES CC[C@H]1CC[C@](C[C@@H]2CCCc3ccccc32)(C(=O)NCCCCCCNC(=O)c2ccc(-c3c4nc(c(-c5ccccc5)c5ccc([nH]5)c(-c5ccccc5)c5nc(c(-c6ccccc6)c6ccc3[nH]6)C=C5)C=C4)cc2)C1
REMARK SMILES IDX 23 1 22 2 21 3 20 4 18 5 19 6 6 8 3 9 4 10 78 11 5 12 2 13
REMARK SMILES IDX 1 14 7 15 8 16 9 17 17 18 10 19 12 20 16 21 11 22 13 23
REMARK SMILES IDX 15 24 14 25 24 26 25 27 26 28 27 29 28 30 29 32 30 33 31 34
REMARK SMILES IDX 77 35 32 36 76 37 33 38 34 39 35 40 70 41 36 42 75 43 69 44
REMARK SMILES IDX 71 45 37 46 74 47 68 48 67 49 38 51 60 52 45 53 59 54 46 55
REMARK SMILES IDX 49 56 58 57 72 58 47 59 48 60 57 62 73 63 50 64 39 65 40 66
REMARK SMILES IDX 44 67 41 68 43 69 42 70 61 71 62 72 66 73 63 74 65 75 64 76
REMARK SMILES IDX 51 77 52 78 56 79 53 80 55 81 54 82
REMARK H PARENT 20 7 27 31 71 50 49 61
REMARK Flexibility Score: inf
ROOT
ATOM      1  C   UNL     1      -2.603  -4.589  -7.173  1.00  0.00     0.002 C 
ENDROOT
BRANCH   1   2
ATOM      2  C   UNL     1      -1.332  -3.739  -7.096  1.00  0.00     0.021 C 
BRANCH   2   3
ATOM      3  C   UNL     1      -1.187  -2.877  -5.846  1.00  0.00     0.116 C 
BRANCH   3   4
ATOM      4  N   UNL     1      -1.136  -3.637  -4.608  1.00  0.00    -0.356 N 
ATOM      5  C   UNL     1      -0.520  -3.346  -3.417  1.00  0.00     0.226 C 
ATOM      6  O   UNL     1      -0.761  -4.111  -2.480  1.00  0.00    -0.274 OA
ATOM      7  H   UNL     1      -1.620  -4.494  -4.627  1.00  0.00     0.163 HD
BRANCH   5   8
ATOM      8  C   UNL     1       0.524  -2.183  -3.308  1.00  0.00     0.050 C 
ATOM      9  C   UNL     1       0.300  -0.550  -1.372  1.00  0.00    -0.010 C 
ATOM     10  C   UNL     1      -0.276   0.096  -2.628  1.00  0.00     0.005 C 
ATOM     11  C   UNL     1       0.871  -1.916  -1.809  1.00  0.00     0.020 C 
ATOM     12  C   UNL     1      -0.144  -0.884  -3.783  1.00  0.00     0.017 C 
BRANCH   9  13
ATOM     13  C   UNL     1       1.219   0.460  -0.639  1.00  0.00     0.000 C 
ATOM     14  C   UNL     1       2.258  -0.094   0.325  1.00  0.00     0.004 C 
ENDBRANCH   9  13
BRANCH   8  15
ATOM     15  C   UNL     1       1.772  -2.761  -4.099  1.00  0.00     0.025 C 
BRANCH  15  16
ATOM     16  C   UNL     1       3.025  -2.004  -4.640  1.00  0.00     0.020 C 
ATOM     17  C   UNL     1       4.009  -1.453  -3.606  1.00  0.00     0.009 C 
ATOM     18  C   UNL     1       2.748  -0.983  -5.721  1.00  0.00    -0.042 A 
ATOM     19  C   UNL     1       3.554  -0.120  -3.063  1.00  0.00     0.005 C 
ATOM     20  C   UNL     1       2.758   0.393  -5.436  1.00  0.00    -0.045 A 
ATOM     21  C   UNL     1       2.517  -1.404  -7.040  1.00  0.00     0.004 A 
ATOM     22  C   UNL     1       3.245   0.933  -4.118  1.00  0.00     0.036 C 
ATOM     23  C   UNL     1       2.393   1.308  -6.435  1.00  0.00     0.004 A 
ATOM     24  C   UNL     1       2.228  -0.478  -8.043  1.00  0.00     0.000 A 
ATOM     25  C   UNL     1       2.126   0.873  -7.731  1.00  0.00     0.000 A 
ENDBRANCH  15  16
ENDBRANCH   8  15
ENDBRANCH   5   8
ENDBRANCH   3   4
ENDBRANCH   2   3
ENDBRANCH   1   2
BRANCH   1  26
ATOM     26  C   UNL     1      -3.925  -3.861  -6.915  1.00  0.00     0.002 C 
BRANCH  26  27
ATOM     27  C   UNL     1      -4.190  -2.616  -7.764  1.00  0.00     0.021 C 
BRANCH  27  28
ATOM     28  C   UNL     1      -4.071  -2.806  -9.271  1.00  0.00     0.116 C 
BRANCH  28  29
ATOM     29  N   UNL     1      -4.993  -3.800  -9.791  1.00  0.00    -0.352 N 
ATOM     30  C   UNL     1      -5.870  -3.716 -10.845  1.00  0.00     0.251 C 
ATOM     31  H   UNL     1      -4.989  -4.662  -9.316  1.00  0.00     0.163 HD
ATOM     32  O   UNL     1      -6.670  -4.617 -11.052  1.00  0.00    -0.269 OA
BRANCH  30  33
ATOM     33  C   UNL     1      -5.869  -2.520 -11.718  1.00  0.00     0.039 A 
ATOM     34  C   UNL     1      -7.095  -1.951 -12.074  1.00  0.00     0.014 A 
ATOM     35  C   UNL     1      -4.677  -1.967 -12.195  1.00  0.00     0.014 A 
ATOM     36  C   UNL     1      -7.123  -0.793 -12.856  1.00  0.00     0.010 A 
ATOM     37  C   UNL     1      -4.704  -0.774 -12.914  1.00  0.00     0.010 A 
ATOM     38  C   UNL     1      -5.927  -0.175 -13.254  1.00  0.00    -0.014 A 
BRANCH  38  39
ATOM     39  C   UNL     1      -5.939   1.099 -14.018  1.00  0.00     0.031 A 
ATOM     40  C   UNL     1      -5.386   1.152 -15.417  1.00  0.00     0.074 A 
ATOM     41  C   UNL     1      -6.391   2.225 -13.430  1.00  0.00     0.049 A 
ATOM     42  N   UNL     1      -5.262   2.181 -16.217  1.00  0.00    -0.248 NA
ATOM     43  C   UNL     1      -4.885  -0.111 -15.986  1.00  0.00     0.031 C 
ATOM     44  C   UNL     1      -6.917   2.319 -12.066  1.00  0.00     0.029 A 
ATOM     45  N   UNL     1      -6.474   3.512 -13.904  1.00  0.00    -0.354 N 
ATOM     46  C   UNL     1      -4.650   1.697 -17.366  1.00  0.00     0.074 A 
ATOM     47  C   UNL     1      -4.393   0.290 -17.150  1.00  0.00     0.031 C 
ATOM     48  C   UNL     1      -7.287   3.587 -11.822  1.00  0.00     0.029 A 
ATOM     49  C   UNL     1      -6.987   4.404 -12.993  1.00  0.00     0.049 A 
ATOM     50  H   UNL     1      -6.193   3.770 -14.811  1.00  0.00     0.167 HD
ATOM     51  C   UNL     1      -4.341   2.361 -18.505  1.00  0.00     0.031 A 
ATOM     52  C   UNL     1      -7.183   5.734 -13.084  1.00  0.00     0.031 A 
ATOM     53  C   UNL     1      -4.622   3.754 -18.733  1.00  0.00     0.049 A 
ATOM     54  C   UNL     1      -6.823   6.443 -14.362  1.00  0.00     0.074 A 
ATOM     55  C   UNL     1      -4.421   4.492 -19.886  1.00  0.00     0.029 A 
ATOM     56  N   UNL     1      -5.156   4.617 -17.791  1.00  0.00    -0.354 N 
ATOM     57  N   UNL     1      -6.331   5.949 -15.472  1.00  0.00    -0.248 NA
ATOM     58  C   UNL     1      -7.056   7.894 -14.402  1.00  0.00     0.031 C 
ATOM     59  C   UNL     1      -4.776   5.818 -19.622  1.00  0.00     0.029 A 
ATOM     60  C   UNL     1      -5.258   5.890 -18.326  1.00  0.00     0.049 A 
ATOM     61  H   UNL     1      -5.423   4.364 -16.878  1.00  0.00     0.167 HD
ATOM     62  C   UNL     1      -6.231   7.020 -16.351  1.00  0.00     0.074 A 
ATOM     63  C   UNL     1      -6.729   8.185 -15.652  1.00  0.00     0.031 C 
ATOM     64  C   UNL     1      -5.767   7.038 -17.623  1.00  0.00     0.031 A 
BRANCH  51  65
ATOM     65  C   UNL     1      -3.653   1.598 -19.603  1.00  0.00    -0.014 A 
ATOM     66  C   UNL     1      -4.336   0.640 -20.367  1.00  0.00     0.009 A 
ATOM     67  C   UNL     1      -2.322   1.905 -19.930  1.00  0.00     0.009 A 
ATOM     68  C   UNL     1      -3.694  -0.010 -21.424  1.00  0.00     0.001 A 
ATOM     69  C   UNL     1      -1.692   1.275 -21.004  1.00  0.00     0.001 A 
ATOM     70  C   UNL     1      -2.376   0.314 -21.746  1.00  0.00     0.000 A 
ENDBRANCH  51  65
BRANCH  52  71
ATOM     71  C   UNL     1      -7.741   6.498 -11.936  1.00  0.00    -0.014 A 
ATOM     72  C   UNL     1      -9.009   7.095 -12.022  1.00  0.00     0.009 A 
ATOM     73  C   UNL     1      -6.987   6.680 -10.766  1.00  0.00     0.009 A 
ATOM     74  C   UNL     1      -9.489   7.894 -10.982  1.00  0.00     0.001 A 
ATOM     75  C   UNL     1      -7.484   7.450  -9.713  1.00  0.00     0.001 A 
ATOM     76  C   UNL     1      -8.727   8.069  -9.828  1.00  0.00     0.000 A 
ENDBRANCH  52  71
BRANCH  64  77
ATOM     77  C   UNL     1      -5.820   8.347 -18.360  1.00  0.00    -0.014 A 
ATOM     78  C   UNL     1      -4.963   9.408 -18.032  1.00  0.00     0.009 A 
ATOM     79  C   UNL     1      -6.719   8.503 -19.428  1.00  0.00     0.009 A 
ATOM     80  C   UNL     1      -5.029  10.612 -18.736  1.00  0.00     0.001 A 
ATOM     81  C   UNL     1      -6.760   9.696 -20.151  1.00  0.00     0.001 A 
ATOM     82  C   UNL     1      -5.923  10.752 -19.797  1.00  0.00     0.000 A 
ENDBRANCH  64  77
ENDBRANCH  38  39
ENDBRANCH  30  33
ENDBRANCH  28  29
ENDBRANCH  27  28
ENDBRANCH  26  27
ENDBRANCH   1  26
TORSDOF 16
