REMARK SMILES C#CCNC(=O)C[N@@H+](CC(=O)NCCCCCCNC(=O)c1ccc(-c2c3nc(c(-c4ccccc4)c4ccc([nH]4)c(-c4ccccc4)c4nc(c(-c5ccccc5)c5ccc2[nH]5)C=C4)C=C3)cc1)C(C)(C)C
REMARK SMILES IDX 14 1 13 2 12 3 10 4 11 5 9 7 8 8 7 10 5 11 4 12 6 14 3 15
REMARK SMILES IDX 2 16 1 17 70 18 71 19 72 20 73 21 15 22 16 23 17 24 18 25
REMARK SMILES IDX 19 26 20 27 21 29 22 30 23 31 69 32 24 33 68 34 25 35 26 36
REMARK SMILES IDX 27 37 62 38 28 39 67 40 61 41 63 42 29 43 66 44 60 45 59 46
REMARK SMILES IDX 30 48 52 49 37 50 51 51 38 52 41 53 50 54 64 55 39 56 40 57
REMARK SMILES IDX 49 59 65 60 42 61 31 62 32 63 36 64 33 65 35 66 34 67 53 68
REMARK SMILES IDX 54 69 58 70 55 71 57 72 56 73 43 74 44 75 48 76 45 77 47 78
REMARK SMILES IDX 46 79
REMARK H PARENT 12 6 8 9 4 13 19 28 63 47 41 58
REMARK Flexibility Score: inf
ROOT
ATOM      1  C   UNL     1      -6.088   2.769  -3.070  1.00  0.00     0.021 C 
ENDROOT
BRANCH   1   2
ATOM      2  C   UNL     1      -5.766   1.469  -3.808  1.00  0.00     0.116 C 
BRANCH   2   3
ATOM      3  N   UNL     1      -4.792   1.686  -4.859  1.00  0.00    -0.351 N 
ATOM      4  C   UNL     1      -3.462   1.392  -4.927  1.00  0.00     0.275 C 
ATOM      5  O   UNL     1      -2.904   1.602  -6.010  1.00  0.00    -0.269 OA
ATOM      6  H   UNL     1      -5.153   2.122  -5.664  1.00  0.00     0.163 HD
BRANCH   4   7
ATOM      7  C   UNL     1      -2.693   0.767  -3.755  1.00  0.00     0.364 C 
BRANCH   7   8
ATOM      8  N   UNL     1      -2.139   1.688  -2.720  1.00  0.00    -0.315 N 
ATOM      9  H   UNL     1      -1.475   1.125  -2.189  1.00  0.00     0.349 HD
BRANCH   8  10
ATOM     10  C   UNL     1      -3.172   2.099  -1.754  1.00  0.00     0.364 C 
BRANCH  10  11
ATOM     11  C   UNL     1      -2.728   2.292  -0.307  1.00  0.00     0.275 C 
ATOM     12  N   UNL     1      -2.186   1.267   0.401  1.00  0.00    -0.340 N 
ATOM     13  H   UNL     1      -2.076   1.429   1.366  1.00  0.00     0.164 HD
ATOM     14  O   UNL     1      -2.974   3.343   0.292  1.00  0.00    -0.268 OA
BRANCH  12  15
ATOM     15  C   UNL     1      -1.752  -0.023  -0.066  1.00  0.00     0.206 C 
BRANCH  15  16
ATOM     16  C   UNL     1      -0.232  -0.023  -0.066  1.00  0.00    -0.085 C 
ATOM     17  C   UNL     1       1.072  -0.023  -0.066  1.00  0.00     0.006 C 
ENDBRANCH  15  16
ENDBRANCH  12  15
ENDBRANCH  10  11
ENDBRANCH   8  10
BRANCH   8  18
ATOM     18  C   UNL     1      -1.177   2.736  -3.175  1.00  0.00     0.090 C 
ATOM     19  C   UNL     1      -1.810   3.897  -3.977  1.00  0.00     0.078 C 
ATOM     20  C   UNL     1      -0.455   3.387  -1.969  1.00  0.00     0.078 C 
ATOM     21  C   UNL     1      -0.054   2.104  -4.034  1.00  0.00     0.078 C 
ENDBRANCH   8  18
ENDBRANCH   7   8
ENDBRANCH   4   7
ENDBRANCH   2   3
ENDBRANCH   1   2
BRANCH   1  22
ATOM     22  C   UNL     1      -7.344   3.502  -3.540  1.00  0.00     0.002 C 
BRANCH  22  23
ATOM     23  C   UNL     1      -8.668   2.778  -3.295  1.00  0.00     0.002 C 
BRANCH  23  24
ATOM     24  C   UNL     1      -8.912   2.282  -1.866  1.00  0.00     0.021 C 
BRANCH  24  25
ATOM     25  C   UNL     1      -8.740   3.321  -0.759  1.00  0.00     0.116 C 
BRANCH  25  26
ATOM     26  N   UNL     1      -9.595   4.479  -0.944  1.00  0.00    -0.352 N 
ATOM     27  C   UNL     1     -10.621   4.961  -0.174  1.00  0.00     0.251 C 
ATOM     28  H   UNL     1      -9.407   5.004  -1.755  1.00  0.00     0.163 HD
ATOM     29  O   UNL     1     -11.336   5.859  -0.610  1.00  0.00    -0.269 OA
BRANCH  27  30
ATOM     30  C   UNL     1     -10.891   4.408   1.171  1.00  0.00     0.039 A 
ATOM     31  C   UNL     1     -12.221   4.199   1.548  1.00  0.00     0.014 A 
ATOM     32  C   UNL     1      -9.861   4.164   2.085  1.00  0.00     0.014 A 
ATOM     33  C   UNL     1     -12.517   3.714   2.824  1.00  0.00     0.010 A 
ATOM     34  C   UNL     1     -10.153   3.620   3.336  1.00  0.00     0.010 A 
ATOM     35  C   UNL     1     -11.485   3.408   3.724  1.00  0.00    -0.014 A 
BRANCH  35  36
ATOM     36  C   UNL     1     -11.795   2.893   5.080  1.00  0.00     0.031 A 
ATOM     37  C   UNL     1     -11.505   3.729   6.296  1.00  0.00     0.074 A 
ATOM     38  C   UNL     1     -12.304   1.655   5.224  1.00  0.00     0.049 A 
ATOM     39  N   UNL     1     -11.721   3.453   7.559  1.00  0.00    -0.248 NA
ATOM     40  C   UNL     1     -10.866   5.034   6.068  1.00  0.00     0.031 C 
ATOM     41  C   UNL     1     -12.576   0.720   4.131  1.00  0.00     0.029 A 
ATOM     42  N   UNL     1     -12.679   0.970   6.352  1.00  0.00    -0.354 N 
ATOM     43  C   UNL     1     -11.226   4.537   8.272  1.00  0.00     0.074 A 
ATOM     44  C   UNL     1     -10.661   5.455   7.307  1.00  0.00     0.031 C 
ATOM     45  C   UNL     1     -13.093  -0.410   4.641  1.00  0.00     0.029 A 
ATOM     46  C   UNL     1     -13.172  -0.285   6.094  1.00  0.00     0.049 A 
ATOM     47  H   UNL     1     -12.602   1.343   7.260  1.00  0.00     0.167 HD
ATOM     48  C   UNL     1     -11.252   4.759   9.608  1.00  0.00     0.031 A 
ATOM     49  C   UNL     1     -13.643  -1.227   6.931  1.00  0.00     0.031 A 
ATOM     50  C   UNL     1     -11.830   3.858  10.569  1.00  0.00     0.049 A 
ATOM     51  C   UNL     1     -13.710  -0.941   8.403  1.00  0.00     0.074 A 
ATOM     52  C   UNL     1     -11.974   4.028  11.935  1.00  0.00     0.029 A 
ATOM     53  N   UNL     1     -12.359   2.614  10.262  1.00  0.00    -0.354 N 
ATOM     54  N   UNL     1     -13.320   0.129   9.054  1.00  0.00    -0.248 NA
ATOM     55  C   UNL     1     -14.303  -1.982   9.253  1.00  0.00     0.031 C 
ATOM     56  C   UNL     1     -12.556   2.868  12.461  1.00  0.00     0.029 A 
ATOM     57  C   UNL     1     -12.813   1.996  11.415  1.00  0.00     0.049 A 
ATOM     58  H   UNL     1     -12.405   2.227   9.358  1.00  0.00     0.167 HD
ATOM     59  C   UNL     1     -13.639  -0.102  10.385  1.00  0.00     0.074 A 
ATOM     60  C   UNL     1     -14.269  -1.405  10.446  1.00  0.00     0.031 C 
ATOM     61  C   UNL     1     -13.429   0.696  11.461  1.00  0.00     0.031 A 
BRANCH  48  62
ATOM     62  C   UNL     1     -10.623   6.031  10.105  1.00  0.00    -0.014 A 
ATOM     63  C   UNL     1     -11.222   7.279   9.871  1.00  0.00     0.009 A 
ATOM     64  C   UNL     1      -9.420   5.979  10.824  1.00  0.00     0.009 A 
ATOM     65  C   UNL     1     -10.605   8.453  10.310  1.00  0.00     0.001 A 
ATOM     66  C   UNL     1      -8.819   7.152  11.285  1.00  0.00     0.001 A 
ATOM     67  C   UNL     1      -9.406   8.388  11.018  1.00  0.00     0.000 A 
ENDBRANCH  48  62
BRANCH  49  68
ATOM     68  C   UNL     1     -14.124  -2.521   6.384  1.00  0.00    -0.014 A 
ATOM     69  C   UNL     1     -15.497  -2.792   6.301  1.00  0.00     0.009 A 
ATOM     70  C   UNL     1     -13.210  -3.480   5.921  1.00  0.00     0.009 A 
ATOM     71  C   UNL     1     -15.946  -4.009   5.782  1.00  0.00     0.001 A 
ATOM     72  C   UNL     1     -13.663  -4.686   5.383  1.00  0.00     0.001 A 
ATOM     73  C   UNL     1     -15.030  -4.952   5.319  1.00  0.00     0.000 A 
ENDBRANCH  49  68
BRANCH  61  74
ATOM     74  C   UNL     1     -13.903   0.186  12.791  1.00  0.00    -0.014 A 
ATOM     75  C   UNL     1     -13.220  -0.840  13.461  1.00  0.00     0.009 A 
ATOM     76  C   UNL     1     -15.034   0.759  13.394  1.00  0.00     0.009 A 
ATOM     77  C   UNL     1     -13.680  -1.306  14.694  1.00  0.00     0.001 A 
ATOM     78  C   UNL     1     -15.477   0.308  14.638  1.00  0.00     0.001 A 
ATOM     79  C   UNL     1     -14.805  -0.729  15.283  1.00  0.00     0.000 A 
ENDBRANCH  61  74
ENDBRANCH  35  36
ENDBRANCH  27  30
ENDBRANCH  25  26
ENDBRANCH  24  25
ENDBRANCH  23  24
ENDBRANCH  22  23
ENDBRANCH   1  22
TORSDOF 19
