REMARK SMILES N#Cc1ccn2cc(C(=O)NCCCCCCNC(=O)c3ccc(-c4c5nc(c(-c6ccccc6)c6ccc([nH]6)c(-c6ccccc6)c6nc(c(-c7ccccc7)c7ccc4[nH]7)C=C6)C=C5)cc3)nc2c1
REMARK SMILES IDX 15 1 14 2 13 3 12 4 11 5 9 6 10 7 8 9 3 10 4 11 71 12 5 13
REMARK SMILES IDX 70 14 6 15 69 16 7 17 2 18 1 19 16 20 17 21 18 22 19 23
REMARK SMILES IDX 20 25 21 26 22 27 68 28 23 29 67 30 24 31 25 32 26 33 61 34
REMARK SMILES IDX 27 35 66 36 60 37 62 38 28 39 65 40 59 41 58 42 29 44 51 45
REMARK SMILES IDX 36 46 50 47 37 48 40 49 49 50 63 51 38 52 39 53 48 55 64 56
REMARK SMILES IDX 41 57 30 58 31 59 35 60 32 61 34 62 33 63 52 64 53 65 57 66
REMARK SMILES IDX 54 67 56 68 55 69 42 70 43 71 47 72 44 73 46 74 45 75
REMARK H PARENT 11 8 18 24 62 43 40 54
REMARK Flexibility Score: inf
ROOT
ATOM      1  C   UNL     1       9.385   7.589   0.135  1.00  0.00     0.002 C 
ENDROOT
BRANCH   1   2
ATOM      2  C   UNL     1       9.474   6.539   1.250  1.00  0.00     0.002 C 
BRANCH   2   3
ATOM      3  C   UNL     1       8.336   5.515   1.265  1.00  0.00     0.021 C 
BRANCH   3   4
ATOM      4  C   UNL     1       8.263   4.664  -0.001  1.00  0.00     0.116 C 
BRANCH   4   5
ATOM      5  N   UNL     1       9.337   3.684  -0.041  1.00  0.00    -0.351 N 
ATOM      6  C   UNL     1       9.312   2.314   0.004  1.00  0.00     0.271 C 
ATOM      7  O   UNL     1      10.398   1.718  -0.024  1.00  0.00    -0.267 OA
ATOM      8  H   UNL     1      10.239   4.073  -0.114  1.00  0.00     0.163 HD
BRANCH   6   9
ATOM      9  C   UNL     1       8.046   1.581   0.062  1.00  0.00     0.147 A 
ATOM     10  C   UNL     1       3.846   0.019   0.074  1.00  0.00     0.057 A 
ATOM     11  C   UNL     1       4.547  -1.266   0.068  1.00  0.00     0.038 A 
ATOM     12  C   UNL     1       4.513   1.187   0.090  1.00  0.00     0.067 A 
ATOM     13  C   UNL     1       5.892  -1.274   0.070  1.00  0.00     0.094 A 
ATOM     14  C   UNL     1       5.932   1.172   0.093  1.00  0.00     0.138 A 
ATOM     15  N   UNL     1       6.573  -0.059   0.079  1.00  0.00    -0.306 N 
ATOM     16  N   UNL     1       6.792   2.158   0.098  1.00  0.00    -0.223 NA
ATOM     17  C   UNL     1       7.917   0.201   0.068  1.00  0.00     0.127 A 
BRANCH  10  18
ATOM     18  C   UNL     1       2.326   0.019   0.074  1.00  0.00     0.099 C 
ATOM     19  N   UNL     1       1.065   0.019   0.074  1.00  0.00    -0.192 NA
ENDBRANCH  10  18
ENDBRANCH   6   9
ENDBRANCH   4   5
ENDBRANCH   3   4
ENDBRANCH   2   3
ENDBRANCH   1   2
BRANCH   1  20
ATOM     20  C   UNL     1       8.082   8.400   0.093  1.00  0.00     0.021 C 
BRANCH  20  21
ATOM     21  C   UNL     1       7.733   9.104   1.406  1.00  0.00     0.116 C 
BRANCH  21  22
ATOM     22  N   UNL     1       8.791   9.974   1.877  1.00  0.00    -0.352 N 
ATOM     23  C   UNL     1       9.111  11.290   1.712  1.00  0.00     0.251 C 
ATOM     24  H   UNL     1       9.433   9.502   2.454  1.00  0.00     0.163 HD
ATOM     25  O   UNL     1      10.077  11.695   2.364  1.00  0.00    -0.269 OA
BRANCH  23  26
ATOM     26  C   UNL     1       8.433  12.239   0.785  1.00  0.00     0.039 A 
ATOM     27  C   UNL     1       7.403  11.920  -0.098  1.00  0.00     0.014 A 
ATOM     28  C   UNL     1       8.958  13.547   0.755  1.00  0.00     0.014 A 
ATOM     29  C   UNL     1       6.982  12.846  -1.049  1.00  0.00     0.010 A 
ATOM     30  C   UNL     1       8.533  14.479  -0.187  1.00  0.00     0.010 A 
ATOM     31  C   UNL     1       7.584  14.107  -1.129  1.00  0.00    -0.014 A 
BRANCH  31  32
ATOM     32  C   UNL     1       7.186  14.974  -2.235  1.00  0.00     0.031 A 
ATOM     33  C   UNL     1       5.735  15.286  -2.348  1.00  0.00     0.074 A 
ATOM     34  C   UNL     1       8.043  15.481  -3.143  1.00  0.00     0.049 A 
ATOM     35  N   UNL     1       4.915  14.900  -3.272  1.00  0.00    -0.248 NA
ATOM     36  C   UNL     1       5.109  16.062  -1.271  1.00  0.00     0.031 C 
ATOM     37  C   UNL     1       9.508  15.515  -3.123  1.00  0.00     0.029 A 
ATOM     38  N   UNL     1       7.734  16.145  -4.292  1.00  0.00    -0.354 N 
ATOM     39  C   UNL     1       3.683  15.474  -2.968  1.00  0.00     0.074 A 
ATOM     40  C   UNL     1       3.842  16.119  -1.687  1.00  0.00     0.031 C 
ATOM     41  C   UNL     1       9.948  16.349  -4.095  1.00  0.00     0.029 A 
ATOM     42  C   UNL     1       8.813  16.759  -4.903  1.00  0.00     0.049 A 
ATOM     43  H   UNL     1       6.821  16.185  -4.656  1.00  0.00     0.167 HD
ATOM     44  C   UNL     1       2.642  15.486  -3.847  1.00  0.00     0.031 A 
ATOM     45  C   UNL     1       8.768  17.572  -5.984  1.00  0.00     0.031 A 
ATOM     46  C   UNL     1       2.823  14.552  -4.923  1.00  0.00     0.049 A 
ATOM     47  C   UNL     1       7.534  17.249  -6.734  1.00  0.00     0.074 A 
ATOM     48  C   UNL     1       2.891  13.177  -5.015  1.00  0.00     0.029 A 
ATOM     49  N   UNL     1       3.303  15.030  -6.117  1.00  0.00    -0.354 N 
ATOM     50  N   UNL     1       7.340  16.117  -7.346  1.00  0.00    -0.248 NA
ATOM     51  C   UNL     1       6.337  18.033  -6.477  1.00  0.00     0.031 C 
ATOM     52  C   UNL     1       3.853  12.925  -6.035  1.00  0.00     0.029 A 
ATOM     53  C   UNL     1       4.282  14.160  -6.527  1.00  0.00     0.049 A 
ATOM     54  H   UNL     1       3.003  15.840  -6.588  1.00  0.00     0.167 HD
ATOM     55  C   UNL     1       5.991  15.847  -7.177  1.00  0.00     0.074 A 
ATOM     56  C   UNL     1       5.407  17.109  -6.732  1.00  0.00     0.031 C 
ATOM     57  C   UNL     1       5.521  14.565  -7.156  1.00  0.00     0.031 A 
BRANCH  44  58
ATOM     58  C   UNL     1       1.568  16.538  -3.881  1.00  0.00    -0.014 A 
ATOM     59  C   UNL     1       1.730  17.808  -3.298  1.00  0.00     0.009 A 
ATOM     60  C   UNL     1       0.458  16.365  -4.729  1.00  0.00     0.009 A 
ATOM     61  C   UNL     1       0.835  18.853  -3.544  1.00  0.00     0.001 A 
ATOM     62  C   UNL     1      -0.419  17.421  -5.008  1.00  0.00     0.001 A 
ATOM     63  C   UNL     1      -0.228  18.665  -4.417  1.00  0.00     0.000 A 
ENDBRANCH  44  58
BRANCH  45  64
ATOM     64  C   UNL     1       9.465  18.867  -6.132  1.00  0.00    -0.014 A 
ATOM     65  C   UNL     1       9.776  19.629  -4.989  1.00  0.00     0.009 A 
ATOM     66  C   UNL     1       9.557  19.494  -7.384  1.00  0.00     0.009 A 
ATOM     67  C   UNL     1      10.121  20.980  -5.089  1.00  0.00     0.001 A 
ATOM     68  C   UNL     1       9.904  20.848  -7.483  1.00  0.00     0.001 A 
ATOM     69  C   UNL     1      10.169  21.593  -6.336  1.00  0.00     0.000 A 
ENDBRANCH  45  64
BRANCH  57  70
ATOM     70  C   UNL     1       6.472  13.447  -7.521  1.00  0.00    -0.014 A 
ATOM     71  C   UNL     1       6.077  12.516  -8.494  1.00  0.00     0.009 A 
ATOM     72  C   UNL     1       7.643  13.182  -6.787  1.00  0.00     0.009 A 
ATOM     73  C   UNL     1       6.816  11.351  -8.716  1.00  0.00     0.001 A 
ATOM     74  C   UNL     1       8.396  12.028  -7.026  1.00  0.00     0.001 A 
ATOM     75  C   UNL     1       7.976  11.107  -7.982  1.00  0.00     0.000 A 
ENDBRANCH  57  70
ENDBRANCH  31  32
ENDBRANCH  23  26
ENDBRANCH  21  22
ENDBRANCH  20  21
ENDBRANCH   1  20
TORSDOF 14
