REMARK SMILES CC(=O)Nc1cccc(-c2ccc(F)c(C(=O)NCCCCCCNC(=O)c3ccc(-c4c5nc(c(-c6ccccc6)c6ccc([nH]6)c(-c6ccccc6)c6nc(c(-c7ccccc7)c7ccc4[nH]7)C=C6)C=C5)cc3)c2)c1
REMARK SMILES IDX 21 1 20 2 19 3 18 4 16 5 17 6 15 8 10 9 11 10 76 11 12 12
REMARK SMILES IDX 13 13 14 14 9 15 5 16 6 17 77 18 7 19 8 20 4 21 1 22 2 23
REMARK SMILES IDX 3 24 22 26 23 27 24 28 25 29 26 30 27 32 28 33 29 34 75 35
REMARK SMILES IDX 30 36 74 37 31 38 32 39 33 40 68 41 34 42 73 43 67 44 69 45
REMARK SMILES IDX 35 46 72 47 66 48 65 49 36 51 58 52 43 53 57 54 44 55 47 56
REMARK SMILES IDX 56 57 70 58 45 59 46 60 55 62 71 63 48 64 37 65 38 66 42 67
REMARK SMILES IDX 39 68 41 69 40 70 59 71 60 72 64 73 61 74 63 75 62 76 49 77
REMARK SMILES IDX 50 78 54 79 51 80 53 81 52 82
REMARK H PARENT 18 7 4 25 25 31 69 50 47 61
REMARK Flexibility Score: inf
ROOT
ATOM      1  C   UNL     1       7.819   4.792  -1.731  1.00  0.00     0.002 C 
ENDROOT
BRANCH   1   2
ATOM      2  C   UNL     1       7.192   4.370  -0.404  1.00  0.00     0.021 C 
BRANCH   2   3
ATOM      3  C   UNL     1       6.681   2.938  -0.310  1.00  0.00     0.116 C 
BRANCH   3   4
ATOM      4  N   UNL     1       7.708   1.913  -0.413  1.00  0.00    -0.352 N 
ATOM      5  C   UNL     1       7.893   0.718   0.259  1.00  0.00     0.254 C 
ATOM      6  O   UNL     1       8.841   0.013  -0.079  1.00  0.00    -0.269 OA
ATOM      7  H   UNL     1       8.399   2.105  -1.087  1.00  0.00     0.163 HD
BRANCH   5   8
ATOM      8  C   UNL     1       7.009   0.286   1.375  1.00  0.00     0.076 A 
ATOM      9  C   UNL     1       4.888   0.482   2.588  1.00  0.00    -0.017 A 
ATOM     10  C   UNL     1       5.438  -0.256   3.643  1.00  0.00     0.012 A 
ATOM     11  C   UNL     1       5.658   0.634   1.420  1.00  0.00     0.025 A 
ATOM     12  C   UNL     1       6.740  -0.756   3.549  1.00  0.00     0.041 A 
ATOM     13  C   UNL     1       7.529  -0.454   2.437  1.00  0.00     0.135 A 
ATOM     14  F   UNL     1       8.804  -0.867   2.446  1.00  0.00    -0.206 F 
BRANCH   9  15
ATOM     15  C   UNL     1       3.619   1.228   2.706  1.00  0.00    -0.016 A 
ATOM     16  C   UNL     1       1.611   2.140   1.638  1.00  0.00     0.041 A 
ATOM     17  C   UNL     1       1.437   3.005   2.720  1.00  0.00     0.026 A 
ATOM     18  C   UNL     1       2.703   1.268   1.640  1.00  0.00     0.034 A 
ATOM     19  C   UNL     1       2.301   2.950   3.814  1.00  0.00     0.003 A 
ATOM     20  C   UNL     1       3.381   2.065   3.808  1.00  0.00     0.009 A 
BRANCH  16  21
ATOM     21  N   UNL     1       0.725   2.266   0.556  1.00  0.00    -0.326 N 
ATOM     22  C   UNL     1       0.776  -0.049  -0.370  1.00  0.00     0.114 C 
ATOM     23  C   UNL     1       0.410   1.409  -0.459  1.00  0.00     0.221 C 
ATOM     24  O   UNL     1      -0.228   1.837  -1.423  1.00  0.00    -0.275 OA
ATOM     25  H   UNL     1       0.246   3.125   0.524  1.00  0.00     0.169 HD
ENDBRANCH  16  21
ENDBRANCH   9  15
ENDBRANCH   5   8
ENDBRANCH   3   4
ENDBRANCH   2   3
ENDBRANCH   1   2
BRANCH   1  26
ATOM     26  C   UNL     1       6.969   4.583  -2.986  1.00  0.00     0.002 C 
BRANCH  26  27
ATOM     27  C   UNL     1       5.550   5.157  -2.954  1.00  0.00     0.021 C 
BRANCH  27  28
ATOM     28  C   UNL     1       5.437   6.636  -2.600  1.00  0.00     0.116 C 
BRANCH  28  29
ATOM     29  N   UNL     1       6.138   7.497  -3.537  1.00  0.00    -0.352 N 
ATOM     30  C   UNL     1       5.683   8.585  -4.239  1.00  0.00     0.251 C 
ATOM     31  H   UNL     1       7.082   7.265  -3.691  1.00  0.00     0.163 HD
ATOM     32  O   UNL     1       6.386   9.096  -5.104  1.00  0.00    -0.269 OA
BRANCH  30  33
ATOM     33  C   UNL     1       4.333   9.134  -3.975  1.00  0.00     0.039 A 
ATOM     34  C   UNL     1       3.528   9.487  -5.062  1.00  0.00     0.014 A 
ATOM     35  C   UNL     1       3.868   9.320  -2.671  1.00  0.00     0.014 A 
ATOM     36  C   UNL     1       2.236   9.970  -4.842  1.00  0.00     0.010 A 
ATOM     37  C   UNL     1       2.555   9.730  -2.454  1.00  0.00     0.010 A 
ATOM     38  C   UNL     1       1.726  10.064  -3.537  1.00  0.00    -0.014 A 
BRANCH  38  39
ATOM     39  C   UNL     1       0.328  10.500  -3.291  1.00  0.00     0.031 A 
ATOM     40  C   UNL     1       0.045  11.763  -2.527  1.00  0.00     0.074 A 
ATOM     41  C   UNL     1      -0.692   9.719  -3.696  1.00  0.00     0.049 A 
ATOM     42  N   UNL     1      -1.108  12.277  -2.178  1.00  0.00    -0.248 NA
ATOM     43  C   UNL     1       1.210  12.534  -2.067  1.00  0.00     0.031 C 
ATOM     44  C   UNL     1      -0.552   8.441  -4.398  1.00  0.00     0.029 A 
ATOM     45  N   UNL     1      -2.049   9.879  -3.564  1.00  0.00    -0.354 N 
ATOM     46  C   UNL     1      -0.807  13.417  -1.444  1.00  0.00     0.074 A 
ATOM     47  C   UNL     1       0.635  13.490  -1.353  1.00  0.00     0.031 C 
ATOM     48  C   UNL     1      -1.772   7.944  -4.652  1.00  0.00     0.029 A 
ATOM     49  C   UNL     1      -2.778   8.844  -4.097  1.00  0.00     0.049 A 
ATOM     50  H   UNL     1      -2.459  10.661  -3.130  1.00  0.00     0.167 HD
ATOM     51  C   UNL     1      -1.652  14.329  -0.906  1.00  0.00     0.031 A 
ATOM     52  C   UNL     1      -4.107   8.634  -4.127  1.00  0.00     0.031 A 
ATOM     53  C   UNL     1      -3.087  14.255  -0.999  1.00  0.00     0.049 A 
ATOM     54  C   UNL     1      -5.028   9.658  -3.528  1.00  0.00     0.074 A 
ATOM     55  C   UNL     1      -4.028  15.167  -0.554  1.00  0.00     0.029 A 
ATOM     56  N   UNL     1      -3.788  13.201  -1.566  1.00  0.00    -0.354 N 
ATOM     57  N   UNL     1      -4.730  10.779  -2.916  1.00  0.00    -0.248 NA
ATOM     58  C   UNL     1      -6.470   9.396  -3.637  1.00  0.00     0.031 C 
ATOM     59  C   UNL     1      -5.300  14.633  -0.791  1.00  0.00     0.029 A 
ATOM     60  C   UNL     1      -5.151  13.422  -1.448  1.00  0.00     0.049 A 
ATOM     61  H   UNL     1      -3.378  12.413  -1.991  1.00  0.00     0.167 HD
ATOM     62  C   UNL     1      -5.944  11.366  -2.585  1.00  0.00     0.074 A 
ATOM     63  C   UNL     1      -6.983  10.486  -3.082  1.00  0.00     0.031 C 
ATOM     64  C   UNL     1      -6.176  12.530  -1.931  1.00  0.00     0.031 A 
BRANCH  51  65
ATOM     65  C   UNL     1      -1.038  15.472  -0.142  1.00  0.00    -0.014 A 
ATOM     66  C   UNL     1      -0.272  16.458  -0.785  1.00  0.00     0.009 A 
ATOM     67  C   UNL     1      -1.238  15.569   1.244  1.00  0.00     0.009 A 
ATOM     68  C   UNL     1       0.326  17.484  -0.048  1.00  0.00     0.001 A 
ATOM     69  C   UNL     1      -0.668  16.615   1.973  1.00  0.00     0.001 A 
ATOM     70  C   UNL     1       0.125  17.563   1.329  1.00  0.00     0.000 A 
ENDBRANCH  51  65
BRANCH  52  71
ATOM     71  C   UNL     1      -4.638   7.397  -4.757  1.00  0.00    -0.014 A 
ATOM     72  C   UNL     1      -5.312   7.450  -5.987  1.00  0.00     0.009 A 
ATOM     73  C   UNL     1      -4.443   6.149  -4.144  1.00  0.00     0.009 A 
ATOM     74  C   UNL     1      -5.792   6.280  -6.581  1.00  0.00     0.001 A 
ATOM     75  C   UNL     1      -4.897   4.978  -4.755  1.00  0.00     0.001 A 
ATOM     76  C   UNL     1      -5.577   5.046  -5.970  1.00  0.00     0.000 A 
ENDBRANCH  52  71
BRANCH  64  77
ATOM     77  C   UNL     1      -7.612  12.933  -1.730  1.00  0.00    -0.014 A 
ATOM     78  C   UNL     1      -8.443  12.250  -0.828  1.00  0.00     0.009 A 
ATOM     79  C   UNL     1      -8.127  14.039  -2.425  1.00  0.00     0.009 A 
ATOM     80  C   UNL     1      -9.771  12.647  -0.653  1.00  0.00     0.001 A 
ATOM     81  C   UNL     1      -9.444  14.453  -2.224  1.00  0.00     0.001 A 
ATOM     82  C   UNL     1     -10.268  13.751  -1.346  1.00  0.00     0.000 A 
ENDBRANCH  64  77
ENDBRANCH  38  39
ENDBRANCH  30  33
ENDBRANCH  28  29
ENDBRANCH  27  28
ENDBRANCH  26  27
ENDBRANCH   1  26
TORSDOF 15
