REMARK SMILES O=C(NCCCCCCNC(=O)c1ccc(-c2ccc(Cl)c3ccccc23)o1)c1ccc(-c2c3nc(c(-c4ccccc4)c4ccc([nH]4)c(-c4ccccc4)c4nc(c(-c5ccccc5)c5ccc2[nH]5)C=C4)C=C3)cc1
REMARK SMILES IDX 6 1 5 2 4 3 3 4 1 5 2 6 29 8 30 9 76 10 31 11 75 12 32 13
REMARK SMILES IDX 33 14 34 15 69 16 35 17 74 18 68 19 70 20 36 21 73 22 67 23
REMARK SMILES IDX 66 24 37 26 59 27 44 28 58 29 45 30 48 31 57 32 71 33 46 34
REMARK SMILES IDX 47 35 56 37 72 38 49 39 38 40 39 41 43 42 40 43 42 44 41 45
REMARK SMILES IDX 60 46 61 47 65 48 62 49 64 50 63 51 50 52 51 53 55 54 52 55
REMARK SMILES IDX 54 56 53 57 7 58 8 59 9 60 10 61 11 62 12 64 13 65 14 66
REMARK SMILES IDX 28 67 15 68 16 69 17 70 18 71 27 72 19 73 22 74 26 75 20 76
REMARK SMILES IDX 23 77 25 78 21 79 24 80
REMARK H PARENT 3 7 70 25 48 36 10 63
REMARK Flexibility Score: inf
ROOT
ATOM      1  C   UNL     1       4.159  -1.035  -3.683  1.00  0.00     0.002 C 
ENDROOT
BRANCH   1   2
ATOM      2  C   UNL     1       4.623  -1.329  -2.256  1.00  0.00     0.021 C 
BRANCH   2   3
ATOM      3  C   UNL     1       4.373  -0.205  -1.260  1.00  0.00     0.116 C 
BRANCH   3   4
ATOM      4  N   UNL     1       2.958   0.047  -1.047  1.00  0.00    -0.352 N 
ATOM      5  O   UNL     1       1.022   0.126   0.112  1.00  0.00    -0.269 OA
ATOM      6  C   UNL     1       2.246   0.058   0.128  1.00  0.00     0.251 C 
ATOM      7  H   UNL     1       2.436   0.238  -1.860  1.00  0.00     0.163 HD
BRANCH   6   8
ATOM      8  C   UNL     1       2.963  -0.037   1.417  1.00  0.00     0.039 A 
ATOM      9  C   UNL     1       4.108   0.728   1.652  1.00  0.00     0.014 A 
ATOM     10  C   UNL     1       2.479  -0.898   2.406  1.00  0.00     0.014 A 
ATOM     11  C   UNL     1       4.844   0.531   2.814  1.00  0.00     0.010 A 
ATOM     12  C   UNL     1       3.171  -1.028   3.613  1.00  0.00     0.010 A 
ATOM     13  C   UNL     1       4.373  -0.333   3.816  1.00  0.00    -0.014 A 
BRANCH  13  14
ATOM     14  C   UNL     1       5.117  -0.432   5.097  1.00  0.00     0.031 A 
ATOM     15  C   UNL     1       5.768  -1.715   5.528  1.00  0.00     0.074 A 
ATOM     16  C   UNL     1       5.221   0.671   5.865  1.00  0.00     0.049 A 
ATOM     17  N   UNL     1       6.472  -1.957   6.606  1.00  0.00    -0.248 NA
ATOM     18  C   UNL     1       5.608  -2.879   4.643  1.00  0.00     0.031 C 
ATOM     19  C   UNL     1       4.629   1.975   5.552  1.00  0.00     0.029 A 
ATOM     20  N   UNL     1       5.874   0.879   7.051  1.00  0.00    -0.354 N 
ATOM     21  C   UNL     1       6.825  -3.299   6.538  1.00  0.00     0.074 A 
ATOM     22  C   UNL     1       6.236  -3.827   5.326  1.00  0.00     0.031 C 
ATOM     23  C   UNL     1       4.986   2.857   6.495  1.00  0.00     0.029 A 
ATOM     24  C   UNL     1       5.772   2.170   7.512  1.00  0.00     0.049 A 
ATOM     25  H   UNL     1       6.368   0.174   7.528  1.00  0.00     0.167 HD
ATOM     26  C   UNL     1       7.576  -4.022   7.404  1.00  0.00     0.031 A 
ATOM     27  C   UNL     1       6.240   2.737   8.638  1.00  0.00     0.031 A 
ATOM     28  C   UNL     1       8.151  -3.494   8.616  1.00  0.00     0.049 A 
ATOM     29  C   UNL     1       7.024   1.898   9.603  1.00  0.00     0.074 A 
ATOM     30  C   UNL     1       8.946  -4.142   9.546  1.00  0.00     0.029 A 
ATOM     31  N   UNL     1       7.986  -2.194   9.069  1.00  0.00    -0.354 N 
ATOM     32  N   UNL     1       7.380   0.641   9.504  1.00  0.00    -0.248 NA
ATOM     33  C   UNL     1       7.473   2.560  10.835  1.00  0.00     0.031 C 
ATOM     34  C   UNL     1       9.215  -3.251  10.590  1.00  0.00     0.029 A 
ATOM     35  C   UNL     1       8.641  -2.029  10.279  1.00  0.00     0.049 A 
ATOM     36  H   UNL     1       7.479  -1.493   8.601  1.00  0.00     0.167 HD
ATOM     37  C   UNL     1       8.111   0.364  10.650  1.00  0.00     0.074 A 
ATOM     38  C   UNL     1       8.167   1.592  11.418  1.00  0.00     0.031 C 
ATOM     39  C   UNL     1       8.683  -0.803  11.034  1.00  0.00     0.031 A 
BRANCH  26  40
ATOM     40  C   UNL     1       7.798  -5.476   7.089  1.00  0.00    -0.014 A 
ATOM     41  C   UNL     1       8.634  -5.876   6.034  1.00  0.00     0.009 A 
ATOM     42  C   UNL     1       7.202  -6.463   7.891  1.00  0.00     0.009 A 
ATOM     43  C   UNL     1       8.843  -7.232   5.770  1.00  0.00     0.001 A 
ATOM     44  C   UNL     1       7.434  -7.817   7.642  1.00  0.00     0.001 A 
ATOM     45  C   UNL     1       8.247  -8.201   6.577  1.00  0.00     0.000 A 
ENDBRANCH  26  40
BRANCH  27  46
ATOM     46  C   UNL     1       5.959   4.168   8.918  1.00  0.00    -0.014 A 
ATOM     47  C   UNL     1       6.992   5.117   8.903  1.00  0.00     0.009 A 
ATOM     48  C   UNL     1       4.650   4.594   9.196  1.00  0.00     0.009 A 
ATOM     49  C   UNL     1       6.723   6.458   9.185  1.00  0.00     0.001 A 
ATOM     50  C   UNL     1       4.379   5.940   9.445  1.00  0.00     0.001 A 
ATOM     51  C   UNL     1       5.417   6.869   9.450  1.00  0.00     0.000 A 
ENDBRANCH  27  46
BRANCH  39  52
ATOM     52  C   UNL     1       9.447  -0.792  12.328  1.00  0.00    -0.014 A 
ATOM     53  C   UNL     1       8.788  -0.706  13.564  1.00  0.00     0.009 A 
ATOM     54  C   UNL     1      10.847  -0.891  12.308  1.00  0.00     0.009 A 
ATOM     55  C   UNL     1       9.520  -0.680  14.753  1.00  0.00     0.001 A 
ATOM     56  C   UNL     1      11.573  -0.897  13.499  1.00  0.00     0.001 A 
ATOM     57  C   UNL     1      10.910  -0.781  14.720  1.00  0.00     0.000 A 
ENDBRANCH  39  52
ENDBRANCH  13  14
ENDBRANCH   6   8
ENDBRANCH   3   4
ENDBRANCH   2   3
ENDBRANCH   1   2
BRANCH   1  58
ATOM     58  C   UNL     1       4.733   0.240  -4.308  1.00  0.00     0.002 C 
BRANCH  58  59
ATOM     59  C   UNL     1       6.260   0.359  -4.274  1.00  0.00     0.021 C 
BRANCH  59  60
ATOM     60  C   UNL     1       7.007  -0.793  -4.944  1.00  0.00     0.116 C 
BRANCH  60  61
ATOM     61  N   UNL     1       6.771  -0.819  -6.376  1.00  0.00    -0.349 N 
ATOM     62  C   UNL     1       7.695  -0.751  -7.395  1.00  0.00     0.287 C 
ATOM     63  H   UNL     1       5.830  -0.894  -6.654  1.00  0.00     0.163 HD
ATOM     64  O   UNL     1       7.278  -0.533  -8.533  1.00  0.00    -0.266 OA
BRANCH  62  65
ATOM     65  C   UNL     1       9.087  -0.953  -7.070  1.00  0.00     0.192 A 
ATOM     66  C   UNL     1       9.725  -1.917  -6.310  1.00  0.00     0.057 A 
ATOM     67  O   UNL     1      10.015  -0.078  -7.569  1.00  0.00    -0.451 OA
ATOM     68  C   UNL     1      11.098  -1.592  -6.310  1.00  0.00     0.052 A 
ATOM     69  C   UNL     1      11.230  -0.453  -7.078  1.00  0.00     0.135 A 
BRANCH  69  70
ATOM     70  C   UNL     1      12.386   0.340  -7.483  1.00  0.00     0.025 A 
ATOM     71  C   UNL     1      13.452  -0.363  -8.065  1.00  0.00     0.014 A 
ATOM     72  C   UNL     1      12.493   1.745  -7.256  1.00  0.00    -0.006 A 
ATOM     73  C   UNL     1      14.625   0.288  -8.416  1.00  0.00     0.022 A 
ATOM     74  C   UNL     1      13.703   2.411  -7.606  1.00  0.00     0.001 A 
ATOM     75  C   UNL     1      11.457   2.520  -6.673  1.00  0.00     0.009 A 
ATOM     76  C   UNL     1      14.754   1.657  -8.185  1.00  0.00     0.048 A 
ATOM     77  C   UNL     1      13.810   3.801  -7.354  1.00  0.00     0.010 A 
ATOM     78  C   UNL     1      11.590   3.891  -6.444  1.00  0.00     0.001 A 
ATOM     79  Cl  UNL     1      16.271   2.370  -8.632  1.00  0.00    -0.084 Cl
ATOM     80  C   UNL     1      12.770   4.531  -6.781  1.00  0.00     0.001 A 
ENDBRANCH  69  70
ENDBRANCH  62  65
ENDBRANCH  60  61
ENDBRANCH  59  60
ENDBRANCH  58  59
ENDBRANCH   1  58
TORSDOF 14
