REMARK SMILES Cc1ccc(NC(=O)C[C@@H]2C[NH2+]CCO2)c(C(=O)NCCCCCCNC(=O)c2ccc(-c3c4nc(c(-c5ccccc5)c5ccc([nH]5)c(-c5ccccc5)c5nc(c(-c6ccccc6)c6ccc3[nH]6)C=C5)C=C4)cc2)c1
REMARK SMILES IDX 22 1 21 2 20 3 19 4 17 5 18 6 16 8 1 9 2 10 3 11 77 12 4 13
REMARK SMILES IDX 5 14 6 15 7 16 8 18 9 19 10 20 11 21 15 22 12 23 14 24 13 25
REMARK SMILES IDX 23 28 24 29 25 30 26 31 27 32 28 34 29 35 30 36 76 37 31 38
REMARK SMILES IDX 75 39 32 40 33 41 34 42 69 43 35 44 74 45 68 46 70 47 36 48
REMARK SMILES IDX 73 49 67 50 66 51 37 53 59 54 44 55 58 56 45 57 48 58 57 59
REMARK SMILES IDX 71 60 46 61 47 62 56 64 72 65 49 66 38 67 39 68 43 69 40 70
REMARK SMILES IDX 42 71 41 72 60 73 61 74 65 75 62 76 64 77 63 78 50 79 51 80
REMARK SMILES IDX 55 81 52 82 54 83 53 84
REMARK H PARENT 19 7 6 17 12 26 12 27 26 33 70 52 48 63
REMARK Flexibility Score: inf
ROOT
ATOM      1  C   UNL     1       0.278   6.194  -0.978  1.00  0.00     0.002 C 
ENDROOT
BRANCH   1   2
ATOM      2  C   UNL     1       0.703   4.730  -0.784  1.00  0.00     0.021 C 
BRANCH   2   3
ATOM      3  C   UNL     1      -0.016   4.016   0.364  1.00  0.00     0.116 C 
BRANCH   3   4
ATOM      4  N   UNL     1      -1.302   3.513  -0.077  1.00  0.00    -0.352 N 
ATOM      5  C   UNL     1      -1.813   2.247  -0.220  1.00  0.00     0.253 C 
ATOM      6  O   UNL     1      -3.005   2.165  -0.517  1.00  0.00    -0.269 OA
ATOM      7  H   UNL     1      -1.938   4.223  -0.325  1.00  0.00     0.163 HD
BRANCH   5   8
ATOM      8  C   UNL     1      -1.021   1.008   0.062  1.00  0.00     0.063 A 
ATOM      9  C   UNL     1       2.599  -0.201  -0.094  1.00  0.00     0.044 C 
ATOM     10  C   UNL     1       1.131  -0.147   0.203  1.00  0.00    -0.050 A 
ATOM     11  C   UNL     1       0.500  -1.219   0.832  1.00  0.00     0.005 A 
ATOM     12  C   UNL     1       0.359   0.953  -0.192  1.00  0.00     0.019 A 
ATOM     13  C   UNL     1      -0.888  -1.226   0.983  1.00  0.00     0.027 A 
ATOM     14  C   UNL     1      -1.670  -0.165   0.514  1.00  0.00     0.054 A 
BRANCH  14  15
ATOM     15  N   UNL     1      -3.078  -0.265   0.403  1.00  0.00    -0.325 N 
ATOM     16  C   UNL     1      -3.885  -1.307   0.033  1.00  0.00     0.227 C 
ATOM     17  H   UNL     1      -3.562   0.561   0.632  1.00  0.00     0.169 HD
ATOM     18  O   UNL     1      -5.101  -1.098  -0.060  1.00  0.00    -0.275 OA
BRANCH  16  19
ATOM     19  C   UNL     1      -3.358  -2.692  -0.281  1.00  0.00     0.138 C 
BRANCH  19  20
ATOM     20  C   UNL     1      -2.571  -2.852  -1.594  1.00  0.00     0.182 C 
ATOM     21  C   UNL     1      -1.704  -4.137  -1.493  1.00  0.00     0.293 C 
ATOM     22  O   UNL     1      -1.752  -1.710  -1.861  1.00  0.00    -0.366 OA
ATOM     23  N   UNL     1      -0.785  -4.334  -2.629  1.00  0.00    -0.342 N 
ATOM     24  C   UNL     1      -0.893  -1.885  -2.987  1.00  0.00     0.222 C 
ATOM     25  C   UNL     1       0.011  -3.105  -2.795  1.00  0.00     0.289 C 
ATOM     26  H   UNL     1      -1.320  -4.517  -3.478  1.00  0.00     0.346 HD
ATOM     27  H   UNL     1      -0.173  -5.130  -2.452  1.00  0.00     0.346 HD
ENDBRANCH  19  20
ENDBRANCH  16  19
ENDBRANCH  14  15
ENDBRANCH   5   8
ENDBRANCH   3   4
ENDBRANCH   2   3
ENDBRANCH   1   2
BRANCH   1  28
ATOM     28  C   UNL     1       0.427   7.112   0.249  1.00  0.00     0.002 C 
BRANCH  28  29
ATOM     29  C   UNL     1       1.753   7.005   1.009  1.00  0.00     0.021 C 
BRANCH  29  30
ATOM     30  C   UNL     1       2.944   7.572   0.246  1.00  0.00     0.116 C 
BRANCH  30  31
ATOM     31  N   UNL     1       3.370   8.885   0.721  1.00  0.00    -0.352 N 
ATOM     32  C   UNL     1       4.293   9.759   0.169  1.00  0.00     0.251 C 
ATOM     33  H   UNL     1       2.941   9.193   1.552  1.00  0.00     0.163 HD
ATOM     34  O   UNL     1       4.532  10.828   0.697  1.00  0.00    -0.269 OA
BRANCH  32  35
ATOM     35  C   UNL     1       4.880   9.428  -1.152  1.00  0.00     0.039 A 
ATOM     36  C   UNL     1       4.776  10.390  -2.161  1.00  0.00     0.014 A 
ATOM     37  C   UNL     1       5.297   8.132  -1.449  1.00  0.00     0.014 A 
ATOM     38  C   UNL     1       4.828   9.983  -3.490  1.00  0.00     0.010 A 
ATOM     39  C   UNL     1       5.269   7.710  -2.765  1.00  0.00     0.010 A 
ATOM     40  C   UNL     1       4.947   8.620  -3.775  1.00  0.00    -0.014 A 
BRANCH  40  41
ATOM     41  C   UNL     1       4.589   8.067  -5.074  1.00  0.00     0.031 A 
ATOM     42  C   UNL     1       5.639   7.695  -6.048  1.00  0.00     0.074 A 
ATOM     43  C   UNL     1       3.287   7.911  -5.418  1.00  0.00     0.049 A 
ATOM     44  N   UNL     1       5.486   7.790  -7.327  1.00  0.00    -0.248 NA
ATOM     45  C   UNL     1       6.960   7.211  -5.656  1.00  0.00     0.031 C 
ATOM     46  C   UNL     1       2.780   7.249  -6.621  1.00  0.00     0.029 A 
ATOM     47  N   UNL     1       2.132   8.466  -4.861  1.00  0.00    -0.354 N 
ATOM     48  C   UNL     1       6.525   7.109  -7.911  1.00  0.00     0.074 A 
ATOM     49  C   UNL     1       7.465   6.849  -6.841  1.00  0.00     0.031 C 
ATOM     50  C   UNL     1       1.549   7.720  -6.879  1.00  0.00     0.029 A 
ATOM     51  C   UNL     1       1.299   8.797  -5.939  1.00  0.00     0.049 A 
ATOM     52  H   UNL     1       1.942   8.598  -3.904  1.00  0.00     0.167 HD
ATOM     53  C   UNL     1       6.431   6.695  -9.204  1.00  0.00     0.031 A 
ATOM     54  C   UNL     1       0.926  10.066  -6.281  1.00  0.00     0.031 A 
ATOM     55  C   UNL     1       5.162   7.056  -9.828  1.00  0.00     0.049 A 
ATOM     56  C   UNL     1       1.268  10.456  -7.716  1.00  0.00     0.074 A 
ATOM     57  C   UNL     1       4.012   6.351 -10.149  1.00  0.00     0.029 A 
ATOM     58  N   UNL     1       4.836   8.396  -9.966  1.00  0.00    -0.354 N 
ATOM     59  N   UNL     1       1.947   9.710  -8.544  1.00  0.00    -0.248 NA
ATOM     60  C   UNL     1       0.981  11.774  -8.286  1.00  0.00     0.031 C 
ATOM     61  C   UNL     1       2.999   7.284 -10.508  1.00  0.00     0.029 A 
ATOM     62  C   UNL     1       3.538   8.552 -10.414  1.00  0.00     0.049 A 
ATOM     63  H   UNL     1       5.450   9.141  -9.770  1.00  0.00     0.167 HD
ATOM     64  C   UNL     1       2.245  10.419  -9.682  1.00  0.00     0.074 A 
ATOM     65  C   UNL     1       1.612  11.707  -9.472  1.00  0.00     0.031 C 
ATOM     66  C   UNL     1       3.036   9.896 -10.668  1.00  0.00     0.031 A 
BRANCH  53  67
ATOM     67  C   UNL     1       7.410   5.716  -9.794  1.00  0.00    -0.014 A 
ATOM     68  C   UNL     1       6.963   4.718 -10.678  1.00  0.00     0.009 A 
ATOM     69  C   UNL     1       8.780   5.711  -9.483  1.00  0.00     0.009 A 
ATOM     70  C   UNL     1       7.813   3.706 -11.139  1.00  0.00     0.001 A 
ATOM     71  C   UNL     1       9.627   4.678  -9.907  1.00  0.00     0.001 A 
ATOM     72  C   UNL     1       9.139   3.667 -10.726  1.00  0.00     0.000 A 
ENDBRANCH  53  67
BRANCH  54  73
ATOM     73  C   UNL     1       0.887  11.030  -5.150  1.00  0.00    -0.014 A 
ATOM     74  C   UNL     1      -0.090  10.861  -4.151  1.00  0.00     0.009 A 
ATOM     75  C   UNL     1       1.969  11.882  -4.893  1.00  0.00     0.009 A 
ATOM     76  C   UNL     1       0.074  11.434  -2.887  1.00  0.00     0.001 A 
ATOM     77  C   UNL     1       2.124  12.465  -3.630  1.00  0.00     0.001 A 
ATOM     78  C   UNL     1       1.198  12.211  -2.618  1.00  0.00     0.000 A 
ENDBRANCH  54  73
BRANCH  66  79
ATOM     79  C   UNL     1       3.475  10.582 -11.948  1.00  0.00    -0.014 A 
ATOM     80  C   UNL     1       2.817  11.663 -12.546  1.00  0.00     0.009 A 
ATOM     81  C   UNL     1       4.588  10.069 -12.659  1.00  0.00     0.009 A 
ATOM     82  C   UNL     1       3.297  12.253 -13.727  1.00  0.00     0.001 A 
ATOM     83  C   UNL     1       5.061  10.639 -13.844  1.00  0.00     0.001 A 
ATOM     84  C   UNL     1       4.423  11.748 -14.371  1.00  0.00     0.000 A 
ENDBRANCH  66  79
ENDBRANCH  40  41
ENDBRANCH  32  35
ENDBRANCH  30  31
ENDBRANCH  29  30
ENDBRANCH  28  29
ENDBRANCH   1  28
TORSDOF 16
