REMARK SMILES O=C(C[C@H]1CCCCO1)N[C@@H](C(=O)NCCCCCCNC(=O)c1ccc(-c2c3nc(c(-c4ccccc4)c4ccc([nH]4)c(-c4ccccc4)c4nc(c(-c5ccccc5)c5ccc2[nH]5)C=C4)C=C3)cc1)C1CCCCC1
REMARK SMILES IDX 17 1 16 2 15 3 14 4 12 5 13 6 11 8 10 9 1 10 2 11 3 13 4 14
REMARK SMILES IDX 5 15 9 16 6 17 8 18 7 19 72 20 73 21 77 22 74 23 76 24 75 25
REMARK SMILES IDX 18 26 19 27 20 28 21 29 22 30 23 32 24 33 25 34 71 35 26 36
REMARK SMILES IDX 70 37 27 38 28 39 29 40 64 41 30 42 69 43 63 44 65 45 31 46
REMARK SMILES IDX 68 47 62 48 61 49 32 51 54 52 39 53 53 54 40 55 43 56 52 57
REMARK SMILES IDX 66 58 41 59 42 60 51 62 67 63 44 64 33 65 34 66 38 67 35 68
REMARK SMILES IDX 37 69 36 70 55 71 56 72 60 73 57 74 59 75 58 76 45 77 46 78
REMARK SMILES IDX 50 79 47 80 49 81 48 82
REMARK H PARENT 14 7 10 12 21 31 65 50 43 61
REMARK Flexibility Score: inf
ROOT
ATOM      1  C   UNL     1       2.288   2.127  -7.937  1.00  0.00     0.002 C 
ENDROOT
BRANCH   1   2
ATOM      2  C   UNL     1       2.394   2.507  -6.454  1.00  0.00     0.021 C 
BRANCH   2   3
ATOM      3  C   UNL     1       1.173   3.273  -5.943  1.00  0.00     0.116 C 
BRANCH   3   4
ATOM      4  N   UNL     1       0.030   2.391  -5.851  1.00  0.00    -0.354 N 
ATOM      5  C   UNL     1      -0.495   1.789  -4.745  1.00  0.00     0.242 C 
ATOM      6  O   UNL     1      -1.356   0.925  -4.923  1.00  0.00    -0.273 OA
ATOM      7  H   UNL     1      -0.431   2.199  -6.700  1.00  0.00     0.163 HD
BRANCH   5   8
ATOM      8  C   UNL     1       0.008   2.196  -3.337  1.00  0.00     0.174 C 
BRANCH   8   9
ATOM      9  N   UNL     1       1.377   1.700  -3.159  1.00  0.00    -0.344 N 
ATOM     10  O   UNL     1       2.304   3.766  -2.781  1.00  0.00    -0.275 OA
ATOM     11  C   UNL     1       2.422   2.546  -2.845  1.00  0.00     0.223 C 
ATOM     12  H   UNL     1       1.555   0.738  -3.268  1.00  0.00     0.164 HD
BRANCH  11  13
ATOM     13  C   UNL     1       3.717   1.843  -2.511  1.00  0.00     0.132 C 
BRANCH  13  14
ATOM     14  C   UNL     1       3.688   1.559  -1.014  1.00  0.00     0.127 C 
ATOM     15  C   UNL     1       4.550   0.367  -0.613  1.00  0.00     0.033 C 
ATOM     16  O   UNL     1       4.159   2.715  -0.310  1.00  0.00    -0.378 OA
ATOM     17  C   UNL     1       4.383   0.131   0.889  1.00  0.00     0.005 C 
ATOM     18  C   UNL     1       3.913   2.609   1.091  1.00  0.00     0.160 C 
ATOM     19  C   UNL     1       4.649   1.411   1.680  1.00  0.00     0.029 C 
ENDBRANCH  13  14
ENDBRANCH  11  13
ENDBRANCH   8   9
BRANCH   8  20
ATOM     20  C   UNL     1      -0.946   1.656  -2.231  1.00  0.00     0.021 C 
ATOM     21  C   UNL     1      -0.305   1.641  -0.831  1.00  0.00     0.006 C 
ATOM     22  C   UNL     1      -2.244   2.492  -2.211  1.00  0.00     0.006 C 
ATOM     23  C   UNL     1      -1.283   1.205   0.256  1.00  0.00     0.000 C 
ATOM     24  C   UNL     1      -3.209   2.042  -1.119  1.00  0.00     0.000 C 
ATOM     25  C   UNL     1      -2.545   2.055   0.252  1.00  0.00     0.000 C 
ENDBRANCH   8  20
ENDBRANCH   5   8
ENDBRANCH   3   4
ENDBRANCH   2   3
ENDBRANCH   1   2
BRANCH   1  26
ATOM     26  C   UNL     1       2.088   3.316  -8.884  1.00  0.00     0.002 C 
BRANCH  26  27
ATOM     27  C   UNL     1       3.156   4.406  -8.769  1.00  0.00     0.021 C 
BRANCH  27  28
ATOM     28  C   UNL     1       4.567   3.927  -9.091  1.00  0.00     0.116 C 
BRANCH  28  29
ATOM     29  N   UNL     1       4.682   3.487 -10.474  1.00  0.00    -0.352 N 
ATOM     30  C   UNL     1       5.549   3.910 -11.446  1.00  0.00     0.251 C 
ATOM     31  H   UNL     1       4.047   2.787 -10.749  1.00  0.00     0.163 HD
ATOM     32  O   UNL     1       5.364   3.600 -12.622  1.00  0.00    -0.269 OA
BRANCH  30  33
ATOM     33  C   UNL     1       6.702   4.754 -11.079  1.00  0.00     0.039 A 
ATOM     34  C   UNL     1       6.999   5.875 -11.858  1.00  0.00     0.014 A 
ATOM     35  C   UNL     1       7.488   4.437  -9.967  1.00  0.00     0.014 A 
ATOM     36  C   UNL     1       8.052   6.711 -11.487  1.00  0.00     0.010 A 
ATOM     37  C   UNL     1       8.489   5.311  -9.557  1.00  0.00     0.010 A 
ATOM     38  C   UNL     1       8.784   6.454 -10.316  1.00  0.00    -0.014 A 
BRANCH  38  39
ATOM     39  C   UNL     1       9.860   7.370  -9.865  1.00  0.00     0.031 A 
ATOM     40  C   UNL     1      11.283   6.888  -9.794  1.00  0.00     0.074 A 
ATOM     41  C   UNL     1       9.547   8.616  -9.460  1.00  0.00     0.049 A 
ATOM     42  N   UNL     1      12.348   7.520  -9.369  1.00  0.00    -0.248 NA
ATOM     43  C   UNL     1      11.539   5.507 -10.235  1.00  0.00     0.031 C 
ATOM     44  C   UNL     1       8.200   9.191  -9.447  1.00  0.00     0.029 A 
ATOM     45  N   UNL     1      10.343   9.623  -8.973  1.00  0.00    -0.354 N 
ATOM     46  C   UNL     1      13.393   6.612  -9.479  1.00  0.00     0.074 A 
ATOM     47  C   UNL     1      12.828   5.370  -9.960  1.00  0.00     0.031 C 
ATOM     48  C   UNL     1       8.267  10.456  -9.003  1.00  0.00     0.029 A 
ATOM     49  C   UNL     1       9.650  10.767  -8.657  1.00  0.00     0.049 A 
ATOM     50  H   UNL     1      11.317   9.534  -8.861  1.00  0.00     0.167 HD
ATOM     51  C   UNL     1      14.709   6.800  -9.221  1.00  0.00     0.031 A 
ATOM     52  C   UNL     1      10.079  11.932  -8.137  1.00  0.00     0.031 A 
ATOM     53  C   UNL     1      15.271   8.036  -8.746  1.00  0.00     0.049 A 
ATOM     54  C   UNL     1      11.541  12.104  -7.831  1.00  0.00     0.074 A 
ATOM     55  C   UNL     1      16.599   8.341  -8.504  1.00  0.00     0.029 A 
ATOM     56  N   UNL     1      14.536   9.169  -8.436  1.00  0.00    -0.354 N 
ATOM     57  N   UNL     1      12.528  11.258  -8.005  1.00  0.00    -0.248 NA
ATOM     58  C   UNL     1      11.949  13.397  -7.264  1.00  0.00     0.031 C 
ATOM     59  C   UNL     1      16.661   9.641  -7.992  1.00  0.00     0.029 A 
ATOM     60  C   UNL     1      15.380  10.167  -7.978  1.00  0.00     0.049 A 
ATOM     61  H   UNL     1      13.559   9.252  -8.528  1.00  0.00     0.167 HD
ATOM     62  C   UNL     1      13.676  11.927  -7.599  1.00  0.00     0.074 A 
ATOM     63  C   UNL     1      13.265  13.253  -7.186  1.00  0.00     0.031 C 
ATOM     64  C   UNL     1      14.956  11.482  -7.571  1.00  0.00     0.031 A 
BRANCH  51  65
ATOM     65  C   UNL     1      15.633   5.632  -9.439  1.00  0.00    -0.014 A 
ATOM     66  C   UNL     1      15.915   5.158 -10.731  1.00  0.00     0.009 A 
ATOM     67  C   UNL     1      16.260   5.022  -8.342  1.00  0.00     0.009 A 
ATOM     68  C   UNL     1      16.776   4.074 -10.915  1.00  0.00     0.001 A 
ATOM     69  C   UNL     1      17.145   3.959  -8.531  1.00  0.00     0.001 A 
ATOM     70  C   UNL     1      17.394   3.480  -9.816  1.00  0.00     0.000 A 
ENDBRANCH  51  65
BRANCH  52  71
ATOM     71  C   UNL     1       9.116  13.035  -7.879  1.00  0.00    -0.014 A 
ATOM     72  C   UNL     1       9.156  14.209  -8.646  1.00  0.00     0.009 A 
ATOM     73  C   UNL     1       8.160  12.925  -6.857  1.00  0.00     0.009 A 
ATOM     74  C   UNL     1       8.279  15.262  -8.374  1.00  0.00     0.001 A 
ATOM     75  C   UNL     1       7.264  13.966  -6.609  1.00  0.00     0.001 A 
ATOM     76  C   UNL     1       7.331  15.138  -7.360  1.00  0.00     0.000 A 
ENDBRANCH  52  71
BRANCH  64  77
ATOM     77  C   UNL     1      16.011  12.451  -7.116  1.00  0.00    -0.014 A 
ATOM     78  C   UNL     1      16.119  12.837  -5.771  1.00  0.00     0.009 A 
ATOM     79  C   UNL     1      16.940  12.950  -8.043  1.00  0.00     0.009 A 
ATOM     80  C   UNL     1      17.115  13.730  -5.371  1.00  0.00     0.001 A 
ATOM     81  C   UNL     1      17.954  13.817  -7.635  1.00  0.00     0.001 A 
ATOM     82  C   UNL     1      18.035  14.214  -6.301  1.00  0.00     0.000 A 
ENDBRANCH  64  77
ENDBRANCH  38  39
ENDBRANCH  30  33
ENDBRANCH  28  29
ENDBRANCH  27  28
ENDBRANCH  26  27
ENDBRANCH   1  26
TORSDOF 17
