REMARK SMILES C[C@@H](CC(=O)NCCCCCCNC(=O)c1ccc(-c2c3nc(c(-c4ccccc4)c4ccc([nH]4)c(-c4ccccc4)c4nc(c(-c5ccccc5)c5ccc2[nH]5)C=C4)C=C3)cc1)NC(=O)/C=C/c1cccnc1
REMARK SMILES IDX 8 1 7 2 6 3 4 4 5 5 3 7 2 8 1 9 64 10 65 11 66 13 67 14
REMARK SMILES IDX 68 15 69 16 70 17 74 18 71 19 73 20 72 21 9 22 10 23 11 24
REMARK SMILES IDX 12 25 13 26 14 27 15 29 16 30 17 31 63 32 18 33 62 34 19 35
REMARK SMILES IDX 20 36 21 37 56 38 22 39 61 40 55 41 57 42 23 43 60 44 54 45
REMARK SMILES IDX 53 46 24 48 46 49 31 50 45 51 32 52 35 53 44 54 58 55 33 56
REMARK SMILES IDX 34 57 43 59 59 60 36 61 25 62 26 63 30 64 27 65 29 66 28 67
REMARK SMILES IDX 47 68 48 69 52 70 49 71 51 72 50 73 37 74 38 75 42 76 39 77
REMARK SMILES IDX 41 78 40 79
REMARK H PARENT 6 6 64 12 13 28 57 47 35 58
REMARK Flexibility Score: inf
ROOT
ATOM      1  C   UNL     1       1.023  -2.562  -1.296  1.00  0.00     0.021 C 
ENDROOT
BRANCH   1   2
ATOM      2  C   UNL     1       1.743  -1.538  -2.177  1.00  0.00     0.116 C 
BRANCH   2   3
ATOM      3  N   UNL     1       0.778  -0.873  -3.028  1.00  0.00    -0.356 N 
ATOM      4  C   UNL     1       0.270   0.386  -2.942  1.00  0.00     0.222 C 
ATOM      5  O   UNL     1      -0.756   0.645  -3.571  1.00  0.00    -0.275 OA
ATOM      6  H   UNL     1       0.441  -1.411  -3.780  1.00  0.00     0.163 HD
BRANCH   4   7
ATOM      7  C   UNL     1       0.985   1.452  -2.143  1.00  0.00     0.124 C 
BRANCH   7   8
ATOM      8  C   UNL     1       0.523   1.685  -0.699  1.00  0.00     0.088 C 
ATOM      9  C   UNL     1       0.885   0.549   0.255  1.00  0.00     0.031 C 
BRANCH   8  10
ATOM     10  N   UNL     1      -0.898   1.983  -0.560  1.00  0.00    -0.350 N 
ATOM     11  C   UNL     1      -1.561   2.781   0.324  1.00  0.00     0.244 C 
ATOM     12  H   UNL     1      -1.476   1.532  -1.216  1.00  0.00     0.164 HD
ATOM     13  O   UNL     1      -2.792   2.768   0.338  1.00  0.00    -0.270 OA
BRANCH  11  14
ATOM     14  C   UNL     1      -0.855   3.748   1.212  1.00  0.00     0.072 C 
ATOM     15  C   UNL     1       0.337   3.584   1.799  1.00  0.00     0.015 C 
BRANCH  15  16
ATOM     16  C   UNL     1       1.033   4.574   2.611  1.00  0.00    -0.007 A 
ATOM     17  C   UNL     1       0.684   4.815   3.936  1.00  0.00     0.011 A 
ATOM     18  C   UNL     1       2.180   5.190   2.115  1.00  0.00     0.119 A 
ATOM     19  C   UNL     1       1.499   5.635   4.713  1.00  0.00     0.021 A 
ATOM     20  N   UNL     1       2.986   5.995   2.843  1.00  0.00    -0.264 NA
ATOM     21  C   UNL     1       2.629   6.191   4.130  1.00  0.00     0.111 A 
ENDBRANCH  15  16
ENDBRANCH  11  14
ENDBRANCH   8  10
ENDBRANCH   7   8
ENDBRANCH   4   7
ENDBRANCH   2   3
ENDBRANCH   1   2
BRANCH   1  22
ATOM     22  C   UNL     1       0.736  -3.886  -2.005  1.00  0.00     0.002 C 
BRANCH  22  23
ATOM     23  C   UNL     1       1.986  -4.685  -2.377  1.00  0.00     0.002 C 
BRANCH  23  24
ATOM     24  C   UNL     1       2.934  -4.973  -1.210  1.00  0.00     0.021 C 
BRANCH  24  25
ATOM     25  C   UNL     1       2.276  -5.662  -0.017  1.00  0.00     0.116 C 
BRANCH  25  26
ATOM     26  N   UNL     1       1.687  -6.937  -0.390  1.00  0.00    -0.352 N 
ATOM     27  C   UNL     1       1.982  -8.196   0.066  1.00  0.00     0.251 C 
ATOM     28  H   UNL     1       0.974  -6.891  -1.067  1.00  0.00     0.163 HD
ATOM     29  O   UNL     1       1.561  -9.185  -0.522  1.00  0.00    -0.269 OA
BRANCH  27  30
ATOM     30  C   UNL     1       2.820  -8.354   1.271  1.00  0.00     0.039 A 
ATOM     31  C   UNL     1       3.855  -9.290   1.258  1.00  0.00     0.014 A 
ATOM     32  C   UNL     1       2.570  -7.588   2.414  1.00  0.00     0.014 A 
ATOM     33  C   UNL     1       4.675  -9.424   2.379  1.00  0.00     0.010 A 
ATOM     34  C   UNL     1       3.431  -7.672   3.502  1.00  0.00     0.010 A 
ATOM     35  C   UNL     1       4.485  -8.597   3.499  1.00  0.00    -0.014 A 
BRANCH  35  36
ATOM     36  C   UNL     1       5.376  -8.693   4.681  1.00  0.00     0.031 A 
ATOM     37  C   UNL     1       4.827  -9.145   6.005  1.00  0.00     0.074 A 
ATOM     38  C   UNL     1       6.663  -8.312   4.575  1.00  0.00     0.049 A 
ATOM     39  N   UNL     1       5.435  -9.244   7.159  1.00  0.00    -0.248 NA
ATOM     40  C   UNL     1       3.401  -9.508   6.042  1.00  0.00     0.031 C 
ATOM     41  C   UNL     1       7.304  -7.814   3.356  1.00  0.00     0.029 A 
ATOM     42  N   UNL     1       7.662  -8.278   5.514  1.00  0.00    -0.354 N 
ATOM     43  C   UNL     1       4.464  -9.661   8.061  1.00  0.00     0.074 A 
ATOM     44  C   UNL     1       3.218  -9.749   7.332  1.00  0.00     0.031 C 
ATOM     45  C   UNL     1       8.594  -7.550   3.616  1.00  0.00     0.029 A 
ATOM     46  C   UNL     1       8.861  -7.822   5.024  1.00  0.00     0.049 A 
ATOM     47  H   UNL     1       7.532  -8.554   6.450  1.00  0.00     0.167 HD
ATOM     48  C   UNL     1       4.601  -9.962   9.374  1.00  0.00     0.031 A 
ATOM     49  C   UNL     1      10.043  -7.639   5.641  1.00  0.00     0.031 A 
ATOM     50  C   UNL     1       5.843  -9.885  10.095  1.00  0.00     0.049 A 
ATOM     51  C   UNL     1      10.169  -7.976   7.100  1.00  0.00     0.074 A 
ATOM     52  C   UNL     1       6.099 -10.229  11.411  1.00  0.00     0.029 A 
ATOM     53  N   UNL     1       7.038  -9.429   9.560  1.00  0.00    -0.354 N 
ATOM     54  N   UNL     1       9.259  -8.438   7.923  1.00  0.00    -0.248 NA
ATOM     55  C   UNL     1      11.490  -7.776   7.713  1.00  0.00     0.031 C 
ATOM     56  C   UNL     1       7.438  -9.931  11.687  1.00  0.00     0.029 A 
ATOM     57  C   UNL     1       8.028  -9.457  10.527  1.00  0.00     0.049 A 
ATOM     58  H   UNL     1       7.163  -9.130   8.631  1.00  0.00     0.167 HD
ATOM     59  C   UNL     1       9.902  -8.610   9.141  1.00  0.00     0.074 A 
ATOM     60  C   UNL     1      11.283  -8.216   8.946  1.00  0.00     0.031 C 
ATOM     61  C   UNL     1       9.396  -9.056  10.317  1.00  0.00     0.031 A 
BRANCH  48  62
ATOM     62  C   UNL     1       3.365 -10.392  10.117  1.00  0.00    -0.014 A 
ATOM     63  C   UNL     1       2.755 -11.630   9.862  1.00  0.00     0.009 A 
ATOM     64  C   UNL     1       2.818  -9.557  11.103  1.00  0.00     0.009 A 
ATOM     65  C   UNL     1       1.598 -12.005  10.550  1.00  0.00     0.001 A 
ATOM     66  C   UNL     1       1.680  -9.947  11.811  1.00  0.00     0.001 A 
ATOM     67  C   UNL     1       1.065 -11.165  11.526  1.00  0.00     0.000 A 
ENDBRANCH  48  62
BRANCH  49  68
ATOM     68  C   UNL     1      11.208  -7.128   4.874  1.00  0.00    -0.014 A 
ATOM     69  C   UNL     1      12.284  -7.974   4.565  1.00  0.00     0.009 A 
ATOM     70  C   UNL     1      11.249  -5.793   4.442  1.00  0.00     0.009 A 
ATOM     71  C   UNL     1      13.386  -7.489   3.859  1.00  0.00     0.001 A 
ATOM     72  C   UNL     1      12.340  -5.317   3.712  1.00  0.00     0.001 A 
ATOM     73  C   UNL     1      13.412  -6.163   3.429  1.00  0.00     0.000 A 
ENDBRANCH  49  68
BRANCH  61  74
ATOM     74  C   UNL     1      10.347  -9.169  11.474  1.00  0.00    -0.014 A 
ATOM     75  C   UNL     1      10.832  -8.029  12.134  1.00  0.00     0.009 A 
ATOM     76  C   UNL     1      10.730 -10.438  11.936  1.00  0.00     0.009 A 
ATOM     77  C   UNL     1      11.710  -8.159  13.212  1.00  0.00     0.001 A 
ATOM     78  C   UNL     1      11.584 -10.565  13.032  1.00  0.00     0.001 A 
ATOM     79  C   UNL     1      12.080  -9.425  13.663  1.00  0.00     0.000 A 
ENDBRANCH  61  74
ENDBRANCH  35  36
ENDBRANCH  27  30
ENDBRANCH  25  26
ENDBRANCH  24  25
ENDBRANCH  23  24
ENDBRANCH  22  23
ENDBRANCH   1  22
TORSDOF 17
