REMARK SMILES COc1ccccc1C[N@@H+](C)[C@@H](C)c1ccc(C(=O)NCCCCCCNC(=O)c2ccc(-c3c4nc(c(-c5ccccc5)c5ccc([nH]5)c(-c5ccccc5)c5nc(c(-c6ccccc6)c6ccc3[nH]6)C=C5)C=C4)cc2)o1
REMARK SMILES IDX 22 1 21 2 20 3 18 4 19 5 17 7 14 8 15 9 78 10 16 11 12 12
REMARK SMILES IDX 13 13 10 14 11 15 9 17 8 18 3 19 4 20 5 21 7 22 6 23 2 24
REMARK SMILES IDX 1 25 23 26 24 27 25 28 26 29 27 30 28 31 29 33 30 34 31 35
REMARK SMILES IDX 77 36 32 37 76 38 33 39 34 40 35 41 70 42 36 43 75 44 69 45
REMARK SMILES IDX 71 46 37 47 74 48 68 49 67 50 38 52 60 53 45 54 59 55 46 56
REMARK SMILES IDX 49 57 58 58 72 59 47 60 48 61 57 63 73 64 50 65 39 66 40 67
REMARK SMILES IDX 44 68 41 69 43 70 42 71 61 72 62 73 66 74 63 75 65 76 64 77
REMARK SMILES IDX 51 78 52 79 56 80 53 81 55 82 54 83
REMARK H PARENT 20 6 10 16 27 32 71 51 49 62
REMARK Flexibility Score: inf
ROOT
ATOM      1  C   UNL     1       0.080   6.328   5.221  1.00  0.00     0.021 C 
ENDROOT
BRANCH   1   2
ATOM      2  C   UNL     1       0.217   6.149   3.708  1.00  0.00     0.116 C 
BRANCH   2   3
ATOM      3  N   UNL     1       1.229   7.024   3.150  1.00  0.00    -0.349 N 
ATOM      4  C   UNL     1       2.144   6.752   2.156  1.00  0.00     0.287 C 
ATOM      5  O   UNL     1       3.051   7.568   1.991  1.00  0.00    -0.266 OA
ATOM      6  H   UNL     1       1.268   7.931   3.531  1.00  0.00     0.163 HD
BRANCH   4   7
ATOM      7  C   UNL     1       1.987   5.555   1.359  1.00  0.00     0.191 A 
ATOM      8  C   UNL     1       2.719   3.769   0.282  1.00  0.00     0.161 A 
ATOM      9  C   UNL     1       1.354   3.823   0.080  1.00  0.00     0.053 A 
ATOM     10  O   UNL     1       3.111   4.845   1.028  1.00  0.00    -0.450 OA
ATOM     11  C   UNL     1       0.883   4.953   0.786  1.00  0.00     0.057 A 
BRANCH   8  12
ATOM     12  C   UNL     1       3.809   2.838  -0.178  1.00  0.00     0.248 C 
ATOM     13  C   UNL     1       3.475   2.245  -1.558  1.00  0.00     0.084 C 
BRANCH  12  14
ATOM     14  N   UNL     1       4.218   1.854   0.860  1.00  0.00    -0.325 N 
ATOM     15  C   UNL     1       5.502   1.235   0.522  1.00  0.00     0.333 C 
ATOM     16  H   UNL     1       4.303   2.410   1.711  1.00  0.00     0.348 HD
BRANCH  14  17
ATOM     17  C   UNL     1       3.225   0.809   1.165  1.00  0.00     0.303 C 
BRANCH  17  18
ATOM     18  C   UNL     1       2.158   1.223   2.155  1.00  0.00     0.048 A 
ATOM     19  C   UNL     1       0.785   1.091   1.897  1.00  0.00     0.127 A 
ATOM     20  C   UNL     1      -0.161   1.513   2.837  1.00  0.00     0.047 A 
ATOM     21  C   UNL     1       0.249   2.027   4.067  1.00  0.00     0.004 A 
ATOM     22  C   UNL     1       2.551   1.738   3.405  1.00  0.00     0.013 A 
ATOM     23  C   UNL     1       1.606   2.137   4.352  1.00  0.00     0.001 A 
BRANCH  19  24
ATOM     24  O   UNL     1       0.299   0.684   0.682  1.00  0.00    -0.496 OA
ATOM     25  C   UNL     1       0.418  -0.723   0.486  1.00  0.00     0.278 C 
ENDBRANCH  19  24
ENDBRANCH  17  18
ENDBRANCH  14  17
ENDBRANCH  12  14
ENDBRANCH   8  12
ENDBRANCH   4   7
ENDBRANCH   2   3
ENDBRANCH   1   2
BRANCH   1  26
ATOM     26  C   UNL     1      -0.510   7.671   5.668  1.00  0.00     0.002 C 
BRANCH  26  27
ATOM     27  C   UNL     1      -1.942   7.956   5.205  1.00  0.00     0.002 C 
BRANCH  27  28
ATOM     28  C   UNL     1      -2.987   6.898   5.570  1.00  0.00     0.021 C 
BRANCH  28  29
ATOM     29  C   UNL     1      -3.078   6.537   7.051  1.00  0.00     0.116 C 
BRANCH  29  30
ATOM     30  N   UNL     1      -3.449   7.662   7.890  1.00  0.00    -0.352 N 
ATOM     31  C   UNL     1      -4.333   7.721   8.939  1.00  0.00     0.251 C 
ATOM     32  H   UNL     1      -3.000   8.511   7.673  1.00  0.00     0.163 HD
ATOM     33  O   UNL     1      -4.596   8.804   9.454  1.00  0.00    -0.269 OA
BRANCH  31  34
ATOM     34  C   UNL     1      -4.994   6.495   9.445  1.00  0.00     0.039 A 
ATOM     35  C   UNL     1      -6.357   6.556   9.759  1.00  0.00     0.014 A 
ATOM     36  C   UNL     1      -4.284   5.311   9.658  1.00  0.00     0.014 A 
ATOM     37  C   UNL     1      -7.016   5.421  10.240  1.00  0.00     0.010 A 
ATOM     38  C   UNL     1      -4.952   4.165  10.092  1.00  0.00     0.010 A 
ATOM     39  C   UNL     1      -6.322   4.212  10.393  1.00  0.00    -0.014 A 
BRANCH  39  40
ATOM     40  C   UNL     1      -7.009   2.993  10.890  1.00  0.00     0.031 A 
ATOM     41  C   UNL     1      -6.670   2.434  12.244  1.00  0.00     0.074 A 
ATOM     42  C   UNL     1      -7.900   2.357  10.106  1.00  0.00     0.049 A 
ATOM     43  N   UNL     1      -7.111   1.344  12.822  1.00  0.00    -0.248 NA
ATOM     44  C   UNL     1      -5.692   3.187  13.044  1.00  0.00     0.031 C 
ATOM     45  C   UNL     1      -8.299   2.775   8.762  1.00  0.00     0.029 A 
ATOM     46  N   UNL     1      -8.625   1.213  10.331  1.00  0.00    -0.354 N 
ATOM     47  C   UNL     1      -6.445   1.266  14.038  1.00  0.00     0.074 A 
ATOM     48  C   UNL     1      -5.551   2.404  14.104  1.00  0.00     0.031 C 
ATOM     49  C   UNL     1      -9.211   1.909   8.287  1.00  0.00     0.029 A 
ATOM     50  C   UNL     1      -9.439   0.864   9.281  1.00  0.00     0.049 A 
ATOM     51  H   UNL     1      -8.568   0.693  11.164  1.00  0.00     0.167 HD
ATOM     52  C   UNL     1      -6.570   0.339  15.017  1.00  0.00     0.031 A 
ATOM     53  C   UNL     1     -10.276  -0.180   9.135  1.00  0.00     0.031 A 
ATOM     54  C   UNL     1      -7.472  -0.779  14.972  1.00  0.00     0.049 A 
ATOM     55  C   UNL     1     -10.423  -1.176  10.249  1.00  0.00     0.074 A 
ATOM     56  C   UNL     1      -7.696  -1.748  15.935  1.00  0.00     0.029 A 
ATOM     57  N   UNL     1      -8.309  -1.071  13.907  1.00  0.00    -0.354 N 
ATOM     58  N   UNL     1      -9.812  -1.214  11.407  1.00  0.00    -0.248 NA
ATOM     59  C   UNL     1     -11.389  -2.264  10.039  1.00  0.00     0.031 C 
ATOM     60  C   UNL     1      -8.656  -2.641  15.443  1.00  0.00     0.029 A 
ATOM     61  C   UNL     1      -9.050  -2.207  14.188  1.00  0.00     0.049 A 
ATOM     62  H   UNL     1      -8.368  -0.550  13.074  1.00  0.00     0.167 HD
ATOM     63  C   UNL     1     -10.337  -2.312  12.075  1.00  0.00     0.074 A 
ATOM     64  C   UNL     1     -11.321  -2.910  11.196  1.00  0.00     0.031 C 
ATOM     65  C   UNL     1     -10.031  -2.782  13.308  1.00  0.00     0.031 A 
BRANCH  52  66
ATOM     66  C   UNL     1      -5.693   0.498  16.225  1.00  0.00    -0.014 A 
ATOM     67  C   UNL     1      -5.958   1.485  17.187  1.00  0.00     0.009 A 
ATOM     68  C   UNL     1      -4.600  -0.362  16.412  1.00  0.00     0.009 A 
ATOM     69  C   UNL     1      -5.124   1.629  18.297  1.00  0.00     0.001 A 
ATOM     70  C   UNL     1      -3.781  -0.229  17.534  1.00  0.00     0.001 A 
ATOM     71  C   UNL     1      -4.038   0.772  18.471  1.00  0.00     0.000 A 
ENDBRANCH  52  66
BRANCH  53  72
ATOM     72  C   UNL     1     -11.068  -0.323   7.889  1.00  0.00    -0.014 A 
ATOM     73  C   UNL     1     -12.435  -0.006   7.880  1.00  0.00     0.009 A 
ATOM     74  C   UNL     1     -10.465  -0.778   6.707  1.00  0.00     0.009 A 
ATOM     75  C   UNL     1     -13.188  -0.162   6.716  1.00  0.00     0.001 A 
ATOM     76  C   UNL     1     -11.217  -0.914   5.539  1.00  0.00     0.001 A 
ATOM     77  C   UNL     1     -12.579  -0.613   5.546  1.00  0.00     0.000 A 
ENDBRANCH  53  72
BRANCH  65  78
ATOM     78  C   UNL     1     -10.800  -3.974  13.795  1.00  0.00    -0.014 A 
ATOM     79  C   UNL     1     -10.506  -5.266  13.333  1.00  0.00     0.009 A 
ATOM     80  C   UNL     1     -11.811  -3.803  14.752  1.00  0.00     0.009 A 
ATOM     81  C   UNL     1     -11.230  -6.363  13.803  1.00  0.00     0.001 A 
ATOM     82  C   UNL     1     -12.521  -4.904  15.234  1.00  0.00     0.001 A 
ATOM     83  C   UNL     1     -12.235  -6.181  14.754  1.00  0.00     0.000 A 
ENDBRANCH  65  78
ENDBRANCH  39  40
ENDBRANCH  31  34
ENDBRANCH  29  30
ENDBRANCH  28  29
ENDBRANCH  27  28
ENDBRANCH  26  27
ENDBRANCH   1  26
TORSDOF 18
