REMARK SMILES C[C@]12c3ccccc3[C@](C)(c3ccccc31)[C@@H]1C(=O)N(c3ccc(C(=O)NCCCCCCNC(=O)c4ccc(-c5c6nc(c(-c7ccccc7)c7ccc([nH]7)c(-c7ccccc7)c7nc(c(-c8ccccc8)c8ccc5[nH]8)C=C7)C=C6)cc4)cc3)C(=O)[C@H]12
REMARK SMILES IDX 31 1 30 2 29 3 28 4 27 5 25 6 26 7 24 9 21 10 22 11 86 12
REMARK SMILES IDX 23 13 85 14 20 15 1 16 2 17 16 18 3 19 89 20 15 21 11 22
REMARK SMILES IDX 8 23 4 24 17 25 87 26 14 27 12 28 9 29 7 30 5 31 18 32 88 33
REMARK SMILES IDX 13 34 10 35 6 36 19 37 32 38 33 39 34 40 35 41 36 43 37 44
REMARK SMILES IDX 38 45 84 46 39 47 83 48 40 49 41 50 42 51 77 52 43 53 82 54
REMARK SMILES IDX 76 55 78 56 44 57 81 58 75 59 74 60 45 62 67 63 52 64 66 65
REMARK SMILES IDX 53 66 56 67 65 68 79 69 54 70 55 71 64 73 80 74 57 75 46 76
REMARK SMILES IDX 47 77 51 78 48 79 50 80 49 81 68 82 69 83 73 84 70 85 72 86
REMARK SMILES IDX 71 87 58 88 59 89 63 90 60 91 62 92 61 93
REMARK H PARENT 27 8 34 42 78 61 56 72
REMARK Flexibility Score: inf
ROOT
ATOM      1  C   UNL     1      -9.931   6.918   0.430  1.00  0.00     0.002 C 
ENDROOT
BRANCH   1   2
ATOM      2  C   UNL     1      -9.080   6.372   1.579  1.00  0.00     0.002 C 
BRANCH   2   3
ATOM      3  C   UNL     1      -8.009   5.345   1.202  1.00  0.00     0.021 C 
BRANCH   3   4
ATOM      4  C   UNL     1      -7.032   5.761   0.106  1.00  0.00     0.116 C 
BRANCH   4   5
ATOM      5  N   UNL     1      -6.245   6.932   0.445  1.00  0.00    -0.352 N 
ATOM      6  C   UNL     1      -4.907   7.187   0.266  1.00  0.00     0.251 C 
ATOM      7  O   UNL     1      -4.434   8.239   0.690  1.00  0.00    -0.269 OA
ATOM      8  H   UNL     1      -6.752   7.660   0.872  1.00  0.00     0.163 HD
BRANCH   6   9
ATOM      9  C   UNL     1      -4.012   6.191  -0.372  1.00  0.00     0.039 A 
ATOM     10  C   UNL     1      -2.335   4.147  -1.339  1.00  0.00     0.052 A 
ATOM     11  C   UNL     1      -1.926   4.959  -0.275  1.00  0.00     0.027 A 
ATOM     12  C   UNL     1      -3.548   4.440  -1.978  1.00  0.00     0.027 A 
ATOM     13  C   UNL     1      -2.751   5.986   0.196  1.00  0.00     0.016 A 
ATOM     14  C   UNL     1      -4.379   5.460  -1.503  1.00  0.00     0.016 A 
BRANCH  10  15
ATOM     15  N   UNL     1      -1.576   3.017  -1.725  1.00  0.00    -0.250 N 
ATOM     16  C   UNL     1       1.320  -0.052  -0.034  1.00  0.00     0.022 C 
ATOM     17  C   UNL     1       0.629  -0.053  -1.398  1.00  0.00     0.030 C 
ATOM     18  C   UNL     1      -0.333  -1.245  -1.654  1.00  0.00    -0.033 A 
ATOM     19  C   UNL     1       1.611  -0.097  -2.618  1.00  0.00    -0.033 A 
ATOM     20  C   UNL     1      -0.059   1.301  -1.712  1.00  0.00     0.108 C 
ATOM     21  C   UNL     1      -0.612  -2.284  -0.772  1.00  0.00     0.005 A 
ATOM     22  C   UNL     1      -0.904  -1.268  -2.975  1.00  0.00    -0.033 A 
ATOM     23  C   UNL     1       0.948   0.048  -3.886  1.00  0.00    -0.033 A 
ATOM     24  C   UNL     1       2.998  -0.197  -2.555  1.00  0.00     0.005 A 
ATOM     25  C   UNL     1      -1.113   1.067  -2.797  1.00  0.00     0.108 C 
ATOM     26  C   UNL     1      -0.833   2.231  -0.828  1.00  0.00     0.238 C 
ATOM     27  C   UNL     1      -1.419  -3.344  -1.197  1.00  0.00     0.000 A 
ATOM     28  C   UNL     1      -1.693  -2.337  -3.390  1.00  0.00     0.005 A 
ATOM     29  C   UNL     1      -0.595   0.019  -3.804  1.00  0.00     0.030 C 
ATOM     30  C   UNL     1       1.702   0.131  -5.053  1.00  0.00     0.005 A 
ATOM     31  C   UNL     1       3.734  -0.120  -3.738  1.00  0.00     0.000 A 
ATOM     32  C   UNL     1      -1.582   2.466  -3.011  1.00  0.00     0.238 C 
ATOM     33  O   UNL     1      -0.755   2.295   0.385  1.00  0.00    -0.274 OA
ATOM     34  C   UNL     1      -1.943  -3.377  -2.496  1.00  0.00     0.000 A 
ATOM     35  C   UNL     1      -1.327   0.103  -5.142  1.00  0.00     0.022 C 
ATOM     36  C   UNL     1       3.094   0.054  -4.971  1.00  0.00     0.000 A 
ATOM     37  O   UNL     1      -1.994   2.932  -4.061  1.00  0.00    -0.274 OA
ENDBRANCH  10  15
ENDBRANCH   6   9
ENDBRANCH   4   5
ENDBRANCH   3   4
ENDBRANCH   2   3
ENDBRANCH   1   2
BRANCH   1  38
ATOM     38  C   UNL     1     -10.587   5.872  -0.468  1.00  0.00     0.021 C 
BRANCH  38  39
ATOM     39  C   UNL     1     -11.417   4.822   0.257  1.00  0.00     0.116 C 
BRANCH  39  40
ATOM     40  N   UNL     1     -12.592   5.369   0.919  1.00  0.00    -0.352 N 
ATOM     41  C   UNL     1     -13.912   5.000   0.781  1.00  0.00     0.251 C 
ATOM     42  H   UNL     1     -12.420   6.103   1.553  1.00  0.00     0.163 HD
ATOM     43  O   UNL     1     -14.807   5.636   1.327  1.00  0.00    -0.269 OA
BRANCH  41  44
ATOM     44  C   UNL     1     -14.239   3.848  -0.084  1.00  0.00     0.039 A 
ATOM     45  C   UNL     1     -13.536   2.651   0.055  1.00  0.00     0.014 A 
ATOM     46  C   UNL     1     -15.173   4.006  -1.110  1.00  0.00     0.014 A 
ATOM     47  C   UNL     1     -13.601   1.704  -0.958  1.00  0.00     0.010 A 
ATOM     48  C   UNL     1     -15.315   3.002  -2.071  1.00  0.00     0.010 A 
ATOM     49  C   UNL     1     -14.479   1.873  -2.043  1.00  0.00    -0.014 A 
BRANCH  49  50
ATOM     50  C   UNL     1     -14.483   0.874  -3.144  1.00  0.00     0.031 A 
ATOM     51  C   UNL     1     -14.104   1.269  -4.550  1.00  0.00     0.074 A 
ATOM     52  C   UNL     1     -14.771  -0.413  -2.864  1.00  0.00     0.049 A 
ATOM     53  N   UNL     1     -14.054   0.523  -5.625  1.00  0.00    -0.248 NA
ATOM     54  C   UNL     1     -13.731   2.675  -4.785  1.00  0.00     0.031 C 
ATOM     55  C   UNL     1     -15.128  -0.924  -1.539  1.00  0.00     0.029 A 
ATOM     56  N   UNL     1     -14.791  -1.527  -3.666  1.00  0.00    -0.354 N 
ATOM     57  C   UNL     1     -13.666   1.367  -6.660  1.00  0.00     0.074 A 
ATOM     58  C   UNL     1     -13.518   2.689  -6.095  1.00  0.00     0.031 C 
ATOM     59  C   UNL     1     -15.289  -2.253  -1.610  1.00  0.00     0.029 A 
ATOM     60  C   UNL     1     -15.130  -2.678  -2.996  1.00  0.00     0.049 A 
ATOM     61  H   UNL     1     -14.582  -1.504  -4.628  1.00  0.00     0.167 HD
ATOM     62  C   UNL     1     -13.440   1.060  -7.958  1.00  0.00     0.031 A 
ATOM     63  C   UNL     1     -15.324  -3.935  -3.442  1.00  0.00     0.031 A 
ATOM     64  C   UNL     1     -13.565  -0.263  -8.511  1.00  0.00     0.049 A 
ATOM     65  C   UNL     1     -15.112  -4.235  -4.899  1.00  0.00     0.074 A 
ATOM     66  C   UNL     1     -13.329  -0.667  -9.814  1.00  0.00     0.029 A 
ATOM     67  N   UNL     1     -13.949  -1.390  -7.804  1.00  0.00    -0.354 N 
ATOM     68  N   UNL     1     -14.725  -3.427  -5.855  1.00  0.00    -0.248 NA
ATOM     69  C   UNL     1     -15.354  -5.616  -5.340  1.00  0.00     0.031 C 
ATOM     70  C   UNL     1     -13.644  -2.022  -9.914  1.00  0.00     0.029 A 
ATOM     71  C   UNL     1     -13.987  -2.483  -8.653  1.00  0.00     0.049 A 
ATOM     72  H   UNL     1     -14.163  -1.411  -6.843  1.00  0.00     0.167 HD
ATOM     73  C   UNL     1     -14.658  -4.204  -7.005  1.00  0.00     0.074 A 
ATOM     74  C   UNL     1     -15.018  -5.552  -6.622  1.00  0.00     0.031 C 
ATOM     75  C   UNL     1     -14.333  -3.826  -8.264  1.00  0.00     0.031 A 
BRANCH  62  76
ATOM     76  C   UNL     1     -13.024   2.154  -8.905  1.00  0.00    -0.014 A 
ATOM     77  C   UNL     1     -13.883   2.528  -9.953  1.00  0.00     0.009 A 
ATOM     78  C   UNL     1     -11.725   2.682  -8.874  1.00  0.00     0.009 A 
ATOM     79  C   UNL     1     -13.438   3.372 -10.971  1.00  0.00     0.001 A 
ATOM     80  C   UNL     1     -11.291   3.551  -9.879  1.00  0.00     0.001 A 
ATOM     81  C   UNL     1     -12.141   3.880 -10.935  1.00  0.00     0.000 A 
ENDBRANCH  62  76
BRANCH  63  82
ATOM     82  C   UNL     1     -15.767  -4.987  -2.485  1.00  0.00    -0.014 A 
ATOM     83  C   UNL     1     -17.016  -4.882  -1.849  1.00  0.00     0.009 A 
ATOM     84  C   UNL     1     -14.937  -6.070  -2.163  1.00  0.00     0.009 A 
ATOM     85  C   UNL     1     -17.410  -5.816  -0.889  1.00  0.00     0.001 A 
ATOM     86  C   UNL     1     -15.351  -7.028  -1.234  1.00  0.00     0.001 A 
ATOM     87  C   UNL     1     -16.580  -6.893  -0.588  1.00  0.00     0.000 A 
ENDBRANCH  63  82
BRANCH  75  88
ATOM     88  C   UNL     1     -14.323  -4.875  -9.343  1.00  0.00    -0.014 A 
ATOM     89  C   UNL     1     -13.112  -5.210  -9.973  1.00  0.00     0.009 A 
ATOM     90  C   UNL     1     -15.516  -5.429  -9.828  1.00  0.00     0.009 A 
ATOM     91  C   UNL     1     -13.100  -6.056 -11.084  1.00  0.00     0.001 A 
ATOM     92  C   UNL     1     -15.497  -6.304 -10.916  1.00  0.00     0.001 A 
ATOM     93  C   UNL     1     -14.292  -6.605 -11.552  1.00  0.00     0.000 A 
ENDBRANCH  75  88
ENDBRANCH  49  50
ENDBRANCH  41  44
ENDBRANCH  39  40
ENDBRANCH  38  39
ENDBRANCH   1  38
TORSDOF 14
