REMARK SMILES CCC[C@@H]1SC[C@@H](C(=O)NCCCCCCNC(=O)c2ccc(-c3c4nc(c(-c5ccccc5)c5ccc([nH]5)c(-c5ccccc5)c5nc(c(-c6ccccc6)c6ccc3[nH]6)C=C5)C=C4)cc2)N1C(=O)C1C(C)(C)C1(C)C
REMARK SMILES IDX 13 1 12 2 11 3 10 4 8 5 9 6 7 8 4 9 5 10 68 11 6 12 3 13
REMARK SMILES IDX 2 14 1 15 69 16 70 17 71 18 72 19 75 20 73 21 74 22 76 23
REMARK SMILES IDX 77 24 14 25 15 26 16 27 17 28 18 29 19 31 20 32 21 33 67 34
REMARK SMILES IDX 22 35 66 36 23 37 24 38 25 39 60 40 26 41 65 42 59 43 61 44
REMARK SMILES IDX 27 45 64 46 58 47 57 48 28 50 50 51 35 52 49 53 36 54 39 55
REMARK SMILES IDX 48 56 62 57 37 58 38 59 47 61 63 62 40 63 29 64 30 65 34 66
REMARK SMILES IDX 31 67 33 68 32 69 51 70 52 71 56 72 53 73 55 74 54 75 41 76
REMARK SMILES IDX 42 77 46 78 43 79 45 80 44 81
REMARK H PARENT 10 7 17 30 61 49 39 60
REMARK Flexibility Score: inf
ROOT
ATOM      1  C   UNL     1       0.898   4.070   0.760  1.00  0.00     0.002 C 
ENDROOT
BRANCH   1   2
ATOM      2  C   UNL     1       0.810   3.059  -0.389  1.00  0.00     0.021 C 
BRANCH   2   3
ATOM      3  C   UNL     1       0.546   1.635   0.086  1.00  0.00     0.116 C 
BRANCH   3   4
ATOM      4  N   UNL     1      -0.863   1.365   0.243  1.00  0.00    -0.354 N 
ATOM      5  C   UNL     1      -1.691   0.501  -0.413  1.00  0.00     0.243 C 
ATOM      6  O   UNL     1      -2.768   0.265   0.148  1.00  0.00    -0.273 OA
ATOM      7  H   UNL     1      -1.304   1.897   0.945  1.00  0.00     0.163 HD
BRANCH   5   8
ATOM      8  C   UNL     1      -1.249  -0.345  -1.644  1.00  0.00     0.185 C 
ATOM      9  C   UNL     1       0.816  -0.175  -3.016  1.00  0.00     0.144 C 
ATOM     10  S   UNL     1       0.786  -1.883  -2.351  1.00  0.00    -0.134 SA
ATOM     11  N   UNL     1      -0.571   0.351  -2.789  1.00  0.00    -0.318 N 
ATOM     12  C   UNL     1      -0.410  -1.492  -1.083  1.00  0.00     0.107 C 
BRANCH   9  13
ATOM     13  C   UNL     1       1.536  -0.261  -4.370  1.00  0.00     0.036 C 
BRANCH  13  14
ATOM     14  C   UNL     1       3.069  -0.102  -4.307  1.00  0.00    -0.000 C 
ATOM     15  C   UNL     1       3.832  -1.378  -4.022  1.00  0.00     0.004 C 
ENDBRANCH  13  14
ENDBRANCH   9  13
BRANCH  11  16
ATOM     16  C   UNL     1      -1.439   1.313  -3.392  1.00  0.00     0.228 C 
ATOM     17  O   UNL     1      -2.576   1.421  -2.920  1.00  0.00    -0.274 OA
BRANCH  16  18
ATOM     18  C   UNL     1      -1.233   2.275  -4.558  1.00  0.00     0.091 C 
ATOM     19  C   UNL     1       0.040   2.898  -5.063  1.00  0.00    -0.017 C 
ATOM     20  C   UNL     1      -0.807   1.831  -5.947  1.00  0.00    -0.017 C 
ATOM     21  C   UNL     1       0.031   4.334  -5.608  1.00  0.00     0.012 C 
ATOM     22  C   UNL     1       1.219   2.809  -4.127  1.00  0.00     0.012 C 
ATOM     23  C   UNL     1      -0.733   0.332  -6.158  1.00  0.00     0.012 C 
ATOM     24  C   UNL     1      -1.452   2.434  -7.201  1.00  0.00     0.012 C 
ENDBRANCH  16  18
ENDBRANCH  11  16
ENDBRANCH   5   8
ENDBRANCH   3   4
ENDBRANCH   2   3
ENDBRANCH   1   2
BRANCH   1  25
ATOM     25  C   UNL     1       2.075   3.854   1.723  1.00  0.00     0.002 C 
BRANCH  25  26
ATOM     26  C   UNL     1       3.460   3.820   1.070  1.00  0.00     0.021 C 
BRANCH  26  27
ATOM     27  C   UNL     1       3.823   5.080   0.290  1.00  0.00     0.116 C 
BRANCH  27  28
ATOM     28  N   UNL     1       3.855   6.256   1.145  1.00  0.00    -0.352 N 
ATOM     29  C   UNL     1       4.890   7.115   1.409  1.00  0.00     0.251 C 
ATOM     30  H   UNL     1       3.009   6.467   1.602  1.00  0.00     0.163 HD
ATOM     31  O   UNL     1       4.804   7.920   2.337  1.00  0.00    -0.269 OA
BRANCH  29  32
ATOM     32  C   UNL     1       6.116   7.072   0.588  1.00  0.00     0.039 A 
ATOM     33  C   UNL     1       7.359   7.151   1.220  1.00  0.00     0.014 A 
ATOM     34  C   UNL     1       6.040   6.974  -0.804  1.00  0.00     0.014 A 
ATOM     35  C   UNL     1       8.527   7.074   0.459  1.00  0.00     0.010 A 
ATOM     36  C   UNL     1       7.204   6.823  -1.553  1.00  0.00     0.010 A 
ATOM     37  C   UNL     1       8.459   6.875  -0.930  1.00  0.00    -0.014 A 
BRANCH  37  38
ATOM     38  C   UNL     1       9.690   6.725  -1.746  1.00  0.00     0.031 A 
ATOM     39  C   UNL     1      10.024   7.740  -2.807  1.00  0.00     0.074 A 
ATOM     40  C   UNL     1      10.482   5.649  -1.568  1.00  0.00     0.049 A 
ATOM     41  N   UNL     1      11.015   7.744  -3.662  1.00  0.00    -0.248 NA
ATOM     42  C   UNL     1       9.114   8.890  -2.937  1.00  0.00     0.031 C 
ATOM     43  C   UNL     1      10.255   4.579  -0.594  1.00  0.00     0.029 A 
ATOM     44  N   UNL     1      11.638   5.275  -2.206  1.00  0.00    -0.354 N 
ATOM     45  C   UNL     1      10.847   8.891  -4.428  1.00  0.00     0.074 A 
ATOM     46  C   UNL     1       9.626   9.524  -3.981  1.00  0.00     0.031 C 
ATOM     47  C   UNL     1      11.252   3.684  -0.683  1.00  0.00     0.029 A 
ATOM     48  C   UNL     1      12.162   4.090  -1.748  1.00  0.00     0.049 A 
ATOM     49  H   UNL     1      12.053   5.806  -2.924  1.00  0.00     0.167 HD
ATOM     50  C   UNL     1      11.650   9.389  -5.398  1.00  0.00     0.031 A 
ATOM     51  C   UNL     1      13.247   3.401  -2.150  1.00  0.00     0.031 A 
ATOM     52  C   UNL     1      12.863   8.759  -5.847  1.00  0.00     0.049 A 
ATOM     53  C   UNL     1      14.093   3.952  -3.266  1.00  0.00     0.074 A 
ATOM     54  C   UNL     1      13.755   9.195  -6.812  1.00  0.00     0.029 A 
ATOM     55  N   UNL     1      13.356   7.559  -5.359  1.00  0.00    -0.354 N 
ATOM     56  N   UNL     1      13.946   5.065  -3.944  1.00  0.00    -0.248 NA
ATOM     57  C   UNL     1      15.263   3.156  -3.663  1.00  0.00     0.031 C 
ATOM     58  C   UNL     1      14.763   8.235  -6.941  1.00  0.00     0.029 A 
ATOM     59  C   UNL     1      14.531   7.232  -6.014  1.00  0.00     0.049 A 
ATOM     60  H   UNL     1      12.933   7.020  -4.652  1.00  0.00     0.167 HD
ATOM     61  C   UNL     1      15.023   5.118  -4.820  1.00  0.00     0.074 A 
ATOM     62  C   UNL     1      15.824   3.938  -4.574  1.00  0.00     0.031 C 
ATOM     63  C   UNL     1      15.322   6.059  -5.748  1.00  0.00     0.031 A 
BRANCH  50  64
ATOM     64  C   UNL     1      11.245  10.689  -6.036  1.00  0.00    -0.014 A 
ATOM     65  C   UNL     1      11.309  11.895  -5.318  1.00  0.00     0.009 A 
ATOM     66  C   UNL     1      10.845  10.721  -7.380  1.00  0.00     0.009 A 
ATOM     67  C   UNL     1      10.952  13.101  -5.924  1.00  0.00     0.001 A 
ATOM     68  C   UNL     1      10.518  11.932  -7.993  1.00  0.00     0.001 A 
ATOM     69  C   UNL     1      10.563  13.119  -7.263  1.00  0.00     0.000 A 
ENDBRANCH  50  64
BRANCH  51  70
ATOM     70  C   UNL     1      13.601   2.106  -1.507  1.00  0.00    -0.014 A 
ATOM     71  C   UNL     1      14.776   1.981  -0.750  1.00  0.00     0.009 A 
ATOM     72  C   UNL     1      12.789   0.975  -1.688  1.00  0.00     0.009 A 
ATOM     73  C   UNL     1      15.154   0.742  -0.227  1.00  0.00     0.001 A 
ATOM     74  C   UNL     1      13.151  -0.254  -1.133  1.00  0.00     0.001 A 
ATOM     75  C   UNL     1      14.340  -0.374  -0.417  1.00  0.00     0.000 A 
ENDBRANCH  51  70
BRANCH  63  76
ATOM     76  C   UNL     1      16.594   5.876  -6.529  1.00  0.00    -0.014 A 
ATOM     77  C   UNL     1      16.720   4.870  -7.500  1.00  0.00     0.009 A 
ATOM     78  C   UNL     1      17.670   6.750  -6.313  1.00  0.00     0.009 A 
ATOM     79  C   UNL     1      17.913   4.720  -8.210  1.00  0.00     0.001 A 
ATOM     80  C   UNL     1      18.849   6.619  -7.047  1.00  0.00     0.001 A 
ATOM     81  C   UNL     1      18.973   5.598  -7.987  1.00  0.00     0.000 A 
ENDBRANCH  63  76
ENDBRANCH  37  38
ENDBRANCH  29  32
ENDBRANCH  27  28
ENDBRANCH  26  27
ENDBRANCH  25  26
ENDBRANCH   1  25
TORSDOF 17
