REMARK SMILES O=C(C[C@H](NC(=O)[C@]12C[C@H]3C[C@H](C[C@H](C3)C1)C2)c1cccc([N+](=O)[O-])c1)NCCCCCCNC(=O)c1ccc(-c2c3nc(c(-c4ccccc4)c4ccc([nH]4)c(-c4ccccc4)c4nc(c(-c5ccccc5)c5ccc2[nH]5)C=C4)C=C3)cc1
REMARK SMILES IDX 30 1 29 2 28 3 27 4 1 5 2 6 3 8 4 9 18 10 19 11 26 12 20 13
REMARK SMILES IDX 22 14 21 15 23 16 24 17 25 18 5 19 6 20 7 22 8 23 9 24 16 25
REMARK SMILES IDX 17 26 10 27 14 28 12 29 11 30 15 31 13 32 31 33 32 34 33 35
REMARK SMILES IDX 34 36 35 37 36 39 37 40 38 41 84 42 39 43 83 44 40 45 41 46
REMARK SMILES IDX 42 47 77 48 43 49 82 50 76 51 78 52 44 53 81 54 75 55 74 56
REMARK SMILES IDX 45 58 67 59 52 60 66 61 53 62 56 63 65 64 79 65 54 66 55 67
REMARK SMILES IDX 64 69 80 70 57 71 46 72 47 73 51 74 48 75 50 76 49 77 68 78
REMARK SMILES IDX 69 79 73 80 70 81 72 82 71 83 58 84 59 85 63 86 60 87 62 88
REMARK SMILES IDX 61 89
REMARK H PARENT 27 7 5 21 34 38 78 57 56 68
REMARK Flexibility Score: inf
ROOT
ATOM      1  C   UNL     1       1.450   1.182   3.281  1.00  0.00     0.002 C 
ENDROOT
BRANCH   1   2
ATOM      2  C   UNL     1       2.696   0.372   3.677  1.00  0.00     0.021 C 
BRANCH   2   3
ATOM      3  C   UNL     1       3.170  -0.618   2.610  1.00  0.00     0.116 C 
BRANCH   3   4
ATOM      4  N   UNL     1       3.439   0.082   1.374  1.00  0.00    -0.356 N 
ATOM      5  O   UNL     1       5.719  -0.244   1.317  1.00  0.00    -0.275 OA
ATOM      6  C   UNL     1       4.708   0.301   0.889  1.00  0.00     0.222 C 
ATOM      7  H   UNL     1       2.675   0.418   0.852  1.00  0.00     0.163 HD
BRANCH   6   8
ATOM      8  C   UNL     1       4.726   1.320  -0.220  1.00  0.00     0.129 C 
BRANCH   8   9
ATOM      9  C   UNL     1       4.347   0.770  -1.600  1.00  0.00     0.122 C 
BRANCH   9  10
ATOM     10  C   UNL     1       5.600   0.365  -2.368  1.00  0.00    -0.018 A 
ATOM     11  C   UNL     1       6.006  -0.968  -2.515  1.00  0.00     0.006 A 
ATOM     12  C   UNL     1       6.223   1.363  -3.151  1.00  0.00     0.091 A 
ATOM     13  C   UNL     1       6.897  -1.319  -3.538  1.00  0.00     0.007 A 
ATOM     14  C   UNL     1       7.065   0.995  -4.207  1.00  0.00     0.269 A 
ATOM     15  C   UNL     1       7.396  -0.347  -4.412  1.00  0.00     0.085 A 
BRANCH  14  16
ATOM     16  N   UNL     1       7.455   2.012  -5.192  1.00  0.00     0.062 N 
ATOM     17  O   UNL     1       7.990   1.626  -6.240  1.00  0.00    -0.258 OA
ATOM     18  O   UNL     1       7.190   3.195  -4.932  1.00  0.00    -0.258 OA
ENDBRANCH  14  16
ENDBRANCH   9  10
BRANCH   9  19
ATOM     19  N   UNL     1       3.267  -0.235  -1.605  1.00  0.00    -0.348 N 
ATOM     20  C   UNL     1       2.334  -0.661  -2.507  1.00  0.00     0.226 C 
ATOM     21  H   UNL     1       3.204  -0.717  -0.749  1.00  0.00     0.164 HD
ATOM     22  O   UNL     1       1.497  -1.447  -2.044  1.00  0.00    -0.274 OA
BRANCH  20  23
ATOM     23  C   UNL     1       2.247  -0.216  -3.991  1.00  0.00     0.050 C 
ATOM     24  C   UNL     1       1.372  -1.218  -4.804  1.00  0.00     0.020 C 
ATOM     25  C   UNL     1       3.623  -0.216  -4.658  1.00  0.00     0.020 C 
ATOM     26  C   UNL     1       1.605   1.177  -4.149  1.00  0.00     0.020 C 
ATOM     27  C   UNL     1       1.328  -0.834  -6.301  1.00  0.00    -0.010 C 
ATOM     28  C   UNL     1       3.602   0.181  -6.127  1.00  0.00    -0.010 C 
ATOM     29  C   UNL     1       1.574   1.589  -5.641  1.00  0.00    -0.010 C 
ATOM     30  C   UNL     1       0.737   0.578  -6.444  1.00  0.00     0.007 C 
ATOM     31  C   UNL     1       2.750  -0.834  -6.882  1.00  0.00     0.007 C 
ATOM     32  C   UNL     1       3.003   1.594  -6.213  1.00  0.00     0.007 C 
ENDBRANCH  20  23
ENDBRANCH   9  19
ENDBRANCH   8   9
ENDBRANCH   6   8
ENDBRANCH   3   4
ENDBRANCH   2   3
ENDBRANCH   1   2
BRANCH   1  33
ATOM     33  C   UNL     1       0.228   0.347   2.887  1.00  0.00     0.002 C 
BRANCH  33  34
ATOM     34  C   UNL     1      -0.233  -0.653   3.947  1.00  0.00     0.021 C 
BRANCH  34  35
ATOM     35  C   UNL     1      -0.562  -0.035   5.300  1.00  0.00     0.116 C 
BRANCH  35  36
ATOM     36  N   UNL     1      -1.690   0.880   5.231  1.00  0.00    -0.352 N 
ATOM     37  C   UNL     1      -2.820   0.922   6.010  1.00  0.00     0.251 C 
ATOM     38  H   UNL     1      -1.636   1.565   4.527  1.00  0.00     0.163 HD
ATOM     39  O   UNL     1      -3.757   1.651   5.702  1.00  0.00    -0.269 OA
BRANCH  37  40
ATOM     40  C   UNL     1      -2.915   0.065   7.210  1.00  0.00     0.039 A 
ATOM     41  C   UNL     1      -4.100  -0.635   7.448  1.00  0.00     0.014 A 
ATOM     42  C   UNL     1      -1.840  -0.052   8.096  1.00  0.00     0.014 A 
ATOM     43  C   UNL     1      -4.186  -1.497   8.542  1.00  0.00     0.010 A 
ATOM     44  C   UNL     1      -1.898  -0.973   9.138  1.00  0.00     0.010 A 
ATOM     45  C   UNL     1      -3.074  -1.700   9.376  1.00  0.00    -0.014 A 
BRANCH  45  46
ATOM     46  C   UNL     1      -3.125  -2.670  10.499  1.00  0.00     0.031 A 
ATOM     47  C   UNL     1      -2.978  -2.198  11.920  1.00  0.00     0.074 A 
ATOM     48  C   UNL     1      -3.253  -3.985  10.237  1.00  0.00     0.049 A 
ATOM     49  N   UNL     1      -2.984  -2.898  13.027  1.00  0.00    -0.248 NA
ATOM     50  C   UNL     1      -2.772  -0.756  12.123  1.00  0.00     0.031 C 
ATOM     51  C   UNL     1      -3.370  -4.576   8.902  1.00  0.00     0.029 A 
ATOM     52  N   UNL     1      -3.311  -5.063  11.083  1.00  0.00    -0.354 N 
ATOM     53  C   UNL     1      -2.765  -1.985  14.051  1.00  0.00     0.074 A 
ATOM     54  C   UNL     1      -2.576  -0.692  13.431  1.00  0.00     0.031 C 
ATOM     55  C   UNL     1      -3.534  -5.903   9.022  1.00  0.00     0.029 A 
ATOM     56  C   UNL     1      -3.485  -6.262  10.435  1.00  0.00     0.049 A 
ATOM     57  H   UNL     1      -3.235  -4.985  12.062  1.00  0.00     0.167 HD
ATOM     58  C   UNL     1      -2.741  -2.198  15.389  1.00  0.00     0.031 A 
ATOM     59  C   UNL     1      -3.596  -7.511  10.925  1.00  0.00     0.031 A 
ATOM     60  C   UNL     1      -2.930  -3.485  16.006  1.00  0.00     0.049 A 
ATOM     61  C   UNL     1      -3.532  -7.726  12.411  1.00  0.00     0.074 A 
ATOM     62  C   UNL     1      -2.987  -3.796  17.353  1.00  0.00     0.029 A 
ATOM     63  N   UNL     1      -3.079  -4.678  15.314  1.00  0.00    -0.354 N 
ATOM     64  N   UNL     1      -3.407  -6.842  13.371  1.00  0.00    -0.248 NA
ATOM     65  C   UNL     1      -3.634  -9.115  12.879  1.00  0.00     0.031 C 
ATOM     66  C   UNL     1      -3.102  -5.185  17.477  1.00  0.00     0.029 A 
ATOM     67  C   UNL     1      -3.189  -5.732  16.206  1.00  0.00     0.049 A 
ATOM     68  H   UNL     1      -3.103  -4.763  14.333  1.00  0.00     0.167 HD
ATOM     69  C   UNL     1      -3.450  -7.564  14.558  1.00  0.00     0.074 A 
ATOM     70  C   UNL     1      -3.628  -8.955  14.195  1.00  0.00     0.031 C 
ATOM     71  C   UNL     1      -3.356  -7.114  15.833  1.00  0.00     0.031 A 
BRANCH  58  72
ATOM     72  C   UNL     1      -2.474  -1.009  16.273  1.00  0.00    -0.014 A 
ATOM     73  C   UNL     1      -3.397   0.044  16.388  1.00  0.00     0.009 A 
ATOM     74  C   UNL     1      -1.283  -0.947  17.014  1.00  0.00     0.009 A 
ATOM     75  C   UNL     1      -3.109   1.155  17.185  1.00  0.00     0.001 A 
ATOM     76  C   UNL     1      -1.014   0.148  17.837  1.00  0.00     0.001 A 
ATOM     77  C   UNL     1      -1.921   1.204  17.911  1.00  0.00     0.000 A 
ENDBRANCH  58  72
BRANCH  59  78
ATOM     78  C   UNL     1      -3.813  -8.657  10.002  1.00  0.00    -0.014 A 
ATOM     79  C   UNL     1      -5.045  -9.330   9.988  1.00  0.00     0.009 A 
ATOM     80  C   UNL     1      -2.795  -9.088   9.137  1.00  0.00     0.009 A 
ATOM     81  C   UNL     1      -5.243 -10.427   9.147  1.00  0.00     0.001 A 
ATOM     82  C   UNL     1      -3.008 -10.165   8.274  1.00  0.00     0.001 A 
ATOM     83  C   UNL     1      -4.227 -10.840   8.287  1.00  0.00     0.000 A 
ENDBRANCH  59  78
BRANCH  71  84
ATOM     84  C   UNL     1      -3.482  -8.133  16.932  1.00  0.00    -0.014 A 
ATOM     85  C   UNL     1      -2.480  -9.087  17.168  1.00  0.00     0.009 A 
ATOM     86  C   UNL     1      -4.614  -8.120  17.763  1.00  0.00     0.009 A 
ATOM     87  C   UNL     1      -2.629 -10.032  18.186  1.00  0.00     0.001 A 
ATOM     88  C   UNL     1      -4.744  -9.042  18.802  1.00  0.00     0.001 A 
ATOM     89  C   UNL     1      -3.758 -10.005  19.004  1.00  0.00     0.000 A 
ENDBRANCH  71  84
ENDBRANCH  45  46
ENDBRANCH  37  40
ENDBRANCH  35  36
ENDBRANCH  34  35
ENDBRANCH  33  34
ENDBRANCH   1  33
TORSDOF 18
