REMARK SMILES CCCCCCNC(=O)Oc1cccc(-c2ccc([C@@H](C)C(=O)NCCCCCCNC(=O)c3ccc(-c4c5nc(c(-c6ccccc6)c6ccc([nH]6)c(-c6ccccc6)c6nc(c(-c7ccccc7)c7ccc4[nH]7)C=C6)C=C5)cc3)cc2C(F)(F)F)c1
REMARK SMILES IDX 22 1 23 2 24 3 20 5 21 6 19 7 16 8 17 9 83 10 18 11 82 12
REMARK SMILES IDX 15 13 11 14 12 15 88 16 13 17 14 18 10 19 8 20 7 21 9 23
REMARK SMILES IDX 6 24 5 25 4 26 3 27 2 28 1 29 84 30 85 31 86 32 87 33 25 34
REMARK SMILES IDX 26 35 27 36 28 37 29 38 30 39 31 40 32 41 33 43 34 44 35 45
REMARK SMILES IDX 81 46 36 47 80 48 37 49 38 50 39 51 74 52 40 53 79 54 73 55
REMARK SMILES IDX 75 56 41 57 78 58 72 59 71 60 42 62 64 63 49 64 63 65 50 66
REMARK SMILES IDX 53 67 62 68 76 69 51 70 52 71 61 73 77 74 54 75 43 76 44 77
REMARK SMILES IDX 48 78 45 79 47 80 46 81 65 82 66 83 70 84 67 85 69 86 68 87
REMARK SMILES IDX 55 88 56 89 60 90 57 91 59 92 58 93
REMARK H PARENT 24 4 7 22 31 42 75 61 53 72
REMARK Flexibility Score: inf
ROOT
ATOM      1  C   UNL     1      -3.833 -14.058   1.681  1.00  0.00     0.227 C 
ATOM      2  O   UNL     1      -2.893 -13.999   2.483  1.00  0.00    -0.274 OA
ATOM      3  N   UNL     1      -3.668 -14.901   0.626  1.00  0.00    -0.356 N 
ATOM      4  H   UNL     1      -2.849 -15.445   0.670  1.00  0.00     0.163 HD
ENDROOT
BRANCH   1   5
ATOM      5  C   UNL     1      -5.097 -13.222   1.925  1.00  0.00     0.105 C 
ATOM      6  C   UNL     1      -6.383 -14.038   2.050  1.00  0.00     0.023 C 
BRANCH   5   7
ATOM      7  C   UNL     1      -5.203 -11.975   1.060  1.00  0.00    -0.035 A 
ATOM      8  C   UNL     1      -5.268  -9.587  -0.529  1.00  0.00    -0.006 A 
ATOM      9  C   UNL     1      -5.698 -10.834  -1.023  1.00  0.00     0.009 A 
ATOM     10  C   UNL     1      -4.865  -9.534   0.822  1.00  0.00     0.064 A 
ATOM     11  C   UNL     1      -5.714 -11.986  -0.233  1.00  0.00     0.005 A 
ATOM     12  C   UNL     1      -4.785 -10.737   1.571  1.00  0.00     0.018 A 
BRANCH   8  13
ATOM     13  C   UNL     1      -5.290  -8.431  -1.452  1.00  0.00    -0.014 A 
ATOM     14  C   UNL     1      -4.265  -6.467  -2.446  1.00  0.00     0.133 A 
ATOM     15  C   UNL     1      -5.402  -6.216  -3.209  1.00  0.00     0.047 A 
ATOM     16  C   UNL     1      -4.188  -7.573  -1.596  1.00  0.00     0.056 A 
ATOM     17  C   UNL     1      -6.484  -7.082  -3.118  1.00  0.00     0.004 A 
ATOM     18  C   UNL     1      -6.433  -8.166  -2.237  1.00  0.00     0.009 A 
BRANCH  14  19
ATOM     19  O   UNL     1      -3.290  -5.452  -2.437  1.00  0.00    -0.410 OA
BRANCH  19  20
ATOM     20  C   UNL     1      -1.941  -5.766  -2.462  1.00  0.00     0.412 C 
ATOM     21  N   UNL     1      -1.145  -4.688  -2.183  1.00  0.00    -0.321 N 
ATOM     22  H   UNL     1      -0.172  -4.830  -2.239  1.00  0.00     0.167 HD
ATOM     23  O   UNL     1      -1.465  -6.866  -2.709  1.00  0.00    -0.224 OA
BRANCH  21  24
ATOM     24  C   UNL     1      -1.590  -3.358  -1.815  1.00  0.00     0.119 C 
BRANCH  24  25
ATOM     25  C   UNL     1      -1.011  -2.910  -0.472  1.00  0.00     0.021 C 
BRANCH  25  26
ATOM     26  C   UNL     1       0.516  -2.774  -0.440  1.00  0.00     0.002 C 
BRANCH  26  27
ATOM     27  C   UNL     1       1.113  -1.808  -1.469  1.00  0.00    -0.000 C 
BRANCH  27  28
ATOM     28  C   UNL     1       0.620  -0.362  -1.374  1.00  0.00    -0.003 C 
ATOM     29  C   UNL     1       0.986   0.313  -0.061  1.00  0.00     0.004 C 
ENDBRANCH  27  28
ENDBRANCH  26  27
ENDBRANCH  25  26
ENDBRANCH  24  25
ENDBRANCH  21  24
ENDBRANCH  19  20
ENDBRANCH  14  19
ENDBRANCH   8  13
BRANCH  10  30
ATOM     30  C   UNL     1      -4.532  -8.261   1.574  1.00  0.00     0.417 C 
ATOM     31  F   UNL     1      -5.109  -8.244   2.814  1.00  0.00    -0.166 F 
ATOM     32  F   UNL     1      -3.195  -8.126   1.796  1.00  0.00    -0.166 F 
ATOM     33  F   UNL     1      -4.937  -7.101   0.993  1.00  0.00    -0.166 F 
ENDBRANCH  10  30
ENDBRANCH   5   7
ENDBRANCH   1   5
BRANCH   3  34
ATOM     34  C   UNL     1      -4.476 -15.144  -0.550  1.00  0.00     0.116 C 
BRANCH  34  35
ATOM     35  C   UNL     1      -3.923 -14.405  -1.772  1.00  0.00     0.021 C 
BRANCH  35  36
ATOM     36  C   UNL     1      -2.913 -15.220  -2.585  1.00  0.00     0.002 C 
BRANCH  36  37
ATOM     37  C   UNL     1      -3.480 -16.487  -3.238  1.00  0.00     0.002 C 
BRANCH  37  38
ATOM     38  C   UNL     1      -4.705 -16.276  -4.134  1.00  0.00     0.021 C 
BRANCH  38  39
ATOM     39  C   UNL     1      -4.478 -15.335  -5.316  1.00  0.00     0.116 C 
BRANCH  39  40
ATOM     40  N   UNL     1      -3.477 -15.854  -6.234  1.00  0.00    -0.352 N 
ATOM     41  C   UNL     1      -3.595 -16.210  -7.553  1.00  0.00     0.251 C 
ATOM     42  H   UNL     1      -2.577 -15.967  -5.850  1.00  0.00     0.163 HD
ATOM     43  O   UNL     1      -2.704 -16.852  -8.100  1.00  0.00    -0.269 OA
BRANCH  41  44
ATOM     44  C   UNL     1      -4.800 -15.830  -8.321  1.00  0.00     0.039 A 
ATOM     45  C   UNL     1      -5.389 -16.774  -9.167  1.00  0.00     0.014 A 
ATOM     46  C   UNL     1      -5.325 -14.537  -8.238  1.00  0.00     0.014 A 
ATOM     47  C   UNL     1      -6.538 -16.439  -9.887  1.00  0.00     0.010 A 
ATOM     48  C   UNL     1      -6.506 -14.224  -8.908  1.00  0.00     0.010 A 
ATOM     49  C   UNL     1      -7.122 -15.171  -9.741  1.00  0.00    -0.014 A 
BRANCH  49  50
ATOM     50  C   UNL     1      -8.383 -14.819 -10.442  1.00  0.00     0.031 A 
ATOM     51  C   UNL     1      -8.395 -13.736 -11.486  1.00  0.00     0.074 A 
ATOM     52  C   UNL     1      -9.533 -15.423 -10.082  1.00  0.00     0.049 A 
ATOM     53  N   UNL     1      -9.411 -13.240 -12.147  1.00  0.00    -0.248 NA
ATOM     54  C   UNL     1      -7.104 -13.110 -11.812  1.00  0.00     0.031 C 
ATOM     55  C   UNL     1      -9.663 -16.455  -9.051  1.00  0.00     0.029 A 
ATOM     56  N   UNL     1     -10.816 -15.242 -10.534  1.00  0.00    -0.354 N 
ATOM     57  C   UNL     1      -8.886 -12.231 -12.944  1.00  0.00     0.074 A 
ATOM     58  C   UNL     1      -7.469 -12.161 -12.662  1.00  0.00     0.031 C 
ATOM     59  C   UNL     1     -10.951 -16.823  -8.958  1.00  0.00     0.029 A 
ATOM     60  C   UNL     1     -11.742 -16.030  -9.893  1.00  0.00     0.049 A 
ATOM     61  H   UNL     1     -11.052 -14.608 -11.250  1.00  0.00     0.167 HD
ATOM     62  C   UNL     1      -9.526 -11.441 -13.840  1.00  0.00     0.031 A 
ATOM     63  C   UNL     1     -13.080 -16.097 -10.031  1.00  0.00     0.031 A 
ATOM     64  C   UNL     1     -10.929 -11.529 -14.141  1.00  0.00     0.049 A 
ATOM     65  C   UNL     1     -13.760 -15.217 -11.043  1.00  0.00     0.074 A 
ATOM     66  C   UNL     1     -11.649 -10.830 -15.095  1.00  0.00     0.029 A 
ATOM     67  N   UNL     1     -11.825 -12.363 -13.493  1.00  0.00    -0.354 N 
ATOM     68  N   UNL     1     -13.234 -14.330 -11.851  1.00  0.00    -0.248 NA
ATOM     69  C   UNL     1     -15.218 -15.357 -11.168  1.00  0.00     0.031 C 
ATOM     70  C   UNL     1     -12.992 -11.204 -14.989  1.00  0.00     0.029 A 
ATOM     71  C   UNL     1     -13.098 -12.174 -14.005  1.00  0.00     0.049 A 
ATOM     72  H   UNL     1     -11.592 -12.995 -12.776  1.00  0.00     0.167 HD
ATOM     73  C   UNL     1     -14.291 -13.826 -12.598  1.00  0.00     0.074 A 
ATOM     74  C   UNL     1     -15.484 -14.518 -12.159  1.00  0.00     0.031 C 
ATOM     75  C   UNL     1     -14.274 -12.872 -13.560  1.00  0.00     0.031 A 
BRANCH  62  76
ATOM     76  C   UNL     1      -8.715 -10.402 -14.562  1.00  0.00    -0.014 A 
ATOM     77  C   UNL     1      -7.798 -10.758 -15.563  1.00  0.00     0.009 A 
ATOM     78  C   UNL     1      -8.924  -9.042 -14.284  1.00  0.00     0.009 A 
ATOM     79  C   UNL     1      -7.087  -9.773 -16.252  1.00  0.00     0.001 A 
ATOM     80  C   UNL     1      -8.232  -8.058 -14.992  1.00  0.00     0.001 A 
ATOM     81  C   UNL     1      -7.310  -8.425 -15.971  1.00  0.00     0.000 A 
ENDBRANCH  62  76
BRANCH  63  82
ATOM     82  C   UNL     1     -13.873 -17.028  -9.187  1.00  0.00    -0.014 A 
ATOM     83  C   UNL     1     -14.484 -18.159  -9.749  1.00  0.00     0.009 A 
ATOM     84  C   UNL     1     -14.041 -16.776  -7.816  1.00  0.00     0.009 A 
ATOM     85  C   UNL     1     -15.276 -18.999  -8.963  1.00  0.00     0.001 A 
ATOM     86  C   UNL     1     -14.809 -17.635  -7.027  1.00  0.00     0.001 A 
ATOM     87  C   UNL     1     -15.435 -18.739  -7.603  1.00  0.00     0.000 A 
ENDBRANCH  63  82
BRANCH  75  88
ATOM     88  C   UNL     1     -15.580 -12.545 -14.226  1.00  0.00    -0.014 A 
ATOM     89  C   UNL     1     -16.575 -11.815 -13.557  1.00  0.00     0.009 A 
ATOM     90  C   UNL     1     -15.799 -12.935 -15.556  1.00  0.00     0.009 A 
ATOM     91  C   UNL     1     -17.776 -11.509 -14.199  1.00  0.00     0.001 A 
ATOM     92  C   UNL     1     -16.989 -12.604 -16.204  1.00  0.00     0.001 A 
ATOM     93  C   UNL     1     -17.980 -11.899 -15.523  1.00  0.00     0.000 A 
ENDBRANCH  75  88
ENDBRANCH  49  50
ENDBRANCH  41  44
ENDBRANCH  39  40
ENDBRANCH  38  39
ENDBRANCH  37  38
ENDBRANCH  36  37
ENDBRANCH  35  36
ENDBRANCH  34  35
ENDBRANCH   3  34
TORSDOF 23
