REMARK SMILES O=C(CSc1nnc(C2CC2)n1-c1cccc2ccccc12)NCCCCCCNC(=O)c1ccc(-c2c3nc(c(-c4ccccc4)c4ccc([nH]4)c(-c4ccccc4)c4nc(c(-c5ccccc5)c5ccc2[nH]5)C=C4)C=C3)cc1
REMARK SMILES IDX 26 1 25 2 24 3 23 4 1 5 2 6 3 8 4 9 5 10 6 11 12 12 7 13
REMARK SMILES IDX 8 14 13 15 14 16 22 17 15 18 17 19 21 20 16 21 18 22 20 23
REMARK SMILES IDX 19 24 9 25 10 26 11 27 27 28 28 29 29 30 30 31 31 32 32 34
REMARK SMILES IDX 33 35 34 36 80 37 35 38 79 39 36 40 37 41 38 42 73 43 39 44
REMARK SMILES IDX 78 45 72 46 74 47 40 48 77 49 71 50 70 51 41 53 63 54 48 55
REMARK SMILES IDX 62 56 49 57 52 58 61 59 75 60 50 61 51 62 60 64 76 65 53 66
REMARK SMILES IDX 42 67 43 68 47 69 44 70 46 71 45 72 64 73 65 74 69 75 66 76
REMARK SMILES IDX 68 77 67 78 54 79 55 80 59 81 56 82 58 83 57 84
REMARK H PARENT 23 7 30 33 74 52 52 63
REMARK Flexibility Score: inf
ROOT
ATOM      1  C   UNL     1       4.291   2.031   3.029  1.00  0.00     0.002 C 
ENDROOT
BRANCH   1   2
ATOM      2  C   UNL     1       2.798   1.739   2.839  1.00  0.00     0.021 C 
BRANCH   2   3
ATOM      3  C   UNL     1       2.283   1.824   1.403  1.00  0.00     0.116 C 
BRANCH   3   4
ATOM      4  N   UNL     1       2.871   0.833   0.521  1.00  0.00    -0.355 N 
ATOM      5  O   UNL     1       0.873   0.113  -0.343  1.00  0.00    -0.274 OA
ATOM      6  C   UNL     1       2.099   0.046  -0.314  1.00  0.00     0.230 C 
ATOM      7  H   UNL     1       3.849   0.718   0.517  1.00  0.00     0.163 HD
BRANCH   6   8
ATOM      8  C   UNL     1       2.860  -0.988  -1.127  1.00  0.00     0.178 C 
BRANCH   8   9
ATOM      9  S   UNL     1       4.143  -0.260  -2.172  1.00  0.00    -0.076 SA
BRANCH   9  10
ATOM     10  C   UNL     1       3.222   0.769  -3.222  1.00  0.00     0.196 A 
ATOM     11  N   UNL     1       2.263   0.384  -4.030  1.00  0.00    -0.123 NA
ATOM     12  N   UNL     1       3.363   2.141  -3.280  1.00  0.00    -0.273 N 
ATOM     13  N   UNL     1       1.797   1.504  -4.684  1.00  0.00    -0.134 NA
ATOM     14  C   UNL     1       2.507   2.547  -4.290  1.00  0.00     0.141 A 
BRANCH  12  15
ATOM     15  C   UNL     1       4.084   2.954  -2.384  1.00  0.00     0.057 A 
ATOM     16  C   UNL     1       5.478   2.810  -2.347  1.00  0.00     0.027 A 
ATOM     17  C   UNL     1       3.400   3.925  -1.602  1.00  0.00     0.006 A 
ATOM     18  C   UNL     1       6.228   3.679  -1.569  1.00  0.00     0.003 A 
ATOM     19  C   UNL     1       4.192   4.846  -0.883  1.00  0.00    -0.016 A 
ATOM     20  C   UNL     1       1.986   4.040  -1.496  1.00  0.00     0.011 A 
ATOM     21  C   UNL     1       5.593   4.706  -0.870  1.00  0.00     0.009 A 
ATOM     22  C   UNL     1       3.569   5.891  -0.181  1.00  0.00     0.009 A 
ATOM     23  C   UNL     1       1.386   5.065  -0.765  1.00  0.00     0.001 A 
ATOM     24  C   UNL     1       2.180   5.999  -0.118  1.00  0.00     0.001 A 
ENDBRANCH  12  15
BRANCH  14  25
ATOM     25  C   UNL     1       2.330   3.908  -4.976  1.00  0.00     0.058 C 
ATOM     26  C   UNL     1       2.917   5.219  -4.501  1.00  0.00     0.012 C 
ATOM     27  C   UNL     1       3.530   4.529  -5.666  1.00  0.00     0.012 C 
ENDBRANCH  14  25
ENDBRANCH   9  10
ENDBRANCH   8   9
ENDBRANCH   6   8
ENDBRANCH   3   4
ENDBRANCH   2   3
ENDBRANCH   1   2
BRANCH   1  28
ATOM     28  C   UNL     1       4.811   3.351   2.450  1.00  0.00     0.002 C 
BRANCH  28  29
ATOM     29  C   UNL     1       4.101   4.641   2.881  1.00  0.00     0.021 C 
BRANCH  29  30
ATOM     30  C   UNL     1       4.219   4.974   4.355  1.00  0.00     0.116 C 
BRANCH  30  31
ATOM     31  N   UNL     1       5.588   5.324   4.743  1.00  0.00    -0.352 N 
ATOM     32  C   UNL     1       6.065   5.632   6.000  1.00  0.00     0.251 C 
ATOM     33  H   UNL     1       6.250   5.340   4.015  1.00  0.00     0.163 HD
ATOM     34  O   UNL     1       7.109   6.268   6.140  1.00  0.00    -0.269 OA
BRANCH  32  35
ATOM     35  C   UNL     1       5.304   5.187   7.177  1.00  0.00     0.039 A 
ATOM     36  C   UNL     1       5.172   5.987   8.315  1.00  0.00     0.014 A 
ATOM     37  C   UNL     1       4.683   3.944   7.107  1.00  0.00     0.014 A 
ATOM     38  C   UNL     1       4.333   5.557   9.341  1.00  0.00     0.010 A 
ATOM     39  C   UNL     1       3.723   3.613   8.024  1.00  0.00     0.010 A 
ATOM     40  C   UNL     1       3.589   4.378   9.175  1.00  0.00    -0.014 A 
BRANCH  40  41
ATOM     41  C   UNL     1       2.564   3.983  10.133  1.00  0.00     0.031 A 
ATOM     42  C   UNL     1       1.546   5.029  10.404  1.00  0.00     0.074 A 
ATOM     43  C   UNL     1       2.409   2.711  10.562  1.00  0.00     0.049 A 
ATOM     44  N   UNL     1       1.372   5.674  11.508  1.00  0.00    -0.248 NA
ATOM     45  C   UNL     1       0.719   5.521   9.289  1.00  0.00     0.031 C 
ATOM     46  C   UNL     1       3.159   1.518  10.149  1.00  0.00     0.029 A 
ATOM     47  N   UNL     1       1.445   2.187  11.367  1.00  0.00    -0.354 N 
ATOM     48  C   UNL     1       0.267   6.490  11.303  1.00  0.00     0.074 A 
ATOM     49  C   UNL     1       0.037   6.504   9.880  1.00  0.00     0.031 C 
ATOM     50  C   UNL     1       2.473   0.407  10.495  1.00  0.00     0.029 A 
ATOM     51  C   UNL     1       1.332   0.801  11.300  1.00  0.00     0.049 A 
ATOM     52  H   UNL     1       0.875   2.741  11.948  1.00  0.00     0.167 HD
ATOM     53  C   UNL     1      -0.538   6.848  12.342  1.00  0.00     0.031 A 
ATOM     54  C   UNL     1       0.357   0.032  11.845  1.00  0.00     0.031 A 
ATOM     55  C   UNL     1       0.087   6.570  13.614  1.00  0.00     0.049 A 
ATOM     56  C   UNL     1      -0.284   0.831  12.913  1.00  0.00     0.074 A 
ATOM     57  C   UNL     1       1.272   6.939  14.220  1.00  0.00     0.029 A 
ATOM     58  N   UNL     1      -0.352   5.455  14.289  1.00  0.00    -0.354 N 
ATOM     59  N   UNL     1       0.319   1.150  14.021  1.00  0.00    -0.248 NA
ATOM     60  C   UNL     1      -1.430   1.655  12.566  1.00  0.00     0.031 C 
ATOM     61  C   UNL     1       1.721   5.763  14.893  1.00  0.00     0.029 A 
ATOM     62  C   UNL     1       0.749   4.774  14.733  1.00  0.00     0.049 A 
ATOM     63  H   UNL     1      -1.291   5.194  14.428  1.00  0.00     0.167 HD
ATOM     64  C   UNL     1      -0.049   2.467  14.245  1.00  0.00     0.074 A 
ATOM     65  C   UNL     1      -1.219   2.682  13.393  1.00  0.00     0.031 C 
ATOM     66  C   UNL     1       0.805   3.335  14.863  1.00  0.00     0.031 A 
BRANCH  53  67
ATOM     67  C   UNL     1      -2.037   6.994  12.222  1.00  0.00    -0.014 A 
ATOM     68  C   UNL     1      -2.765   7.360  13.370  1.00  0.00     0.009 A 
ATOM     69  C   UNL     1      -2.780   6.494  11.136  1.00  0.00     0.009 A 
ATOM     70  C   UNL     1      -4.144   7.138  13.460  1.00  0.00     0.001 A 
ATOM     71  C   UNL     1      -4.164   6.313  11.207  1.00  0.00     0.001 A 
ATOM     72  C   UNL     1      -4.841   6.602  12.381  1.00  0.00     0.000 A 
ENDBRANCH  53  67
BRANCH  54  73
ATOM     73  C   UNL     1      -0.205  -1.259  11.392  1.00  0.00    -0.014 A 
ATOM     74  C   UNL     1      -1.011  -2.026  12.250  1.00  0.00     0.009 A 
ATOM     75  C   UNL     1      -0.191  -1.603  10.028  1.00  0.00     0.009 A 
ATOM     76  C   UNL     1      -1.816  -3.060  11.752  1.00  0.00     0.001 A 
ATOM     77  C   UNL     1      -0.991  -2.640   9.533  1.00  0.00     0.001 A 
ATOM     78  C   UNL     1      -1.819  -3.355  10.392  1.00  0.00     0.000 A 
ENDBRANCH  54  73
BRANCH  66  79
ATOM     79  C   UNL     1       2.039   2.766  15.521  1.00  0.00    -0.014 A 
ATOM     80  C   UNL     1       3.028   2.048  14.825  1.00  0.00     0.009 A 
ATOM     81  C   UNL     1       2.276   3.087  16.865  1.00  0.00     0.009 A 
ATOM     82  C   UNL     1       4.201   1.634  15.467  1.00  0.00     0.001 A 
ATOM     83  C   UNL     1       3.456   2.695  17.500  1.00  0.00     0.001 A 
ATOM     84  C   UNL     1       4.415   1.962  16.804  1.00  0.00     0.000 A 
ENDBRANCH  66  79
ENDBRANCH  40  41
ENDBRANCH  32  35
ENDBRANCH  30  31
ENDBRANCH  29  30
ENDBRANCH  28  29
ENDBRANCH   1  28
TORSDOF 17
