REMARK SMILES CC(C)C(=O)Nc1ccc2c([C@H](C(=O)NCCCCCCNC(=O)c3ccc(-c4c5nc(c(-c6ccccc6)c6ccc([nH]6)c(-c6ccccc6)c6nc(c(-c7ccccc7)c7ccc4[nH]7)C=C6)C=C5)cc3)[NH+]3CC[NH+](CC(=O)N(C)C)CC3)c[nH]c2c1
REMARK SMILES IDX 18 1 17 2 16 3 15 4 13 5 14 6 12 8 11 9 7 10 8 11 88 12 9 13
REMARK SMILES IDX 87 14 10 15 86 16 85 17 6 19 4 20 5 21 2 23 1 24 3 25 73 26
REMARK SMILES IDX 74 27 84 28 75 30 83 31 76 32 77 34 78 35 79 36 80 37 81 38
REMARK SMILES IDX 82 39 19 40 20 41 21 42 22 43 23 44 24 46 25 47 26 48 72 49
REMARK SMILES IDX 27 50 71 51 28 52 29 53 30 54 65 55 31 56 70 57 64 58 66 59
REMARK SMILES IDX 32 60 69 61 63 62 62 63 33 65 55 66 40 67 54 68 41 69 44 70
REMARK SMILES IDX 53 71 67 72 42 73 43 74 52 76 68 77 45 78 34 79 35 80 39 81
REMARK SMILES IDX 36 82 38 83 37 84 56 85 57 86 61 87 58 88 60 89 59 90 46 91
REMARK SMILES IDX 47 92 51 93 48 94 50 95 49 96
REMARK H PARENT 15 7 86 18 6 22 73 29 76 33 22 45 66 64 44 75
REMARK Flexibility Score: inf
ROOT
ATOM      1  C   UNL     1      -0.258   1.528   0.367  1.00  0.00     0.002 C 
ENDROOT
BRANCH   1   2
ATOM      2  C   UNL     1       1.003   2.291  -0.047  1.00  0.00     0.021 C 
BRANCH   2   3
ATOM      3  C   UNL     1       0.779   3.766  -0.376  1.00  0.00     0.116 C 
BRANCH   3   4
ATOM      4  N   UNL     1       0.090   4.464   0.696  1.00  0.00    -0.351 N 
ATOM      5  C   UNL     1       0.370   5.651   1.320  1.00  0.00     0.283 C 
ATOM      6  O   UNL     1      -0.447   6.041   2.158  1.00  0.00    -0.268 OA
ATOM      7  H   UNL     1      -0.714   4.005   1.032  1.00  0.00     0.163 HD
BRANCH   5   8
ATOM      8  C   UNL     1       1.668   6.400   0.973  1.00  0.00     0.308 C 
BRANCH   8   9
ATOM      9  C   UNL     1       1.451   7.822   0.512  1.00  0.00     0.044 A 
ATOM     10  C   UNL     1       3.887  10.512  -1.572  1.00  0.00     0.043 A 
ATOM     11  C   UNL     1       4.555   9.468  -0.945  1.00  0.00     0.027 A 
ATOM     12  C   UNL     1       2.542  10.773  -1.287  1.00  0.00     0.052 A 
ATOM     13  C   UNL     1       3.858   8.524  -0.195  1.00  0.00     0.013 A 
ATOM     14  C   UNL     1       1.851   9.809  -0.541  1.00  0.00     0.048 A 
ATOM     15  C   UNL     1       2.468   8.664  -0.043  1.00  0.00     0.009 A 
ATOM     16  N   UNL     1       0.526   9.735  -0.184  1.00  0.00    -0.361 N 
ATOM     17  C   UNL     1       0.268   8.534   0.420  1.00  0.00     0.094 A 
ATOM     18  H   UNL     1      -0.140  10.442  -0.340  1.00  0.00     0.166 HD
BRANCH  10  19
ATOM     19  N   UNL     1       4.537  11.336  -2.492  1.00  0.00    -0.326 N 
ATOM     20  C   UNL     1       5.365  11.012  -3.529  1.00  0.00     0.226 C 
ATOM     21  O   UNL     1       5.955  11.942  -4.093  1.00  0.00    -0.274 OA
ATOM     22  H   UNL     1       4.374  12.300  -2.376  1.00  0.00     0.169 HD
BRANCH  20  23
ATOM     23  C   UNL     1       5.498   9.587  -4.098  1.00  0.00     0.072 C 
ATOM     24  C   UNL     1       6.456   8.665  -3.355  1.00  0.00     0.018 C 
ATOM     25  C   UNL     1       4.162   8.915  -4.412  1.00  0.00     0.018 C 
ENDBRANCH  20  23
ENDBRANCH  10  19
ENDBRANCH   8   9
BRANCH   8  26
ATOM     26  N   UNL     1       2.709   6.288   2.011  1.00  0.00    -0.312 N 
ATOM     27  C   UNL     1       2.556   7.118   3.211  1.00  0.00     0.325 C 
ATOM     28  C   UNL     1       3.089   4.909   2.322  1.00  0.00     0.325 C 
ATOM     29  H   UNL     1       3.503   6.721   1.540  1.00  0.00     0.349 HD
ATOM     30  C   UNL     1       1.920   6.453   4.454  1.00  0.00     0.325 C 
ATOM     31  C   UNL     1       2.410   4.263   3.552  1.00  0.00     0.325 C 
ATOM     32  N   UNL     1       2.354   5.082   4.761  1.00  0.00    -0.318 N 
ATOM     33  H   UNL     1       1.627   4.660   5.339  1.00  0.00     0.348 HD
BRANCH  32  34
ATOM     34  C   UNL     1       3.515   4.987   5.665  1.00  0.00     0.364 C 
BRANCH  34  35
ATOM     35  C   UNL     1       4.806   5.622   5.137  1.00  0.00     0.277 C 
ATOM     36  O   UNL     1       5.030   6.817   5.362  1.00  0.00    -0.268 OA
ATOM     37  N   UNL     1       5.685   4.859   4.376  1.00  0.00    -0.344 N 
ATOM     38  C   UNL     1       5.710   3.408   4.283  1.00  0.00     0.146 C 
ATOM     39  C   UNL     1       6.710   5.569   3.627  1.00  0.00     0.146 C 
ENDBRANCH  34  35
ENDBRANCH  32  34
ENDBRANCH   8  26
ENDBRANCH   5   8
ENDBRANCH   3   4
ENDBRANCH   2   3
ENDBRANCH   1   2
BRANCH   1  40
ATOM     40  C   UNL     1      -1.457   1.696  -0.571  1.00  0.00     0.002 C 
BRANCH  40  41
ATOM     41  C   UNL     1      -1.188   1.341  -2.032  1.00  0.00     0.021 C 
BRANCH  41  42
ATOM     42  C   UNL     1      -0.690  -0.080  -2.247  1.00  0.00     0.116 C 
BRANCH  42  43
ATOM     43  N   UNL     1      -1.677  -1.070  -1.850  1.00  0.00    -0.352 N 
ATOM     44  C   UNL     1      -2.175  -2.125  -2.575  1.00  0.00     0.251 C 
ATOM     45  H   UNL     1      -2.036  -0.972  -0.938  1.00  0.00     0.163 HD
ATOM     46  O   UNL     1      -3.144  -2.755  -2.176  1.00  0.00    -0.269 OA
BRANCH  44  47
ATOM     47  C   UNL     1      -1.535  -2.476  -3.859  1.00  0.00     0.039 A 
ATOM     48  C   UNL     1      -2.339  -2.710  -4.976  1.00  0.00     0.014 A 
ATOM     49  C   UNL     1      -0.143  -2.550  -3.959  1.00  0.00     0.014 A 
ATOM     50  C   UNL     1      -1.742  -2.968  -6.211  1.00  0.00     0.010 A 
ATOM     51  C   UNL     1       0.450  -2.721  -5.204  1.00  0.00     0.010 A 
ATOM     52  C   UNL     1      -0.343  -2.945  -6.340  1.00  0.00    -0.014 A 
BRANCH  52  53
ATOM     53  C   UNL     1       0.317  -3.175  -7.649  1.00  0.00     0.031 A 
ATOM     54  C   UNL     1       1.220  -4.364  -7.832  1.00  0.00     0.074 A 
ATOM     55  C   UNL     1       0.158  -2.286  -8.647  1.00  0.00     0.049 A 
ATOM     56  N   UNL     1       1.946  -4.699  -8.868  1.00  0.00    -0.248 NA
ATOM     57  C   UNL     1       1.345  -5.284  -6.689  1.00  0.00     0.031 C 
ATOM     58  C   UNL     1      -0.666  -1.077  -8.586  1.00  0.00     0.029 A 
ATOM     59  N   UNL     1       0.692  -2.260  -9.911  1.00  0.00    -0.354 N 
ATOM     60  C   UNL     1       2.625  -5.852  -8.494  1.00  0.00     0.074 A 
ATOM     61  C   UNL     1       2.270  -6.127  -7.120  1.00  0.00     0.031 C 
ATOM     62  C   UNL     1      -0.605  -0.444  -9.769  1.00  0.00     0.029 A 
ATOM     63  C   UNL     1       0.297  -1.174 -10.654  1.00  0.00     0.049 A 
ATOM     64  H   UNL     1       1.301  -2.954 -10.253  1.00  0.00     0.167 HD
ATOM     65  C   UNL     1       3.453  -6.626  -9.235  1.00  0.00     0.031 A 
ATOM     66  C   UNL     1       0.632  -0.803 -11.904  1.00  0.00     0.031 A 
ATOM     67  C   UNL     1       3.800  -6.355 -10.604  1.00  0.00     0.049 A 
ATOM     68  C   UNL     1       1.579  -1.662 -12.696  1.00  0.00     0.074 A 
ATOM     69  C   UNL     1       4.590  -7.105 -11.457  1.00  0.00     0.029 A 
ATOM     70  N   UNL     1       3.379  -5.244 -11.319  1.00  0.00    -0.354 N 
ATOM     71  N   UNL     1       2.163  -2.784 -12.350  1.00  0.00    -0.248 NA
ATOM     72  C   UNL     1       1.902  -1.208 -14.056  1.00  0.00     0.031 C 
ATOM     73  C   UNL     1       4.698  -6.415 -12.669  1.00  0.00     0.029 A 
ATOM     74  C   UNL     1       3.917  -5.273 -12.594  1.00  0.00     0.049 A 
ATOM     75  H   UNL     1       2.786  -4.540 -10.971  1.00  0.00     0.167 HD
ATOM     76  C   UNL     1       2.896  -3.187 -13.460  1.00  0.00     0.074 A 
ATOM     77  C   UNL     1       2.669  -2.197 -14.493  1.00  0.00     0.031 C 
ATOM     78  C   UNL     1       3.682  -4.281 -13.612  1.00  0.00     0.031 A 
BRANCH  65  79
ATOM     79  C   UNL     1       4.050  -7.836  -8.568  1.00  0.00    -0.014 A 
ATOM     80  C   UNL     1       3.256  -8.934  -8.199  1.00  0.00     0.009 A 
ATOM     81  C   UNL     1       5.431  -7.888  -8.326  1.00  0.00     0.009 A 
ATOM     82  C   UNL     1       3.826 -10.040  -7.564  1.00  0.00     0.001 A 
ATOM     83  C   UNL     1       6.004  -9.009  -7.723  1.00  0.00     0.001 A 
ATOM     84  C   UNL     1       5.200 -10.079  -7.332  1.00  0.00     0.000 A 
ENDBRANCH  65  79
BRANCH  66  85
ATOM     85  C   UNL     1       0.059   0.437 -12.493  1.00  0.00    -0.014 A 
ATOM     86  C   UNL     1      -0.859   0.364 -13.552  1.00  0.00     0.009 A 
ATOM     87  C   UNL     1       0.435   1.700 -12.009  1.00  0.00     0.009 A 
ATOM     88  C   UNL     1      -1.365   1.530 -14.133  1.00  0.00     0.001 A 
ATOM     89  C   UNL     1      -0.097   2.863 -12.569  1.00  0.00     0.001 A 
ATOM     90  C   UNL     1      -0.988   2.777 -13.638  1.00  0.00     0.000 A 
ENDBRANCH  66  85
BRANCH  78  91
ATOM     91  C   UNL     1       4.320  -4.492 -14.957  1.00  0.00    -0.014 A 
ATOM     92  C   UNL     1       5.364  -3.672 -15.411  1.00  0.00     0.009 A 
ATOM     93  C   UNL     1       3.895  -5.561 -15.762  1.00  0.00     0.009 A 
ATOM     94  C   UNL     1       5.946  -3.899 -16.660  1.00  0.00     0.001 A 
ATOM     95  C   UNL     1       4.501  -5.806 -16.995  1.00  0.00     0.001 A 
ATOM     96  C   UNL     1       5.519  -4.968 -17.448  1.00  0.00     0.000 A 
ENDBRANCH  78  91
ENDBRANCH  52  53
ENDBRANCH  44  47
ENDBRANCH  42  43
ENDBRANCH  41  42
ENDBRANCH  40  41
ENDBRANCH   1  40
TORSDOF 19
