REMARK SMILES Cc1cc2n(n1)[C@H](C(F)(F)F)CCN2C(=O)c1cnn([C@@H](C)C(=O)NCCCCCCNC(=O)c2ccc(-c3c4nc(c(-c5ccccc5)c5ccc([nH]5)c(-c5ccccc5)c5nc(c(-c6ccccc6)c6ccc3[nH]6)C=C5)C=C4)cc2)c1
REMARK SMILES IDX 27 1 26 2 25 3 23 4 24 5 21 7 22 8 20 9 17 10 18 11 83 12
REMARK SMILES IDX 19 13 15 14 16 15 14 16 1 17 2 18 3 19 6 20 4 21 5 22 7 23
REMARK SMILES IDX 13 24 12 25 8 26 9 27 10 28 11 29 28 30 29 31 30 32 31 33
REMARK SMILES IDX 32 34 33 35 34 37 35 38 36 39 82 40 37 41 81 42 38 43 39 44
REMARK SMILES IDX 40 45 75 46 41 47 80 48 74 49 76 50 42 51 79 52 73 53 72 54
REMARK SMILES IDX 43 56 65 57 50 58 64 59 51 60 54 61 63 62 77 63 52 64 53 65
REMARK SMILES IDX 62 67 78 68 55 69 44 70 45 71 49 72 46 73 48 74 47 75 66 76
REMARK SMILES IDX 67 77 71 78 68 79 70 80 69 81 56 82 57 83 61 84 58 85 60 86
REMARK SMILES IDX 59 87
REMARK H PARENT 25 6 32 36 76 55 54 66
REMARK Flexibility Score: inf
ROOT
ATOM      1  C   UNL     1      -2.484   5.312  -9.888  1.00  0.00     0.021 C 
ENDROOT
BRANCH   1   2
ATOM      2  C   UNL     1      -3.760   5.943  -9.324  1.00  0.00     0.116 C 
BRANCH   2   3
ATOM      3  N   UNL     1      -4.854   4.991  -9.267  1.00  0.00    -0.354 N 
ATOM      4  C   UNL     1      -5.462   4.393  -8.206  1.00  0.00     0.244 C 
ATOM      5  O   UNL     1      -6.289   3.510  -8.465  1.00  0.00    -0.273 OA
ATOM      6  H   UNL     1      -5.219   4.734 -10.145  1.00  0.00     0.163 HD
BRANCH   4   7
ATOM      7  C   UNL     1      -5.210   4.780  -6.752  1.00  0.00     0.193 C 
ATOM      8  C   UNL     1      -5.508   6.239  -6.419  1.00  0.00     0.044 C 
BRANCH   7   9
ATOM      9  N   UNL     1      -3.925   4.302  -6.251  1.00  0.00    -0.260 N 
ATOM     10  C   UNL     1      -2.358   3.295  -5.064  1.00  0.00     0.078 A 
ATOM     11  C   UNL     1      -1.825   4.074  -6.107  1.00  0.00     0.149 A 
ATOM     12  C   UNL     1      -3.728   3.423  -5.217  1.00  0.00     0.123 A 
ATOM     13  N   UNL     1      -2.760   4.785  -6.728  1.00  0.00    -0.180 NA
BRANCH  10  14
ATOM     14  C   UNL     1      -1.667   2.488  -4.112  1.00  0.00     0.262 C 
ATOM     15  O   UNL     1      -1.779   1.255  -4.057  1.00  0.00    -0.269 OA
BRANCH  14  16
ATOM     16  N   UNL     1      -0.845   3.235  -3.174  1.00  0.00    -0.293 N 
ATOM     17  C   UNL     1       1.214  -0.044   0.034  1.00  0.00     0.069 C 
ATOM     18  C   UNL     1       0.793   1.159  -0.723  1.00  0.00     0.062 A 
ATOM     19  C   UNL     1      -0.048   1.223  -1.862  1.00  0.00     0.072 A 
ATOM     20  N   UNL     1       1.215   2.375  -0.353  1.00  0.00    -0.176 NA
ATOM     21  C   UNL     1      -0.157   2.562  -2.157  1.00  0.00     0.134 A 
ATOM     22  N   UNL     1       0.583   3.197  -1.196  1.00  0.00    -0.237 N 
ATOM     23  C   UNL     1       0.770   4.628  -1.127  1.00  0.00     0.216 C 
ATOM     24  C   UNL     1      -0.838   4.726  -3.126  1.00  0.00     0.130 C 
ATOM     25  C   UNL     1       0.451   5.263  -2.487  1.00  0.00     0.059 C 
BRANCH  23  26
ATOM     26  C   UNL     1      -0.066   5.227  -0.016  1.00  0.00     0.410 C 
ATOM     27  F   UNL     1       0.136   4.655   1.183  1.00  0.00    -0.169 F 
ATOM     28  F   UNL     1       0.233   6.544   0.113  1.00  0.00    -0.169 F 
ATOM     29  F   UNL     1      -1.386   5.154  -0.301  1.00  0.00    -0.169 F 
ENDBRANCH  23  26
ENDBRANCH  14  16
ENDBRANCH  10  14
ENDBRANCH   7   9
ENDBRANCH   4   7
ENDBRANCH   2   3
ENDBRANCH   1   2
BRANCH   1  30
ATOM     30  C   UNL     1      -2.498   5.085 -11.402  1.00  0.00     0.002 C 
BRANCH  30  31
ATOM     31  C   UNL     1      -2.875   6.297 -12.266  1.00  0.00     0.002 C 
BRANCH  31  32
ATOM     32  C   UNL     1      -2.126   7.611 -11.995  1.00  0.00     0.021 C 
BRANCH  32  33
ATOM     33  C   UNL     1      -0.654   7.589 -12.375  1.00  0.00     0.116 C 
BRANCH  33  34
ATOM     34  N   UNL     1      -0.436   7.408 -13.814  1.00  0.00    -0.352 N 
ATOM     35  C   UNL     1       0.741   7.134 -14.489  1.00  0.00     0.251 C 
ATOM     36  H   UNL     1      -1.239   7.493 -14.378  1.00  0.00     0.163 HD
ATOM     37  O   UNL     1       0.850   7.340 -15.691  1.00  0.00    -0.269 OA
BRANCH  35  38
ATOM     38  C   UNL     1       1.866   6.571 -13.728  1.00  0.00     0.039 A 
ATOM     39  C   UNL     1       3.196   6.957 -13.928  1.00  0.00     0.014 A 
ATOM     40  C   UNL     1       1.538   5.651 -12.745  1.00  0.00     0.014 A 
ATOM     41  C   UNL     1       4.180   6.456 -13.071  1.00  0.00     0.010 A 
ATOM     42  C   UNL     1       2.446   5.368 -11.769  1.00  0.00     0.010 A 
ATOM     43  C   UNL     1       3.789   5.662 -11.988  1.00  0.00    -0.014 A 
BRANCH  43  44
ATOM     44  C   UNL     1       4.727   5.067 -11.045  1.00  0.00     0.031 A 
ATOM     45  C   UNL     1       5.511   5.988 -10.184  1.00  0.00     0.074 A 
ATOM     46  C   UNL     1       4.626   3.755 -10.732  1.00  0.00     0.049 A 
ATOM     47  N   UNL     1       6.795   6.063 -10.065  1.00  0.00    -0.248 NA
ATOM     48  C   UNL     1       4.777   6.969  -9.368  1.00  0.00     0.031 C 
ATOM     49  C   UNL     1       3.650   2.772 -11.236  1.00  0.00     0.029 A 
ATOM     50  N   UNL     1       5.268   3.059  -9.758  1.00  0.00    -0.354 N 
ATOM     51  C   UNL     1       7.041   6.987  -9.053  1.00  0.00     0.074 A 
ATOM     52  C   UNL     1       5.774   7.607  -8.753  1.00  0.00     0.031 C 
ATOM     53  C   UNL     1       3.590   1.719 -10.394  1.00  0.00     0.029 A 
ATOM     54  C   UNL     1       4.662   1.855  -9.430  1.00  0.00     0.049 A 
ATOM     55  H   UNL     1       6.090   3.382  -9.322  1.00  0.00     0.167 HD
ATOM     56  C   UNL     1       8.226   7.028  -8.382  1.00  0.00     0.031 A 
ATOM     57  C   UNL     1       5.008   1.020  -8.426  1.00  0.00     0.031 A 
ATOM     58  C   UNL     1       9.246   6.250  -9.033  1.00  0.00     0.049 A 
ATOM     59  C   UNL     1       6.400   1.346  -8.050  1.00  0.00     0.074 A 
ATOM     60  C   UNL     1       9.883   6.291 -10.256  1.00  0.00     0.029 A 
ATOM     61  N   UNL     1       9.489   4.997  -8.525  1.00  0.00    -0.354 N 
ATOM     62  N   UNL     1       7.414   1.181  -8.849  1.00  0.00    -0.248 NA
ATOM     63  C   UNL     1       6.630   2.242  -6.929  1.00  0.00     0.031 C 
ATOM     64  C   UNL     1      10.063   4.923 -10.623  1.00  0.00     0.029 A 
ATOM     65  C   UNL     1       9.564   4.132  -9.585  1.00  0.00     0.049 A 
ATOM     66  H   UNL     1       9.590   4.763  -7.574  1.00  0.00     0.167 HD
ATOM     67  C   UNL     1       8.250   2.256  -8.591  1.00  0.00     0.074 A 
ATOM     68  C   UNL     1       7.788   2.789  -7.312  1.00  0.00     0.031 C 
ATOM     69  C   UNL     1       9.045   2.781  -9.571  1.00  0.00     0.031 A 
BRANCH  56  70
ATOM     70  C   UNL     1       8.368   7.466  -6.947  1.00  0.00    -0.014 A 
ATOM     71  C   UNL     1       9.656   7.632  -6.405  1.00  0.00     0.009 A 
ATOM     72  C   UNL     1       7.294   7.462  -6.037  1.00  0.00     0.009 A 
ATOM     73  C   UNL     1       9.857   7.745  -5.023  1.00  0.00     0.001 A 
ATOM     74  C   UNL     1       7.487   7.617  -4.661  1.00  0.00     0.001 A 
ATOM     75  C   UNL     1       8.772   7.735  -4.152  1.00  0.00     0.000 A 
ENDBRANCH  56  70
BRANCH  57  76
ATOM     76  C   UNL     1       4.144   0.119  -7.644  1.00  0.00    -0.014 A 
ATOM     77  C   UNL     1       4.681  -0.984  -6.968  1.00  0.00     0.009 A 
ATOM     78  C   UNL     1       2.815   0.488  -7.356  1.00  0.00     0.009 A 
ATOM     79  C   UNL     1       3.928  -1.670  -6.007  1.00  0.00     0.001 A 
ATOM     80  C   UNL     1       2.062  -0.197  -6.398  1.00  0.00     0.001 A 
ATOM     81  C   UNL     1       2.626  -1.267  -5.711  1.00  0.00     0.000 A 
ENDBRANCH  57  76
BRANCH  69  82
ATOM     82  C   UNL     1       9.149   2.009 -10.867  1.00  0.00    -0.014 A 
ATOM     83  C   UNL     1       8.054   1.832 -11.733  1.00  0.00     0.009 A 
ATOM     84  C   UNL     1      10.410   1.581 -11.301  1.00  0.00     0.009 A 
ATOM     85  C   UNL     1       8.210   1.221 -12.981  1.00  0.00     0.001 A 
ATOM     86  C   UNL     1      10.570   0.985 -12.556  1.00  0.00     0.001 A 
ATOM     87  C   UNL     1       9.471   0.801 -13.393  1.00  0.00     0.000 A 
ENDBRANCH  69  82
ENDBRANCH  43  44
ENDBRANCH  35  38
ENDBRANCH  33  34
ENDBRANCH  32  33
ENDBRANCH  31  32
ENDBRANCH  30  31
ENDBRANCH   1  30
TORSDOF 17
