REMARK SMILES Cc1ccc(N2C(=O)N[C@@H]3CCN(C(=O)CC4(CC(=O)NCCCCCCNC(=O)c5ccc(-c6c7nc(c(-c8ccccc8)c8ccc([nH]8)c(-c8ccccc8)c8nc(c(-c9ccccc9)c9ccc6[nH]9)C=C8)C=C7)cc5)CCCC4)[C@@H]3C2=O)cc1
REMARK SMILES IDX 23 1 22 2 21 3 19 4 20 5 18 7 17 8 79 9 82 10 80 11 81 12
REMARK SMILES IDX 16 13 14 14 15 15 13 16 6 17 7 18 84 19 8 20 9 21 83 22
REMARK SMILES IDX 85 23 10 24 11 26 12 27 5 28 1 29 2 30 3 31 87 32 4 33 86 34
REMARK SMILES IDX 24 35 25 36 26 37 27 38 28 39 29 40 30 42 31 43 32 44 78 45
REMARK SMILES IDX 33 46 77 47 34 48 35 49 36 50 71 51 37 52 76 53 70 54 72 55
REMARK SMILES IDX 38 56 75 57 69 58 68 59 39 61 61 62 46 63 60 64 47 65 50 66
REMARK SMILES IDX 59 67 73 68 48 69 49 70 58 72 74 73 51 74 40 75 41 76 45 77
REMARK SMILES IDX 42 78 44 79 43 80 62 81 63 82 67 83 64 84 66 85 65 86 52 87
REMARK SMILES IDX 53 88 57 89 54 90 56 91 55 92
REMARK H PARENT 21 6 9 25 28 41 72 60 50 71
REMARK Flexibility Score: inf
ROOT
ATOM      1  C   UNL     1     -10.882  -0.454  -5.955  1.00  0.00     0.021 C 
ENDROOT
BRANCH   1   2
ATOM      2  C   UNL     1      -9.921  -0.293  -7.144  1.00  0.00     0.116 C 
BRANCH   2   3
ATOM      3  N   UNL     1      -9.396   1.058  -7.185  1.00  0.00    -0.356 N 
ATOM      4  C   UNL     1      -8.209   1.581  -6.774  1.00  0.00     0.220 C 
ATOM      5  O   UNL     1      -8.094   2.808  -6.821  1.00  0.00    -0.275 OA
ATOM      6  H   UNL     1     -10.010   1.717  -7.582  1.00  0.00     0.163 HD
BRANCH   4   7
ATOM      7  C   UNL     1      -7.039   0.707  -6.328  1.00  0.00     0.107 C 
BRANCH   7   8
ATOM      8  C   UNL     1      -6.863   0.416  -4.792  1.00  0.00    -0.012 C 
ATOM      9  C   UNL     1      -5.458  -0.198  -4.573  1.00  0.00     0.008 C 
ATOM     10  C   UNL     1      -7.801  -0.753  -4.413  1.00  0.00     0.008 C 
ATOM     11  C   UNL     1      -5.608  -1.669  -4.930  1.00  0.00     0.001 C 
ATOM     12  C   UNL     1      -6.976  -2.039  -4.385  1.00  0.00     0.001 C 
BRANCH   8  13
ATOM     13  C   UNL     1      -7.111   1.700  -3.939  1.00  0.00     0.107 C 
BRANCH  13  14
ATOM     14  C   UNL     1      -6.221   2.029  -2.725  1.00  0.00     0.223 C 
ATOM     15  O   UNL     1      -5.511   3.038  -2.746  1.00  0.00    -0.275 OA
BRANCH  14  16
ATOM     16  N   UNL     1      -6.262   1.235  -1.601  1.00  0.00    -0.328 N 
ATOM     17  N   UNL     1      -3.241   0.336   0.291  1.00  0.00    -0.230 N 
ATOM     18  C   UNL     1      -3.816  -0.097   1.480  1.00  0.00     0.329 C 
ATOM     19  C   UNL     1      -3.948   0.899  -0.777  1.00  0.00     0.260 C 
ATOM     20  O   UNL     1      -3.248  -0.706   2.384  1.00  0.00    -0.248 OA
ATOM     21  N   UNL     1      -5.124   0.216   1.681  1.00  0.00    -0.332 N 
ATOM     22  C   UNL     1      -5.346   1.459  -0.472  1.00  0.00     0.197 C 
ATOM     23  O   UNL     1      -3.476   0.966  -1.919  1.00  0.00    -0.271 OA
ATOM     24  C   UNL     1      -6.015   0.736   0.688  1.00  0.00     0.118 C 
ATOM     25  H   UNL     1      -5.489   0.073   2.584  1.00  0.00     0.165 HD
ATOM     26  C   UNL     1      -6.800  -0.392   0.034  1.00  0.00     0.049 C 
ATOM     27  C   UNL     1      -7.177   0.156  -1.324  1.00  0.00     0.122 C 
BRANCH  17  28
ATOM     28  C   UNL     1      -1.829   0.167   0.122  1.00  0.00     0.054 A 
ATOM     29  C   UNL     1       2.470  -0.151  -0.091  1.00  0.00     0.044 C 
ATOM     30  C   UNL     1       0.976  -0.041  -0.035  1.00  0.00    -0.051 A 
ATOM     31  C   UNL     1       0.195  -1.164   0.263  1.00  0.00     0.005 A 
ATOM     32  C   UNL     1       0.342   1.176  -0.302  1.00  0.00     0.005 A 
ATOM     33  C   UNL     1      -1.196  -1.057   0.363  1.00  0.00     0.027 A 
ATOM     34  C   UNL     1      -1.049   1.275  -0.240  1.00  0.00     0.027 A 
ENDBRANCH  17  28
ENDBRANCH  14  16
ENDBRANCH  13  14
ENDBRANCH   8  13
ENDBRANCH   7   8
ENDBRANCH   4   7
ENDBRANCH   2   3
ENDBRANCH   1   2
BRANCH   1  35
ATOM     35  C   UNL     1     -12.357  -0.196  -6.279  1.00  0.00     0.002 C 
BRANCH  35  36
ATOM     36  C   UNL     1     -12.986  -1.131  -7.323  1.00  0.00     0.002 C 
BRANCH  36  37
ATOM     37  C   UNL     1     -12.736  -2.626  -7.113  1.00  0.00     0.021 C 
BRANCH  37  38
ATOM     38  C   UNL     1     -13.483  -3.221  -5.925  1.00  0.00     0.116 C 
BRANCH  38  39
ATOM     39  N   UNL     1     -14.822  -3.683  -6.264  1.00  0.00    -0.352 N 
ATOM     40  C   UNL     1     -15.816  -4.232  -5.472  1.00  0.00     0.251 C 
ATOM     41  H   UNL     1     -15.060  -3.589  -7.215  1.00  0.00     0.163 HD
ATOM     42  O   UNL     1     -16.854  -4.608  -5.982  1.00  0.00    -0.269 OA
BRANCH  40  43
ATOM     43  C   UNL     1     -15.682  -4.215  -3.992  1.00  0.00     0.039 A 
ATOM     44  C   UNL     1     -16.819  -3.860  -3.253  1.00  0.00     0.014 A 
ATOM     45  C   UNL     1     -14.450  -4.329  -3.357  1.00  0.00     0.014 A 
ATOM     46  C   UNL     1     -16.669  -3.356  -1.965  1.00  0.00     0.010 A 
ATOM     47  C   UNL     1     -14.283  -3.747  -2.118  1.00  0.00     0.010 A 
ATOM     48  C   UNL     1     -15.381  -3.182  -1.466  1.00  0.00    -0.014 A 
BRANCH  48  49
ATOM     49  C   UNL     1     -15.074  -2.315  -0.338  1.00  0.00     0.031 A 
ATOM     50  C   UNL     1     -14.787  -2.902   0.987  1.00  0.00     0.074 A 
ATOM     51  C   UNL     1     -14.996  -0.978  -0.533  1.00  0.00     0.049 A 
ATOM     52  N   UNL     1     -14.906  -2.262   2.100  1.00  0.00    -0.248 NA
ATOM     53  C   UNL     1     -14.411  -4.303   1.171  1.00  0.00     0.031 C 
ATOM     54  C   UNL     1     -14.476   0.018   0.402  1.00  0.00     0.029 A 
ATOM     55  N   UNL     1     -15.574  -0.203  -1.546  1.00  0.00    -0.354 N 
ATOM     56  C   UNL     1     -14.333  -3.033   3.084  1.00  0.00     0.074 A 
ATOM     57  C   UNL     1     -14.173  -4.336   2.487  1.00  0.00     0.031 C 
ATOM     58  C   UNL     1     -15.019   1.210   0.105  1.00  0.00     0.029 A 
ATOM     59  C   UNL     1     -16.020   0.973  -0.923  1.00  0.00     0.049 A 
ATOM     60  H   UNL     1     -15.651  -0.435  -2.500  1.00  0.00     0.167 HD
ATOM     61  C   UNL     1     -13.921  -2.434   4.236  1.00  0.00     0.031 A 
ATOM     62  C   UNL     1     -17.333   1.337  -0.828  1.00  0.00     0.031 A 
ATOM     63  C   UNL     1     -14.397  -1.053   4.319  1.00  0.00     0.049 A 
ATOM     64  C   UNL     1     -17.793   1.543   0.604  1.00  0.00     0.074 A 
ATOM     65  C   UNL     1     -13.781   0.175   4.148  1.00  0.00     0.029 A 
ATOM     66  N   UNL     1     -15.766  -0.809   4.340  1.00  0.00    -0.354 N 
ATOM     67  N   UNL     1     -17.160   1.070   1.643  1.00  0.00    -0.248 NA
ATOM     68  C   UNL     1     -19.019   2.247   0.978  1.00  0.00     0.031 C 
ATOM     69  C   UNL     1     -14.799   1.150   3.967  1.00  0.00     0.029 A 
ATOM     70  C   UNL     1     -16.027   0.520   4.076  1.00  0.00     0.049 A 
ATOM     71  H   UNL     1     -16.454  -1.491   4.518  1.00  0.00     0.167 HD
ATOM     72  C   UNL     1     -17.844   1.389   2.787  1.00  0.00     0.074 A 
ATOM     73  C   UNL     1     -19.000   2.130   2.319  1.00  0.00     0.031 C 
ATOM     74  C   UNL     1     -17.402   1.001   4.019  1.00  0.00     0.031 A 
BRANCH  61  75
ATOM     75  C   UNL     1     -12.881  -3.002   5.183  1.00  0.00    -0.014 A 
ATOM     76  C   UNL     1     -12.355  -2.182   6.201  1.00  0.00     0.009 A 
ATOM     77  C   UNL     1     -12.299  -4.277   5.075  1.00  0.00     0.009 A 
ATOM     78  C   UNL     1     -11.293  -2.593   7.021  1.00  0.00     0.001 A 
ATOM     79  C   UNL     1     -11.245  -4.702   5.898  1.00  0.00     0.001 A 
ATOM     80  C   UNL     1     -10.733  -3.854   6.865  1.00  0.00     0.000 A 
ENDBRANCH  61  75
BRANCH  62  81
ATOM     81  C   UNL     1     -18.206   0.824  -1.917  1.00  0.00    -0.014 A 
ATOM     82  C   UNL     1     -18.038   1.345  -3.213  1.00  0.00     0.009 A 
ATOM     83  C   UNL     1     -18.913  -0.378  -1.764  1.00  0.00     0.009 A 
ATOM     84  C   UNL     1     -18.465   0.627  -4.335  1.00  0.00     0.001 A 
ATOM     85  C   UNL     1     -19.345  -1.090  -2.891  1.00  0.00     0.001 A 
ATOM     86  C   UNL     1     -19.088  -0.606  -4.173  1.00  0.00     0.000 A 
ENDBRANCH  62  81
BRANCH  74  87
ATOM     87  C   UNL     1     -18.182   1.080   5.310  1.00  0.00    -0.014 A 
ATOM     88  C   UNL     1     -19.579   1.137   5.389  1.00  0.00     0.009 A 
ATOM     89  C   UNL     1     -17.486   0.944   6.534  1.00  0.00     0.009 A 
ATOM     90  C   UNL     1     -20.243   1.104   6.625  1.00  0.00     0.001 A 
ATOM     91  C   UNL     1     -18.145   0.863   7.764  1.00  0.00     0.001 A 
ATOM     92  C   UNL     1     -19.527   0.955   7.809  1.00  0.00     0.000 A 
ENDBRANCH  74  87
ENDBRANCH  48  49
ENDBRANCH  40  43
ENDBRANCH  38  39
ENDBRANCH  37  38
ENDBRANCH  36  37
ENDBRANCH  35  36
ENDBRANCH   1  35
TORSDOF 18
