REMARK SMILES O=C(COc1ccccc1/C=C1\C(=O)Nc2ccccc21)NCCCCCCNC(=O)c1ccc(-c2c3nc(c(-c4ccccc4)c4ccc([nH]4)c(-c4ccccc4)c4nc(c(-c5ccccc5)c5ccc2[nH]5)C=C4)C=C3)cc1
REMARK SMILES IDX 25 1 24 2 23 3 22 4 1 5 2 6 3 8 4 9 5 10 6 11 10 12 7 13
REMARK SMILES IDX 9 14 8 15 11 16 12 17 13 18 21 19 14 20 15 21 16 22 20 23
REMARK SMILES IDX 17 25 19 26 18 27 26 28 27 29 28 30 29 31 30 32 31 34 32 35
REMARK SMILES IDX 33 36 79 37 34 38 78 39 35 40 36 41 37 42 72 43 38 44 77 45
REMARK SMILES IDX 71 46 73 47 39 48 76 49 70 50 69 51 40 53 62 54 47 55 61 56
REMARK SMILES IDX 48 57 51 58 60 59 74 60 49 61 50 62 59 64 75 65 52 66 41 67
REMARK SMILES IDX 42 68 46 69 43 70 45 71 44 72 63 73 64 74 68 75 65 76 67 77
REMARK SMILES IDX 66 78 53 79 54 80 58 81 55 82 57 83 56 84
REMARK H PARENT 22 7 15 24 29 33 73 52 51 63
REMARK Flexibility Score: inf
ROOT
ATOM      1  C   UNL     1       4.482   2.496   3.005  1.00  0.00     0.002 C 
ENDROOT
BRANCH   1   2
ATOM      2  C   UNL     1       3.022   2.069   3.200  1.00  0.00     0.021 C 
BRANCH   2   3
ATOM      3  C   UNL     1       2.274   1.781   1.913  1.00  0.00     0.116 C 
BRANCH   3   4
ATOM      4  N   UNL     1       2.861   0.750   1.105  1.00  0.00    -0.353 N 
ATOM      5  O   UNL     1       0.968  -0.543   0.829  1.00  0.00    -0.271 OA
ATOM      6  C   UNL     1       2.096  -0.219   0.478  1.00  0.00     0.257 C 
ATOM      7  H   UNL     1       3.840   0.731   0.994  1.00  0.00     0.163 HD
BRANCH   6   8
ATOM      8  C   UNL     1       2.809  -0.828  -0.720  1.00  0.00     0.329 C 
BRANCH   8   9
ATOM      9  O   UNL     1       3.495   0.273  -1.336  1.00  0.00    -0.483 OA
BRANCH   9  10
ATOM     10  C   UNL     1       3.057   0.547  -2.604  1.00  0.00     0.127 A 
ATOM     11  C   UNL     1       3.598  -0.239  -3.633  1.00  0.00     0.047 A 
ATOM     12  C   UNL     1       2.266   1.683  -2.881  1.00  0.00     0.017 A 
ATOM     13  C   UNL     1       3.393   0.115  -4.961  1.00  0.00     0.004 A 
ATOM     14  C   UNL     1       2.192   2.079  -4.224  1.00  0.00     0.012 A 
ATOM     15  C   UNL     1       2.718   1.292  -5.254  1.00  0.00     0.001 A 
BRANCH  12  16
ATOM     16  C   UNL     1       1.566   2.476  -1.829  1.00  0.00     0.026 C 
ATOM     17  C   UNL     1       0.319   3.001  -1.871  1.00  0.00     0.050 C 
ATOM     18  C   UNL     1      -0.667   2.907  -3.028  1.00  0.00     0.256 C 
ATOM     19  C   UNL     1      -0.386   3.782  -0.819  1.00  0.00     0.011 A 
ATOM     20  O   UNL     1      -0.584   2.303  -4.076  1.00  0.00    -0.269 OA
ATOM     21  N   UNL     1      -1.754   3.672  -2.652  1.00  0.00    -0.321 N 
ATOM     22  C   UNL     1      -1.620   4.155  -1.363  1.00  0.00     0.049 A 
ATOM     23  C   UNL     1      -0.112   4.153   0.486  1.00  0.00     0.011 A 
ATOM     24  H   UNL     1      -2.529   3.852  -3.232  1.00  0.00     0.170 HD
ATOM     25  C   UNL     1      -2.584   4.870  -0.674  1.00  0.00     0.027 A 
ATOM     26  C   UNL     1      -1.085   4.846   1.227  1.00  0.00     0.001 A 
ATOM     27  C   UNL     1      -2.312   5.205   0.649  1.00  0.00     0.002 A 
ENDBRANCH  12  16
ENDBRANCH   9  10
ENDBRANCH   8   9
ENDBRANCH   6   8
ENDBRANCH   3   4
ENDBRANCH   2   3
ENDBRANCH   1   2
BRANCH   1  28
ATOM     28  C   UNL     1       4.718   3.738   2.135  1.00  0.00     0.002 C 
BRANCH  28  29
ATOM     29  C   UNL     1       3.991   5.012   2.571  1.00  0.00     0.021 C 
BRANCH  29  30
ATOM     30  C   UNL     1       4.178   5.404   4.032  1.00  0.00     0.116 C 
BRANCH  30  31
ATOM     31  N   UNL     1       5.570   5.622   4.386  1.00  0.00    -0.352 N 
ATOM     32  C   UNL     1       6.142   6.646   5.099  1.00  0.00     0.251 C 
ATOM     33  H   UNL     1       6.196   4.933   4.067  1.00  0.00     0.163 HD
ATOM     34  O   UNL     1       7.363   6.730   5.181  1.00  0.00    -0.269 OA
BRANCH  32  35
ATOM     35  C   UNL     1       5.291   7.672   5.743  1.00  0.00     0.039 A 
ATOM     36  C   UNL     1       5.669   9.013   5.640  1.00  0.00     0.014 A 
ATOM     37  C   UNL     1       4.133   7.324   6.444  1.00  0.00     0.014 A 
ATOM     38  C   UNL     1       4.852  10.006   6.181  1.00  0.00     0.010 A 
ATOM     39  C   UNL     1       3.278   8.319   6.912  1.00  0.00     0.010 A 
ATOM     40  C   UNL     1       3.628   9.671   6.785  1.00  0.00    -0.014 A 
BRANCH  40  41
ATOM     41  C   UNL     1       2.699  10.732   7.251  1.00  0.00     0.031 A 
ATOM     42  C   UNL     1       2.345  10.866   8.706  1.00  0.00     0.074 A 
ATOM     43  C   UNL     1       2.137  11.558   6.346  1.00  0.00     0.049 A 
ATOM     44  N   UNL     1       1.571  11.747   9.289  1.00  0.00    -0.248 NA
ATOM     45  C   UNL     1       2.917   9.869   9.624  1.00  0.00     0.031 C 
ATOM     46  C   UNL     1       2.361  11.506   4.899  1.00  0.00     0.029 A 
ATOM     47  N   UNL     1       1.270  12.609   6.509  1.00  0.00    -0.354 N 
ATOM     48  C   UNL     1       1.555  11.405  10.635  1.00  0.00     0.074 A 
ATOM     49  C   UNL     1       2.350  10.204  10.773  1.00  0.00     0.031 C 
ATOM     50  C   UNL     1       1.692  12.511   4.315  1.00  0.00     0.029 A 
ATOM     51  C   UNL     1       0.955  13.249   5.335  1.00  0.00     0.049 A 
ATOM     52  H   UNL     1       0.909  12.879   7.384  1.00  0.00     0.167 HD
ATOM     53  C   UNL     1       0.948  12.041  11.666  1.00  0.00     0.031 A 
ATOM     54  C   UNL     1       0.164  14.313   5.102  1.00  0.00     0.031 A 
ATOM     55  C   UNL     1       0.148  13.230  11.526  1.00  0.00     0.049 A 
ATOM     56  C   UNL     1      -0.522  14.983   6.259  1.00  0.00     0.074 A 
ATOM     57  C   UNL     1      -0.459  13.984  12.516  1.00  0.00     0.029 A 
ATOM     58  N   UNL     1      -0.170  13.831  10.317  1.00  0.00    -0.354 N 
ATOM     59  N   UNL     1      -0.457  14.699   7.537  1.00  0.00    -0.248 NA
ATOM     60  C   UNL     1      -1.384  16.129   5.937  1.00  0.00     0.031 C 
ATOM     61  C   UNL     1      -1.204  14.995  11.901  1.00  0.00     0.029 A 
ATOM     62  C   UNL     1      -1.000  14.920  10.532  1.00  0.00     0.049 A 
ATOM     63  H   UNL     1       0.146  13.528   9.435  1.00  0.00     0.167 HD
ATOM     64  C   UNL     1      -1.248  15.646   8.175  1.00  0.00     0.074 A 
ATOM     65  C   UNL     1      -1.762  16.525   7.144  1.00  0.00     0.031 C 
ATOM     66  C   UNL     1      -1.523  15.776   9.497  1.00  0.00     0.031 A 
BRANCH  53  67
ATOM     67  C   UNL     1       1.109  11.441  13.039  1.00  0.00    -0.014 A 
ATOM     68  C   UNL     1       2.354  11.417  13.690  1.00  0.00     0.009 A 
ATOM     69  C   UNL     1      -0.008  10.908  13.701  1.00  0.00     0.009 A 
ATOM     70  C   UNL     1       2.485  10.828  14.950  1.00  0.00     0.001 A 
ATOM     71  C   UNL     1       0.119  10.352  14.976  1.00  0.00     0.001 A 
ATOM     72  C   UNL     1       1.367  10.300  15.593  1.00  0.00     0.000 A 
ENDBRANCH  53  67
BRANCH  54  73
ATOM     73  C   UNL     1      -0.002  14.825   3.716  1.00  0.00    -0.014 A 
ATOM     74  C   UNL     1       0.540  16.066   3.346  1.00  0.00     0.009 A 
ATOM     75  C   UNL     1      -0.697  14.075   2.754  1.00  0.00     0.009 A 
ATOM     76  C   UNL     1       0.370  16.554   2.049  1.00  0.00     0.001 A 
ATOM     77  C   UNL     1      -0.836  14.551   1.449  1.00  0.00     0.001 A 
ATOM     78  C   UNL     1      -0.311  15.794   1.100  1.00  0.00     0.000 A 
ENDBRANCH  54  73
BRANCH  66  79
ATOM     79  C   UNL     1      -2.406  16.926   9.902  1.00  0.00    -0.014 A 
ATOM     80  C   UNL     1      -3.769  16.957   9.567  1.00  0.00     0.009 A 
ATOM     81  C   UNL     1      -1.867  17.987  10.646  1.00  0.00     0.009 A 
ATOM     82  C   UNL     1      -4.562  18.049   9.928  1.00  0.00     0.001 A 
ATOM     83  C   UNL     1      -2.670  19.059  11.039  1.00  0.00     0.001 A 
ATOM     84  C   UNL     1      -4.013  19.096  10.667  1.00  0.00     0.000 A 
ENDBRANCH  66  79
ENDBRANCH  40  41
ENDBRANCH  32  35
ENDBRANCH  30  31
ENDBRANCH  29  30
ENDBRANCH  28  29
ENDBRANCH   1  28
TORSDOF 16
