REMARK SMILES CC[C@H](C)[C@@H](C(=O)NCCCCCCNC(=O)c1ccc(-c2c3nc(c(-c4ccccc4)c4ccc([nH]4)c(-c4ccccc4)c4nc(c(-c5ccccc5)c5ccc2[nH]5)C=C4)C=C3)cc1)N1C(=O)/C(=C/c2ccccc2OC)SC1=S
REMARK SMILES IDX 11 1 10 2 9 3 8 4 6 5 7 6 5 8 3 9 4 10 2 11 1 12 66 13 67 14
REMARK SMILES IDX 80 15 68 16 69 17 79 18 81 19 70 20 71 21 72 22 76 23 73 24
REMARK SMILES IDX 75 25 74 26 77 27 78 28 12 29 13 30 14 31 15 32 16 33 17 35
REMARK SMILES IDX 18 36 19 37 65 38 20 39 64 40 21 41 22 42 23 43 58 44 24 45
REMARK SMILES IDX 63 46 57 47 59 48 25 49 62 50 56 51 55 52 26 54 48 55 33 56
REMARK SMILES IDX 47 57 34 58 37 59 46 60 60 61 35 62 36 63 45 65 61 66 38 67
REMARK SMILES IDX 27 68 28 69 32 70 29 71 31 72 30 73 49 74 50 75 54 76 51 77
REMARK SMILES IDX 53 78 52 79 39 80 40 81 44 82 41 83 43 84 42 85
REMARK H PARENT 8 7 15 34 59 53 37 64
REMARK Flexibility Score: inf
ROOT
ATOM      1  C   UNL     1       0.759  -3.856   2.871  1.00  0.00     0.002 C 
ENDROOT
BRANCH   1   2
ATOM      2  C   UNL     1       0.465  -2.553   2.118  1.00  0.00     0.021 C 
BRANCH   2   3
ATOM      3  C   UNL     1      -0.325  -1.512   2.912  1.00  0.00     0.116 C 
BRANCH   3   4
ATOM      4  N   UNL     1       0.460  -0.970   3.997  1.00  0.00    -0.354 N 
ATOM      5  C   UNL     1       0.707   0.308   4.373  1.00  0.00     0.243 C 
ATOM      6  O   UNL     1       0.946   0.427   5.582  1.00  0.00    -0.273 OA
ATOM      7  H   UNL     1       0.891  -1.650   4.563  1.00  0.00     0.163 HD
BRANCH   5   8
ATOM      8  C   UNL     1       0.568   1.558   3.442  1.00  0.00     0.184 C 
BRANCH   8   9
ATOM      9  C   UNL     1       1.274   1.747   2.049  1.00  0.00     0.018 C 
ATOM     10  C   UNL     1       1.556   0.489   1.250  1.00  0.00     0.010 C 
BRANCH   9  11
ATOM     11  C   UNL     1       0.496   2.813   1.211  1.00  0.00     0.002 C 
ATOM     12  C   UNL     1       0.678   2.779  -0.301  1.00  0.00     0.004 C 
ENDBRANCH   9  11
ENDBRANCH   8   9
BRANCH   8  13
ATOM     13  N   UNL     1       0.886   2.745   4.292  1.00  0.00    -0.280 N 
ATOM     14  C   UNL     1       0.002   3.813   4.292  1.00  0.00     0.266 C 
ATOM     15  C   UNL     1       2.086   2.968   4.960  1.00  0.00     0.149 C 
ATOM     16  O   UNL     1      -1.091   3.860   3.757  1.00  0.00    -0.268 OA
ATOM     17  C   UNL     1       0.670   4.986   4.914  1.00  0.00     0.081 C 
ATOM     18  S   UNL     1       1.944   4.445   5.918  1.00  0.00    -0.054 SA
ATOM     19  S   UNL     1       3.531   2.128   4.881  1.00  0.00    -0.052 S 
ATOM     20  C   UNL     1       0.416   6.226   4.479  1.00  0.00     0.033 C 
BRANCH  20  21
ATOM     21  C   UNL     1       1.116   7.457   4.871  1.00  0.00     0.018 A 
ATOM     22  C   UNL     1       0.298   8.420   5.492  1.00  0.00     0.012 A 
ATOM     23  C   UNL     1       2.482   7.744   4.693  1.00  0.00     0.126 A 
ATOM     24  C   UNL     1       0.822   9.624   5.962  1.00  0.00     0.001 A 
ATOM     25  C   UNL     1       2.999   8.952   5.187  1.00  0.00     0.047 A 
ATOM     26  C   UNL     1       2.177   9.889   5.813  1.00  0.00     0.004 A 
BRANCH  23  27
ATOM     27  O   UNL     1       3.449   6.941   4.151  1.00  0.00    -0.496 OA
ATOM     28  C   UNL     1       3.138   6.221   2.967  1.00  0.00     0.278 C 
ENDBRANCH  23  27
ENDBRANCH  20  21
ENDBRANCH   8  13
ENDBRANCH   5   8
ENDBRANCH   3   4
ENDBRANCH   2   3
ENDBRANCH   1   2
BRANCH   1  29
ATOM     29  C   UNL     1      -0.467  -4.700   3.220  1.00  0.00     0.002 C 
BRANCH  29  30
ATOM     30  C   UNL     1      -1.413  -4.982   2.052  1.00  0.00     0.021 C 
BRANCH  30  31
ATOM     31  C   UNL     1      -0.748  -5.568   0.810  1.00  0.00     0.116 C 
BRANCH  31  32
ATOM     32  N   UNL     1      -0.152  -6.868   1.063  1.00  0.00    -0.352 N 
ATOM     33  C   UNL     1      -0.391  -8.063   0.431  1.00  0.00     0.251 C 
ATOM     34  H   UNL     1       0.514  -6.897   1.787  1.00  0.00     0.163 HD
ATOM     35  O   UNL     1       0.063  -9.109   0.883  1.00  0.00    -0.269 OA
BRANCH  33  36
ATOM     36  C   UNL     1      -1.218  -8.085  -0.792  1.00  0.00     0.039 A 
ATOM     37  C   UNL     1      -2.257  -9.014  -0.887  1.00  0.00     0.014 A 
ATOM     38  C   UNL     1      -0.969  -7.192  -1.838  1.00  0.00     0.014 A 
ATOM     39  C   UNL     1      -3.081  -9.013  -2.013  1.00  0.00     0.010 A 
ATOM     40  C   UNL     1      -1.831  -7.149  -2.930  1.00  0.00     0.010 A 
ATOM     41  C   UNL     1      -2.892  -8.063  -3.030  1.00  0.00    -0.014 A 
BRANCH  41  42
ATOM     42  C   UNL     1      -3.785  -8.019  -4.214  1.00  0.00     0.031 A 
ATOM     43  C   UNL     1      -3.242  -8.333  -5.580  1.00  0.00     0.074 A 
ATOM     44  C   UNL     1      -5.071  -7.643  -4.067  1.00  0.00     0.049 A 
ATOM     45  N   UNL     1      -3.851  -8.296  -6.739  1.00  0.00    -0.248 NA
ATOM     46  C   UNL     1      -1.823  -8.717  -5.658  1.00  0.00     0.031 C 
ATOM     47  C   UNL     1      -5.710  -7.280  -2.800  1.00  0.00     0.029 A 
ATOM     48  N   UNL     1      -6.070  -7.500  -4.996  1.00  0.00    -0.354 N 
ATOM     49  C   UNL     1      -2.888  -8.635  -7.680  1.00  0.00     0.074 A 
ATOM     50  C   UNL     1      -1.645  -8.828  -6.966  1.00  0.00     0.031 C 
ATOM     51  C   UNL     1      -6.999  -6.981  -3.029  1.00  0.00     0.029 A 
ATOM     52  C   UNL     1      -7.267  -7.094  -4.459  1.00  0.00     0.049 A 
ATOM     53  H   UNL     1      -5.941  -7.671  -5.957  1.00  0.00     0.167 HD
ATOM     54  C   UNL     1      -3.029  -8.792  -9.018  1.00  0.00     0.031 A 
ATOM     55  C   UNL     1      -8.448  -6.839  -5.052  1.00  0.00     0.031 A 
ATOM     56  C   UNL     1      -4.266  -8.614  -9.728  1.00  0.00     0.049 A 
ATOM     57  C   UNL     1      -8.575  -7.009  -6.540  1.00  0.00     0.074 A 
ATOM     58  C   UNL     1      -4.522  -8.799 -11.076  1.00  0.00     0.029 A 
ATOM     59  N   UNL     1      -5.457  -8.210  -9.146  1.00  0.00    -0.354 N 
ATOM     60  N   UNL     1      -7.669  -7.388  -7.409  1.00  0.00    -0.248 NA
ATOM     61  C   UNL     1      -9.892  -6.726  -7.128  1.00  0.00     0.031 C 
ATOM     62  C   UNL     1      -5.859  -8.464 -11.316  1.00  0.00     0.029 A 
ATOM     63  C   UNL     1      -6.447  -8.120 -10.110  1.00  0.00     0.049 A 
ATOM     64  H   UNL     1      -5.581  -8.016  -8.189  1.00  0.00     0.167 HD
ATOM     65  C   UNL     1      -8.313  -7.417  -8.639  1.00  0.00     0.074 A 
ATOM     66  C   UNL     1      -9.689  -7.030  -8.402  1.00  0.00     0.031 C 
ATOM     67  C   UNL     1      -7.810  -7.736  -9.856  1.00  0.00     0.031 A 
BRANCH  54  68
ATOM     68  C   UNL     1      -1.804  -9.173  -9.802  1.00  0.00    -0.014 A 
ATOM     69  C   UNL     1      -1.245 -10.457  -9.696  1.00  0.00     0.009 A 
ATOM     70  C   UNL     1      -1.221  -8.250 -10.683  1.00  0.00     0.009 A 
ATOM     71  C   UNL     1      -0.106 -10.796 -10.430  1.00  0.00     0.001 A 
ATOM     72  C   UNL     1      -0.100  -8.600 -11.437  1.00  0.00     0.001 A 
ATOM     73  C   UNL     1       0.462  -9.869 -11.303  1.00  0.00     0.000 A 
ENDBRANCH  54  68
BRANCH  55  74
ATOM     74  C   UNL     1      -9.615  -6.411  -4.238  1.00  0.00    -0.014 A 
ATOM     75  C   UNL     1     -10.699  -7.280  -4.038  1.00  0.00     0.009 A 
ATOM     76  C   UNL     1      -9.658  -5.130  -3.667  1.00  0.00     0.009 A 
ATOM     77  C   UNL     1     -11.813  -6.865  -3.305  1.00  0.00     0.001 A 
ATOM     78  C   UNL     1     -10.761  -4.728  -2.911  1.00  0.00     0.001 A 
ATOM     79  C   UNL     1     -11.842  -5.592  -2.740  1.00  0.00     0.000 A 
ENDBRANCH  55  74
BRANCH  67  80
ATOM     80  C   UNL     1      -8.762  -7.714 -11.018  1.00  0.00    -0.014 A 
ATOM     81  C   UNL     1      -9.225  -6.505 -11.558  1.00  0.00     0.009 A 
ATOM     82  C   UNL     1      -9.168  -8.923 -11.604  1.00  0.00     0.009 A 
ATOM     83  C   UNL     1     -10.103  -6.509 -12.643  1.00  0.00     0.001 A 
ATOM     84  C   UNL     1     -10.024  -8.923 -12.706  1.00  0.00     0.001 A 
ATOM     85  C   UNL     1     -10.498  -7.716 -13.219  1.00  0.00     0.000 A 
ENDBRANCH  67  80
ENDBRANCH  41  42
ENDBRANCH  33  36
ENDBRANCH  31  32
ENDBRANCH  30  31
ENDBRANCH  29  30
ENDBRANCH   1  29
TORSDOF 18
