REMARK SMILES CCC(CC)N(CCOC)C(=O)N1CC[C@H](C(=O)NCCCCCCNC(=O)c2ccc(-c3c4nc(c(-c5ccccc5)c5ccc([nH]5)c(-c5ccccc5)c5nc(c(-c6ccccc6)c6ccc3[nH]6)C=C5)C=C4)cc2)[C@@H]1C
REMARK SMILES IDX 21 1 20 2 19 3 17 4 18 5 16 7 13 8 14 9 77 10 15 11 78 12
REMARK SMILES IDX 11 13 12 14 6 15 3 16 2 17 1 18 4 19 5 20 7 21 8 22 9 23
REMARK SMILES IDX 10 24 22 25 23 26 24 27 25 28 26 29 27 30 28 32 29 33 30 34
REMARK SMILES IDX 76 35 31 36 75 37 32 38 33 39 34 40 69 41 35 42 74 43 68 44
REMARK SMILES IDX 70 45 36 46 73 47 67 48 66 49 37 51 59 52 44 53 58 54 45 55
REMARK SMILES IDX 48 56 57 57 71 58 46 59 47 60 56 62 72 63 49 64 38 65 39 66
REMARK SMILES IDX 43 67 40 68 42 69 41 70 60 71 61 72 65 73 62 74 64 75 63 76
REMARK SMILES IDX 50 77 51 78 55 79 52 80 54 81 53 82
REMARK H PARENT 19 6 26 31 70 50 48 61
REMARK Flexibility Score: inf
ROOT
ATOM      1  C   UNL     1      -3.916 -10.596   4.088  1.00  0.00     0.021 C 
ENDROOT
BRANCH   1   2
ATOM      2  C   UNL     1      -3.846  -9.256   3.362  1.00  0.00     0.116 C 
BRANCH   2   3
ATOM      3  N   UNL     1      -3.783  -8.170   4.311  1.00  0.00    -0.356 N 
ATOM      4  C   UNL     1      -2.610  -7.582   4.664  1.00  0.00     0.225 C 
ATOM      5  O   UNL     1      -2.293  -7.636   5.851  1.00  0.00    -0.275 OA
ATOM      6  H   UNL     1      -4.619  -7.845   4.716  1.00  0.00     0.163 HD
BRANCH   4   7
ATOM      7  C   UNL     1      -1.737  -6.942   3.578  1.00  0.00     0.102 C 
ATOM      8  N   UNL     1      -1.456  -4.650   2.824  1.00  0.00    -0.321 N 
ATOM      9  C   UNL     1      -2.656  -5.172   2.210  1.00  0.00     0.122 C 
ATOM     10  C   UNL     1      -1.137  -5.547   3.979  1.00  0.00     0.096 C 
ATOM     11  C   UNL     1      -2.429  -6.663   2.232  1.00  0.00     0.037 C 
ATOM     12  C   UNL     1      -1.757  -5.005   5.272  1.00  0.00     0.032 C 
BRANCH   8  13
ATOM     13  C   UNL     1      -0.999  -3.447   2.318  1.00  0.00     0.320 C 
ATOM     14  O   UNL     1      -1.801  -2.758   1.674  1.00  0.00    -0.248 OA
BRANCH  13  15
ATOM     15  N   UNL     1       0.322  -3.037   2.414  1.00  0.00    -0.319 N 
BRANCH  15  16
ATOM     16  C   UNL     1       0.768  -1.733   1.784  1.00  0.00     0.086 C 
BRANCH  16  17
ATOM     17  C   UNL     1       0.429  -1.583   0.275  1.00  0.00     0.022 C 
ATOM     18  C   UNL     1       1.021  -0.324  -0.363  1.00  0.00     0.006 C 
ENDBRANCH  16  17
BRANCH  16  19
ATOM     19  C   UNL     1       0.459  -0.460   2.606  1.00  0.00     0.022 C 
ATOM     20  C   UNL     1      -1.006  -0.076   2.735  1.00  0.00     0.006 C 
ENDBRANCH  16  19
ENDBRANCH  15  16
BRANCH  15  21
ATOM     21  C   UNL     1       1.401  -3.862   2.960  1.00  0.00     0.150 C 
BRANCH  21  22
ATOM     22  C   UNL     1       1.867  -3.475   4.377  1.00  0.00     0.181 C 
BRANCH  22  23
ATOM     23  O   UNL     1       0.852  -3.520   5.379  1.00  0.00    -0.383 OA
ATOM     24  C   UNL     1       0.210  -2.267   5.584  1.00  0.00     0.194 C 
ENDBRANCH  22  23
ENDBRANCH  21  22
ENDBRANCH  15  21
ENDBRANCH  13  15
ENDBRANCH   8  13
ENDBRANCH   4   7
ENDBRANCH   2   3
ENDBRANCH   1   2
BRANCH   1  25
ATOM     25  C   UNL     1      -5.107 -10.750   5.045  1.00  0.00     0.002 C 
BRANCH  25  26
ATOM     26  C   UNL     1      -6.471 -10.336   4.481  1.00  0.00     0.002 C 
BRANCH  26  27
ATOM     27  C   UNL     1      -6.837 -10.960   3.135  1.00  0.00     0.021 C 
BRANCH  27  28
ATOM     28  C   UNL     1      -6.686 -12.471   3.080  1.00  0.00     0.116 C 
BRANCH  28  29
ATOM     29  N   UNL     1      -7.571 -13.142   4.014  1.00  0.00    -0.352 N 
ATOM     30  C   UNL     1      -8.491 -14.123   3.756  1.00  0.00     0.251 C 
ATOM     31  H   UNL     1      -7.501 -12.855   4.953  1.00  0.00     0.163 HD
ATOM     32  O   UNL     1      -9.307 -14.461   4.611  1.00  0.00    -0.269 OA
BRANCH  30  33
ATOM     33  C   UNL     1      -8.511 -14.751   2.421  1.00  0.00     0.039 A 
ATOM     34  C   UNL     1      -9.726 -14.854   1.743  1.00  0.00     0.014 A 
ATOM     35  C   UNL     1      -7.323 -15.189   1.826  1.00  0.00     0.014 A 
ATOM     36  C   UNL     1      -9.742 -15.341   0.436  1.00  0.00     0.010 A 
ATOM     37  C   UNL     1      -7.331 -15.599   0.498  1.00  0.00     0.010 A 
ATOM     38  C   UNL     1      -8.540 -15.679  -0.209  1.00  0.00    -0.014 A 
BRANCH  38  39
ATOM     39  C   UNL     1      -8.523 -16.104  -1.629  1.00  0.00     0.031 A 
ATOM     40  C   UNL     1      -8.062 -17.486  -1.996  1.00  0.00     0.074 A 
ATOM     41  C   UNL     1      -8.851 -15.220  -2.591  1.00  0.00     0.049 A 
ATOM     42  N   UNL     1      -7.899 -18.012  -3.183  1.00  0.00    -0.248 NA
ATOM     43  C   UNL     1      -7.714 -18.386  -0.884  1.00  0.00     0.031 C 
ATOM     44  C   UNL     1      -9.283 -13.839  -2.362  1.00  0.00     0.029 A 
ATOM     45  N   UNL     1      -8.860 -15.349  -3.957  1.00  0.00    -0.354 N 
ATOM     46  C   UNL     1      -7.416 -19.295  -2.961  1.00  0.00     0.074 A 
ATOM     47  C   UNL     1      -7.266 -19.452  -1.531  1.00  0.00     0.031 C 
ATOM     48  C   UNL     1      -9.534 -13.256  -3.545  1.00  0.00     0.029 A 
ATOM     49  C   UNL     1      -9.232 -14.202  -4.615  1.00  0.00     0.049 A 
ATOM     50  H   UNL     1      -8.623 -16.184  -4.421  1.00  0.00     0.167 HD
ATOM     51  C   UNL     1      -7.136 -20.261  -3.868  1.00  0.00     0.031 A 
ATOM     52  C   UNL     1      -9.302 -13.933  -5.932  1.00  0.00     0.031 A 
ATOM     53  C   UNL     1      -7.288 -20.101  -5.289  1.00  0.00     0.049 A 
ATOM     54  C   UNL     1      -8.944 -15.008  -6.919  1.00  0.00     0.074 A 
ATOM     55  C   UNL     1      -7.094 -21.041  -6.287  1.00  0.00     0.029 A 
ATOM     56  N   UNL     1      -7.657 -18.921  -5.916  1.00  0.00    -0.354 N 
ATOM     57  N   UNL     1      -8.567 -16.244  -6.693  1.00  0.00    -0.248 NA
ATOM     58  C   UNL     1      -9.019 -14.652  -8.343  1.00  0.00     0.031 C 
ATOM     59  C   UNL     1      -7.276 -20.409  -7.521  1.00  0.00     0.029 A 
ATOM     60  C   UNL     1      -7.649 -19.095  -7.290  1.00  0.00     0.049 A 
ATOM     61  H   UNL     1      -7.890 -18.084  -5.453  1.00  0.00     0.167 HD
ATOM     62  C   UNL     1      -8.376 -16.816  -7.944  1.00  0.00     0.074 A 
ATOM     63  C   UNL     1      -8.702 -15.801  -8.924  1.00  0.00     0.031 C 
ATOM     64  C   UNL     1      -7.962 -18.070  -8.252  1.00  0.00     0.031 A 
BRANCH  51  65
ATOM     65  C   UNL     1      -6.614 -21.572  -3.347  1.00  0.00    -0.014 A 
ATOM     66  C   UNL     1      -7.429 -22.445  -2.609  1.00  0.00     0.009 A 
ATOM     67  C   UNL     1      -5.294 -21.957  -3.632  1.00  0.00     0.009 A 
ATOM     68  C   UNL     1      -6.922 -23.655  -2.132  1.00  0.00     0.001 A 
ATOM     69  C   UNL     1      -4.799 -23.182  -3.182  1.00  0.00     0.001 A 
ATOM     70  C   UNL     1      -5.609 -24.025  -2.424  1.00  0.00     0.000 A 
ENDBRANCH  51  65
BRANCH  52  71
ATOM     71  C   UNL     1      -9.713 -12.580  -6.393  1.00  0.00    -0.014 A 
ATOM     72  C   UNL     1     -10.941 -12.389  -7.044  1.00  0.00     0.009 A 
ATOM     73  C   UNL     1      -8.878 -11.471  -6.183  1.00  0.00     0.009 A 
ATOM     74  C   UNL     1     -11.313 -11.120  -7.495  1.00  0.00     0.001 A 
ATOM     75  C   UNL     1      -9.267 -10.198  -6.605  1.00  0.00     0.001 A 
ATOM     76  C   UNL     1     -10.479 -10.025  -7.270  1.00  0.00     0.000 A 
ENDBRANCH  52  71
BRANCH  64  77
ATOM     77  C   UNL     1      -7.843 -18.417  -9.710  1.00  0.00    -0.014 A 
ATOM     78  C   UNL     1      -6.810 -17.887 -10.499  1.00  0.00     0.009 A 
ATOM     79  C   UNL     1      -8.740 -19.330 -10.286  1.00  0.00     0.009 A 
ATOM     80  C   UNL     1      -6.694 -18.247 -11.843  1.00  0.00     0.001 A 
ATOM     81  C   UNL     1      -8.602 -19.712 -11.621  1.00  0.00     0.001 A 
ATOM     82  C   UNL     1      -7.584 -19.164 -12.400  1.00  0.00     0.000 A 
ENDBRANCH  64  77
ENDBRANCH  38  39
ENDBRANCH  30  33
ENDBRANCH  28  29
ENDBRANCH  27  28
ENDBRANCH  26  27
ENDBRANCH  25  26
ENDBRANCH   1  25
TORSDOF 21
