REMARK SMILES CCc1c(C(=O)NCC(=O)NCCCCCCNC(=O)c2ccc(-c3c4nc(c(-c5ccccc5)c5ccc([nH]5)c(-c5ccccc5)c5nc(c(-c6ccccc6)c6ccc3[nH]6)C=C5)C=C4)cc2)nnn1-c1ccc(Cl)cc1
REMARK SMILES IDX 14 1 13 2 12 3 11 4 9 5 10 6 8 8 7 9 5 10 6 11 4 13 3 14
REMARK SMILES IDX 71 15 69 16 70 17 2 18 1 19 72 20 73 21 78 22 74 23 77 24
REMARK SMILES IDX 75 25 76 26 15 27 16 28 17 29 18 30 19 31 20 33 21 34 22 35
REMARK SMILES IDX 68 36 23 37 67 38 24 39 25 40 26 41 61 42 27 43 66 44 60 45
REMARK SMILES IDX 62 46 28 47 65 48 59 49 58 50 29 52 51 53 36 54 50 55 37 56
REMARK SMILES IDX 40 57 49 58 63 59 38 60 39 61 48 63 64 64 41 65 30 66 31 67
REMARK SMILES IDX 35 68 32 69 34 70 33 71 52 72 53 73 57 74 54 75 56 76 55 77
REMARK SMILES IDX 42 78 43 79 47 80 44 81 46 82 45 83
REMARK H PARENT 11 7 7 12 18 32 62 51 40 62
REMARK Flexibility Score: inf
ROOT
ATOM      1  C   UNL     1       4.421  -0.452   3.812  1.00  0.00     0.002 C 
ENDROOT
BRANCH   1   2
ATOM      2  C   UNL     1       4.602  -1.021   2.403  1.00  0.00     0.021 C 
BRANCH   2   3
ATOM      3  C   UNL     1       3.463  -0.683   1.454  1.00  0.00     0.116 C 
BRANCH   3   4
ATOM      4  N   UNL     1       3.449   0.721   1.097  1.00  0.00    -0.355 N 
ATOM      5  C   UNL     1       3.386   1.353  -0.101  1.00  0.00     0.239 C 
ATOM      6  O   UNL     1       3.204   2.577  -0.067  1.00  0.00    -0.273 OA
ATOM      7  H   UNL     1       3.493   1.330   1.869  1.00  0.00     0.163 HD
BRANCH   5   8
ATOM      8  C   UNL     1       3.346   0.635  -1.456  1.00  0.00     0.216 C 
BRANCH   8   9
ATOM      9  N   UNL     1       3.976  -0.644  -1.672  1.00  0.00    -0.342 N 
ATOM     10  C   UNL     1       3.579  -1.949  -1.762  1.00  0.00     0.274 C 
ATOM     11  O   UNL     1       4.515  -2.717  -2.018  1.00  0.00    -0.267 OA
ATOM     12  H   UNL     1       4.950  -0.554  -1.784  1.00  0.00     0.164 HD
BRANCH  10  13
ATOM     13  C   UNL     1       2.240  -2.501  -1.489  1.00  0.00     0.174 A 
ATOM     14  C   UNL     1       0.914  -2.059  -1.443  1.00  0.00     0.077 A 
ATOM     15  N   UNL     1       0.187  -3.227  -1.181  1.00  0.00    -0.217 N 
ATOM     16  N   UNL     1       2.240  -3.836  -1.105  1.00  0.00    -0.124 NA
ATOM     17  N   UNL     1       1.015  -4.212  -0.806  1.00  0.00    -0.061 NA
BRANCH  14  18
ATOM     18  C   UNL     1       0.221  -0.737  -1.504  1.00  0.00     0.055 C 
ATOM     19  C   UNL     1       0.104  -0.109  -0.121  1.00  0.00     0.011 C 
ENDBRANCH  14  18
BRANCH  15  20
ATOM     20  C   UNL     1      -1.214  -3.432  -1.175  1.00  0.00     0.067 A 
ATOM     21  C   UNL     1      -1.794  -4.175  -0.140  1.00  0.00     0.030 A 
ATOM     22  C   UNL     1      -2.018  -2.881  -2.181  1.00  0.00     0.030 A 
ATOM     23  C   UNL     1      -3.186  -4.264  -0.054  1.00  0.00     0.023 A 
ATOM     24  C   UNL     1      -3.406  -2.980  -2.095  1.00  0.00     0.023 A 
ATOM     25  C   UNL     1      -3.985  -3.651  -1.020  1.00  0.00     0.041 A 
ATOM     26  Cl  UNL     1      -5.698  -3.718  -0.884  1.00  0.00    -0.084 Cl
ENDBRANCH  15  20
ENDBRANCH  10  13
ENDBRANCH   8   9
ENDBRANCH   5   8
ENDBRANCH   3   4
ENDBRANCH   2   3
ENDBRANCH   1   2
BRANCH   1  27
ATOM     27  C   UNL     1       3.136  -0.867   4.545  1.00  0.00     0.002 C 
BRANCH  27  28
ATOM     28  C   UNL     1       2.842  -2.372   4.633  1.00  0.00     0.021 C 
BRANCH  28  29
ATOM     29  C   UNL     1       3.919  -3.183   5.337  1.00  0.00     0.116 C 
BRANCH  29  30
ATOM     30  N   UNL     1       4.097  -2.792   6.736  1.00  0.00    -0.352 N 
ATOM     31  C   UNL     1       5.048  -3.229   7.631  1.00  0.00     0.251 C 
ATOM     32  H   UNL     1       3.454  -2.131   7.081  1.00  0.00     0.163 HD
ATOM     33  O   UNL     1       4.869  -3.125   8.845  1.00  0.00    -0.269 OA
BRANCH  31  34
ATOM     34  C   UNL     1       6.297  -3.812   7.119  1.00  0.00     0.039 A 
ATOM     35  C   UNL     1       6.907  -4.908   7.735  1.00  0.00     0.014 A 
ATOM     36  C   UNL     1       6.854  -3.238   5.979  1.00  0.00     0.014 A 
ATOM     37  C   UNL     1       8.041  -5.462   7.146  1.00  0.00     0.010 A 
ATOM     38  C   UNL     1       7.859  -3.882   5.309  1.00  0.00     0.010 A 
ATOM     39  C   UNL     1       8.498  -4.950   5.921  1.00  0.00    -0.014 A 
BRANCH  39  40
ATOM     40  C   UNL     1       9.591  -5.579   5.197  1.00  0.00     0.031 A 
ATOM     41  C   UNL     1       9.362  -7.005   4.853  1.00  0.00     0.074 A 
ATOM     42  C   UNL     1      10.625  -4.879   4.681  1.00  0.00     0.049 A 
ATOM     43  N   UNL     1       9.982  -8.024   5.341  1.00  0.00    -0.248 NA
ATOM     44  C   UNL     1       8.235  -7.355   3.974  1.00  0.00     0.031 C 
ATOM     45  C   UNL     1      10.831  -3.426   4.657  1.00  0.00     0.029 A 
ATOM     46  N   UNL     1      11.672  -5.336   3.946  1.00  0.00    -0.354 N 
ATOM     47  C   UNL     1       9.460  -9.142   4.700  1.00  0.00     0.074 A 
ATOM     48  C   UNL     1       8.283  -8.690   4.001  1.00  0.00     0.031 C 
ATOM     49  C   UNL     1      11.780  -3.120   3.743  1.00  0.00     0.029 A 
ATOM     50  C   UNL     1      12.361  -4.354   3.245  1.00  0.00     0.049 A 
ATOM     51  H   UNL     1      11.922  -6.287   3.913  1.00  0.00     0.167 HD
ATOM     52  C   UNL     1      10.172 -10.299   4.614  1.00  0.00     0.031 A 
ATOM     53  C   UNL     1      13.315  -4.554   2.301  1.00  0.00     0.031 A 
ATOM     54  C   UNL     1      11.329 -10.269   5.473  1.00  0.00     0.049 A 
ATOM     55  C   UNL     1      13.828  -5.933   2.485  1.00  0.00     0.074 A 
ATOM     56  C   UNL     1      11.523 -10.130   6.833  1.00  0.00     0.029 A 
ATOM     57  N   UNL     1      12.533  -9.957   4.883  1.00  0.00    -0.354 N 
ATOM     58  N   UNL     1      14.526  -6.299   3.521  1.00  0.00    -0.248 NA
ATOM     59  C   UNL     1      13.165  -7.011   1.766  1.00  0.00     0.031 C 
ATOM     60  C   UNL     1      12.654  -9.271   6.951  1.00  0.00     0.029 A 
ATOM     61  C   UNL     1      13.143  -9.014   5.669  1.00  0.00     0.049 A 
ATOM     62  H   UNL     1      12.890 -10.341   4.049  1.00  0.00     0.167 HD
ATOM     63  C   UNL     1      14.018  -7.545   3.860  1.00  0.00     0.074 A 
ATOM     64  C   UNL     1      13.259  -7.978   2.686  1.00  0.00     0.031 C 
ATOM     65  C   UNL     1      14.006  -7.973   5.157  1.00  0.00     0.031 A 
BRANCH  52  66
ATOM     66  C   UNL     1      10.067 -11.284   3.480  1.00  0.00    -0.014 A 
ATOM     67  C   UNL     1      10.820 -12.471   3.552  1.00  0.00     0.009 A 
ATOM     68  C   UNL     1       9.493 -10.970   2.235  1.00  0.00     0.009 A 
ATOM     69  C   UNL     1      11.052 -13.257   2.417  1.00  0.00     0.001 A 
ATOM     70  C   UNL     1       9.689 -11.775   1.109  1.00  0.00     0.001 A 
ATOM     71  C   UNL     1      10.494 -12.902   1.194  1.00  0.00     0.000 A 
ENDBRANCH  52  66
BRANCH  53  72
ATOM     72  C   UNL     1      13.654  -3.745   1.109  1.00  0.00    -0.014 A 
ATOM     73  C   UNL     1      14.853  -3.969   0.410  1.00  0.00     0.009 A 
ATOM     74  C   UNL     1      12.676  -2.950   0.486  1.00  0.00     0.009 A 
ATOM     75  C   UNL     1      15.040  -3.462  -0.884  1.00  0.00     0.001 A 
ATOM     76  C   UNL     1      12.864  -2.441  -0.804  1.00  0.00     0.001 A 
ATOM     77  C   UNL     1      14.039  -2.714  -1.497  1.00  0.00     0.000 A 
ENDBRANCH  53  72
BRANCH  65  78
ATOM     78  C   UNL     1      14.748  -7.153   6.188  1.00  0.00    -0.014 A 
ATOM     79  C   UNL     1      14.461  -5.803   6.459  1.00  0.00     0.009 A 
ATOM     80  C   UNL     1      15.655  -7.817   7.026  1.00  0.00     0.009 A 
ATOM     81  C   UNL     1      15.088  -5.133   7.516  1.00  0.00     0.001 A 
ATOM     82  C   UNL     1      16.263  -7.157   8.096  1.00  0.00     0.001 A 
ATOM     83  C   UNL     1      15.985  -5.813   8.337  1.00  0.00     0.000 A 
ENDBRANCH  65  78
ENDBRANCH  39  40
ENDBRANCH  31  34
ENDBRANCH  29  30
ENDBRANCH  28  29
ENDBRANCH  27  28
ENDBRANCH   1  27
TORSDOF 17
