REMARK SMILES CC(C)C[C@H](NS(=O)(=O)N1C[C@@H](C)C[C@H](C)C1)C(=O)NCCCCCCNC(=O)c1ccc(-c2c3nc(c(-c4ccccc4)c4ccc([nH]4)c(-c4ccccc4)c4nc(c(-c5ccccc5)c5ccc2[nH]5)C=C4)C=C3)cc1
REMARK SMILES IDX 23 1 22 2 21 3 20 4 18 5 19 6 5 8 4 9 2 10 1 11 3 12 6 13
REMARK SMILES IDX 7 15 8 16 9 17 10 18 11 19 17 20 12 21 15 22 13 23 14 24
REMARK SMILES IDX 16 25 24 26 25 27 26 28 27 29 28 30 29 32 30 33 31 34 77 35
REMARK SMILES IDX 32 36 76 37 33 38 34 39 35 40 70 41 36 42 75 43 69 44 71 45
REMARK SMILES IDX 37 46 74 47 68 48 67 49 38 51 60 52 45 53 59 54 46 55 49 56
REMARK SMILES IDX 58 57 72 58 47 59 48 60 57 62 73 63 50 64 39 65 40 66 44 67
REMARK SMILES IDX 41 68 43 69 42 70 61 71 62 72 66 73 63 74 65 75 64 76 51 77
REMARK SMILES IDX 52 78 56 79 53 80 55 81 54 82
REMARK H PARENT 20 7 6 14 27 31 71 50 49 61
REMARK Flexibility Score: inf
ROOT
ATOM      1  C   UNL     1      -6.233   1.762   3.515  1.00  0.00     0.002 C 
ENDROOT
BRANCH   1   2
ATOM      2  C   UNL     1      -5.011   1.694   2.570  1.00  0.00     0.021 C 
BRANCH   2   3
ATOM      3  C   UNL     1      -4.583   0.336   1.913  1.00  0.00     0.116 C 
BRANCH   3   4
ATOM      4  N   UNL     1      -3.392   0.521   0.975  1.00  0.00    -0.355 N 
ATOM      5  C   UNL     1      -2.017   0.502   0.837  1.00  0.00     0.238 C 
ATOM      6  O   UNL     1      -1.693   1.020  -0.258  1.00  0.00    -0.273 OA
ATOM      7  H   UNL     1      -3.761   0.753   0.093  1.00  0.00     0.163 HD
BRANCH   5   8
ATOM      8  C   UNL     1      -0.570  -0.095   1.837  1.00  0.00     0.160 C 
BRANCH   8   9
ATOM      9  C   UNL     1       0.039  -1.984   2.587  1.00  0.00     0.033 C 
BRANCH   9  10
ATOM     10  C   UNL     1      -0.813  -3.438   3.234  1.00  0.00    -0.015 C 
ATOM     11  C   UNL     1      -0.326  -4.728   2.522  1.00  0.00     0.007 C 
ATOM     12  C   UNL     1      -0.659  -3.687   4.738  1.00  0.00     0.007 C 
ENDBRANCH   9  10
ENDBRANCH   8   9
BRANCH   8  13
ATOM     13  N   UNL     1      -0.353   1.312   2.526  1.00  0.00    -0.190 NA
ATOM     14  H   UNL     1      -0.962   1.378   3.342  1.00  0.00     0.143 HD
BRANCH  13  15
ATOM     15  S   UNL     1       1.220   1.527   3.014  1.00  0.00     0.280 S 
ATOM     16  O   UNL     1       1.998   2.027   1.937  1.00  0.00    -0.195 OA
ATOM     17  O   UNL     1       1.160   2.138   4.332  1.00  0.00    -0.195 OA
BRANCH  15  18
ATOM     18  N   UNL     1       1.304  -0.158   3.120  1.00  0.00    -0.188 NA
ATOM     19  C   UNL     1      -0.177  -0.589   4.154  1.00  0.00     0.106 C 
ATOM     20  C   UNL     1       1.593  -0.892   1.425  1.00  0.00     0.106 C 
ATOM     21  C   UNL     1      -1.774  -1.064   3.226  1.00  0.00     0.001 C 
ATOM     22  C   UNL     1       0.109  -1.617   0.409  1.00  0.00     0.001 C 
ATOM     23  C   UNL     1      -2.552   0.197   3.743  1.00  0.00     0.009 C 
ATOM     24  C   UNL     1      -1.610  -1.825   1.359  1.00  0.00     0.009 C 
ATOM     25  C   UNL     1       0.727  -2.847  -0.326  1.00  0.00     0.009 C 
ENDBRANCH  15  18
ENDBRANCH  13  15
ENDBRANCH   8  13
ENDBRANCH   5   8
ENDBRANCH   3   4
ENDBRANCH   2   3
ENDBRANCH   1   2
BRANCH   1  26
ATOM     26  C   UNL     1      -6.109   1.335   4.990  1.00  0.00     0.002 C 
BRANCH  26  27
ATOM     27  C   UNL     1      -5.135   2.075   5.926  1.00  0.00     0.021 C 
BRANCH  27  28
ATOM     28  C   UNL     1      -5.217   3.603   6.034  1.00  0.00     0.116 C 
BRANCH  28  29
ATOM     29  N   UNL     1      -6.524   4.101   6.430  1.00  0.00    -0.352 N 
ATOM     30  C   UNL     1      -6.924   4.923   7.458  1.00  0.00     0.251 C 
ATOM     31  H   UNL     1      -7.261   3.792   5.855  1.00  0.00     0.163 HD
ATOM     32  O   UNL     1      -8.128   5.116   7.622  1.00  0.00    -0.269 OA
BRANCH  30  33
ATOM     33  C   UNL     1      -5.967   5.580   8.387  1.00  0.00     0.039 A 
ATOM     34  C   UNL     1      -6.332   5.697   9.737  1.00  0.00     0.014 A 
ATOM     35  C   UNL     1      -4.782   6.177   7.953  1.00  0.00     0.014 A 
ATOM     36  C   UNL     1      -5.501   6.364  10.647  1.00  0.00     0.010 A 
ATOM     37  C   UNL     1      -3.926   6.800   8.872  1.00  0.00     0.010 A 
ATOM     38  C   UNL     1      -4.279   6.909  10.227  1.00  0.00    -0.014 A 
BRANCH  38  39
ATOM     39  C   UNL     1      -3.382   7.613  11.188  1.00  0.00     0.031 A 
ATOM     40  C   UNL     1      -3.128   9.093  11.054  1.00  0.00     0.074 A 
ATOM     41  C   UNL     1      -2.767   6.922  12.169  1.00  0.00     0.049 A 
ATOM     42  N   UNL     1      -2.346   9.868  11.765  1.00  0.00    -0.248 NA
ATOM     43  C   UNL     1      -3.835   9.791   9.969  1.00  0.00     0.031 C 
ATOM     44  C   UNL     1      -2.900   5.483  12.403  1.00  0.00     0.029 A 
ATOM     45  N   UNL     1      -1.897   7.338  13.149  1.00  0.00    -0.354 N 
ATOM     46  C   UNL     1      -2.460  11.137  11.209  1.00  0.00     0.074 A 
ATOM     47  C   UNL     1      -3.348  11.019  10.072  1.00  0.00     0.031 C 
ATOM     48  C   UNL     1      -2.152   5.139  13.465  1.00  0.00     0.029 A 
ATOM     49  C   UNL     1      -1.462   6.323  13.968  1.00  0.00     0.049 A 
ATOM     50  H   UNL     1      -1.613   8.274  13.255  1.00  0.00     0.167 HD
ATOM     51  C   UNL     1      -1.897  12.302  11.614  1.00  0.00     0.031 A 
ATOM     52  C   UNL     1      -0.600   6.340  15.002  1.00  0.00     0.031 A 
ATOM     53  C   UNL     1      -1.012  12.430  12.743  1.00  0.00     0.049 A 
ATOM     54  C   UNL     1       0.023   7.643  15.425  1.00  0.00     0.074 A 
ATOM     55  C   UNL     1      -0.401  13.570  13.238  1.00  0.00     0.029 A 
ATOM     56  N   UNL     1      -0.617  11.380  13.556  1.00  0.00    -0.354 N 
ATOM     57  N   UNL     1      -0.131   8.838  14.911  1.00  0.00    -0.248 NA
ATOM     58  C   UNL     1       0.922   7.599  16.588  1.00  0.00     0.031 C 
ATOM     59  C   UNL     1       0.389  13.204  14.333  1.00  0.00     0.029 A 
ATOM     60  C   UNL     1       0.229  11.845  14.550  1.00  0.00     0.049 A 
ATOM     61  H   UNL     1      -0.896  10.443  13.445  1.00  0.00     0.167 HD
ATOM     62  C   UNL     1       0.622   9.693  15.707  1.00  0.00     0.074 A 
ATOM     63  C   UNL     1       1.217   8.881  16.748  1.00  0.00     0.031 C 
ATOM     64  C   UNL     1       0.803  11.030  15.588  1.00  0.00     0.031 A 
BRANCH  51  65
ATOM     65  C   UNL     1      -2.230  13.541  10.829  1.00  0.00    -0.014 A 
ATOM     66  C   UNL     1      -3.509  14.116  10.898  1.00  0.00     0.009 A 
ATOM     67  C   UNL     1      -1.248  14.166  10.045  1.00  0.00     0.009 A 
ATOM     68  C   UNL     1      -3.809  15.269  10.169  1.00  0.00     0.001 A 
ATOM     69  C   UNL     1      -1.542  15.335   9.340  1.00  0.00     0.001 A 
ATOM     70  C   UNL     1      -2.824  15.880   9.395  1.00  0.00     0.000 A 
ENDBRANCH  51  65
BRANCH  52  71
ATOM     71  C   UNL     1      -0.275   5.083  15.729  1.00  0.00    -0.014 A 
ATOM     72  C   UNL     1      -0.715   4.884  17.047  1.00  0.00     0.009 A 
ATOM     73  C   UNL     1       0.507   4.089  15.120  1.00  0.00     0.009 A 
ATOM     74  C   UNL     1      -0.349   3.735  17.751  1.00  0.00     0.001 A 
ATOM     75  C   UNL     1       0.845   2.926  15.815  1.00  0.00     0.001 A 
ATOM     76  C   UNL     1       0.428   2.756  17.134  1.00  0.00     0.000 A 
ENDBRANCH  52  71
BRANCH  64  77
ATOM     77  C   UNL     1       1.631  11.708  16.643  1.00  0.00    -0.014 A 
ATOM     78  C   UNL     1       3.022  11.537  16.707  1.00  0.00     0.009 A 
ATOM     79  C   UNL     1       1.005  12.553  17.574  1.00  0.00     0.009 A 
ATOM     80  C   UNL     1       3.764  12.166  17.709  1.00  0.00     0.001 A 
ATOM     81  C   UNL     1       1.753  13.203  18.556  1.00  0.00     0.001 A 
ATOM     82  C   UNL     1       3.130  13.000  18.630  1.00  0.00     0.000 A 
ENDBRANCH  64  77
ENDBRANCH  38  39
ENDBRANCH  30  33
ENDBRANCH  28  29
ENDBRANCH  27  28
ENDBRANCH  26  27
ENDBRANCH   1  26
TORSDOF 18
