REMARK SMILES Cn1c(C(=O)NCCCCCCNC(=O)c2ccc(-c3c4nc(c(-c5ccccc5)c5ccc([nH]5)c(-c5ccccc5)c5nc(c(-c6ccccc6)c6ccc3[nH]6)C=C5)C=C4)cc2)cc2cc(OCc3ccccc3)ccc21
REMARK SMILES IDX 9 1 8 2 7 3 6 4 4 5 5 6 3 8 1 9 2 10 78 11 64 12 65 13 77 14
REMARK SMILES IDX 66 15 76 16 67 17 68 18 69 19 70 20 71 21 75 22 72 23 74 24
REMARK SMILES IDX 73 25 10 26 11 27 12 28 13 29 14 30 15 32 16 33 17 34 63 35
REMARK SMILES IDX 18 36 62 37 19 38 20 39 21 40 56 41 22 42 61 43 55 44 57 45
REMARK SMILES IDX 23 46 60 47 54 48 53 49 24 51 46 52 31 53 45 54 32 55 35 56
REMARK SMILES IDX 44 57 58 58 33 59 34 60 43 62 59 63 36 64 25 65 26 66 30 67
REMARK SMILES IDX 27 68 29 69 28 70 47 71 48 72 52 73 49 74 51 75 50 76 37 77
REMARK SMILES IDX 38 78 42 79 39 80 41 81 40 82
REMARK H PARENT 6 7 13 31 57 50 35 61
REMARK Flexibility Score: inf
ROOT
ATOM      1  C   UNL     1       6.853   1.114   1.321  1.00  0.00     0.002 C 
ENDROOT
BRANCH   1   2
ATOM      2  C   UNL     1       5.409   1.171   1.826  1.00  0.00     0.021 C 
BRANCH   2   3
ATOM      3  C   UNL     1       4.321   0.846   0.812  1.00  0.00     0.116 C 
BRANCH   3   4
ATOM      4  N   UNL     1       4.325  -0.506   0.309  1.00  0.00    -0.351 N 
ATOM      5  C   UNL     1       3.291  -1.281  -0.164  1.00  0.00     0.267 C 
ATOM      6  O   UNL     1       3.587  -2.430  -0.496  1.00  0.00    -0.268 OA
ATOM      7  H   UNL     1       5.207  -0.943   0.304  1.00  0.00     0.163 HD
BRANCH   5   8
ATOM      8  C   UNL     1       1.917  -0.802  -0.204  1.00  0.00     0.107 A 
ATOM      9  C   UNL     1       2.091   1.562  -1.123  1.00  0.00     0.150 C 
ATOM     10  N   UNL     1       1.407   0.448  -0.502  1.00  0.00    -0.340 N 
ATOM     11  C   UNL     1       0.043   0.484  -0.288  1.00  0.00     0.049 A 
ATOM     12  C   UNL     1       0.794  -1.617  -0.046  1.00  0.00     0.042 A 
ATOM     13  C   UNL     1      -0.382  -0.822  -0.081  1.00  0.00     0.004 A 
ATOM     14  C   UNL     1      -0.847   1.560  -0.330  1.00  0.00     0.031 A 
ATOM     15  C   UNL     1      -1.766  -1.075   0.046  1.00  0.00     0.056 A 
ATOM     16  C   UNL     1      -2.208   1.284  -0.213  1.00  0.00     0.048 A 
ATOM     17  C   UNL     1      -2.680  -0.011  -0.023  1.00  0.00     0.120 A 
BRANCH  17  18
ATOM     18  O   UNL     1      -3.999  -0.356   0.130  1.00  0.00    -0.489 OA
BRANCH  18  19
ATOM     19  C   UNL     1      -4.991   0.680   0.044  1.00  0.00     0.265 C 
BRANCH  19  20
ATOM     20  C   UNL     1      -5.028   1.567   1.271  1.00  0.00    -0.011 A 
ATOM     21  C   UNL     1      -5.130   1.003   2.549  1.00  0.00     0.007 A 
ATOM     22  C   UNL     1      -4.914   2.962   1.153  1.00  0.00     0.007 A 
ATOM     23  C   UNL     1      -5.070   1.811   3.685  1.00  0.00     0.000 A 
ATOM     24  C   UNL     1      -4.830   3.766   2.290  1.00  0.00     0.000 A 
ATOM     25  C   UNL     1      -4.904   3.189   3.555  1.00  0.00     0.000 A 
ENDBRANCH  19  20
ENDBRANCH  18  19
ENDBRANCH  17  18
ENDBRANCH   5   8
ENDBRANCH   3   4
ENDBRANCH   2   3
ENDBRANCH   1   2
BRANCH   1  26
ATOM     26  C   UNL     1       7.177   1.865   0.025  1.00  0.00     0.002 C 
BRANCH  26  27
ATOM     27  C   UNL     1       6.763   3.336  -0.048  1.00  0.00     0.021 C 
BRANCH  27  28
ATOM     28  C   UNL     1       7.213   4.220   1.109  1.00  0.00     0.116 C 
BRANCH  28  29
ATOM     29  N   UNL     1       8.653   4.228   1.296  1.00  0.00    -0.352 N 
ATOM     30  C   UNL     1       9.516   5.288   1.430  1.00  0.00     0.251 C 
ATOM     31  H   UNL     1       9.075   3.339   1.331  1.00  0.00     0.163 HD
ATOM     32  O   UNL     1      10.727   5.094   1.452  1.00  0.00    -0.269 OA
BRANCH  30  33
ATOM     33  C   UNL     1       8.994   6.670   1.517  1.00  0.00     0.039 A 
ATOM     34  C   UNL     1       9.626   7.673   0.776  1.00  0.00     0.014 A 
ATOM     35  C   UNL     1       7.901   6.985   2.329  1.00  0.00     0.014 A 
ATOM     36  C   UNL     1       9.123   8.975   0.799  1.00  0.00     0.010 A 
ATOM     37  C   UNL     1       7.355   8.266   2.292  1.00  0.00     0.010 A 
ATOM     38  C   UNL     1       7.961   9.275   1.529  1.00  0.00    -0.014 A 
BRANCH  38  39
ATOM     39  C   UNL     1       7.365  10.636   1.499  1.00  0.00     0.031 A 
ATOM     40  C   UNL     1       7.283  11.458   2.755  1.00  0.00     0.074 A 
ATOM     41  C   UNL     1       6.843  11.109   0.350  1.00  0.00     0.049 A 
ATOM     42  N   UNL     1       6.753  12.643   2.934  1.00  0.00    -0.248 NA
ATOM     43  C   UNL     1       7.848  10.863   3.977  1.00  0.00     0.031 C 
ATOM     44  C   UNL     1       6.828  10.399  -0.930  1.00  0.00     0.029 A 
ATOM     45  N   UNL     1       6.220  12.301   0.075  1.00  0.00    -0.354 N 
ATOM     46  C   UNL     1       6.908  12.925   4.285  1.00  0.00     0.074 A 
ATOM     47  C   UNL     1       7.530  11.768   4.890  1.00  0.00     0.031 C 
ATOM     48  C   UNL     1       6.253  11.179  -1.859  1.00  0.00     0.029 A 
ATOM     49  C   UNL     1       5.819  12.424  -1.233  1.00  0.00     0.049 A 
ATOM     50  H   UNL     1       6.074  13.002   0.752  1.00  0.00     0.167 HD
ATOM     51  C   UNL     1       6.579  14.053   4.960  1.00  0.00     0.031 A 
ATOM     52  C   UNL     1       5.167  13.422  -1.859  1.00  0.00     0.031 A 
ATOM     53  C   UNL     1       5.960  15.204   4.358  1.00  0.00     0.049 A 
ATOM     54  C   UNL     1       4.786  14.652  -1.082  1.00  0.00     0.074 A 
ATOM     55  C   UNL     1       5.635  16.414   4.947  1.00  0.00     0.029 A 
ATOM     56  N   UNL     1       5.567  15.286   3.031  1.00  0.00    -0.354 N 
ATOM     57  N   UNL     1       5.000  14.930   0.181  1.00  0.00    -0.248 NA
ATOM     58  C   UNL     1       4.084  15.710  -1.822  1.00  0.00     0.031 C 
ATOM     59  C   UNL     1       4.989  17.205   3.991  1.00  0.00     0.029 A 
ATOM     60  C   UNL     1       4.975  16.515   2.790  1.00  0.00     0.049 A 
ATOM     61  H   UNL     1       5.691  14.576   2.360  1.00  0.00     0.167 HD
ATOM     62  C   UNL     1       4.489  16.207   0.379  1.00  0.00     0.074 A 
ATOM     63  C   UNL     1       3.967  16.652  -0.897  1.00  0.00     0.031 C 
ATOM     64  C   UNL     1       4.458  16.945   1.516  1.00  0.00     0.031 A 
BRANCH  51  65
ATOM     65  C   UNL     1       6.870  14.086   6.437  1.00  0.00    -0.014 A 
ATOM     66  C   UNL     1       8.188  14.116   6.922  1.00  0.00     0.009 A 
ATOM     67  C   UNL     1       5.810  14.119   7.357  1.00  0.00     0.009 A 
ATOM     68  C   UNL     1       8.437  14.134   8.296  1.00  0.00     0.001 A 
ATOM     69  C   UNL     1       6.062  14.171   8.729  1.00  0.00     0.001 A 
ATOM     70  C   UNL     1       7.374  14.166   9.198  1.00  0.00     0.000 A 
ENDBRANCH  51  65
BRANCH  52  71
ATOM     71  C   UNL     1       4.842  13.306  -3.306  1.00  0.00    -0.014 A 
ATOM     72  C   UNL     1       5.490  14.118  -4.250  1.00  0.00     0.009 A 
ATOM     73  C   UNL     1       3.880  12.386  -3.751  1.00  0.00     0.009 A 
ATOM     74  C   UNL     1       5.162  14.029  -5.604  1.00  0.00     0.001 A 
ATOM     75  C   UNL     1       3.577  12.277  -5.110  1.00  0.00     0.001 A 
ATOM     76  C   UNL     1       4.210  13.106  -6.034  1.00  0.00     0.000 A 
ENDBRANCH  52  71
BRANCH  64  77
ATOM     77  C   UNL     1       3.876  18.329   1.424  1.00  0.00    -0.014 A 
ATOM     78  C   UNL     1       2.500  18.537   1.246  1.00  0.00     0.009 A 
ATOM     79  C   UNL     1       4.719  19.443   1.563  1.00  0.00     0.009 A 
ATOM     80  C   UNL     1       1.985  19.833   1.173  1.00  0.00     0.001 A 
ATOM     81  C   UNL     1       4.198  20.737   1.523  1.00  0.00     0.001 A 
ATOM     82  C   UNL     1       2.833  20.931   1.318  1.00  0.00     0.000 A 
ENDBRANCH  64  77
ENDBRANCH  38  39
ENDBRANCH  30  33
ENDBRANCH  28  29
ENDBRANCH  27  28
ENDBRANCH  26  27
ENDBRANCH   1  26
TORSDOF 16
