REMARK SMILES C[C@@H]1SC[C@H](C(=O)NCCCCCCNC(=O)c2ccc(-c3c4nc(c(-c5ccccc5)c5ccc([nH]5)c(-c5ccccc5)c5nc(c(-c6ccccc6)c6ccc3[nH]6)C=C5)C=C4)cc2)N1C(=O)N(C)[C@@H](C)Cc1cccs1
REMARK SMILES IDX 10 1 9 2 8 3 6 4 7 5 5 7 1 8 2 9 3 10 66 11 4 12 67 13 68 14
REMARK SMILES IDX 69 15 70 16 71 17 72 18 73 19 74 20 75 21 78 22 76 23 77 24
REMARK SMILES IDX 11 25 12 26 13 27 14 28 15 29 16 30 17 32 18 33 19 34 65 35
REMARK SMILES IDX 20 36 64 37 21 38 22 39 23 40 58 41 24 42 63 43 57 44 59 45
REMARK SMILES IDX 25 46 62 47 56 48 55 49 26 51 48 52 33 53 47 54 34 55 37 56
REMARK SMILES IDX 46 57 60 58 35 59 36 60 45 62 61 63 38 64 27 65 28 66 32 67
REMARK SMILES IDX 29 68 31 69 30 70 49 71 50 72 54 73 51 74 53 75 52 76 39 77
REMARK SMILES IDX 40 78 44 79 41 80 43 81 42 82
REMARK H PARENT 8 6 15 31 59 50 37 61
REMARK Flexibility Score: inf
ROOT
ATOM      1  C   UNL     1      -1.548  -4.184   2.575  1.00  0.00     0.021 C 
ENDROOT
BRANCH   1   2
ATOM      2  C   UNL     1      -0.284  -3.811   1.800  1.00  0.00     0.116 C 
BRANCH   2   3
ATOM      3  N   UNL     1       0.052  -4.842   0.846  1.00  0.00    -0.354 N 
ATOM      4  C   UNL     1       0.399  -4.752  -0.466  1.00  0.00     0.243 C 
ATOM      5  O   UNL     1       0.435  -5.815  -1.099  1.00  0.00    -0.273 OA
ATOM      6  H   UNL     1       0.025  -5.759   1.203  1.00  0.00     0.163 HD
BRANCH   4   7
ATOM      7  C   UNL     1       0.507  -3.403  -1.212  1.00  0.00     0.187 C 
ATOM      8  C   UNL     1       0.010  -0.086   0.122  1.00  0.00     0.043 C 
ATOM      9  C   UNL     1       0.562  -0.959  -1.005  1.00  0.00     0.142 C 
ATOM     10  S   UNL     1      -0.802  -1.343  -2.156  1.00  0.00    -0.135 SA
ATOM     11  N   UNL     1       1.149  -2.226  -0.566  1.00  0.00    -0.300 N 
ATOM     12  C   UNL     1      -0.920  -3.045  -1.611  1.00  0.00     0.107 C 
BRANCH  11  13
ATOM     13  C   UNL     1       2.392  -2.474  -0.015  1.00  0.00     0.321 C 
ATOM     14  O   UNL     1       2.771  -3.649   0.052  1.00  0.00    -0.248 OA
BRANCH  13  15
ATOM     15  N   UNL     1       3.195  -1.493   0.533  1.00  0.00    -0.325 N 
ATOM     16  C   UNL     1       3.088  -0.049   0.406  1.00  0.00     0.149 C 
BRANCH  15  17
ATOM     17  C   UNL     1       4.383  -1.938   1.322  1.00  0.00     0.088 C 
ATOM     18  C   UNL     1       3.983  -2.723   2.580  1.00  0.00     0.031 C 
BRANCH  17  19
ATOM     19  C   UNL     1       5.462  -2.693   0.503  1.00  0.00     0.071 C 
BRANCH  19  20
ATOM     20  C   UNL     1       5.832  -1.993  -0.780  1.00  0.00     0.007 A 
ATOM     21  C   UNL     1       6.317  -0.712  -0.964  1.00  0.00     0.015 A 
ATOM     22  S   UNL     1       5.664  -2.815  -2.276  1.00  0.00    -0.149 S 
ATOM     23  C   UNL     1       6.495  -0.390  -2.340  1.00  0.00     0.012 A 
ATOM     24  C   UNL     1       6.186  -1.451  -3.161  1.00  0.00     0.065 A 
ENDBRANCH  19  20
ENDBRANCH  17  19
ENDBRANCH  15  17
ENDBRANCH  13  15
ENDBRANCH  11  13
ENDBRANCH   4   7
ENDBRANCH   2   3
ENDBRANCH   1   2
BRANCH   1  25
ATOM     25  C   UNL     1      -1.416  -5.427   3.465  1.00  0.00     0.002 C 
BRANCH  25  26
ATOM     26  C   UNL     1      -0.318  -5.358   4.529  1.00  0.00     0.002 C 
BRANCH  26  27
ATOM     27  C   UNL     1      -0.390  -4.149   5.466  1.00  0.00     0.021 C 
BRANCH  27  28
ATOM     28  C   UNL     1      -1.719  -3.971   6.195  1.00  0.00     0.116 C 
BRANCH  28  29
ATOM     29  N   UNL     1      -2.041  -5.095   7.057  1.00  0.00    -0.352 N 
ATOM     30  C   UNL     1      -2.518  -5.098   8.341  1.00  0.00     0.251 C 
ATOM     31  H   UNL     1      -1.896  -5.984   6.661  1.00  0.00     0.163 HD
ATOM     32  O   UNL     1      -2.597  -6.158   8.964  1.00  0.00    -0.269 OA
BRANCH  30  33
ATOM     33  C   UNL     1      -2.914  -3.835   9.000  1.00  0.00     0.039 A 
ATOM     34  C   UNL     1      -2.524  -3.623  10.325  1.00  0.00     0.014 A 
ATOM     35  C   UNL     1      -3.683  -2.873   8.336  1.00  0.00     0.014 A 
ATOM     36  C   UNL     1      -2.858  -2.430  10.966  1.00  0.00     0.010 A 
ATOM     37  C   UNL     1      -3.963  -1.655   8.956  1.00  0.00     0.010 A 
ATOM     38  C   UNL     1      -3.557  -1.424  10.278  1.00  0.00    -0.014 A 
BRANCH  38  39
ATOM     39  C   UNL     1      -3.848  -0.126  10.937  1.00  0.00     0.031 A 
ATOM     40  C   UNL     1      -5.261   0.275  11.255  1.00  0.00     0.074 A 
ATOM     41  C   UNL     1      -2.831   0.709  11.228  1.00  0.00     0.049 A 
ATOM     42  N   UNL     1      -5.695   1.352  11.863  1.00  0.00    -0.248 NA
ATOM     43  C   UNL     1      -6.328  -0.637  10.816  1.00  0.00     0.031 C 
ATOM     44  C   UNL     1      -1.420   0.462  10.924  1.00  0.00     0.029 A 
ATOM     45  N   UNL     1      -2.829   1.930  11.852  1.00  0.00    -0.354 N 
ATOM     46  C   UNL     1      -7.080   1.250  11.872  1.00  0.00     0.074 A 
ATOM     47  C   UNL     1      -7.417   0.032  11.166  1.00  0.00     0.031 C 
ATOM     48  C   UNL     1      -0.685   1.481  11.397  1.00  0.00     0.029 A 
ATOM     49  C   UNL     1      -1.573   2.461  12.013  1.00  0.00     0.049 A 
ATOM     50  H   UNL     1      -3.649   2.383  12.155  1.00  0.00     0.167 HD
ATOM     51  C   UNL     1      -7.990   2.082  12.433  1.00  0.00     0.031 A 
ATOM     52  C   UNL     1      -1.176   3.603  12.605  1.00  0.00     0.031 A 
ATOM     53  C   UNL     1      -7.658   3.290  13.141  1.00  0.00     0.049 A 
ATOM     54  C   UNL     1      -2.202   4.499  13.239  1.00  0.00     0.074 A 
ATOM     55  C   UNL     1      -8.506   4.172  13.789  1.00  0.00     0.029 A 
ATOM     56  N   UNL     1      -6.373   3.785  13.295  1.00  0.00    -0.354 N 
ATOM     57  N   UNL     1      -3.503   4.349  13.303  1.00  0.00    -0.248 NA
ATOM     58  C   UNL     1      -1.699   5.710  13.902  1.00  0.00     0.031 C 
ATOM     59  C   UNL     1      -7.736   5.223  14.301  1.00  0.00     0.029 A 
ATOM     60  C   UNL     1      -6.405   4.969  14.013  1.00  0.00     0.049 A 
ATOM     61  H   UNL     1      -5.557   3.359  12.945  1.00  0.00     0.167 HD
ATOM     62  C   UNL     1      -3.971   5.432  14.035  1.00  0.00     0.074 A 
ATOM     63  C   UNL     1      -2.814   6.219  14.408  1.00  0.00     0.031 C 
ATOM     64  C   UNL     1      -5.247   5.745  14.371  1.00  0.00     0.031 A 
BRANCH  51  65
ATOM     65  C   UNL     1      -9.440   1.710  12.298  1.00  0.00    -0.014 A 
ATOM     66  C   UNL     1      -9.979   0.623  13.006  1.00  0.00     0.009 A 
ATOM     67  C   UNL     1     -10.286   2.473  11.479  1.00  0.00     0.009 A 
ATOM     68  C   UNL     1     -11.328   0.287  12.868  1.00  0.00     0.001 A 
ATOM     69  C   UNL     1     -11.640   2.151  11.364  1.00  0.00     0.001 A 
ATOM     70  C   UNL     1     -12.157   1.053  12.051  1.00  0.00     0.000 A 
ENDBRANCH  51  65
BRANCH  52  71
ATOM     71  C   UNL     1       0.268   3.945  12.664  1.00  0.00    -0.014 A 
ATOM     72  C   UNL     1       0.968   3.858  13.877  1.00  0.00     0.009 A 
ATOM     73  C   UNL     1       0.952   4.360  11.512  1.00  0.00     0.009 A 
ATOM     74  C   UNL     1       2.319   4.204  13.940  1.00  0.00     0.001 A 
ATOM     75  C   UNL     1       2.309   4.681  11.573  1.00  0.00     0.001 A 
ATOM     76  C   UNL     1       2.989   4.612  12.787  1.00  0.00     0.000 A 
ENDBRANCH  52  71
BRANCH  64  77
ATOM     77  C   UNL     1      -5.447   6.977  15.207  1.00  0.00    -0.014 A 
ATOM     78  C   UNL     1      -5.281   8.261  14.665  1.00  0.00     0.009 A 
ATOM     79  C   UNL     1      -5.818   6.848  16.554  1.00  0.00     0.009 A 
ATOM     80  C   UNL     1      -5.443   9.391  15.469  1.00  0.00     0.001 A 
ATOM     81  C   UNL     1      -6.006   7.980  17.348  1.00  0.00     0.001 A 
ATOM     82  C   UNL     1      -5.806   9.250  16.808  1.00  0.00     0.000 A 
ENDBRANCH  64  77
ENDBRANCH  38  39
ENDBRANCH  30  33
ENDBRANCH  28  29
ENDBRANCH  27  28
ENDBRANCH  26  27
ENDBRANCH  25  26
ENDBRANCH   1  25
TORSDOF 18
