REMARK SMILES COc1ccc([N+](=O)[O-])cc1C(=O)N[C@@H](Cc1c[nH]c2ccccc12)C(=O)NCCCCCCNC(=O)c1ccc(-c2c3nc(c(-c4ccccc4)c4ccc([nH]4)c(-c4ccccc4)c4nc(c(-c5ccccc5)c5ccc2[nH]5)C=C4)C=C3)cc1
REMARK SMILES IDX 31 1 30 2 29 3 28 4 26 5 27 6 15 8 14 9 12 10 13 11 11 13
REMARK SMILES IDX 3 14 4 15 5 16 10 17 6 18 2 19 1 20 7 21 8 22 9 23 16 24
REMARK SMILES IDX 17 25 18 26 25 27 19 28 20 29 24 30 21 32 23 33 22 34 32 35
REMARK SMILES IDX 33 36 34 37 35 38 36 39 37 41 38 42 39 43 85 44 40 45 84 46
REMARK SMILES IDX 41 47 42 48 43 49 78 50 44 51 83 52 77 53 79 54 45 55 82 56
REMARK SMILES IDX 76 57 75 58 46 60 68 61 53 62 67 63 54 64 57 65 66 66 80 67
REMARK SMILES IDX 55 68 56 69 65 71 81 72 58 73 47 74 48 75 52 76 49 77 51 78
REMARK SMILES IDX 50 79 69 80 70 81 74 82 71 83 73 84 72 85 59 86 60 87 64 88
REMARK SMILES IDX 61 89 63 90 62 91
REMARK H PARENT 28 7 14 12 19 31 35 40 79 59 57 70
REMARK Flexibility Score: inf
ROOT
ATOM      1  C   UNL     1       2.486  -0.197   5.256  1.00  0.00     0.002 C 
ENDROOT
BRANCH   1   2
ATOM      2  C   UNL     1       2.811  -0.582   3.814  1.00  0.00     0.021 C 
BRANCH   2   3
ATOM      3  C   UNL     1       1.862  -1.589   3.155  1.00  0.00     0.116 C 
BRANCH   3   4
ATOM      4  N   UNL     1       0.969  -0.980   2.192  1.00  0.00    -0.354 N 
ATOM      5  C   UNL     1       0.735  -1.380   0.901  1.00  0.00     0.242 C 
ATOM      6  O   UNL     1      -0.456  -1.581   0.629  1.00  0.00    -0.273 OA
ATOM      7  H   UNL     1       0.473  -0.187   2.499  1.00  0.00     0.163 HD
BRANCH   5   8
ATOM      8  C   UNL     1       1.835  -1.450  -0.221  1.00  0.00     0.176 C 
BRANCH   8   9
ATOM      9  N   UNL     1       2.481  -0.134  -0.316  1.00  0.00    -0.340 N 
ATOM     10  C   UNL     1       2.612   0.824  -1.279  1.00  0.00     0.255 C 
ATOM     11  O   UNL     1       3.413   1.734  -1.048  1.00  0.00    -0.269 OA
ATOM     12  H   UNL     1       2.931   0.119   0.523  1.00  0.00     0.164 HD
BRANCH  10  13
ATOM     13  C   UNL     1       1.836   0.913  -2.543  1.00  0.00     0.088 A 
ATOM     14  C   UNL     1       0.454   0.710  -2.635  1.00  0.00     0.132 A 
ATOM     15  C   UNL     1      -0.247   0.998  -3.817  1.00  0.00     0.054 A 
ATOM     16  C   UNL     1       0.398   1.617  -4.884  1.00  0.00     0.089 A 
ATOM     17  C   UNL     1       2.488   1.521  -3.636  1.00  0.00     0.103 A 
ATOM     18  C   UNL     1       1.763   1.902  -4.778  1.00  0.00     0.270 A 
BRANCH  14  19
ATOM     19  O   UNL     1      -0.310   0.287  -1.585  1.00  0.00    -0.496 OA
ATOM     20  C   UNL     1      -0.683   1.394  -0.761  1.00  0.00     0.278 C 
ENDBRANCH  14  19
BRANCH  18  21
ATOM     21  N   UNL     1       2.415   2.691  -5.834  1.00  0.00     0.062 N 
ATOM     22  O   UNL     1       1.704   3.114  -6.757  1.00  0.00    -0.258 OA
ATOM     23  O   UNL     1       3.630   2.904  -5.729  1.00  0.00    -0.258 OA
ENDBRANCH  18  21
ENDBRANCH  10  13
ENDBRANCH   8   9
BRANCH   8  24
ATOM     24  C   UNL     1       2.790  -2.692  -0.293  1.00  0.00     0.072 C 
BRANCH  24  25
ATOM     25  C   UNL     1       4.174  -2.674   0.369  1.00  0.00    -0.020 A 
ATOM     26  C   UNL     1       4.399  -2.276   1.676  1.00  0.00     0.087 A 
ATOM     27  C   UNL     1       5.448  -2.264  -0.160  1.00  0.00     0.003 A 
ATOM     28  N   UNL     1       4.732  -0.935   1.428  1.00  0.00    -0.361 N 
ATOM     29  C   UNL     1       5.631  -0.992   0.385  1.00  0.00     0.046 A 
ATOM     30  C   UNL     1       6.610  -2.882  -0.666  1.00  0.00     0.010 A 
ATOM     31  H   UNL     1       4.399  -0.135   1.894  1.00  0.00     0.166 HD
ATOM     32  C   UNL     1       6.684  -0.133   0.113  1.00  0.00     0.026 A 
ATOM     33  C   UNL     1       7.793  -2.115  -0.743  1.00  0.00     0.001 A 
ATOM     34  C   UNL     1       7.804  -0.751  -0.426  1.00  0.00     0.002 A 
ENDBRANCH  24  25
ENDBRANCH   8  24
ENDBRANCH   5   8
ENDBRANCH   3   4
ENDBRANCH   2   3
ENDBRANCH   1   2
BRANCH   1  35
ATOM     35  C   UNL     1       2.354  -1.377   6.225  1.00  0.00     0.002 C 
BRANCH  35  36
ATOM     36  C   UNL     1       3.488  -2.408   6.176  1.00  0.00     0.021 C 
BRANCH  36  37
ATOM     37  C   UNL     1       4.872  -1.851   6.498  1.00  0.00     0.116 C 
BRANCH  37  38
ATOM     38  N   UNL     1       4.912  -1.266   7.828  1.00  0.00    -0.352 N 
ATOM     39  C   UNL     1       5.620  -1.666   8.933  1.00  0.00     0.251 C 
ATOM     40  H   UNL     1       4.351  -0.467   7.954  1.00  0.00     0.163 HD
ATOM     41  O   UNL     1       5.319  -1.250  10.043  1.00  0.00    -0.269 OA
BRANCH  39  42
ATOM     42  C   UNL     1       6.753  -2.601   8.774  1.00  0.00     0.039 A 
ATOM     43  C   UNL     1       6.907  -3.644   9.689  1.00  0.00     0.014 A 
ATOM     44  C   UNL     1       7.679  -2.423   7.741  1.00  0.00     0.014 A 
ATOM     45  C   UNL     1       7.968  -4.538   9.540  1.00  0.00     0.010 A 
ATOM     46  C   UNL     1       8.690  -3.358   7.550  1.00  0.00     0.010 A 
ATOM     47  C   UNL     1       8.851  -4.417   8.455  1.00  0.00    -0.014 A 
BRANCH  47  48
ATOM     48  C   UNL     1       9.957  -5.386   8.256  1.00  0.00     0.031 A 
ATOM     49  C   UNL     1      11.387  -4.927   8.335  1.00  0.00     0.074 A 
ATOM     50  C   UNL     1       9.670  -6.665   7.950  1.00  0.00     0.049 A 
ATOM     51  N   UNL     1      12.485  -5.615   8.151  1.00  0.00    -0.248 NA
ATOM     52  C   UNL     1      11.614  -3.504   8.636  1.00  0.00     0.031 C 
ATOM     53  C   UNL     1       8.322  -7.221   7.807  1.00  0.00     0.029 A 
ATOM     54  N   UNL     1      10.497  -7.731   7.701  1.00  0.00    -0.354 N 
ATOM     55  C   UNL     1      13.527  -4.709   8.298  1.00  0.00     0.074 A 
ATOM     56  C   UNL     1      12.931  -3.412   8.533  1.00  0.00     0.031 C 
ATOM     57  C   UNL     1       8.415  -8.530   7.526  1.00  0.00     0.029 A 
ATOM     58  C   UNL     1       9.824  -8.896   7.426  1.00  0.00     0.049 A 
ATOM     59  H   UNL     1      11.479  -7.666   7.718  1.00  0.00     0.167 HD
ATOM     60  C   UNL     1      14.861  -4.938   8.261  1.00  0.00     0.031 A 
ATOM     61  C   UNL     1      10.290 -10.121   7.120  1.00  0.00     0.031 A 
ATOM     62  C   UNL     1      15.450  -6.230   8.031  1.00  0.00     0.049 A 
ATOM     63  C   UNL     1      11.775 -10.345   7.063  1.00  0.00     0.074 A 
ATOM     64  C   UNL     1      16.789  -6.579   8.029  1.00  0.00     0.029 A 
ATOM     65  N   UNL     1      14.735  -7.385   7.755  1.00  0.00    -0.354 N 
ATOM     66  N   UNL     1      12.748  -9.493   7.278  1.00  0.00    -0.248 NA
ATOM     67  C   UNL     1      12.226 -11.704   6.732  1.00  0.00     0.031 C 
ATOM     68  C   UNL     1      16.887  -7.932   7.692  1.00  0.00     0.029 A 
ATOM     69  C   UNL     1      15.605  -8.442   7.551  1.00  0.00     0.049 A 
ATOM     70  H   UNL     1      13.753  -7.445   7.711  1.00  0.00     0.167 HD
ATOM     71  C   UNL     1      13.925 -10.218   7.138  1.00  0.00     0.074 A 
ATOM     72  C   UNL     1      13.541 -11.582   6.838  1.00  0.00     0.031 C 
ATOM     73  C   UNL     1      15.207  -9.793   7.249  1.00  0.00     0.031 A 
BRANCH  60  74
ATOM     74  C   UNL     1      15.774  -3.759   8.462  1.00  0.00    -0.014 A 
ATOM     75  C   UNL     1      15.873  -3.115   9.707  1.00  0.00     0.009 A 
ATOM     76  C   UNL     1      16.573  -3.307   7.401  1.00  0.00     0.009 A 
ATOM     77  C   UNL     1      16.723  -2.019   9.872  1.00  0.00     0.001 A 
ATOM     78  C   UNL     1      17.446  -2.231   7.578  1.00  0.00     0.001 A 
ATOM     79  C   UNL     1      17.512  -1.582   8.809  1.00  0.00     0.000 A 
ENDBRANCH  60  74
BRANCH  61  80
ATOM     80  C   UNL     1       9.341 -11.235   6.855  1.00  0.00    -0.014 A 
ATOM     81  C   UNL     1       9.228 -12.306   7.755  1.00  0.00     0.009 A 
ATOM     82  C   UNL     1       8.546 -11.235   5.698  1.00  0.00     0.009 A 
ATOM     83  C   UNL     1       8.362 -13.368   7.486  1.00  0.00     0.001 A 
ATOM     84  C   UNL     1       7.657 -12.283   5.448  1.00  0.00     0.001 A 
ATOM     85  C   UNL     1       7.574 -13.353   6.337  1.00  0.00     0.000 A 
ENDBRANCH  61  80
BRANCH  73  86
ATOM     86  C   UNL     1      16.289 -10.823   7.082  1.00  0.00    -0.014 A 
ATOM     87  C   UNL     1      16.576 -11.386   5.828  1.00  0.00     0.009 A 
ATOM     88  C   UNL     1      17.059 -11.205   8.191  1.00  0.00     0.009 A 
ATOM     89  C   UNL     1      17.590 -12.338   5.698  1.00  0.00     0.001 A 
ATOM     90  C   UNL     1      18.093 -12.132   8.052  1.00  0.00     0.001 A 
ATOM     91  C   UNL     1      18.350 -12.705   6.808  1.00  0.00     0.000 A 
ENDBRANCH  73  86
ENDBRANCH  47  48
ENDBRANCH  39  42
ENDBRANCH  37  38
ENDBRANCH  36  37
ENDBRANCH  35  36
ENDBRANCH   1  35
TORSDOF 19
