REMARK SMILES CC(C)Oc1ccc(/C=C(\NC(=O)c2ccccc2)C(=O)NCCCCCCNC(=O)c2ccc(-c3c4nc(c(-c5ccccc5)c5ccc([nH]5)c(-c5ccccc5)c5nc(c(-c6ccccc6)c6ccc3[nH]6)C=C5)C=C4)cc2)cc1
REMARK SMILES IDX 25 1 24 2 23 3 22 4 20 5 21 6 10 8 9 9 8 10 5 11 6 12 81 13
REMARK SMILES IDX 7 14 80 15 4 16 2 17 1 18 3 19 11 20 12 21 13 23 14 24 15 25
REMARK SMILES IDX 19 26 16 27 18 28 17 29 26 30 27 31 28 32 29 33 30 34 31 36
REMARK SMILES IDX 32 37 33 38 79 39 34 40 78 41 35 42 36 43 37 44 72 45 38 46
REMARK SMILES IDX 77 47 71 48 73 49 39 50 76 51 70 52 69 53 40 55 62 56 47 57
REMARK SMILES IDX 61 58 48 59 51 60 60 61 74 62 49 63 50 64 59 66 75 67 52 68
REMARK SMILES IDX 41 69 42 70 46 71 43 72 45 73 44 74 63 75 64 76 68 77 65 78
REMARK SMILES IDX 67 79 66 80 53 81 54 82 58 83 55 84 57 85 56 86
REMARK H PARENT 22 7 11 22 29 35 73 54 51 65
REMARK Flexibility Score: inf
ROOT
ATOM      1  C   UNL     1      -7.239   9.570  -1.304  1.00  0.00     0.002 C 
ENDROOT
BRANCH   1   2
ATOM      2  C   UNL     1      -6.063   8.815  -0.669  1.00  0.00     0.021 C 
BRANCH   2   3
ATOM      3  C   UNL     1      -5.915   7.311  -0.930  1.00  0.00     0.116 C 
BRANCH   3   4
ATOM      4  N   UNL     1      -5.712   6.918  -2.314  1.00  0.00    -0.351 N 
ATOM      5  C   UNL     1      -5.280   5.706  -2.805  1.00  0.00     0.267 C 
ATOM      6  O   UNL     1      -5.062   5.585  -4.011  1.00  0.00    -0.268 OA
ATOM      7  H   UNL     1      -5.908   7.608  -2.989  1.00  0.00     0.163 HD
BRANCH   5   8
ATOM      8  C   UNL     1      -5.003   4.558  -1.844  1.00  0.00     0.107 C 
ATOM      9  C   UNL     1      -3.794   3.971  -1.998  1.00  0.00     0.040 C 
BRANCH   9  10
ATOM     10  C   UNL     1      -3.109   2.878  -1.258  1.00  0.00    -0.023 A 
ATOM     11  C   UNL     1      -1.492   1.000   0.117  1.00  0.00     0.119 A 
ATOM     12  C   UNL     1      -2.530   1.647   0.771  1.00  0.00     0.047 A 
ATOM     13  C   UNL     1      -1.301   1.217  -1.242  1.00  0.00     0.047 A 
ATOM     14  C   UNL     1      -3.306   2.598   0.100  1.00  0.00     0.012 A 
ATOM     15  C   UNL     1      -2.101   2.152  -1.921  1.00  0.00     0.012 A 
BRANCH  11  16
ATOM     16  O   UNL     1      -0.757   0.119   0.851  1.00  0.00    -0.491 OA
BRANCH  16  17
ATOM     17  C   UNL     1       0.635   0.424   1.059  1.00  0.00     0.167 C 
ATOM     18  C   UNL     1       1.501  -0.169  -0.047  1.00  0.00     0.052 C 
ATOM     19  C   UNL     1       0.967   1.891   1.341  1.00  0.00     0.052 C 
ENDBRANCH  16  17
ENDBRANCH  11  16
ENDBRANCH   9  10
BRANCH   8  20
ATOM     20  N   UNL     1      -5.914   4.175  -0.884  1.00  0.00    -0.317 N 
ATOM     21  C   UNL     1      -7.282   4.283  -0.819  1.00  0.00     0.255 C 
ATOM     22  H   UNL     1      -5.509   3.743  -0.097  1.00  0.00     0.170 HD
ATOM     23  O   UNL     1      -7.857   4.130   0.256  1.00  0.00    -0.269 OA
BRANCH  21  24
ATOM     24  C   UNL     1      -8.058   4.587  -2.033  1.00  0.00     0.040 A 
ATOM     25  C   UNL     1      -8.964   5.643  -1.973  1.00  0.00     0.014 A 
ATOM     26  C   UNL     1      -7.834   3.913  -3.234  1.00  0.00     0.014 A 
ATOM     27  C   UNL     1      -9.514   6.146  -3.149  1.00  0.00     0.001 A 
ATOM     28  C   UNL     1      -8.412   4.399  -4.405  1.00  0.00     0.001 A 
ATOM     29  C   UNL     1      -9.214   5.541  -4.367  1.00  0.00     0.000 A 
ENDBRANCH  21  24
ENDBRANCH   8  20
ENDBRANCH   5   8
ENDBRANCH   3   4
ENDBRANCH   2   3
ENDBRANCH   1   2
BRANCH   1  30
ATOM     30  C   UNL     1      -8.662   9.096  -1.016  1.00  0.00     0.002 C 
BRANCH  30  31
ATOM     31  C   UNL     1      -9.082   8.912   0.439  1.00  0.00     0.021 C 
BRANCH  31  32
ATOM     32  C   UNL     1      -9.130  10.198   1.255  1.00  0.00     0.116 C 
BRANCH  32  33
ATOM     33  N   UNL     1     -10.032  11.196   0.685  1.00  0.00    -0.352 N 
ATOM     34  C   UNL     1     -11.216  11.718   1.163  1.00  0.00     0.251 C 
ATOM     35  H   UNL     1      -9.746  11.557  -0.186  1.00  0.00     0.163 HD
ATOM     36  O   UNL     1     -11.934  12.389   0.442  1.00  0.00    -0.269 OA
BRANCH  34  37
ATOM     37  C   UNL     1     -11.616  11.444   2.560  1.00  0.00     0.039 A 
ATOM     38  C   UNL     1     -12.941  11.112   2.853  1.00  0.00     0.014 A 
ATOM     39  C   UNL     1     -10.661  11.491   3.573  1.00  0.00     0.014 A 
ATOM     40  C   UNL     1     -13.280  10.719   4.151  1.00  0.00     0.010 A 
ATOM     41  C   UNL     1     -10.970  10.987   4.825  1.00  0.00     0.010 A 
ATOM     42  C   UNL     1     -12.283  10.595   5.131  1.00  0.00    -0.014 A 
BRANCH  42  43
ATOM     43  C   UNL     1     -12.555  10.063   6.489  1.00  0.00     0.031 A 
ATOM     44  C   UNL     1     -12.223  10.905   7.692  1.00  0.00     0.074 A 
ATOM     45  C   UNL     1     -12.969   8.790   6.640  1.00  0.00     0.049 A 
ATOM     46  N   UNL     1     -12.202  10.570   8.956  1.00  0.00    -0.248 NA
ATOM     47  C   UNL     1     -11.807  12.295   7.432  1.00  0.00     0.031 C 
ATOM     48  C   UNL     1     -13.273   7.857   5.551  1.00  0.00     0.029 A 
ATOM     49  N   UNL     1     -13.184   8.050   7.776  1.00  0.00    -0.354 N 
ATOM     50  C   UNL     1     -11.735  11.692   9.631  1.00  0.00     0.074 A 
ATOM     51  C   UNL     1     -11.425  12.692   8.636  1.00  0.00     0.031 C 
ATOM     52  C   UNL     1     -13.662   6.683   6.072  1.00  0.00     0.029 A 
ATOM     53  C   UNL     1     -13.581   6.758   7.526  1.00  0.00     0.049 A 
ATOM     54  H   UNL     1     -13.065   8.411   8.684  1.00  0.00     0.167 HD
ATOM     55  C   UNL     1     -11.600  11.881  10.964  1.00  0.00     0.031 A 
ATOM     56  C   UNL     1     -13.833   5.743   8.374  1.00  0.00     0.031 A 
ATOM     57  C   UNL     1     -11.941  10.891  11.948  1.00  0.00     0.049 A 
ATOM     58  C   UNL     1     -13.671   5.976   9.850  1.00  0.00     0.074 A 
ATOM     59  C   UNL     1     -11.922  11.003  13.327  1.00  0.00     0.029 A 
ATOM     60  N   UNL     1     -12.367   9.605  11.653  1.00  0.00    -0.354 N 
ATOM     61  N   UNL     1     -13.304   7.066  10.479  1.00  0.00    -0.248 NA
ATOM     62  C   UNL     1     -13.958   4.838  10.735  1.00  0.00     0.031 C 
ATOM     63  C   UNL     1     -12.281   9.765  13.866  1.00  0.00     0.029 A 
ATOM     64  C   UNL     1     -12.582   8.901  12.824  1.00  0.00     0.049 A 
ATOM     65  H   UNL     1     -12.497   9.246  10.746  1.00  0.00     0.167 HD
ATOM     66  C   UNL     1     -13.336   6.754  11.831  1.00  0.00     0.074 A 
ATOM     67  C   UNL     1     -13.780   5.378  11.932  1.00  0.00     0.031 C 
ATOM     68  C   UNL     1     -13.023   7.532  12.896  1.00  0.00     0.031 A 
BRANCH  55  69
ATOM     69  C   UNL     1     -11.063  13.207  11.428  1.00  0.00    -0.014 A 
ATOM     70  C   UNL     1     -11.803  14.391  11.267  1.00  0.00     0.009 A 
ATOM     71  C   UNL     1      -9.809  13.274  12.053  1.00  0.00     0.009 A 
ATOM     72  C   UNL     1     -11.278  15.617  11.682  1.00  0.00     0.001 A 
ATOM     73  C   UNL     1      -9.301  14.496  12.498  1.00  0.00     0.001 A 
ATOM     74  C   UNL     1     -10.030  15.668  12.301  1.00  0.00     0.000 A 
ENDBRANCH  55  69
BRANCH  56  75
ATOM     75  C   UNL     1     -14.271   4.420   7.852  1.00  0.00    -0.014 A 
ATOM     76  C   UNL     1     -15.581   3.968   8.073  1.00  0.00     0.009 A 
ATOM     77  C   UNL     1     -13.387   3.602   7.130  1.00  0.00     0.009 A 
ATOM     78  C   UNL     1     -15.988   2.715   7.608  1.00  0.00     0.001 A 
ATOM     79  C   UNL     1     -13.806   2.363   6.639  1.00  0.00     0.001 A 
ATOM     80  C   UNL     1     -15.102   1.916   6.887  1.00  0.00     0.000 A 
ENDBRANCH  56  75
BRANCH  68  81
ATOM     81  C   UNL     1     -13.168   6.922  14.260  1.00  0.00    -0.014 A 
ATOM     82  C   UNL     1     -12.258   5.961  14.725  1.00  0.00     0.009 A 
ATOM     83  C   UNL     1     -14.190   7.365  15.115  1.00  0.00     0.009 A 
ATOM     84  C   UNL     1     -12.383   5.438  16.013  1.00  0.00     0.001 A 
ATOM     85  C   UNL     1     -14.293   6.864  16.412  1.00  0.00     0.001 A 
ATOM     86  C   UNL     1     -13.394   5.896  16.857  1.00  0.00     0.000 A 
ENDBRANCH  68  81
ENDBRANCH  42  43
ENDBRANCH  34  37
ENDBRANCH  32  33
ENDBRANCH  31  32
ENDBRANCH  30  31
ENDBRANCH   1  30
TORSDOF 18
