REMARK SMILES CCc1ccc(CNc2ccc(Cl)c(C(=O)NCCCCCCNC(=O)c3ccc(-c4c5nc(c(-c6ccccc6)c6ccc([nH]6)c(-c6ccccc6)c6nc(c(-c7ccccc7)c7ccc4[nH]7)C=C6)C=C5)cc3)c2)cc1
REMARK SMILES IDX 19 1 18 2 17 3 15 4 16 5 14 7 9 8 10 9 75 10 11 11 12 12
REMARK SMILES IDX 13 13 8 14 7 16 6 17 3 18 4 19 77 20 5 21 76 22 2 23 1 24
REMARK SMILES IDX 20 25 21 26 22 27 23 28 24 29 25 30 26 32 27 33 28 34 74 35
REMARK SMILES IDX 29 36 73 37 30 38 31 39 32 40 67 41 33 42 72 43 66 44 68 45
REMARK SMILES IDX 34 46 71 47 65 48 64 49 35 51 57 52 42 53 56 54 43 55 46 56
REMARK SMILES IDX 55 57 69 58 44 59 45 60 54 62 70 63 47 64 36 65 37 66 41 67
REMARK SMILES IDX 38 68 40 69 39 70 58 71 59 72 63 73 60 74 62 75 61 76 48 77
REMARK SMILES IDX 49 78 53 79 50 80 52 81 51 82
REMARK H PARENT 17 6 8 15 24 31 68 50 46 61
REMARK Flexibility Score: inf
ROOT
ATOM      1  C   UNL     1       1.795   9.836  -6.078  1.00  0.00     0.021 C 
ENDROOT
BRANCH   1   2
ATOM      2  C   UNL     1       2.294   8.398  -6.062  1.00  0.00     0.116 C 
BRANCH   2   3
ATOM      3  N   UNL     1       3.168   8.038  -7.167  1.00  0.00    -0.352 N 
ATOM      4  C   UNL     1       4.293   7.235  -7.223  1.00  0.00     0.252 C 
ATOM      5  O   UNL     1       4.771   7.003  -8.330  1.00  0.00    -0.269 OA
ATOM      6  H   UNL     1       2.915   8.439  -8.029  1.00  0.00     0.163 HD
BRANCH   4   7
ATOM      7  C   UNL     1       4.918   6.672  -5.992  1.00  0.00     0.060 A 
ATOM      8  C   UNL     1       4.588   5.955  -3.674  1.00  0.00     0.035 A 
ATOM      9  C   UNL     1       5.974   5.880  -3.529  1.00  0.00     0.027 A 
ATOM     10  C   UNL     1       4.092   6.234  -4.946  1.00  0.00     0.041 A 
ATOM     11  C   UNL     1       6.827   6.149  -4.602  1.00  0.00     0.023 A 
ATOM     12  C   UNL     1       6.306   6.581  -5.826  1.00  0.00     0.053 A 
ATOM     13  Cl  UNL     1       7.456   7.010  -7.040  1.00  0.00    -0.083 Cl
BRANCH   8  14
ATOM     14  N   UNL     1       3.788   5.768  -2.573  1.00  0.00    -0.381 N 
ATOM     15  H   UNL     1       4.247   5.582  -1.723  1.00  0.00     0.160 HD
BRANCH  14  16
ATOM     16  C   UNL     1       2.337   5.814  -2.527  1.00  0.00     0.148 C 
BRANCH  16  17
ATOM     17  C   UNL     1       1.844   4.633  -1.733  1.00  0.00    -0.029 A 
ATOM     18  C   UNL     1       0.974   2.384  -0.268  1.00  0.00    -0.048 A 
ATOM     19  C   UNL     1       1.942   2.250  -1.267  1.00  0.00     0.004 A 
ATOM     20  C   UNL     1       0.437   3.659  -0.022  1.00  0.00     0.004 A 
ATOM     21  C   UNL     1       2.359   3.356  -2.000  1.00  0.00     0.006 A 
ATOM     22  C   UNL     1       0.863   4.773  -0.749  1.00  0.00     0.006 A 
BRANCH  18  23
ATOM     23  C   UNL     1       0.506   1.225   0.580  1.00  0.00     0.032 C 
ATOM     24  C   UNL     1       0.952  -0.161   0.129  1.00  0.00     0.009 C 
ENDBRANCH  18  23
ENDBRANCH  16  17
ENDBRANCH  14  16
ENDBRANCH   8  14
ENDBRANCH   4   7
ENDBRANCH   2   3
ENDBRANCH   1   2
BRANCH   1  25
ATOM     25  C   UNL     1       0.947  10.255  -7.277  1.00  0.00     0.002 C 
BRANCH  25  26
ATOM     26  C   UNL     1      -0.280   9.392  -7.583  1.00  0.00     0.002 C 
BRANCH  26  27
ATOM     27  C   UNL     1      -1.247   9.144  -6.424  1.00  0.00     0.021 C 
BRANCH  27  28
ATOM     28  C   UNL     1      -1.758  10.388  -5.705  1.00  0.00     0.116 C 
BRANCH  28  29
ATOM     29  N   UNL     1      -2.494  11.286  -6.578  1.00  0.00    -0.352 N 
ATOM     30  C   UNL     1      -3.740  11.841  -6.419  1.00  0.00     0.251 C 
ATOM     31  H   UNL     1      -2.029  11.533  -7.410  1.00  0.00     0.163 HD
ATOM     32  O   UNL     1      -4.255  12.464  -7.341  1.00  0.00    -0.269 OA
BRANCH  30  33
ATOM     33  C   UNL     1      -4.479  11.673  -5.148  1.00  0.00     0.039 A 
ATOM     34  C   UNL     1      -5.844  11.376  -5.200  1.00  0.00     0.014 A 
ATOM     35  C   UNL     1      -3.846  11.830  -3.911  1.00  0.00     0.014 A 
ATOM     36  C   UNL     1      -6.560  11.183  -4.017  1.00  0.00     0.010 A 
ATOM     37  C   UNL     1      -4.544  11.563  -2.735  1.00  0.00     0.010 A 
ATOM     38  C   UNL     1      -5.910  11.244  -2.774  1.00  0.00    -0.014 A 
BRANCH  38  39
ATOM     39  C   UNL     1      -6.646  10.983  -1.511  1.00  0.00     0.031 A 
ATOM     40  C   UNL     1      -6.802  12.069  -0.482  1.00  0.00     0.074 A 
ATOM     41  C   UNL     1      -7.127   9.749  -1.263  1.00  0.00     0.049 A 
ATOM     42  N   UNL     1      -7.377  12.016   0.694  1.00  0.00    -0.248 NA
ATOM     43  C   UNL     1      -6.213  13.377  -0.804  1.00  0.00     0.031 C 
ATOM     44  C   UNL     1      -7.002   8.596  -2.156  1.00  0.00     0.029 A 
ATOM     45  N   UNL     1      -7.811   9.258  -0.179  1.00  0.00    -0.354 N 
ATOM     46  C   UNL     1      -7.206  13.276   1.254  1.00  0.00     0.074 A 
ATOM     47  C   UNL     1      -6.425  14.052   0.315  1.00  0.00     0.031 C 
ATOM     48  C   UNL     1      -7.609   7.538  -1.595  1.00  0.00     0.029 A 
ATOM     49  C   UNL     1      -8.131   7.926  -0.289  1.00  0.00     0.049 A 
ATOM     50  H   UNL     1      -8.050   9.807   0.602  1.00  0.00     0.167 HD
ATOM     51  C   UNL     1      -7.672  13.753   2.433  1.00  0.00     0.031 A 
ATOM     52  C   UNL     1      -8.767   7.105   0.568  1.00  0.00     0.031 A 
ATOM     53  C   UNL     1      -8.449  12.981   3.367  1.00  0.00     0.049 A 
ATOM     54  C   UNL     1      -9.268   7.652   1.875  1.00  0.00     0.074 A 
ATOM     55  C   UNL     1      -9.015  13.389   4.563  1.00  0.00     0.029 A 
ATOM     56  N   UNL     1      -8.763  11.640   3.213  1.00  0.00    -0.354 N 
ATOM     57  N   UNL     1      -9.163   8.867   2.357  1.00  0.00    -0.248 NA
ATOM     58  C   UNL     1      -9.990   6.717   2.750  1.00  0.00     0.031 C 
ATOM     59  C   UNL     1      -9.621  12.278   5.160  1.00  0.00     0.029 A 
ATOM     60  C   UNL     1      -9.490  11.195   4.305  1.00  0.00     0.049 A 
ATOM     61  H   UNL     1      -8.508  11.085   2.441  1.00  0.00     0.167 HD
ATOM     62  C   UNL     1      -9.826   8.849   3.578  1.00  0.00     0.074 A 
ATOM     63  C   UNL     1     -10.344   7.508   3.753  1.00  0.00     0.031 C 
ATOM     64  C   UNL     1      -9.991   9.855   4.472  1.00  0.00     0.031 A 
BRANCH  51  65
ATOM     65  C   UNL     1      -7.336  15.178   2.781  1.00  0.00    -0.014 A 
ATOM     66  C   UNL     1      -7.878  16.255   2.059  1.00  0.00     0.009 A 
ATOM     67  C   UNL     1      -6.476  15.451   3.856  1.00  0.00     0.009 A 
ATOM     68  C   UNL     1      -7.526  17.569   2.374  1.00  0.00     0.001 A 
ATOM     69  C   UNL     1      -6.152  16.768   4.190  1.00  0.00     0.001 A 
ATOM     70  C   UNL     1      -6.667  17.825   3.441  1.00  0.00     0.000 A 
ENDBRANCH  51  65
BRANCH  52  71
ATOM     71  C   UNL     1      -8.972   5.678   0.208  1.00  0.00    -0.014 A 
ATOM     72  C   UNL     1     -10.252   5.193  -0.100  1.00  0.00     0.009 A 
ATOM     73  C   UNL     1      -7.883   4.793   0.160  1.00  0.00     0.009 A 
ATOM     74  C   UNL     1     -10.440   3.847  -0.426  1.00  0.00     0.001 A 
ATOM     75  C   UNL     1      -8.069   3.456  -0.196  1.00  0.00     0.001 A 
ATOM     76  C   UNL     1      -9.348   2.982  -0.480  1.00  0.00     0.000 A 
ENDBRANCH  52  71
BRANCH  64  77
ATOM     77  C   UNL     1     -10.789   9.549   5.710  1.00  0.00    -0.014 A 
ATOM     78  C   UNL     1     -10.280   8.722   6.723  1.00  0.00     0.009 A 
ATOM     79  C   UNL     1     -12.057  10.129   5.878  1.00  0.00     0.009 A 
ATOM     80  C   UNL     1     -11.041   8.452   7.863  1.00  0.00     0.001 A 
ATOM     81  C   UNL     1     -12.801   9.883   7.033  1.00  0.00     0.001 A 
ATOM     82  C   UNL     1     -12.297   9.037   8.019  1.00  0.00     0.000 A 
ENDBRANCH  64  77
ENDBRANCH  38  39
ENDBRANCH  30  33
ENDBRANCH  28  29
ENDBRANCH  27  28
ENDBRANCH  26  27
ENDBRANCH  25  26
ENDBRANCH   1  25
TORSDOF 17
