REMARK SMILES C[C@@H](C(=O)NCCCCCCNC(=O)c1ccc(-c2c3nc(c(-c4ccccc4)c4ccc([nH]4)c(-c4ccccc4)c4nc(c(-c5ccccc5)c5ccc2[nH]5)C=C4)C=C3)cc1)N1C(=O)/C(=C/c2ccc(N(C)C)cc2)SC1=S
REMARK SMILES IDX 8 1 7 2 6 3 5 4 3 5 4 6 2 8 1 9 63 10 64 11 78 12 65 13
REMARK SMILES IDX 66 14 77 15 79 16 67 17 68 18 69 19 76 20 70 21 75 22 71 23
REMARK SMILES IDX 72 24 73 25 74 26 9 27 10 28 11 29 12 30 13 31 14 33 15 34
REMARK SMILES IDX 16 35 62 36 17 37 61 38 18 39 19 40 20 41 55 42 21 43 60 44
REMARK SMILES IDX 54 45 56 46 22 47 59 48 53 49 52 50 23 52 45 53 30 54 44 55
REMARK SMILES IDX 31 56 34 57 43 58 57 59 32 60 33 61 42 63 58 64 35 65 24 66
REMARK SMILES IDX 25 67 29 68 26 69 28 70 27 71 46 72 47 73 51 74 48 75 50 76
REMARK SMILES IDX 49 77 36 78 37 79 41 80 38 81 40 82 39 83
REMARK H PARENT 5 7 12 32 56 51 34 62
REMARK Flexibility Score: inf
ROOT
ATOM      1  C   UNL     1       5.016  -1.230  -2.595  1.00  0.00     0.002 C 
ENDROOT
BRANCH   1   2
ATOM      2  C   UNL     1       4.279  -0.599  -1.407  1.00  0.00     0.021 C 
BRANCH   2   3
ATOM      3  C   UNL     1       3.469   0.644  -1.771  1.00  0.00     0.116 C 
BRANCH   3   4
ATOM      4  N   UNL     1       2.348   0.300  -2.617  1.00  0.00    -0.354 N 
ATOM      5  C   UNL     1       1.016   0.265  -2.331  1.00  0.00     0.242 C 
ATOM      6  O   UNL     1       0.252  -0.025  -3.256  1.00  0.00    -0.273 OA
ATOM      7  H   UNL     1       2.582   0.055  -3.541  1.00  0.00     0.163 HD
BRANCH   5   8
ATOM      8  C   UNL     1       0.509   0.648  -0.922  1.00  0.00     0.178 C 
ATOM      9  C   UNL     1       0.980  -0.269   0.208  1.00  0.00     0.042 C 
BRANCH   8  10
ATOM     10  N   UNL     1      -0.962   0.744  -0.996  1.00  0.00    -0.281 N 
ATOM     11  C   UNL     1      -1.716  -0.421  -1.036  1.00  0.00     0.266 C 
ATOM     12  C   UNL     1      -1.653   1.925  -1.171  1.00  0.00     0.149 C 
ATOM     13  O   UNL     1      -1.300  -1.563  -0.938  1.00  0.00    -0.268 OA
ATOM     14  C   UNL     1      -3.156  -0.096  -1.194  1.00  0.00     0.081 C 
ATOM     15  S   UNL     1      -3.378   1.602  -1.272  1.00  0.00    -0.054 SA
ATOM     16  S   UNL     1      -1.048   3.479  -1.256  1.00  0.00    -0.052 S 
ATOM     17  C   UNL     1      -4.082  -1.063  -1.220  1.00  0.00     0.029 C 
BRANCH  17  18
ATOM     18  C   UNL     1      -5.528  -0.859  -1.306  1.00  0.00    -0.024 A 
ATOM     19  C   UNL     1      -6.346  -1.346  -0.291  1.00  0.00     0.010 A 
ATOM     20  C   UNL     1      -6.119  -0.203  -2.381  1.00  0.00     0.010 A 
ATOM     21  C   UNL     1      -7.734  -1.140  -0.334  1.00  0.00     0.026 A 
ATOM     22  C   UNL     1      -7.506  -0.006  -2.412  1.00  0.00     0.026 A 
ATOM     23  C   UNL     1      -8.361  -0.457  -1.389  1.00  0.00     0.036 A 
BRANCH  23  24
ATOM     24  N   UNL     1      -9.734  -0.252  -1.444  1.00  0.00    -0.378 N 
ATOM     25  C   UNL     1     -10.655  -0.663  -0.392  1.00  0.00     0.143 C 
ATOM     26  C   UNL     1     -10.306   0.601  -2.483  1.00  0.00     0.143 C 
ENDBRANCH  23  24
ENDBRANCH  17  18
ENDBRANCH   8  10
ENDBRANCH   5   8
ENDBRANCH   3   4
ENDBRANCH   2   3
ENDBRANCH   1   2
BRANCH   1  27
ATOM     27  C   UNL     1       5.972  -0.291  -3.340  1.00  0.00     0.002 C 
BRANCH  27  28
ATOM     28  C   UNL     1       7.015   0.401  -2.460  1.00  0.00     0.021 C 
BRANCH  28  29
ATOM     29  C   UNL     1       7.938  -0.550  -1.707  1.00  0.00     0.116 C 
BRANCH  29  30
ATOM     30  N   UNL     1       8.764  -1.336  -2.608  1.00  0.00    -0.352 N 
ATOM     31  C   UNL     1      10.122  -1.526  -2.601  1.00  0.00     0.251 C 
ATOM     32  H   UNL     1       8.277  -1.800  -3.327  1.00  0.00     0.163 HD
ATOM     33  O   UNL     1      10.673  -2.063  -3.557  1.00  0.00    -0.269 OA
BRANCH  31  34
ATOM     34  C   UNL     1      10.928  -1.070  -1.449  1.00  0.00     0.039 A 
ATOM     35  C   UNL     1      12.155  -0.446  -1.691  1.00  0.00     0.014 A 
ATOM     36  C   UNL     1      10.497  -1.282  -0.136  1.00  0.00     0.014 A 
ATOM     37  C   UNL     1      12.930  -0.002  -0.618  1.00  0.00     0.010 A 
ATOM     38  C   UNL     1      11.233  -0.770   0.929  1.00  0.00     0.010 A 
ATOM     39  C   UNL     1      12.466  -0.141   0.700  1.00  0.00    -0.014 A 
BRANCH  39  40
ATOM     40  C   UNL     1      13.271   0.341   1.850  1.00  0.00     0.031 A 
ATOM     41  C   UNL     1      13.813  -0.638   2.856  1.00  0.00     0.074 A 
ATOM     42  C   UNL     1      13.479   1.661   2.013  1.00  0.00     0.049 A 
ATOM     43  N   UNL     1      14.523  -0.408   3.933  1.00  0.00    -0.248 NA
ATOM     44  C   UNL     1      13.496  -2.058   2.639  1.00  0.00     0.031 C 
ATOM     45  C   UNL     1      12.979   2.715   1.129  1.00  0.00     0.029 A 
ATOM     46  N   UNL     1      14.171   2.342   2.983  1.00  0.00    -0.354 N 
ATOM     47  C   UNL     1      14.716  -1.648   4.529  1.00  0.00     0.074 A 
ATOM     48  C   UNL     1      14.008  -2.619   3.725  1.00  0.00     0.031 C 
ATOM     49  C   UNL     1      13.415   3.905   1.574  1.00  0.00     0.029 A 
ATOM     50  C   UNL     1      14.190   3.702   2.793  1.00  0.00     0.049 A 
ATOM     51  H   UNL     1      14.613   1.897   3.743  1.00  0.00     0.167 HD
ATOM     52  C   UNL     1      15.435  -1.956   5.635  1.00  0.00     0.031 A 
ATOM     53  C   UNL     1      14.771   4.676   3.518  1.00  0.00     0.031 A 
ATOM     54  C   UNL     1      16.153  -0.993   6.426  1.00  0.00     0.049 A 
ATOM     55  C   UNL     1      15.553   4.309   4.748  1.00  0.00     0.074 A 
ATOM     56  C   UNL     1      16.964  -1.212   7.526  1.00  0.00     0.029 A 
ATOM     57  N   UNL     1      16.141   0.376   6.204  1.00  0.00    -0.354 N 
ATOM     58  N   UNL     1      15.790   3.124   5.256  1.00  0.00    -0.248 NA
ATOM     59  C   UNL     1      16.160   5.419   5.497  1.00  0.00     0.031 C 
ATOM     60  C   UNL     1      17.399   0.029   8.002  1.00  0.00     0.029 A 
ATOM     61  C   UNL     1      16.908   1.016   7.162  1.00  0.00     0.049 A 
ATOM     62  H   UNL     1      15.659   0.825   5.472  1.00  0.00     0.167 HD
ATOM     63  C   UNL     1      16.602   3.342   6.362  1.00  0.00     0.074 A 
ATOM     64  C   UNL     1      16.826   4.771   6.442  1.00  0.00     0.031 C 
ATOM     65  C   UNL     1      17.120   2.439   7.230  1.00  0.00     0.031 A 
BRANCH  52  66
ATOM     66  C   UNL     1      15.464  -3.399   6.060  1.00  0.00    -0.014 A 
ATOM     67  C   UNL     1      16.131  -4.374   5.300  1.00  0.00     0.009 A 
ATOM     68  C   UNL     1      14.831  -3.787   7.251  1.00  0.00     0.009 A 
ATOM     69  C   UNL     1      16.124  -5.712   5.700  1.00  0.00     0.001 A 
ATOM     70  C   UNL     1      14.852  -5.120   7.665  1.00  0.00     0.001 A 
ATOM     71  C   UNL     1      15.488  -6.083   6.883  1.00  0.00     0.000 A 
ENDBRANCH  52  66
BRANCH  53  72
ATOM     72  C   UNL     1      14.667   6.093   3.083  1.00  0.00    -0.014 A 
ATOM     73  C   UNL     1      15.794   6.765   2.584  1.00  0.00     0.009 A 
ATOM     74  C   UNL     1      13.448   6.784   3.169  1.00  0.00     0.009 A 
ATOM     75  C   UNL     1      15.710   8.107   2.209  1.00  0.00     0.001 A 
ATOM     76  C   UNL     1      13.361   8.118   2.765  1.00  0.00     0.001 A 
ATOM     77  C   UNL     1      14.493   8.781   2.295  1.00  0.00     0.000 A 
ENDBRANCH  53  72
BRANCH  65  78
ATOM     78  C   UNL     1      18.015   2.967   8.316  1.00  0.00    -0.014 A 
ATOM     79  C   UNL     1      17.503   3.711   9.391  1.00  0.00     0.009 A 
ATOM     80  C   UNL     1      19.391   2.689   8.276  1.00  0.00     0.009 A 
ATOM     81  C   UNL     1      18.358   4.199  10.382  1.00  0.00     0.001 A 
ATOM     82  C   UNL     1      20.238   3.150   9.284  1.00  0.00     0.001 A 
ATOM     83  C   UNL     1      19.723   3.914  10.330  1.00  0.00     0.000 A 
ENDBRANCH  65  78
ENDBRANCH  39  40
ENDBRANCH  31  34
ENDBRANCH  29  30
ENDBRANCH  28  29
ENDBRANCH  27  28
ENDBRANCH   1  27
TORSDOF 16
