REMARK SMILES CC(C)SSC(=O)N1CCC[C@@H]1C(=O)NCCCCCCNC(=O)c1ccc(-c2c3nc(c(-c4ccccc4)c4ccc([nH]4)c(-c4ccccc4)c4nc(c(-c5ccccc5)c5ccc2[nH]5)C=C4)C=C3)cc1
REMARK SMILES IDX 17 1 16 2 15 3 13 4 14 5 12 7 8 8 9 9 10 10 11 11 6 12 7 13
REMARK SMILES IDX 5 14 4 15 2 16 1 17 3 18 18 19 19 20 20 21 21 22 22 23 23 24
REMARK SMILES IDX 24 26 25 27 26 28 72 29 27 30 71 31 28 32 29 33 30 34 65 35
REMARK SMILES IDX 31 36 70 37 64 38 66 39 32 40 69 41 63 42 62 43 33 45 55 46
REMARK SMILES IDX 40 47 54 48 41 49 44 50 53 51 67 52 42 53 43 54 52 56 68 57
REMARK SMILES IDX 45 58 34 59 35 60 39 61 36 62 38 63 37 64 56 65 57 66 61 67
REMARK SMILES IDX 58 68 60 69 59 70 46 71 47 72 51 73 48 74 50 75 49 76
REMARK H PARENT 15 6 22 25 66 44 44 55
REMARK Flexibility Score: inf
ROOT
ATOM      1  C   UNL     1      -3.462  -4.167   5.414  1.00  0.00     0.021 C 
ENDROOT
BRANCH   1   2
ATOM      2  C   UNL     1      -3.426  -3.483   4.051  1.00  0.00     0.116 C 
BRANCH   2   3
ATOM      3  N   UNL     1      -4.568  -3.883   3.262  1.00  0.00    -0.354 N 
ATOM      4  C   UNL     1      -5.643  -3.156   2.849  1.00  0.00     0.242 C 
ATOM      5  O   UNL     1      -6.647  -3.786   2.500  1.00  0.00    -0.273 OA
ATOM      6  H   UNL     1      -4.569  -4.826   2.980  1.00  0.00     0.163 HD
BRANCH   4   7
ATOM      7  C   UNL     1      -5.687  -1.619   2.978  1.00  0.00     0.175 C 
ATOM      8  N   UNL     1      -4.435  -0.920   2.695  1.00  0.00    -0.321 N 
ATOM      9  C   UNL     1      -4.172   0.109   3.686  1.00  0.00     0.121 C 
ATOM     10  C   UNL     1      -4.930  -0.342   4.925  1.00  0.00     0.024 C 
ATOM     11  C   UNL     1      -6.086  -1.189   4.397  1.00  0.00     0.037 C 
BRANCH   8  12
ATOM     12  C   UNL     1      -3.830  -1.099   1.462  1.00  0.00     0.292 C 
ATOM     13  O   UNL     1      -4.320  -1.818   0.593  1.00  0.00    -0.261 OA
BRANCH  12  14
ATOM     14  S   UNL     1      -2.284  -0.274   1.219  1.00  0.00     0.005 SA
BRANCH  14  15
ATOM     15  S   UNL     1      -1.601  -1.054  -0.573  1.00  0.00    -0.081 SA
BRANCH  15  16
ATOM     16  C   UNL     1       0.218  -1.293  -0.397  1.00  0.00     0.052 C 
ATOM     17  C   UNL     1       0.906  -0.008   0.055  1.00  0.00     0.020 C 
ATOM     18  C   UNL     1       0.604  -2.477   0.482  1.00  0.00     0.020 C 
ENDBRANCH  15  16
ENDBRANCH  14  15
ENDBRANCH  12  14
ENDBRANCH   8  12
ENDBRANCH   4   7
ENDBRANCH   2   3
ENDBRANCH   1   2
BRANCH   1  19
ATOM     19  C   UNL     1      -3.047  -5.639   5.356  1.00  0.00     0.002 C 
BRANCH  19  20
ATOM     20  C   UNL     1      -1.644  -5.876   4.785  1.00  0.00     0.002 C 
BRANCH  20  21
ATOM     21  C   UNL     1      -0.533  -5.080   5.474  1.00  0.00     0.021 C 
BRANCH  21  22
ATOM     22  C   UNL     1      -0.398  -5.371   6.963  1.00  0.00     0.116 C 
BRANCH  22  23
ATOM     23  N   UNL     1      -0.053  -6.762   7.204  1.00  0.00    -0.352 N 
ATOM     24  C   UNL     1       0.988  -7.284   7.924  1.00  0.00     0.251 C 
ATOM     25  H   UNL     1      -0.654  -7.423   6.790  1.00  0.00     0.163 HD
ATOM     26  O   UNL     1       1.272  -8.473   7.825  1.00  0.00    -0.269 OA
BRANCH  24  27
ATOM     27  C   UNL     1       1.768  -6.410   8.823  1.00  0.00     0.039 A 
ATOM     28  C   UNL     1       3.153  -6.576   8.889  1.00  0.00     0.014 A 
ATOM     29  C   UNL     1       1.133  -5.459   9.626  1.00  0.00     0.014 A 
ATOM     30  C   UNL     1       3.902  -5.775   9.751  1.00  0.00     0.010 A 
ATOM     31  C   UNL     1       1.889  -4.601  10.415  1.00  0.00     0.010 A 
ATOM     32  C   UNL     1       3.277  -4.774  10.512  1.00  0.00    -0.014 A 
BRANCH  32  33
ATOM     33  C   UNL     1       4.055  -3.939  11.458  1.00  0.00     0.031 A 
ATOM     34  C   UNL     1       3.779  -4.021  12.935  1.00  0.00     0.074 A 
ATOM     35  C   UNL     1       4.982  -3.084  10.990  1.00  0.00     0.049 A 
ATOM     36  N   UNL     1       4.346  -3.369  13.919  1.00  0.00    -0.248 NA
ATOM     37  C   UNL     1       2.702  -4.930  13.361  1.00  0.00     0.031 C 
ATOM     38  C   UNL     1       5.310  -2.879   9.578  1.00  0.00     0.029 A 
ATOM     39  N   UNL     1       5.820  -2.227  11.655  1.00  0.00    -0.354 N 
ATOM     40  C   UNL     1       3.681  -3.775  15.071  1.00  0.00     0.074 A 
ATOM     41  C   UNL     1       2.629  -4.676  14.658  1.00  0.00     0.031 C 
ATOM     42  C   UNL     1       6.304  -1.982   9.485  1.00  0.00     0.029 A 
ATOM     43  C   UNL     1       6.657  -1.522  10.825  1.00  0.00     0.049 A 
ATOM     44  H   UNL     1       5.822  -2.126  12.635  1.00  0.00     0.167 HD
ATOM     45  C   UNL     1       3.937  -3.447  16.360  1.00  0.00     0.031 A 
ATOM     46  C   UNL     1       7.604  -0.610  11.112  1.00  0.00     0.031 A 
ATOM     47  C   UNL     1       4.990  -2.557  16.768  1.00  0.00     0.049 A 
ATOM     48  C   UNL     1       7.877  -0.265  12.549  1.00  0.00     0.074 A 
ATOM     49  C   UNL     1       5.374  -2.205  18.050  1.00  0.00     0.029 A 
ATOM     50  N   UNL     1       5.825  -1.873  15.897  1.00  0.00    -0.354 N 
ATOM     51  N   UNL     1       7.293  -0.715  13.633  1.00  0.00    -0.248 NA
ATOM     52  C   UNL     1       8.958   0.697  12.801  1.00  0.00     0.031 C 
ATOM     53  C   UNL     1       6.402  -1.260  17.952  1.00  0.00     0.029 A 
ATOM     54  C   UNL     1       6.706  -1.079  16.612  1.00  0.00     0.049 A 
ATOM     55  H   UNL     1       5.795  -1.941  14.915  1.00  0.00     0.167 HD
ATOM     56  C   UNL     1       7.956  -0.117  14.698  1.00  0.00     0.074 A 
ATOM     57  C   UNL     1       8.996   0.715  14.126  1.00  0.00     0.031 C 
ATOM     58  C   UNL     1       7.730  -0.250  16.028  1.00  0.00     0.031 A 
BRANCH  45  59
ATOM     59  C   UNL     1       3.041  -4.045  17.413  1.00  0.00    -0.014 A 
ATOM     60  C   UNL     1       3.038  -5.425  17.679  1.00  0.00     0.009 A 
ATOM     61  C   UNL     1       2.187  -3.213  18.153  1.00  0.00     0.009 A 
ATOM     62  C   UNL     1       2.160  -5.964  18.621  1.00  0.00     0.001 A 
ATOM     63  C   UNL     1       1.336  -3.750  19.121  1.00  0.00     0.001 A 
ATOM     64  C   UNL     1       1.312  -5.126  19.344  1.00  0.00     0.000 A 
ENDBRANCH  45  59
BRANCH  46  65
ATOM     65  C   UNL     1       8.385   0.013  10.011  1.00  0.00    -0.014 A 
ATOM     66  C   UNL     1       9.737  -0.309   9.823  1.00  0.00     0.009 A 
ATOM     67  C   UNL     1       7.775   0.922   9.132  1.00  0.00     0.009 A 
ATOM     68  C   UNL     1      10.469   0.285   8.792  1.00  0.00     0.001 A 
ATOM     69  C   UNL     1       8.501   1.490   8.084  1.00  0.00     0.001 A 
ATOM     70  C   UNL     1       9.849   1.178   7.920  1.00  0.00     0.000 A 
ENDBRANCH  46  65
BRANCH  58  71
ATOM     71  C   UNL     1       8.655   0.487  16.959  1.00  0.00    -0.014 A 
ATOM     72  C   UNL     1       8.632   1.886  17.066  1.00  0.00     0.009 A 
ATOM     73  C   UNL     1       9.547  -0.241  17.762  1.00  0.00     0.009 A 
ATOM     74  C   UNL     1       9.516   2.542  17.926  1.00  0.00     0.001 A 
ATOM     75  C   UNL     1      10.404   0.415  18.647  1.00  0.00     0.001 A 
ATOM     76  C   UNL     1      10.397   1.807  18.718  1.00  0.00     0.000 A 
ENDBRANCH  58  71
ENDBRANCH  32  33
ENDBRANCH  24  27
ENDBRANCH  22  23
ENDBRANCH  21  22
ENDBRANCH  20  21
ENDBRANCH  19  20
ENDBRANCH   1  19
TORSDOF 17
