REMARK SMILES C[C@H]1CC[C@@](Nc2ccc(C(N)=O)nn2)(C(=O)NCCCCCCNC(=O)c2ccc(-c3c4nc(c(-c5ccccc5)c5ccc([nH]5)c(-c5ccccc5)c5nc(c(-c6ccccc6)c6ccc3[nH]6)C=C5)C=C4)cc2)CC1
REMARK SMILES IDX 21 1 20 2 19 3 18 4 16 5 17 6 5 8 1 9 2 10 77 11 3 12 76 13
REMARK SMILES IDX 4 14 6 15 7 17 8 18 15 19 9 20 14 21 10 22 11 23 12 24 13 25
REMARK SMILES IDX 22 28 23 29 24 30 25 31 26 32 27 34 28 35 29 36 75 37 30 38
REMARK SMILES IDX 74 39 31 40 32 41 33 42 68 43 34 44 73 45 67 46 69 47 35 48
REMARK SMILES IDX 72 49 66 50 65 51 36 53 58 54 43 55 57 56 44 57 47 58 56 59
REMARK SMILES IDX 70 60 45 61 46 62 55 64 71 65 48 66 37 67 38 68 42 69 39 70
REMARK SMILES IDX 41 71 40 72 59 73 60 74 64 75 61 76 63 77 62 78 49 79 50 80
REMARK SMILES IDX 54 81 51 82 53 83 52 84
REMARK H PARENT 18 7 6 16 12 26 12 27 25 33 69 52 47 63
REMARK Flexibility Score: inf
ROOT
ATOM      1  C   UNL     1      -2.582   3.799  -3.981  1.00  0.00     0.002 C 
ENDROOT
BRANCH   1   2
ATOM      2  C   UNL     1      -2.404   3.572  -2.475  1.00  0.00     0.021 C 
BRANCH   2   3
ATOM      3  C   UNL     1      -3.056   2.287  -1.985  1.00  0.00     0.116 C 
BRANCH   3   4
ATOM      4  N   UNL     1      -2.333   1.133  -2.479  1.00  0.00    -0.354 N 
ATOM      5  C   UNL     1      -1.834   0.044  -1.833  1.00  0.00     0.245 C 
ATOM      6  O   UNL     1      -1.378  -0.845  -2.561  1.00  0.00    -0.272 OA
ATOM      7  H   UNL     1      -2.176   1.138  -3.451  1.00  0.00     0.163 HD
BRANCH   5   8
ATOM      8  C   UNL     1      -1.887  -0.101  -0.269  1.00  0.00     0.118 C 
ATOM      9  C   UNL     1       2.507  -0.146  -0.037  1.00  0.00     0.007 C 
ATOM     10  C   UNL     1       1.057  -0.183   0.446  1.00  0.00    -0.014 C 
ATOM     11  C   UNL     1       0.331  -1.422  -0.095  1.00  0.00     0.006 C 
ATOM     12  C   UNL     1       0.344   1.109   0.050  1.00  0.00     0.006 C 
ATOM     13  C   UNL     1      -1.184  -1.413   0.169  1.00  0.00     0.039 C 
ATOM     14  C   UNL     1      -1.131   1.060   0.431  1.00  0.00     0.039 C 
BRANCH   8  15
ATOM     15  N   UNL     1      -3.286  -0.135   0.251  1.00  0.00    -0.354 N 
ATOM     16  H   UNL     1      -3.426  -0.032   1.220  1.00  0.00     0.163 HD
BRANCH  15  17
ATOM     17  C   UNL     1      -4.397  -0.304  -0.555  1.00  0.00     0.149 A 
ATOM     18  C   UNL     1      -4.489  -1.266  -1.550  1.00  0.00     0.051 A 
ATOM     19  N   UNL     1      -5.382   0.614  -0.417  1.00  0.00    -0.132 NA
ATOM     20  C   UNL     1      -5.526  -1.202  -2.480  1.00  0.00     0.040 A 
ATOM     21  N   UNL     1      -6.404   0.702  -1.336  1.00  0.00    -0.143 NA
ATOM     22  C   UNL     1      -6.446  -0.180  -2.361  1.00  0.00     0.150 A 
BRANCH  22  23
ATOM     23  C   UNL     1      -7.480   0.050  -3.408  1.00  0.00     0.269 C 
ATOM     24  N   UNL     1      -8.255   1.170  -3.267  1.00  0.00    -0.364 N 
ATOM     25  O   UNL     1      -7.615  -0.701  -4.369  1.00  0.00    -0.268 OA
ATOM     26  H   UNL     1      -8.131   1.760  -2.489  1.00  0.00     0.160 HD
ATOM     27  H   UNL     1      -8.937   1.385  -3.944  1.00  0.00     0.160 HD
ENDBRANCH  22  23
ENDBRANCH  15  17
ENDBRANCH   8  15
ENDBRANCH   5   8
ENDBRANCH   3   4
ENDBRANCH   2   3
ENDBRANCH   1   2
BRANCH   1  28
ATOM     28  C   UNL     1      -4.040   3.813  -4.457  1.00  0.00     0.002 C 
BRANCH  28  29
ATOM     29  C   UNL     1      -4.947   4.803  -3.722  1.00  0.00     0.021 C 
BRANCH  29  30
ATOM     30  C   UNL     1      -4.459   6.248  -3.755  1.00  0.00     0.116 C 
BRANCH  30  31
ATOM     31  N   UNL     1      -4.309   6.738  -5.114  1.00  0.00    -0.352 N 
ATOM     32  C   UNL     1      -4.744   7.907  -5.677  1.00  0.00     0.251 C 
ATOM     33  H   UNL     1      -3.820   6.138  -5.722  1.00  0.00     0.163 HD
ATOM     34  O   UNL     1      -4.691   8.054  -6.895  1.00  0.00    -0.269 OA
BRANCH  32  35
ATOM     35  C   UNL     1      -5.292   8.986  -4.830  1.00  0.00     0.039 A 
ATOM     36  C   UNL     1      -6.408   9.688  -5.293  1.00  0.00     0.014 A 
ATOM     37  C   UNL     1      -4.697   9.338  -3.614  1.00  0.00     0.014 A 
ATOM     38  C   UNL     1      -6.947  10.715  -4.521  1.00  0.00     0.010 A 
ATOM     39  C   UNL     1      -5.281  10.314  -2.810  1.00  0.00     0.010 A 
ATOM     40  C   UNL     1      -6.404  11.020  -3.261  1.00  0.00    -0.014 A 
BRANCH  40  41
ATOM     41  C   UNL     1      -7.027  12.071  -2.419  1.00  0.00     0.031 A 
ATOM     42  C   UNL     1      -6.291  13.342  -2.102  1.00  0.00     0.074 A 
ATOM     43  C   UNL     1      -8.268  11.871  -1.936  1.00  0.00     0.049 A 
ATOM     44  N   UNL     1      -6.716  14.399  -1.453  1.00  0.00    -0.248 NA
ATOM     45  C   UNL     1      -4.893  13.436  -2.550  1.00  0.00     0.031 C 
ATOM     46  C   UNL     1      -9.064  10.655  -2.126  1.00  0.00     0.029 A 
ATOM     47  N   UNL     1      -9.085  12.691  -1.200  1.00  0.00    -0.354 N 
ATOM     48  C   UNL     1      -5.640  15.277  -1.415  1.00  0.00     0.074 A 
ATOM     49  C   UNL     1      -4.527  14.609  -2.053  1.00  0.00     0.031 C 
ATOM     50  C   UNL     1     -10.273  10.831  -1.569  1.00  0.00     0.029 A 
ATOM     51  C   UNL     1     -10.325  12.154  -0.957  1.00  0.00     0.049 A 
ATOM     52  H   UNL     1      -8.809  13.580  -0.878  1.00  0.00     0.167 HD
ATOM     53  C   UNL     1      -5.589  16.535  -0.914  1.00  0.00     0.031 A 
ATOM     54  C   UNL     1     -11.393  12.675  -0.325  1.00  0.00     0.031 A 
ATOM     55  C   UNL     1      -6.698  17.198  -0.279  1.00  0.00     0.049 A 
ATOM     56  C   UNL     1     -11.312  14.073   0.217  1.00  0.00     0.074 A 
ATOM     57  C   UNL     1      -6.764  18.491   0.212  1.00  0.00     0.029 A 
ATOM     58  N   UNL     1      -7.933  16.617  -0.040  1.00  0.00    -0.354 N 
ATOM     59  N   UNL     1     -10.315  14.923   0.168  1.00  0.00    -0.248 NA
ATOM     60  C   UNL     1     -12.514  14.589   0.885  1.00  0.00     0.031 C 
ATOM     61  C   UNL     1      -8.022  18.673   0.796  1.00  0.00     0.029 A 
ATOM     62  C   UNL     1      -8.760  17.515   0.616  1.00  0.00     0.049 A 
ATOM     63  H   UNL     1      -8.186  15.701  -0.298  1.00  0.00     0.167 HD
ATOM     64  C   UNL     1     -10.775  16.080   0.782  1.00  0.00     0.074 A 
ATOM     65  C   UNL     1     -12.149  15.831   1.167  1.00  0.00     0.031 C 
ATOM     66  C   UNL     1     -10.118  17.244   1.010  1.00  0.00     0.031 A 
BRANCH  53  67
ATOM     67  C   UNL     1      -4.284  17.274  -1.031  1.00  0.00    -0.014 A 
ATOM     68  C   UNL     1      -3.804  17.711  -2.276  1.00  0.00     0.009 A 
ATOM     69  C   UNL     1      -3.541  17.569   0.122  1.00  0.00     0.009 A 
ATOM     70  C   UNL     1      -2.589  18.395  -2.368  1.00  0.00     0.001 A 
ATOM     71  C   UNL     1      -2.341  18.279   0.031  1.00  0.00     0.001 A 
ATOM     72  C   UNL     1      -1.862  18.682  -1.214  1.00  0.00     0.000 A 
ENDBRANCH  53  67
BRANCH  54  73
ATOM     73  C   UNL     1     -12.643  11.880  -0.199  1.00  0.00    -0.014 A 
ATOM     74  C   UNL     1     -13.792  12.240  -0.918  1.00  0.00     0.009 A 
ATOM     75  C   UNL     1     -12.693  10.761   0.646  1.00  0.00     0.009 A 
ATOM     76  C   UNL     1     -14.975  11.512  -0.773  1.00  0.00     0.001 A 
ATOM     77  C   UNL     1     -13.868  10.016   0.766  1.00  0.00     0.001 A 
ATOM     78  C   UNL     1     -15.011  10.398   0.065  1.00  0.00     0.000 A 
ENDBRANCH  54  73
BRANCH  66  79
ATOM     79  C   UNL     1     -10.892  18.335   1.697  1.00  0.00    -0.014 A 
ATOM     80  C   UNL     1     -11.253  18.231   3.050  1.00  0.00     0.009 A 
ATOM     81  C   UNL     1     -11.263  19.484   0.981  1.00  0.00     0.009 A 
ATOM     82  C   UNL     1     -12.011  19.234   3.658  1.00  0.00     0.001 A 
ATOM     83  C   UNL     1     -11.993  20.499   1.601  1.00  0.00     0.001 A 
ATOM     84  C   UNL     1     -12.378  20.367   2.934  1.00  0.00     0.000 A 
ENDBRANCH  66  79
ENDBRANCH  40  41
ENDBRANCH  32  35
ENDBRANCH  30  31
ENDBRANCH  29  30
ENDBRANCH  28  29
ENDBRANCH   1  28
TORSDOF 16
