REMARK SMILES C[C@@](NC(=O)COc1ccccc1C#N)(C(=O)NCCCCCCNC(=O)c1ccc(-c2c3nc(c(-c4ccccc4)c4ccc([nH]4)c(-c4ccccc4)c4nc(c(-c5ccccc5)c5ccc2[nH]5)C=C4)C=C3)cc1)C1CC1
REMARK SMILES IDX 20 1 19 2 18 3 16 4 17 5 2 7 1 8 3 9 4 10 5 12 6 13 7 14
REMARK SMILES IDX 8 15 9 16 13 17 10 18 12 19 11 20 14 21 15 22 76 23 77 24
REMARK SMILES IDX 78 25 21 26 22 27 23 28 24 29 25 30 26 31 27 33 28 34 29 35
REMARK SMILES IDX 75 36 30 37 74 38 31 39 32 40 33 41 68 42 34 43 73 44 67 45
REMARK SMILES IDX 69 46 35 47 72 48 66 49 65 50 36 52 58 53 43 54 57 55 44 56
REMARK SMILES IDX 47 57 56 58 70 59 45 60 46 61 55 63 71 64 48 65 37 66 38 67
REMARK SMILES IDX 42 68 39 69 41 70 40 71 59 72 60 73 64 74 61 75 63 76 62 77
REMARK SMILES IDX 49 78 50 79 54 80 51 81 53 82 52 83
REMARK H PARENT 18 6 3 11 25 32 69 51 47 62
REMARK Flexibility Score: inf
ROOT
ATOM      1  C   UNL     1      -2.379   0.652  -2.490  1.00  0.00     0.021 C 
ENDROOT
BRANCH   1   2
ATOM      2  C   UNL     1      -1.684   0.973  -1.163  1.00  0.00     0.116 C 
BRANCH   2   3
ATOM      3  N   UNL     1      -1.804   0.016  -0.087  1.00  0.00    -0.354 N 
ATOM      4  C   UNL     1      -1.084   0.010   1.084  1.00  0.00     0.245 C 
ATOM      5  O   UNL     1      -1.755  -0.207   2.103  1.00  0.00    -0.272 OA
ATOM      6  H   UNL     1      -2.467  -0.703  -0.204  1.00  0.00     0.163 HD
BRANCH   4   7
ATOM      7  C   UNL     1       0.479   0.323   1.202  1.00  0.00     0.119 C 
ATOM      8  C   UNL     1       1.247  -0.241  -0.012  1.00  0.00     0.046 C 
BRANCH   7   9
ATOM      9  N   UNL     1       0.873   1.752   1.299  1.00  0.00    -0.339 N 
ATOM     10  C   UNL     1       0.293   2.729   2.064  1.00  0.00     0.258 C 
ATOM     11  H   UNL     1       1.641   2.030   0.750  1.00  0.00     0.164 HD
ATOM     12  O   UNL     1       0.938   3.228   2.986  1.00  0.00    -0.271 OA
BRANCH  10  13
ATOM     13  C   UNL     1      -1.009   3.350   1.572  1.00  0.00     0.329 C 
BRANCH  13  14
ATOM     14  O   UNL     1      -0.773   4.561   0.827  1.00  0.00    -0.482 OA
BRANCH  14  15
ATOM     15  C   UNL     1      -0.314   4.387  -0.452  1.00  0.00     0.137 A 
ATOM     16  C   UNL     1      -1.209   4.041  -1.453  1.00  0.00     0.048 A 
ATOM     17  C   UNL     1       1.000   4.692  -0.814  1.00  0.00     0.094 A 
ATOM     18  C   UNL     1      -0.777   3.862  -2.775  1.00  0.00     0.004 A 
ATOM     19  C   UNL     1       1.398   4.614  -2.164  1.00  0.00     0.023 A 
ATOM     20  C   UNL     1       0.517   4.176  -3.143  1.00  0.00     0.002 A 
BRANCH  17  21
ATOM     21  C   UNL     1       1.983   5.052   0.153  1.00  0.00     0.103 C 
ATOM     22  N   UNL     1       2.857   5.304   0.882  1.00  0.00    -0.192 NA
ENDBRANCH  17  21
ENDBRANCH  14  15
ENDBRANCH  13  14
ENDBRANCH  10  13
ENDBRANCH   7   9
BRANCH   7  23
ATOM     23  C   UNL     1       0.985  -0.346   2.512  1.00  0.00     0.024 C 
ATOM     24  C   UNL     1       1.071  -1.854   2.639  1.00  0.00     0.007 C 
ATOM     25  C   UNL     1       2.328  -1.035   2.704  1.00  0.00     0.007 C 
ENDBRANCH   7  23
ENDBRANCH   4   7
ENDBRANCH   2   3
ENDBRANCH   1   2
BRANCH   1  26
ATOM     26  C   UNL     1      -3.865   1.040  -2.671  1.00  0.00     0.002 C 
BRANCH  26  27
ATOM     27  C   UNL     1      -4.429   2.466  -2.469  1.00  0.00     0.002 C 
BRANCH  27  28
ATOM     28  C   UNL     1      -4.122   3.660  -3.393  1.00  0.00     0.021 C 
BRANCH  28  29
ATOM     29  C   UNL     1      -3.775   3.395  -4.852  1.00  0.00     0.116 C 
BRANCH  29  30
ATOM     30  N   UNL     1      -4.966   3.433  -5.676  1.00  0.00    -0.352 N 
ATOM     31  C   UNL     1      -5.236   4.291  -6.717  1.00  0.00     0.251 C 
ATOM     32  H   UNL     1      -5.662   2.769  -5.467  1.00  0.00     0.163 HD
ATOM     33  O   UNL     1      -6.395   4.498  -7.061  1.00  0.00    -0.269 OA
BRANCH  31  34
ATOM     34  C   UNL     1      -4.122   4.953  -7.439  1.00  0.00     0.039 A 
ATOM     35  C   UNL     1      -4.256   6.286  -7.838  1.00  0.00     0.014 A 
ATOM     36  C   UNL     1      -2.974   4.233  -7.785  1.00  0.00     0.014 A 
ATOM     37  C   UNL     1      -3.237   6.898  -8.575  1.00  0.00     0.010 A 
ATOM     38  C   UNL     1      -1.933   4.862  -8.466  1.00  0.00     0.010 A 
ATOM     39  C   UNL     1      -2.064   6.193  -8.892  1.00  0.00    -0.014 A 
BRANCH  39  40
ATOM     40  C   UNL     1      -0.991   6.814  -9.713  1.00  0.00     0.031 A 
ATOM     41  C   UNL     1      -0.670   6.253 -11.076  1.00  0.00     0.074 A 
ATOM     42  C   UNL     1      -0.282   7.853  -9.227  1.00  0.00     0.049 A 
ATOM     43  N   UNL     1       0.260   6.619 -11.922  1.00  0.00    -0.248 NA
ATOM     44  C   UNL     1      -1.487   5.119 -11.543  1.00  0.00     0.031 C 
ATOM     45  C   UNL     1      -0.487   8.480  -7.920  1.00  0.00     0.029 A 
ATOM     46  N   UNL     1       0.756   8.564  -9.776  1.00  0.00    -0.354 N 
ATOM     47  C   UNL     1       0.153   5.751 -13.003  1.00  0.00     0.074 A 
ATOM     48  C   UNL     1      -0.901   4.813 -12.692  1.00  0.00     0.031 C 
ATOM     49  C   UNL     1       0.378   9.498  -7.780  1.00  0.00     0.029 A 
ATOM     50  C   UNL     1       1.232   9.565  -8.962  1.00  0.00     0.049 A 
ATOM     51  H   UNL     1       1.125   8.376 -10.669  1.00  0.00     0.167 HD
ATOM     52  C   UNL     1       0.861   5.744 -14.157  1.00  0.00     0.031 A 
ATOM     53  C   UNL     1       2.253  10.427  -9.141  1.00  0.00     0.031 A 
ATOM     54  C   UNL     1       1.897   6.690 -14.473  1.00  0.00     0.049 A 
ATOM     55  C   UNL     1       3.049  10.363 -10.419  1.00  0.00     0.074 A 
ATOM     56  C   UNL     1       2.627   6.803 -15.643  1.00  0.00     0.029 A 
ATOM     57  N   UNL     1       2.354   7.677 -13.616  1.00  0.00    -0.354 N 
ATOM     58  N   UNL     1       2.881   9.584 -11.461  1.00  0.00    -0.248 NA
ATOM     59  C   UNL     1       4.171  11.304 -10.549  1.00  0.00     0.031 C 
ATOM     60  C   UNL     1       3.583   7.805 -15.464  1.00  0.00     0.029 A 
ATOM     61  C   UNL     1       3.387   8.375 -14.216  1.00  0.00     0.049 A 
ATOM     62  H   UNL     1       1.998   7.855 -12.716  1.00  0.00     0.167 HD
ATOM     63  C   UNL     1       3.845   9.974 -12.383  1.00  0.00     0.074 A 
ATOM     64  C   UNL     1       4.582  11.066 -11.786  1.00  0.00     0.031 C 
ATOM     65  C   UNL     1       4.098   9.474 -13.617  1.00  0.00     0.031 A 
BRANCH  52  66
ATOM     66  C   UNL     1       0.566   4.669 -15.168  1.00  0.00    -0.014 A 
ATOM     67  C   UNL     1      -0.630   4.659 -15.903  1.00  0.00     0.009 A 
ATOM     68  C   UNL     1       1.545   3.703 -15.453  1.00  0.00     0.009 A 
ATOM     69  C   UNL     1      -0.846   3.692 -16.887  1.00  0.00     0.001 A 
ATOM     70  C   UNL     1       1.340   2.758 -16.459  1.00  0.00     0.001 A 
ATOM     71  C   UNL     1       0.142   2.749 -17.171  1.00  0.00     0.000 A 
ENDBRANCH  52  66
BRANCH  53  72
ATOM     72  C   UNL     1       2.610  11.418  -8.086  1.00  0.00    -0.014 A 
ATOM     73  C   UNL     1       2.516  12.797  -8.334  1.00  0.00     0.009 A 
ATOM     74  C   UNL     1       3.115  10.990  -6.848  1.00  0.00     0.009 A 
ATOM     75  C   UNL     1       2.973  13.722  -7.392  1.00  0.00     0.001 A 
ATOM     76  C   UNL     1       3.532  11.918  -5.890  1.00  0.00     0.001 A 
ATOM     77  C   UNL     1       3.480  13.281  -6.171  1.00  0.00     0.000 A 
ENDBRANCH  53  72
BRANCH  65  78
ATOM     78  C   UNL     1       5.169  10.140 -14.436  1.00  0.00    -0.014 A 
ATOM     79  C   UNL     1       6.527  10.034 -14.102  1.00  0.00     0.009 A 
ATOM     80  C   UNL     1       4.808  10.836 -15.602  1.00  0.00     0.009 A 
ATOM     81  C   UNL     1       7.498  10.641 -14.901  1.00  0.00     0.001 A 
ATOM     82  C   UNL     1       5.782  11.407 -16.419  1.00  0.00     0.001 A 
ATOM     83  C   UNL     1       7.126  11.319 -16.062  1.00  0.00     0.000 A 
ENDBRANCH  65  78
ENDBRANCH  39  40
ENDBRANCH  31  34
ENDBRANCH  29  30
ENDBRANCH  28  29
ENDBRANCH  27  28
ENDBRANCH  26  27
ENDBRANCH   1  26
TORSDOF 19
