REMARK SMILES O=C(NCCCCCCNC(=O)c1cc(-c2ccoc2)n[nH]1)c1ccc(-c2c3nc(c(-c4ccccc4)c4ccc([nH]4)c(-c4ccccc4)c4nc(c(-c5ccccc5)c5ccc2[nH]5)C=C4)C=C3)cc1
REMARK SMILES IDX 6 1 5 2 4 3 3 4 1 5 2 6 23 8 24 9 70 10 25 11 69 12 26 13
REMARK SMILES IDX 27 14 28 15 63 16 29 17 68 18 62 19 64 20 30 21 67 22 61 23
REMARK SMILES IDX 60 24 31 26 53 27 38 28 52 29 39 30 42 31 51 32 65 33 40 34
REMARK SMILES IDX 41 35 50 37 66 38 43 39 32 40 33 41 37 42 34 43 36 44 35 45
REMARK SMILES IDX 54 46 55 47 59 48 56 49 58 50 57 51 44 52 45 53 49 54 46 55
REMARK SMILES IDX 48 56 47 57 7 58 8 59 9 60 10 61 11 62 12 64 13 65 14 66
REMARK SMILES IDX 22 67 15 68 21 69 16 71 17 72 20 73 18 74 19 75
REMARK H PARENT 3 7 64 25 42 36 10 63 22 70
REMARK Flexibility Score: inf
ROOT
ATOM      1  C   UNL     1       4.022   1.659   3.722  1.00  0.00     0.002 C 
ENDROOT
BRANCH   1   2
ATOM      2  C   UNL     1       4.469   1.846   2.269  1.00  0.00     0.021 C 
BRANCH   2   3
ATOM      3  C   UNL     1       4.319   0.622   1.369  1.00  0.00     0.116 C 
BRANCH   3   4
ATOM      4  N   UNL     1       2.934   0.233   1.176  1.00  0.00    -0.352 N 
ATOM      5  O   UNL     1       1.056  -0.266   0.040  1.00  0.00    -0.269 OA
ATOM      6  C   UNL     1       2.272  -0.091   0.019  1.00  0.00     0.251 C 
ATOM      7  H   UNL     1       2.391   0.197   1.996  1.00  0.00     0.163 HD
BRANCH   6   8
ATOM      8  C   UNL     1       3.004  -0.211  -1.264  1.00  0.00     0.039 A 
ATOM      9  C   UNL     1       4.209  -0.913  -1.354  1.00  0.00     0.014 A 
ATOM     10  C   UNL     1       2.435   0.348  -2.413  1.00  0.00     0.014 A 
ATOM     11  C   UNL     1       4.888  -0.975  -2.571  1.00  0.00     0.010 A 
ATOM     12  C   UNL     1       3.092   0.246  -3.642  1.00  0.00     0.010 A 
ATOM     13  C   UNL     1       4.334  -0.400  -3.727  1.00  0.00    -0.014 A 
BRANCH  13  14
ATOM     14  C   UNL     1       5.039  -0.529  -5.025  1.00  0.00     0.031 A 
ATOM     15  C   UNL     1       5.705   0.654  -5.666  1.00  0.00     0.074 A 
ATOM     16  C   UNL     1       5.098  -1.735  -5.620  1.00  0.00     0.049 A 
ATOM     17  N   UNL     1       6.398   0.705  -6.777  1.00  0.00    -0.248 NA
ATOM     18  C   UNL     1       5.577   1.947  -4.976  1.00  0.00     0.031 C 
ATOM     19  C   UNL     1       4.486  -2.962  -5.104  1.00  0.00     0.029 A 
ATOM     20  N   UNL     1       5.716  -2.130  -6.778  1.00  0.00    -0.354 N 
ATOM     21  C   UNL     1       6.779   2.032  -6.926  1.00  0.00     0.074 A 
ATOM     22  C   UNL     1       6.228   2.758  -5.800  1.00  0.00     0.031 C 
ATOM     23  C   UNL     1       4.797  -3.981  -5.920  1.00  0.00     0.029 A 
ATOM     24  C   UNL     1       5.598  -3.474  -7.029  1.00  0.00     0.049 A 
ATOM     25  H   UNL     1       6.199  -1.510  -7.371  1.00  0.00     0.167 HD
ATOM     26  C   UNL     1       7.523   2.595  -7.907  1.00  0.00     0.031 A 
ATOM     27  C   UNL     1       6.083  -4.220  -8.039  1.00  0.00     0.031 A 
ATOM     28  C   UNL     1       8.078   1.882  -9.027  1.00  0.00     0.049 A 
ATOM     29  C   UNL     1       6.892  -3.569  -9.120  1.00  0.00     0.074 A 
ATOM     30  C   UNL     1       8.865   2.371 -10.057  1.00  0.00     0.029 A 
ATOM     31  N   UNL     1       7.903   0.529  -9.265  1.00  0.00    -0.354 N 
ATOM     32  N   UNL     1       7.258  -2.316  -9.233  1.00  0.00    -0.248 NA
ATOM     33  C   UNL     1       7.350  -4.437 -10.214  1.00  0.00     0.031 C 
ATOM     34  C   UNL     1       9.145   1.315 -10.933  1.00  0.00     0.029 A 
ATOM     35  C   UNL     1       8.554   0.167 -10.432  1.00  0.00     0.049 A 
ATOM     36  H   UNL     1       7.392  -0.084  -8.689  1.00  0.00     0.167 HD
ATOM     37  C   UNL     1       7.992  -2.244 -10.408  1.00  0.00     0.074 A 
ATOM     38  C   UNL     1       8.034  -3.582 -10.963  1.00  0.00     0.031 C 
ATOM     39  C   UNL     1       8.576  -1.163 -10.977  1.00  0.00     0.031 A 
BRANCH  26  40
ATOM     40  C   UNL     1       7.770   4.071  -7.819  1.00  0.00    -0.014 A 
ATOM     41  C   UNL     1       8.753   4.586  -6.960  1.00  0.00     0.009 A 
ATOM     42  C   UNL     1       7.043   4.952  -8.633  1.00  0.00     0.009 A 
ATOM     43  C   UNL     1       8.988   5.961  -6.903  1.00  0.00     0.001 A 
ATOM     44  C   UNL     1       7.291   6.325  -8.584  1.00  0.00     0.001 A 
ATOM     45  C   UNL     1       8.259   6.829  -7.716  1.00  0.00     0.000 A 
ENDBRANCH  26  40
BRANCH  27  46
ATOM     46  C   UNL     1       5.819  -5.678  -8.062  1.00  0.00    -0.014 A 
ATOM     47  C   UNL     1       6.822  -6.582  -7.685  1.00  0.00     0.009 A 
ATOM     48  C   UNL     1       4.559  -6.167  -8.437  1.00  0.00     0.009 A 
ATOM     49  C   UNL     1       6.569  -7.955  -7.690  1.00  0.00     0.001 A 
ATOM     50  C   UNL     1       4.305  -7.539  -8.425  1.00  0.00     0.001 A 
ATOM     51  C   UNL     1       5.310  -8.432  -8.056  1.00  0.00     0.000 A 
ENDBRANCH  27  46
BRANCH  39  52
ATOM     52  C   UNL     1       9.309  -1.390 -12.264  1.00  0.00    -0.014 A 
ATOM     53  C   UNL     1       8.611  -1.490 -13.477  1.00  0.00     0.009 A 
ATOM     54  C   UNL     1      10.708  -1.485 -12.267  1.00  0.00     0.009 A 
ATOM     55  C   UNL     1       9.303  -1.704 -14.670  1.00  0.00     0.001 A 
ATOM     56  C   UNL     1      11.397  -1.686 -13.464  1.00  0.00     0.001 A 
ATOM     57  C   UNL     1      10.694  -1.801 -14.663  1.00  0.00     0.000 A 
ENDBRANCH  39  52
ENDBRANCH  13  14
ENDBRANCH   6   8
ENDBRANCH   3   4
ENDBRANCH   2   3
ENDBRANCH   1   2
BRANCH   1  58
ATOM     58  C   UNL     1       4.690   0.514   4.489  1.00  0.00     0.002 C 
BRANCH  58  59
ATOM     59  C   UNL     1       6.222   0.484   4.448  1.00  0.00     0.021 C 
BRANCH  59  60
ATOM     60  C   UNL     1       6.915   1.758   4.933  1.00  0.00     0.116 C 
BRANCH  60  61
ATOM     61  N   UNL     1       6.731   1.963   6.359  1.00  0.00    -0.351 N 
ATOM     62  C   UNL     1       7.665   1.935   7.362  1.00  0.00     0.269 C 
ATOM     63  H   UNL     1       5.807   2.147   6.645  1.00  0.00     0.163 HD
ATOM     64  O   UNL     1       7.277   1.817   8.523  1.00  0.00    -0.268 OA
BRANCH  62  65
ATOM     65  C   UNL     1       9.056   2.002   7.027  1.00  0.00     0.123 A 
ATOM     66  C   UNL     1       9.767   2.775   6.128  1.00  0.00     0.064 A 
ATOM     67  N   UNL     1      10.005   1.264   7.681  1.00  0.00    -0.272 N 
ATOM     68  C   UNL     1      11.100   2.328   6.230  1.00  0.00     0.096 A 
ATOM     69  N   UNL     1      11.237   1.371   7.153  1.00  0.00    -0.175 NA
ATOM     70  H   UNL     1       9.803   0.705   8.467  1.00  0.00     0.190 HD
BRANCH  68  71
ATOM     71  C   UNL     1      12.199   2.802   5.403  1.00  0.00     0.040 A 
ATOM     72  C   UNL     1      12.356   4.111   4.884  1.00  0.00     0.052 A 
ATOM     73  C   UNL     1      13.286   2.080   4.969  1.00  0.00     0.205 A 
ATOM     74  C   UNL     1      13.529   4.093   4.162  1.00  0.00     0.195 A 
ATOM     75  O   UNL     1      14.095   2.858   4.202  1.00  0.00    -0.472 OA
ENDBRANCH  68  71
ENDBRANCH  62  65
ENDBRANCH  60  61
ENDBRANCH  59  60
ENDBRANCH  58  59
ENDBRANCH   1  58
TORSDOF 14
