REMARK SMILES O=C(NCCCCCCNC(=O)c1ccccc1[C@@H]1SCC(=O)N1NC(=S)Nc1ccccc1)c1ccc(-c2c3nc(c(-c4ccccc4)c4ccc([nH]4)c(-c4ccccc4)c4nc(c(-c5ccccc5)c5ccc2[nH]5)C=C4)C=C3)cc1
REMARK SMILES IDX 8 1 7 2 6 3 5 4 4 5 3 6 1 7 2 8 35 10 36 11 82 12 37 13
REMARK SMILES IDX 81 14 38 15 39 16 40 17 75 18 41 19 80 20 74 21 76 22 42 23
REMARK SMILES IDX 79 24 73 25 72 26 43 28 65 29 50 30 64 31 51 32 54 33 63 34
REMARK SMILES IDX 77 35 52 36 53 37 62 39 78 40 55 41 44 42 45 43 49 44 46 45
REMARK SMILES IDX 48 46 47 47 66 48 67 49 71 50 68 51 70 52 69 53 56 54 57 55
REMARK SMILES IDX 61 56 58 57 60 58 59 59 9 60 10 61 11 62 12 64 13 65 14 66
REMARK SMILES IDX 18 67 15 68 17 69 16 70 19 71 20 72 24 73 21 74 22 75 23 76
REMARK SMILES IDX 25 77 26 79 27 80 28 81 29 83 30 84 34 85 31 86 33 87 32 88
REMARK H PARENT 3 9 76 27 54 38 10 63 25 78 28 82
REMARK Flexibility Score: inf
ROOT
ATOM      1  C   UNL     1       6.005  -4.912   1.063  1.00  0.00     0.021 C 
ENDROOT
BRANCH   1   2
ATOM      2  C   UNL     1       4.476  -4.854   1.227  1.00  0.00     0.002 C 
BRANCH   2   3
ATOM      3  C   UNL     1       3.768  -3.584   1.731  1.00  0.00     0.002 C 
BRANCH   3   4
ATOM      4  C   UNL     1       3.940  -2.258   0.968  1.00  0.00     0.021 C 
BRANCH   4   5
ATOM      5  C   UNL     1       3.460  -2.179  -0.479  1.00  0.00     0.116 C 
BRANCH   5   6
ATOM      6  N   UNL     1       2.173  -1.508  -0.609  1.00  0.00    -0.352 N 
ATOM      7  O   UNL     1       0.580   0.043  -0.609  1.00  0.00    -0.269 OA
ATOM      8  C   UNL     1       1.786  -0.193  -0.722  1.00  0.00     0.251 C 
ATOM      9  H   UNL     1       1.413  -2.134  -0.619  1.00  0.00     0.163 HD
BRANCH   8  10
ATOM     10  C   UNL     1       2.700   0.960  -0.983  1.00  0.00     0.039 A 
ATOM     11  C   UNL     1       3.864   0.879  -1.748  1.00  0.00     0.014 A 
ATOM     12  C   UNL     1       2.265   2.237  -0.583  1.00  0.00     0.014 A 
ATOM     13  C   UNL     1       4.598   2.034  -2.065  1.00  0.00     0.010 A 
ATOM     14  C   UNL     1       2.956   3.400  -0.964  1.00  0.00     0.010 A 
ATOM     15  C   UNL     1       4.130   3.313  -1.722  1.00  0.00    -0.014 A 
BRANCH  15  16
ATOM     16  C   UNL     1       4.787   4.542  -2.263  1.00  0.00     0.031 A 
ATOM     17  C   UNL     1       5.390   5.582  -1.355  1.00  0.00     0.074 A 
ATOM     18  C   UNL     1       4.798   4.753  -3.596  1.00  0.00     0.049 A 
ATOM     19  N   UNL     1       5.935   6.734  -1.665  1.00  0.00    -0.248 NA
ATOM     20  C   UNL     1       5.369   5.297   0.086  1.00  0.00     0.031 C 
ATOM     21  C   UNL     1       4.232   3.847  -4.598  1.00  0.00     0.029 A 
ATOM     22  N   UNL     1       5.298   5.795  -4.342  1.00  0.00    -0.354 N 
ATOM     23  C   UNL     1       6.299   7.322  -0.459  1.00  0.00     0.074 A 
ATOM     24  C   UNL     1       5.892   6.408   0.588  1.00  0.00     0.031 C 
ATOM     25  C   UNL     1       4.446   4.351  -5.822  1.00  0.00     0.029 A 
ATOM     26  C   UNL     1       5.101   5.648  -5.695  1.00  0.00     0.049 A 
ATOM     27  H   UNL     1       5.753   6.572  -3.945  1.00  0.00     0.167 HD
ATOM     28  C   UNL     1       6.916   8.511  -0.241  1.00  0.00     0.031 A 
ATOM     29  C   UNL     1       5.386   6.467  -6.726  1.00  0.00     0.031 A 
ATOM     30  C   UNL     1       7.316   9.429  -1.280  1.00  0.00     0.049 A 
ATOM     31  C   UNL     1       6.037   7.793  -6.460  1.00  0.00     0.074 A 
ATOM     32  C   UNL     1       7.977  10.640  -1.153  1.00  0.00     0.029 A 
ATOM     33  N   UNL     1       7.086   9.242  -2.634  1.00  0.00    -0.354 N 
ATOM     34  N   UNL     1       6.404   8.314  -5.315  1.00  0.00    -0.248 NA
ATOM     35  C   UNL     1       6.312   8.644  -7.627  1.00  0.00     0.031 C 
ATOM     36  C   UNL     1       8.096  11.211  -2.425  1.00  0.00     0.029 A 
ATOM     37  C   UNL     1       7.568  10.326  -3.351  1.00  0.00     0.049 A 
ATOM     38  H   UNL     1       6.646   8.455  -3.029  1.00  0.00     0.167 HD
ATOM     39  C   UNL     1       6.976   9.541  -5.624  1.00  0.00     0.074 A 
ATOM     40  C   UNL     1       6.916   9.682  -7.064  1.00  0.00     0.031 C 
ATOM     41  C   UNL     1       7.506  10.463  -4.784  1.00  0.00     0.031 A 
BRANCH  28  42
ATOM     42  C   UNL     1       7.162   8.911   1.190  1.00  0.00    -0.014 A 
ATOM     43  C   UNL     1       8.111   8.247   1.985  1.00  0.00     0.009 A 
ATOM     44  C   UNL     1       6.452   9.987   1.745  1.00  0.00     0.009 A 
ATOM     45  C   UNL     1       8.305   8.620   3.318  1.00  0.00     0.001 A 
ATOM     46  C   UNL     1       6.670  10.379   3.068  1.00  0.00     0.001 A 
ATOM     47  C   UNL     1       7.586   9.687   3.857  1.00  0.00     0.000 A 
ENDBRANCH  28  42
BRANCH  29  48
ATOM     48  C   UNL     1       5.036   6.051  -8.110  1.00  0.00    -0.014 A 
ATOM     49  C   UNL     1       6.038   5.691  -9.024  1.00  0.00     0.009 A 
ATOM     50  C   UNL     1       3.693   5.977  -8.513  1.00  0.00     0.009 A 
ATOM     51  C   UNL     1       5.701   5.274 -10.315  1.00  0.00     0.001 A 
ATOM     52  C   UNL     1       3.358   5.531  -9.793  1.00  0.00     0.001 A 
ATOM     53  C   UNL     1       4.362   5.185 -10.694  1.00  0.00     0.000 A 
ENDBRANCH  29  48
BRANCH  41  54
ATOM     54  C   UNL     1       8.111  11.693  -5.402  1.00  0.00    -0.014 A 
ATOM     55  C   UNL     1       7.311  12.709  -5.948  1.00  0.00     0.009 A 
ATOM     56  C   UNL     1       9.505  11.857  -5.390  1.00  0.00     0.009 A 
ATOM     57  C   UNL     1       7.899  13.853  -6.493  1.00  0.00     0.001 A 
ATOM     58  C   UNL     1      10.088  13.013  -5.910  1.00  0.00     0.001 A 
ATOM     59  C   UNL     1       9.286  14.007  -6.468  1.00  0.00     0.000 A 
ENDBRANCH  41  54
ENDBRANCH  15  16
ENDBRANCH   8  10
ENDBRANCH   5   6
ENDBRANCH   4   5
ENDBRANCH   3   4
ENDBRANCH   2   3
ENDBRANCH   1   2
BRANCH   1  60
ATOM     60  C   UNL     1       6.976  -4.984   2.258  1.00  0.00     0.116 C 
BRANCH  60  61
ATOM     61  N   UNL     1       6.607  -5.734   3.442  1.00  0.00    -0.352 N 
ATOM     62  C   UNL     1       7.381  -5.906   4.581  1.00  0.00     0.251 C 
ATOM     63  H   UNL     1       5.722  -6.164   3.438  1.00  0.00     0.163 HD
ATOM     64  O   UNL     1       6.864  -6.267   5.634  1.00  0.00    -0.269 OA
BRANCH  62  65
ATOM     65  C   UNL     1       8.858  -5.716   4.543  1.00  0.00     0.046 A 
ATOM     66  C   UNL     1       9.567  -6.808   4.010  1.00  0.00     0.014 A 
ATOM     67  C   UNL     1       9.564  -4.617   5.099  1.00  0.00    -0.001 A 
ATOM     68  C   UNL     1      10.961  -6.798   3.953  1.00  0.00     0.001 A 
ATOM     69  C   UNL     1      10.977  -4.628   5.002  1.00  0.00     0.007 A 
ATOM     70  C   UNL     1      11.664  -5.699   4.429  1.00  0.00     0.000 A 
BRANCH  67  71
ATOM     71  C   UNL     1       8.952  -3.386   5.762  1.00  0.00     0.197 C 
ATOM     72  S   UNL     1       8.181  -3.703   7.354  1.00  0.00    -0.120 SA
ATOM     73  N   UNL     1       7.973  -2.736   4.930  1.00  0.00    -0.236 N 
ATOM     74  C   UNL     1       6.537  -3.236   6.760  1.00  0.00     0.174 C 
ATOM     75  C   UNL     1       6.655  -3.043   5.263  1.00  0.00     0.252 C 
ATOM     76  O   UNL     1       5.696  -3.133   4.501  1.00  0.00    -0.272 OA
BRANCH  73  77
ATOM     77  N   UNL     1       8.469  -2.236   3.703  1.00  0.00    -0.270 N 
ATOM     78  H   UNL     1       9.387  -2.507   3.473  1.00  0.00     0.191 HD
BRANCH  77  79
ATOM     79  C   UNL     1       7.848  -1.431   2.799  1.00  0.00     0.189 C 
ATOM     80  S   UNL     1       8.576  -1.238   1.304  1.00  0.00    -0.039 S 
BRANCH  79  81
ATOM     81  N   UNL     1       6.579  -1.022   2.993  1.00  0.00    -0.331 N 
ATOM     82  H   UNL     1       5.943  -1.265   2.282  1.00  0.00     0.169 HD
BRANCH  81  83
ATOM     83  C   UNL     1       6.037  -0.298   4.062  1.00  0.00     0.040 A 
ATOM     84  C   UNL     1       4.662  -0.436   4.296  1.00  0.00     0.026 A 
ATOM     85  C   UNL     1       6.818   0.469   4.916  1.00  0.00     0.026 A 
ATOM     86  C   UNL     1       4.083   0.112   5.432  1.00  0.00     0.002 A 
ATOM     87  C   UNL     1       6.229   1.042   6.042  1.00  0.00     0.002 A 
ATOM     88  C   UNL     1       4.871   0.847   6.310  1.00  0.00     0.000 A 
ENDBRANCH  81  83
ENDBRANCH  79  81
ENDBRANCH  77  79
ENDBRANCH  73  77
ENDBRANCH  67  71
ENDBRANCH  62  65
ENDBRANCH  60  61
ENDBRANCH   1  60
TORSDOF 18
