REMARK SMILES COc1ccc2c(c1)O[C@@]1(CCC(=O)N([C@@H](C)C(=O)NCCCCCCNC(=O)c3ccc(-c4c5nc(c(-c6ccccc6)c6ccc([nH]6)c(-c6ccccc6)c6nc(c(-c7ccccc7)c7ccc4[nH]7)C=C6)C=C5)cc3)CC1)CC2=O
REMARK SMILES IDX 22 1 21 2 20 3 18 4 19 5 16 7 17 8 15 9 78 10 79 11 10 12
REMARK SMILES IDX 3 13 4 14 8 15 5 16 7 17 6 18 9 19 81 20 80 21 82 22 2 23
REMARK SMILES IDX 1 24 11 25 13 27 14 28 12 29 23 31 24 32 25 33 26 34 27 35
REMARK SMILES IDX 28 36 29 38 30 39 31 40 77 41 32 42 76 43 33 44 34 45 35 46
REMARK SMILES IDX 70 47 36 48 75 49 69 50 71 51 37 52 74 53 68 54 67 55 38 57
REMARK SMILES IDX 60 58 45 59 59 60 46 61 49 62 58 63 72 64 47 65 48 66 57 68
REMARK SMILES IDX 73 69 50 70 39 71 40 72 44 73 41 74 43 75 42 76 61 77 62 78
REMARK SMILES IDX 66 79 63 80 65 81 64 82 51 83 52 84 56 85 53 86 55 87 54 88
REMARK H PARENT 20 6 27 37 71 56 49 67
REMARK Flexibility Score: 90.00
ROOT
ATOM      1  C   UNL     1      -1.632  -0.544   5.297  1.00  0.00     0.021 C 
ENDROOT
BRANCH   1   2
ATOM      2  C   UNL     1      -2.983  -0.275   4.655  1.00  0.00     0.116 C 
BRANCH   2   3
ATOM      3  N   UNL     1      -2.815   0.601   3.532  1.00  0.00    -0.354 N 
ATOM      4  C   UNL     1      -3.092   0.282   2.249  1.00  0.00     0.242 C 
ATOM      5  O   UNL     1      -2.275   0.693   1.429  1.00  0.00    -0.273 OA
ATOM      6  H   UNL     1      -2.470   1.506   3.710  1.00  0.00     0.163 HD
BRANCH   4   7
ATOM      7  C   UNL     1      -4.345  -0.561   1.900  1.00  0.00     0.171 C 
ATOM      8  C   UNL     1      -5.474  -0.396   2.936  1.00  0.00     0.042 C 
BRANCH   7   9
ATOM      9  N   UNL     1      -4.094  -1.960   1.421  1.00  0.00    -0.331 N 
BRANCH   9  10
ATOM     10  C   UNL     1      -3.097  -2.256   0.378  1.00  0.00     0.124 C 
BRANCH  10  11
ATOM     11  C   UNL     1      -3.658  -2.175  -1.123  1.00  0.00     0.070 C 
BRANCH  11  12
ATOM     12  C   UNL     1      -4.758  -1.072  -1.466  1.00  0.00     0.118 C 
ATOM     13  C   UNL     1      -0.923   1.792  -1.290  1.00  0.00     0.122 A 
ATOM     14  C   UNL     1      -1.599   3.021  -1.328  1.00  0.00     0.047 A 
ATOM     15  C   UNL     1      -1.650   0.605  -1.367  1.00  0.00     0.093 A 
ATOM     16  C   UNL     1      -2.997   3.067  -1.448  1.00  0.00     0.019 A 
ATOM     17  C   UNL     1      -3.039   0.671  -1.393  1.00  0.00     0.134 A 
ATOM     18  C   UNL     1      -3.699   1.868  -1.504  1.00  0.00     0.060 A 
ATOM     19  O   UNL     1      -3.782  -0.275  -0.719  1.00  0.00    -0.486 OA
ATOM     20  C   UNL     1      -5.145   1.691  -1.464  1.00  0.00     0.170 C 
ATOM     21  C   UNL     1      -5.672   0.237  -1.464  1.00  0.00     0.129 C 
ATOM     22  O   UNL     1      -5.891   2.663  -1.390  1.00  0.00    -0.294 OA
BRANCH  13  23
ATOM     23  O   UNL     1       0.432   1.853  -1.092  1.00  0.00    -0.497 OA
ATOM     24  C   UNL     1       0.995   0.725  -0.419  1.00  0.00     0.278 C 
ENDBRANCH  13  23
BRANCH  12  25
ATOM     25  C   UNL     1      -5.990  -2.045  -0.946  1.00  0.00     0.059 CG0
ATOM     26  G   UNL     1      -6.277  -2.471   0.502  1.00  0.00     0.000 G0
ENDBRANCH  12  25
ENDBRANCH  11  12
ENDBRANCH  10  11
ENDBRANCH   9  10
BRANCH   9  27
ATOM     27  C   UNL     1      -5.112  -2.882   1.365  1.00  0.00     0.223 C 
ATOM     28  O   UNL     1      -5.015  -4.000   1.863  1.00  0.00    -0.275 OA
BRANCH  27  29
ATOM     29  C   UNL     1      -6.277  -2.471   0.502  1.00  0.00     0.104 CG0
ATOM     30  G   UNL     1      -5.990  -2.045  -0.946  1.00  0.00     0.000 G0
ENDBRANCH  27  29
ENDBRANCH   9  27
ENDBRANCH   7   9
ENDBRANCH   4   7
ENDBRANCH   2   3
ENDBRANCH   1   2
BRANCH   1  31
ATOM     31  C   UNL     1      -0.831   0.705   5.697  1.00  0.00     0.002 C 
BRANCH  31  32
ATOM     32  C   UNL     1      -1.599   1.831   6.399  1.00  0.00     0.002 C 
BRANCH  32  33
ATOM     33  C   UNL     1      -2.467   1.418   7.582  1.00  0.00     0.021 C 
BRANCH  33  34
ATOM     34  C   UNL     1      -1.796   0.479   8.562  1.00  0.00     0.116 C 
BRANCH  34  35
ATOM     35  N   UNL     1      -0.690   1.093   9.269  1.00  0.00    -0.352 N 
ATOM     36  C   UNL     1      -0.406   0.994  10.614  1.00  0.00     0.251 C 
ATOM     37  H   UNL     1      -0.075   1.642   8.730  1.00  0.00     0.163 HD
ATOM     38  O   UNL     1       0.479   1.648  11.130  1.00  0.00    -0.269 OA
BRANCH  36  39
ATOM     39  C   UNL     1      -1.258   0.095  11.422  1.00  0.00     0.039 A 
ATOM     40  C   UNL     1      -1.479  -1.220  11.003  1.00  0.00     0.014 A 
ATOM     41  C   UNL     1      -1.938   0.619  12.522  1.00  0.00     0.014 A 
ATOM     42  C   UNL     1      -2.504  -1.954  11.582  1.00  0.00     0.010 A 
ATOM     43  C   UNL     1      -2.897  -0.162  13.168  1.00  0.00     0.010 A 
ATOM     44  C   UNL     1      -3.220  -1.438  12.676  1.00  0.00    -0.014 A 
BRANCH  44  45
ATOM     45  C   UNL     1      -4.286  -2.256  13.305  1.00  0.00     0.031 A 
ATOM     46  C   UNL     1      -5.719  -1.801  13.303  1.00  0.00     0.074 A 
ATOM     47  C   UNL     1      -3.956  -3.444  13.846  1.00  0.00     0.049 A 
ATOM     48  N   UNL     1      -6.769  -2.391  13.818  1.00  0.00    -0.248 NA
ATOM     49  C   UNL     1      -6.018  -0.519  12.644  1.00  0.00     0.031 C 
ATOM     50  C   UNL     1      -2.604  -4.006  13.875  1.00  0.00     0.029 A 
ATOM     51  N   UNL     1      -4.729  -4.405  14.444  1.00  0.00    -0.354 N 
ATOM     52  C   UNL     1      -7.844  -1.549  13.562  1.00  0.00     0.074 A 
ATOM     53  C   UNL     1      -7.317  -0.390  12.875  1.00  0.00     0.031 C 
ATOM     54  C   UNL     1      -2.653  -5.239  14.394  1.00  0.00     0.029 A 
ATOM     55  C   UNL     1      -4.021  -5.521  14.815  1.00  0.00     0.049 A 
ATOM     56  H   UNL     1      -5.697  -4.304  14.594  1.00  0.00     0.167 HD
ATOM     57  C   UNL     1      -9.152  -1.733  13.865  1.00  0.00     0.031 A 
ATOM     58  C   UNL     1      -4.417  -6.646  15.438  1.00  0.00     0.031 A 
ATOM     59  C   UNL     1      -9.667  -2.889  14.551  1.00  0.00     0.049 A 
ATOM     60  C   UNL     1      -5.856  -6.793  15.830  1.00  0.00     0.074 A 
ATOM     61  C   UNL     1     -10.976  -3.166  14.906  1.00  0.00     0.029 A 
ATOM     62  N   UNL     1      -8.900  -3.961  14.985  1.00  0.00    -0.354 N 
ATOM     63  N   UNL     1      -6.857  -5.979  15.599  1.00  0.00    -0.248 NA
ATOM     64  C   UNL     1      -6.221  -8.007  16.573  1.00  0.00     0.031 C 
ATOM     65  C   UNL     1     -10.992  -4.373  15.608  1.00  0.00     0.029 A 
ATOM     66  C   UNL     1      -9.706  -4.888  15.626  1.00  0.00     0.049 A 
ATOM     67  H   UNL     1      -7.928  -4.050  14.856  1.00  0.00     0.167 HD
ATOM     68  C   UNL     1      -7.975  -6.585  16.156  1.00  0.00     0.074 A 
ATOM     69  C   UNL     1      -7.530  -7.844  16.720  1.00  0.00     0.031 C 
ATOM     70  C   UNL     1      -9.252  -6.133  16.194  1.00  0.00     0.031 A 
BRANCH  57  71
ATOM     71  C   UNL     1     -10.124  -0.651  13.473  1.00  0.00    -0.014 A 
ATOM     72  C   UNL     1     -10.774   0.098  14.468  1.00  0.00     0.009 A 
ATOM     73  C   UNL     1     -10.452  -0.417  12.129  1.00  0.00     0.009 A 
ATOM     74  C   UNL     1     -11.736   1.051  14.127  1.00  0.00     0.001 A 
ATOM     75  C   UNL     1     -11.391   0.560  11.788  1.00  0.00     0.001 A 
ATOM     76  C   UNL     1     -12.038   1.287  12.787  1.00  0.00     0.000 A 
ENDBRANCH  57  71
BRANCH  58  77
ATOM     77  C   UNL     1      -3.416  -7.712  15.703  1.00  0.00    -0.014 A 
ATOM     78  C   UNL     1      -2.368  -7.500  16.614  1.00  0.00     0.009 A 
ATOM     79  C   UNL     1      -3.445  -8.906  14.969  1.00  0.00     0.009 A 
ATOM     80  C   UNL     1      -1.346  -8.441  16.753  1.00  0.00     0.001 A 
ATOM     81  C   UNL     1      -2.438  -9.860  15.133  1.00  0.00     0.001 A 
ATOM     82  C   UNL     1      -1.383  -9.621  16.013  1.00  0.00     0.000 A 
ENDBRANCH  58  77
BRANCH  70  83
ATOM     83  C   UNL     1     -10.282  -7.003  16.859  1.00  0.00    -0.014 A 
ATOM     84  C   UNL     1     -11.286  -7.607  16.085  1.00  0.00     0.009 A 
ATOM     85  C   UNL     1     -10.325  -7.138  18.255  1.00  0.00     0.009 A 
ATOM     86  C   UNL     1     -12.324  -8.313  16.696  1.00  0.00     0.001 A 
ATOM     87  C   UNL     1     -11.348  -7.870  18.861  1.00  0.00     0.001 A 
ATOM     88  C   UNL     1     -12.351  -8.446  18.083  1.00  0.00     0.000 A 
ENDBRANCH  70  83
ENDBRANCH  44  45
ENDBRANCH  36  39
ENDBRANCH  34  35
ENDBRANCH  33  34
ENDBRANCH  32  33
ENDBRANCH  31  32
ENDBRANCH   1  31
TORSDOF 15
