REMARK SMILES CC(=O)Nc1ccc(/C(=C\c2ccc(S(C)(=O)=O)cc2)C(=O)NCCCCCCNC(=O)c2ccc(-c3c4nc(c(-c5ccccc5)c5ccc([nH]5)c(-c5ccccc5)c5nc(c(-c6ccccc6)c6ccc3[nH]6)C=C5)C=C4)cc2)cc1
REMARK SMILES IDX 26 1 25 2 24 3 23 4 21 5 22 6 9 8 10 9 8 10 5 11 6 12 82 13
REMARK SMILES IDX 7 14 81 15 4 16 1 17 2 18 3 19 11 21 12 22 20 23 13 24 19 25
REMARK SMILES IDX 14 26 15 27 16 28 17 29 18 30 27 31 28 32 29 33 30 34 31 35
REMARK SMILES IDX 32 37 33 38 34 39 80 40 35 41 79 42 36 43 37 44 38 45 73 46
REMARK SMILES IDX 39 47 78 48 72 49 74 50 40 51 77 52 71 53 70 54 41 56 63 57
REMARK SMILES IDX 48 58 62 59 49 60 52 61 61 62 75 63 50 64 51 65 60 67 76 68
REMARK SMILES IDX 53 69 42 70 43 71 47 72 44 73 46 74 45 75 64 76 65 77 69 78
REMARK SMILES IDX 66 79 68 80 67 81 54 82 55 83 59 84 56 85 58 86 57 87
REMARK H PARENT 23 7 4 20 30 36 74 55 52 66
REMARK Flexibility Score: inf
ROOT
ATOM      1  C   UNL     1       6.829  -4.403  -7.443  1.00  0.00     0.002 C 
ENDROOT
BRANCH   1   2
ATOM      2  C   UNL     1       5.697  -5.146  -6.713  1.00  0.00     0.021 C 
BRANCH   2   3
ATOM      3  C   UNL     1       6.071  -5.584  -5.293  1.00  0.00     0.116 C 
BRANCH   3   4
ATOM      4  N   UNL     1       6.118  -4.430  -4.422  1.00  0.00    -0.352 N 
ATOM      5  C   UNL     1       5.307  -3.872  -3.489  1.00  0.00     0.251 C 
ATOM      6  O   UNL     1       5.770  -2.834  -3.007  1.00  0.00    -0.269 OA
ATOM      7  H   UNL     1       6.953  -3.920  -4.534  1.00  0.00     0.163 HD
BRANCH   5   8
ATOM      8  C   UNL     1       3.990  -4.469  -2.992  1.00  0.00     0.047 C 
ATOM      9  C   UNL     1       3.310  -5.323  -3.795  1.00  0.00     0.022 C 
BRANCH   8  10
ATOM     10  C   UNL     1       3.381  -3.940  -1.713  1.00  0.00    -0.013 A 
ATOM     11  C   UNL     1       1.837  -2.711   0.352  1.00  0.00     0.041 A 
ATOM     12  C   UNL     1       1.818  -4.095   0.171  1.00  0.00     0.027 A 
ATOM     13  C   UNL     1       2.758  -1.978  -0.375  1.00  0.00     0.027 A 
ATOM     14  C   UNL     1       2.606  -4.702  -0.825  1.00  0.00     0.011 A 
ATOM     15  C   UNL     1       3.480  -2.573  -1.412  1.00  0.00     0.011 A 
BRANCH  11  16
ATOM     16  N   UNL     1       0.922  -2.143   1.253  1.00  0.00    -0.326 N 
ATOM     17  C   UNL     1       0.796   0.205   0.381  1.00  0.00     0.114 C 
ATOM     18  C   UNL     1       0.456  -0.863   1.387  1.00  0.00     0.221 C 
ATOM     19  O   UNL     1      -0.297  -0.606   2.330  1.00  0.00    -0.275 OA
ATOM     20  H   UNL     1       0.550  -2.779   1.906  1.00  0.00     0.169 HD
ENDBRANCH  11  16
ENDBRANCH   8  10
BRANCH   9  21
ATOM     21  C   UNL     1       2.163  -6.185  -3.469  1.00  0.00    -0.025 A 
ATOM     22  C   UNL     1       2.432  -7.526  -3.141  1.00  0.00     0.009 A 
ATOM     23  C   UNL     1       0.853  -5.705  -3.396  1.00  0.00     0.009 A 
ATOM     24  C   UNL     1       1.415  -8.362  -2.679  1.00  0.00     0.021 A 
ATOM     25  C   UNL     1      -0.171  -6.540  -2.932  1.00  0.00     0.021 A 
ATOM     26  C   UNL     1       0.118  -7.859  -2.564  1.00  0.00     0.067 A 
BRANCH  26  27
ATOM     27  S   UNL     1      -1.133  -8.872  -1.806  1.00  0.00     0.175 S 
ATOM     28  C   UNL     1      -1.595 -10.015  -3.078  1.00  0.00     0.163 C 
ATOM     29  O   UNL     1      -0.486  -9.615  -0.741  1.00  0.00    -0.224 OA
ATOM     30  O   UNL     1      -2.276  -8.023  -1.530  1.00  0.00    -0.224 OA
ENDBRANCH  26  27
ENDBRANCH   9  21
ENDBRANCH   5   8
ENDBRANCH   3   4
ENDBRANCH   2   3
ENDBRANCH   1   2
BRANCH   1  31
ATOM     31  C   UNL     1       8.136  -5.193  -7.586  1.00  0.00     0.002 C 
BRANCH  31  32
ATOM     32  C   UNL     1       7.976  -6.593  -8.180  1.00  0.00     0.021 C 
BRANCH  32  33
ATOM     33  C   UNL     1       7.410  -6.604  -9.594  1.00  0.00     0.116 C 
BRANCH  33  34
ATOM     34  N   UNL     1       8.352  -6.048 -10.553  1.00  0.00    -0.352 N 
ATOM     35  C   UNL     1       8.840  -6.618 -11.702  1.00  0.00     0.251 C 
ATOM     36  H   UNL     1       8.683  -5.144 -10.351  1.00  0.00     0.163 HD
ATOM     37  O   UNL     1       9.793  -6.121 -12.292  1.00  0.00    -0.269 OA
BRANCH  35  38
ATOM     38  C   UNL     1       8.210  -7.850 -12.219  1.00  0.00     0.039 A 
ATOM     39  C   UNL     1       9.019  -8.920 -12.608  1.00  0.00     0.014 A 
ATOM     40  C   UNL     1       6.818  -7.943 -12.311  1.00  0.00     0.014 A 
ATOM     41  C   UNL     1       8.428 -10.107 -13.046  1.00  0.00     0.010 A 
ATOM     42  C   UNL     1       6.231  -9.148 -12.679  1.00  0.00     0.010 A 
ATOM     43  C   UNL     1       7.030 -10.239 -13.060  1.00  0.00    -0.014 A 
BRANCH  43  44
ATOM     44  C   UNL     1       6.369 -11.490 -13.505  1.00  0.00     0.031 A 
ATOM     45  C   UNL     1       5.502 -11.473 -14.735  1.00  0.00     0.074 A 
ATOM     46  C   UNL     1       6.489 -12.616 -12.775  1.00  0.00     0.049 A 
ATOM     47  N   UNL     1       4.735 -12.416 -15.220  1.00  0.00    -0.248 NA
ATOM     48  C   UNL     1       5.473 -10.219 -15.508  1.00  0.00     0.031 C 
ATOM     49  C   UNL     1       7.287 -12.760 -11.556  1.00  0.00     0.029 A 
ATOM     50  N   UNL     1       5.924 -13.855 -12.950  1.00  0.00    -0.354 N 
ATOM     51  C   UNL     1       4.125 -11.866 -16.340  1.00  0.00     0.074 A 
ATOM     52  C   UNL     1       4.566 -10.492 -16.434  1.00  0.00     0.031 C 
ATOM     53  C   UNL     1       7.175 -14.020 -11.103  1.00  0.00     0.029 A 
ATOM     54  C   UNL     1       6.263 -14.758 -11.971  1.00  0.00     0.049 A 
ATOM     55  H   UNL     1       5.332 -14.075 -13.705  1.00  0.00     0.167 HD
ATOM     56  C   UNL     1       3.289 -12.457 -17.226  1.00  0.00     0.031 A 
ATOM     57  C   UNL     1       5.869 -16.033 -11.788  1.00  0.00     0.031 A 
ATOM     58  C   UNL     1       2.862 -13.827 -17.142  1.00  0.00     0.049 A 
ATOM     59  C   UNL     1       4.910 -16.653 -12.768  1.00  0.00     0.074 A 
ATOM     60  C   UNL     1       2.034 -14.525 -18.004  1.00  0.00     0.029 A 
ATOM     61  N   UNL     1       3.241 -14.709 -16.144  1.00  0.00    -0.354 N 
ATOM     62  N   UNL     1       4.368 -16.128 -13.840  1.00  0.00    -0.248 NA
ATOM     63  C   UNL     1       4.518 -18.048 -12.518  1.00  0.00     0.031 C 
ATOM     64  C   UNL     1       1.881 -15.822 -17.505  1.00  0.00     0.029 A 
ATOM     65  C   UNL     1       2.658 -15.944 -16.364  1.00  0.00     0.049 A 
ATOM     66  H   UNL     1       3.836 -14.490 -15.391  1.00  0.00     0.167 HD
ATOM     67  C   UNL     1       3.608 -17.140 -14.414  1.00  0.00     0.074 A 
ATOM     68  C   UNL     1       3.766 -18.311 -13.578  1.00  0.00     0.031 C 
ATOM     69  C   UNL     1       2.850 -17.105 -15.536  1.00  0.00     0.031 A 
BRANCH  56  70
ATOM     70  C   UNL     1       2.787 -11.624 -18.371  1.00  0.00    -0.014 A 
ATOM     71  C   UNL     1       3.644 -11.243 -19.416  1.00  0.00     0.009 A 
ATOM     72  C   UNL     1       1.433 -11.261 -18.436  1.00  0.00     0.009 A 
ATOM     73  C   UNL     1       3.161 -10.493 -20.490  1.00  0.00     0.001 A 
ATOM     74  C   UNL     1       0.947 -10.535 -19.525  1.00  0.00     0.001 A 
ATOM     75  C   UNL     1       1.812 -10.146 -20.547  1.00  0.00     0.000 A 
ENDBRANCH  56  70
BRANCH  57  76
ATOM     76  C   UNL     1       6.373 -16.823 -10.632  1.00  0.00    -0.014 A 
ATOM     77  C   UNL     1       7.225 -17.920 -10.837  1.00  0.00     0.009 A 
ATOM     78  C   UNL     1       5.968 -16.517  -9.324  1.00  0.00     0.009 A 
ATOM     79  C   UNL     1       7.623 -18.720  -9.763  1.00  0.00     0.001 A 
ATOM     80  C   UNL     1       6.395 -17.298  -8.248  1.00  0.00     0.001 A 
ATOM     81  C   UNL     1       7.209 -18.407  -8.470  1.00  0.00     0.000 A 
ENDBRANCH  57  76
BRANCH  69  82
ATOM     82  C   UNL     1       2.189 -18.384 -15.966  1.00  0.00    -0.014 A 
ATOM     83  C   UNL     1       1.085 -18.907 -15.278  1.00  0.00     0.009 A 
ATOM     84  C   UNL     1       2.653 -19.043 -17.116  1.00  0.00     0.009 A 
ATOM     85  C   UNL     1       0.475 -20.083 -15.718  1.00  0.00     0.001 A 
ATOM     86  C   UNL     1       2.023 -20.202 -17.570  1.00  0.00     0.001 A 
ATOM     87  C   UNL     1       0.940 -20.726 -16.866  1.00  0.00     0.000 A 
ENDBRANCH  69  82
ENDBRANCH  43  44
ENDBRANCH  35  38
ENDBRANCH  33  34
ENDBRANCH  32  33
ENDBRANCH  31  32
ENDBRANCH   1  31
TORSDOF 17
