REMARK SMILES NC(=O)N[C@@H](Cc1ccc2c(c1)CCCC2)C(=O)NCCCCCCNC(=O)c1ccc(-c2c3nc(c(-c4ccccc4)c4ccc([nH]4)c(-c4ccccc4)c4nc(c(-c5ccccc5)c5ccc2[nH]5)C=C4)C=C3)cc1
REMARK SMILES IDX 22 1 21 2 20 3 19 4 17 5 18 6 5 8 4 9 1 10 2 11 3 14 6 16
REMARK SMILES IDX 7 17 8 18 12 19 9 20 11 21 10 22 13 23 16 24 14 25 15 26
REMARK SMILES IDX 23 27 24 28 25 29 26 30 27 31 28 33 29 34 30 35 76 36 31 37
REMARK SMILES IDX 75 38 32 39 33 40 34 41 69 42 35 43 74 44 68 45 70 46 36 47
REMARK SMILES IDX 73 48 67 49 66 50 37 52 59 53 44 54 58 55 45 56 48 57 57 58
REMARK SMILES IDX 71 59 46 60 47 61 56 63 72 64 49 65 38 66 39 67 43 68 40 69
REMARK SMILES IDX 42 70 41 71 60 72 61 73 65 74 62 75 64 76 63 77 50 78 51 79
REMARK SMILES IDX 55 80 52 81 54 82 53 83
REMARK H PARENT 19 7 1 12 1 13 4 15 26 32 70 51 48 62
REMARK Flexibility Score: inf
ROOT
ATOM      1  C   UNL     1       0.498   7.241  -0.140  1.00  0.00     0.002 C 
ENDROOT
BRANCH   1   2
ATOM      2  C   UNL     1      -0.028   5.830  -0.432  1.00  0.00     0.021 C 
BRANCH   2   3
ATOM      3  C   UNL     1       0.963   4.916  -1.147  1.00  0.00     0.116 C 
BRANCH   3   4
ATOM      4  N   UNL     1       2.012   4.413  -0.280  1.00  0.00    -0.354 N 
ATOM      5  C   UNL     1       2.759   3.274  -0.365  1.00  0.00     0.242 C 
ATOM      6  O   UNL     1       3.796   3.239   0.312  1.00  0.00    -0.273 OA
ATOM      7  H   UNL     1       2.219   4.986   0.493  1.00  0.00     0.163 HD
BRANCH   5   8
ATOM      8  C   UNL     1       2.458   2.117  -1.350  1.00  0.00     0.177 C 
BRANCH   8   9
ATOM      9  N   UNL     1       1.045   1.753  -1.448  1.00  0.00    -0.326 N 
ATOM     10  N   UNL     1       0.967   0.129   0.196  1.00  0.00    -0.352 N 
ATOM     11  C   UNL     1       0.326   0.907  -0.688  1.00  0.00     0.312 C 
ATOM     12  H   UNL     1       0.458  -0.496   0.761  1.00  0.00     0.161 HD
ATOM     13  H   UNL     1       1.946   0.183   0.280  1.00  0.00     0.161 HD
ATOM     14  O   UNL     1      -0.897   0.840  -0.817  1.00  0.00    -0.249 OA
ATOM     15  H   UNL     1       0.548   2.190  -2.176  1.00  0.00     0.166 HD
ENDBRANCH   8   9
BRANCH   8  16
ATOM     16  C   UNL     1       3.135   2.272  -2.728  1.00  0.00     0.070 C 
BRANCH  16  17
ATOM     17  C   UNL     1       2.924   3.572  -3.465  1.00  0.00    -0.045 A 
ATOM     18  C   UNL     1       1.881   3.732  -4.382  1.00  0.00     0.004 A 
ATOM     19  C   UNL     1       3.781   4.656  -3.219  1.00  0.00     0.007 A 
ATOM     20  C   UNL     1       1.687   4.962  -5.020  1.00  0.00     0.004 A 
ATOM     21  C   UNL     1       3.588   5.898  -3.846  1.00  0.00    -0.045 A 
ATOM     22  C   UNL     1       2.521   6.057  -4.744  1.00  0.00    -0.045 A 
ATOM     23  C   UNL     1       4.473   7.054  -3.452  1.00  0.00     0.036 C 
ATOM     24  C   UNL     1       2.293   7.365  -5.463  1.00  0.00     0.036 C 
ATOM     25  C   UNL     1       4.413   8.235  -4.419  1.00  0.00     0.005 C 
ATOM     26  C   UNL     1       2.977   8.559  -4.797  1.00  0.00     0.005 C 
ENDBRANCH  16  17
ENDBRANCH   8  16
ENDBRANCH   5   8
ENDBRANCH   3   4
ENDBRANCH   2   3
ENDBRANCH   1   2
BRANCH   1  27
ATOM     27  C   UNL     1       0.977   8.040  -1.360  1.00  0.00     0.002 C 
BRANCH  27  28
ATOM     28  C   UNL     1      -0.038   8.163  -2.497  1.00  0.00     0.021 C 
BRANCH  28  29
ATOM     29  C   UNL     1      -1.294   8.939  -2.130  1.00  0.00     0.116 C 
BRANCH  29  30
ATOM     30  N   UNL     1      -1.004  10.343  -1.863  1.00  0.00    -0.352 N 
ATOM     31  C   UNL     1      -1.142  11.470  -2.636  1.00  0.00     0.251 C 
ATOM     32  H   UNL     1      -0.642  10.515  -0.963  1.00  0.00     0.163 HD
ATOM     33  O   UNL     1      -0.583  12.507  -2.284  1.00  0.00    -0.269 OA
BRANCH  31  34
ATOM     34  C   UNL     1      -1.938  11.464  -3.886  1.00  0.00     0.039 A 
ATOM     35  C   UNL     1      -1.575  12.323  -4.931  1.00  0.00     0.014 A 
ATOM     36  C   UNL     1      -3.076  10.672  -4.024  1.00  0.00     0.014 A 
ATOM     37  C   UNL     1      -2.314  12.338  -6.119  1.00  0.00     0.010 A 
ATOM     38  C   UNL     1      -3.728  10.588  -5.249  1.00  0.00     0.010 A 
ATOM     39  C   UNL     1      -3.376  11.439  -6.305  1.00  0.00    -0.014 A 
BRANCH  39  40
ATOM     40  C   UNL     1      -4.167  11.390  -7.563  1.00  0.00     0.031 A 
ATOM     41  C   UNL     1      -5.662  11.596  -7.520  1.00  0.00     0.074 A 
ATOM     42  C   UNL     1      -3.567  11.073  -8.727  1.00  0.00     0.049 A 
ATOM     43  N   UNL     1      -6.546  11.452  -8.475  1.00  0.00    -0.248 NA
ATOM     44  C   UNL     1      -6.244  11.969  -6.219  1.00  0.00     0.031 C 
ATOM     45  C   UNL     1      -2.138  10.807  -8.905  1.00  0.00     0.029 A 
ATOM     46  N   UNL     1      -4.092  10.910  -9.985  1.00  0.00    -0.354 N 
ATOM     47  C   UNL     1      -7.783  11.674  -7.879  1.00  0.00     0.074 A 
ATOM     48  C   UNL     1      -7.542  11.903  -6.473  1.00  0.00     0.031 C 
ATOM     49  C   UNL     1      -1.896  10.550 -10.200  1.00  0.00     0.029 A 
ATOM     50  C   UNL     1      -3.155  10.581 -10.935  1.00  0.00     0.049 A 
ATOM     51  H   UNL     1      -5.050  11.019 -10.188  1.00  0.00     0.167 HD
ATOM     52  C   UNL     1      -9.010  11.709  -8.452  1.00  0.00     0.031 A 
ATOM     53  C   UNL     1      -3.295  10.323 -12.248  1.00  0.00     0.031 A 
ATOM     54  C   UNL     1      -9.247  11.524  -9.858  1.00  0.00     0.049 A 
ATOM     55  C   UNL     1      -4.664  10.382 -12.866  1.00  0.00     0.074 A 
ATOM     56  C   UNL     1     -10.441  11.614 -10.550  1.00  0.00     0.029 A 
ATOM     57  N   UNL     1      -8.264  11.221 -10.787  1.00  0.00    -0.354 N 
ATOM     58  N   UNL     1      -5.816  10.649 -12.299  1.00  0.00    -0.248 NA
ATOM     59  C   UNL     1      -4.750  10.114 -14.308  1.00  0.00     0.031 C 
ATOM     60  C   UNL     1     -10.188  11.319 -11.894  1.00  0.00     0.029 A 
ATOM     61  C   UNL     1      -8.828  11.101 -12.046  1.00  0.00     0.049 A 
ATOM     62  H   UNL     1      -7.308  11.107 -10.583  1.00  0.00     0.167 HD
ATOM     63  C   UNL     1      -6.758  10.608 -13.318  1.00  0.00     0.074 A 
ATOM     64  C   UNL     1      -6.041  10.307 -14.540  1.00  0.00     0.031 C 
ATOM     65  C   UNL     1      -8.098  10.803 -13.250  1.00  0.00     0.031 A 
BRANCH  52  66
ATOM     66  C   UNL     1     -10.190  11.960  -7.551  1.00  0.00    -0.014 A 
ATOM     67  C   UNL     1     -10.385  13.206  -6.932  1.00  0.00     0.009 A 
ATOM     68  C   UNL     1     -11.133  10.944  -7.336  1.00  0.00     0.009 A 
ATOM     69  C   UNL     1     -11.473  13.412  -6.080  1.00  0.00     0.001 A 
ATOM     70  C   UNL     1     -12.239  11.163  -6.511  1.00  0.00     0.001 A 
ATOM     71  C   UNL     1     -12.401  12.393  -5.875  1.00  0.00     0.000 A 
ENDBRANCH  52  66
BRANCH  53  72
ATOM     72  C   UNL     1      -2.101  10.008 -13.076  1.00  0.00    -0.014 A 
ATOM     73  C   UNL     1      -1.630  10.933 -14.021  1.00  0.00     0.009 A 
ATOM     74  C   UNL     1      -1.426   8.787 -12.928  1.00  0.00     0.009 A 
ATOM     75  C   UNL     1      -0.523  10.631 -14.818  1.00  0.00     0.001 A 
ATOM     76  C   UNL     1      -0.301   8.500 -13.705  1.00  0.00     0.001 A 
ATOM     77  C   UNL     1       0.143   9.417 -14.656  1.00  0.00     0.000 A 
ENDBRANCH  53  72
BRANCH  65  78
ATOM     78  C   UNL     1      -8.868  10.736 -14.537  1.00  0.00    -0.014 A 
ATOM     79  C   UNL     1      -9.096   9.514 -15.188  1.00  0.00     0.009 A 
ATOM     80  C   UNL     1      -9.410  11.911 -15.082  1.00  0.00     0.009 A 
ATOM     81  C   UNL     1      -9.825   9.476 -16.379  1.00  0.00     0.001 A 
ATOM     82  C   UNL     1     -10.164  11.865 -16.255  1.00  0.00     0.001 A 
ATOM     83  C   UNL     1     -10.362  10.649 -16.907  1.00  0.00     0.000 A 
ENDBRANCH  65  78
ENDBRANCH  39  40
ENDBRANCH  31  34
ENDBRANCH  29  30
ENDBRANCH  28  29
ENDBRANCH  27  28
ENDBRANCH   1  27
TORSDOF 16
