REMARK SMILES Cc1onc(-c2ccccc2Cl)c1C(=O)N1CCCC[C@@H]1C(=O)NCCCCCCNC(=O)c1ccc(-c2c3nc(c(-c4ccccc4)c4ccc([nH]4)c(-c4ccccc4)c4nc(c(-c5ccccc5)c5ccc2[nH]5)C=C4)C=C3)cc1
REMARK SMILES IDX 27 1 26 2 25 3 24 4 22 5 23 6 21 8 16 9 17 10 18 11 20 12
REMARK SMILES IDX 19 13 14 14 15 15 13 16 1 17 2 18 3 19 4 20 5 21 6 22 7 23
REMARK SMILES IDX 11 24 8 25 10 26 12 27 9 28 28 29 29 30 30 31 31 32 32 33
REMARK SMILES IDX 33 35 34 36 35 37 81 38 36 39 80 40 37 41 38 42 39 43 74 44
REMARK SMILES IDX 40 45 79 46 73 47 75 48 41 49 78 50 72 51 71 52 42 54 64 55
REMARK SMILES IDX 49 56 63 57 50 58 53 59 62 60 76 61 51 62 52 63 61 65 77 66
REMARK SMILES IDX 54 67 43 68 44 69 48 70 45 71 47 72 46 73 65 74 66 75 70 76
REMARK SMILES IDX 67 77 69 78 68 79 55 80 56 81 60 82 57 83 59 84 58 85
REMARK H PARENT 24 7 31 34 75 53 53 64
REMARK Flexibility Score: inf
ROOT
ATOM      1  C   UNL     1      -0.475  -4.008   5.030  1.00  0.00     0.002 C 
ENDROOT
BRANCH   1   2
ATOM      2  C   UNL     1       0.421  -4.573   3.921  1.00  0.00     0.021 C 
BRANCH   2   3
ATOM      3  C   UNL     1       0.310  -3.826   2.589  1.00  0.00     0.116 C 
BRANCH   3   4
ATOM      4  N   UNL     1       0.814  -2.472   2.729  1.00  0.00    -0.354 N 
ATOM      5  C   UNL     1       1.887  -1.872   2.147  1.00  0.00     0.242 C 
ATOM      6  O   UNL     1       2.308  -0.824   2.644  1.00  0.00    -0.273 OA
ATOM      7  H   UNL     1       0.299  -1.899   3.342  1.00  0.00     0.163 HD
BRANCH   5   8
ATOM      8  C   UNL     1       2.635  -2.530   0.973  1.00  0.00     0.174 C 
ATOM      9  N   UNL     1       1.762  -3.025  -0.121  1.00  0.00    -0.326 N 
ATOM     10  C   UNL     1       2.386  -3.943  -1.072  1.00  0.00     0.120 C 
ATOM     11  C   UNL     1       3.080  -5.109  -0.396  1.00  0.00     0.022 C 
ATOM     12  C   UNL     1       3.528  -3.646   1.584  1.00  0.00     0.035 C 
ATOM     13  C   UNL     1       4.141  -4.594   0.562  1.00  0.00     0.004 C 
BRANCH   9  14
ATOM     14  C   UNL     1       0.539  -2.479  -0.558  1.00  0.00     0.260 C 
ATOM     15  O   UNL     1      -0.234  -3.202  -1.191  1.00  0.00    -0.269 OA
BRANCH  14  16
ATOM     16  C   UNL     1       0.158  -1.094  -0.325  1.00  0.00     0.110 A 
ATOM     17  C   UNL     1       2.337   0.400  -0.579  1.00  0.00     0.092 C 
ATOM     18  C   UNL     1       0.920   0.059  -0.364  1.00  0.00     0.147 A 
ATOM     19  O   UNL     1       0.114   1.143  -0.219  1.00  0.00    -0.360 OA
ATOM     20  N   UNL     1      -1.197   0.750  -0.132  1.00  0.00    -0.079 NA
ATOM     21  C   UNL     1      -1.185  -0.588  -0.194  1.00  0.00     0.128 A 
BRANCH  21  22
ATOM     22  C   UNL     1      -2.440  -1.325  -0.106  1.00  0.00     0.023 A 
ATOM     23  C   UNL     1      -3.096  -1.729  -1.279  1.00  0.00     0.012 A 
ATOM     24  C   UNL     1      -3.018  -1.627   1.134  1.00  0.00     0.050 A 
ATOM     25  C   UNL     1      -4.275  -2.478  -1.208  1.00  0.00     0.001 A 
ATOM     26  C   UNL     1      -4.170  -2.419   1.203  1.00  0.00     0.021 A 
ATOM     27  Cl  UNL     1      -2.385  -0.980   2.608  1.00  0.00    -0.084 Cl
ATOM     28  C   UNL     1      -4.795  -2.848   0.031  1.00  0.00     0.002 A 
ENDBRANCH  21  22
ENDBRANCH  14  16
ENDBRANCH   9  14
ENDBRANCH   5   8
ENDBRANCH   3   4
ENDBRANCH   2   3
ENDBRANCH   1   2
BRANCH   1  29
ATOM     29  C   UNL     1      -1.964  -3.958   4.682  1.00  0.00     0.002 C 
BRANCH  29  30
ATOM     30  C   UNL     1      -2.579  -5.288   4.264  1.00  0.00     0.021 C 
BRANCH  30  31
ATOM     31  C   UNL     1      -2.507  -6.350   5.345  1.00  0.00     0.116 C 
BRANCH  31  32
ATOM     32  N   UNL     1      -3.287  -5.983   6.519  1.00  0.00    -0.352 N 
ATOM     33  C   UNL     1      -4.260  -6.709   7.158  1.00  0.00     0.251 C 
ATOM     34  H   UNL     1      -3.090  -5.098   6.904  1.00  0.00     0.163 HD
ATOM     35  O   UNL     1      -4.973  -6.197   8.014  1.00  0.00    -0.269 OA
BRANCH  33  36
ATOM     36  C   UNL     1      -4.446  -8.121   6.778  1.00  0.00     0.039 A 
ATOM     37  C   UNL     1      -5.730  -8.591   6.496  1.00  0.00     0.014 A 
ATOM     38  C   UNL     1      -3.333  -8.956   6.646  1.00  0.00     0.014 A 
ATOM     39  C   UNL     1      -5.891  -9.892   6.019  1.00  0.00     0.010 A 
ATOM     40  C   UNL     1      -3.486 -10.213   6.085  1.00  0.00     0.010 A 
ATOM     41  C   UNL     1      -4.766 -10.698   5.778  1.00  0.00    -0.014 A 
BRANCH  41  42
ATOM     42  C   UNL     1      -4.890 -12.070   5.233  1.00  0.00     0.031 A 
ATOM     43  C   UNL     1      -4.419 -13.236   6.056  1.00  0.00     0.074 A 
ATOM     44  C   UNL     1      -5.333 -12.259   3.976  1.00  0.00     0.049 A 
ATOM     45  N   UNL     1      -4.319 -14.497   5.724  1.00  0.00    -0.248 NA
ATOM     46  C   UNL     1      -3.962 -12.935   7.424  1.00  0.00     0.031 C 
ATOM     47  C   UNL     1      -5.785 -11.205   3.065  1.00  0.00     0.029 A 
ATOM     48  N   UNL     1      -5.463 -13.411   3.244  1.00  0.00    -0.354 N 
ATOM     49  C   UNL     1      -3.760 -15.130   6.827  1.00  0.00     0.074 A 
ATOM     50  C   UNL     1      -3.491 -14.109   7.814  1.00  0.00     0.031 C 
ATOM     51  C   UNL     1      -6.172 -11.764   1.907  1.00  0.00     0.029 A 
ATOM     52  C   UNL     1      -5.951 -13.205   1.977  1.00  0.00     0.049 A 
ATOM     53  H   UNL     1      -5.229 -14.301   3.593  1.00  0.00     0.167 HD
ATOM     54  C   UNL     1      -3.511 -16.448   7.011  1.00  0.00     0.031 A 
ATOM     55  C   UNL     1      -6.188 -14.080   0.983  1.00  0.00     0.031 A 
ATOM     56  C   UNL     1      -3.799 -17.463   6.035  1.00  0.00     0.049 A 
ATOM     57  C   UNL     1      -5.897 -15.537   1.205  1.00  0.00     0.074 A 
ATOM     58  C   UNL     1      -3.643 -18.834   6.143  1.00  0.00     0.029 A 
ATOM     59  N   UNL     1      -4.306 -17.215   4.769  1.00  0.00    -0.354 N 
ATOM     60  N   UNL     1      -5.418 -16.131   2.272  1.00  0.00    -0.248 NA
ATOM     61  C   UNL     1      -6.189 -16.446   0.088  1.00  0.00     0.031 C 
ATOM     62  C   UNL     1      -4.013 -19.410   4.923  1.00  0.00     0.029 A 
ATOM     63  C   UNL     1      -4.450 -18.404   4.077  1.00  0.00     0.049 A 
ATOM     64  H   UNL     1      -4.531 -16.324   4.415  1.00  0.00     0.167 HD
ATOM     65  C   UNL     1      -5.379 -17.485   1.966  1.00  0.00     0.074 A 
ATOM     66  C   UNL     1      -5.891 -17.625   0.618  1.00  0.00     0.031 C 
ATOM     67  C   UNL     1      -4.961 -18.521   2.735  1.00  0.00     0.031 A 
BRANCH  54  68
ATOM     68  C   UNL     1      -2.885 -16.850   8.318  1.00  0.00    -0.014 A 
ATOM     69  C   UNL     1      -3.592 -16.750   9.528  1.00  0.00     0.009 A 
ATOM     70  C   UNL     1      -1.567 -17.330   8.341  1.00  0.00     0.009 A 
ATOM     71  C   UNL     1      -2.974 -17.071  10.738  1.00  0.00     0.001 A 
ATOM     72  C   UNL     1      -0.963 -17.682   9.550  1.00  0.00     0.001 A 
ATOM     73  C   UNL     1      -1.661 -17.540  10.748  1.00  0.00     0.000 A 
ENDBRANCH  54  68
BRANCH  55  74
ATOM     74  C   UNL     1      -6.759 -13.603  -0.303  1.00  0.00    -0.014 A 
ATOM     75  C   UNL     1      -8.094 -13.887  -0.630  1.00  0.00     0.009 A 
ATOM     76  C   UNL     1      -5.986 -12.851  -1.200  1.00  0.00     0.009 A 
ATOM     77  C   UNL     1      -8.637 -13.445  -1.838  1.00  0.00     0.001 A 
ATOM     78  C   UNL     1      -6.539 -12.387  -2.396  1.00  0.00     0.001 A 
ATOM     79  C   UNL     1      -7.862 -12.691  -2.717  1.00  0.00     0.000 A 
ENDBRANCH  55  74
BRANCH  67  80
ATOM     80  C   UNL     1      -5.078 -19.899   2.150  1.00  0.00    -0.014 A 
ATOM     81  C   UNL     1      -4.211 -20.340   1.139  1.00  0.00     0.009 A 
ATOM     82  C   UNL     1      -6.044 -20.784   2.654  1.00  0.00     0.009 A 
ATOM     83  C   UNL     1      -4.330 -21.632   0.623  1.00  0.00     0.001 A 
ATOM     84  C   UNL     1      -6.142 -22.084   2.156  1.00  0.00     0.001 A 
ATOM     85  C   UNL     1      -5.290 -22.504   1.136  1.00  0.00     0.000 A 
ENDBRANCH  67  80
ENDBRANCH  41  42
ENDBRANCH  33  36
ENDBRANCH  31  32
ENDBRANCH  30  31
ENDBRANCH  29  30
ENDBRANCH   1  29
TORSDOF 16
