REMARK SMILES O=C(NCCCCCCNC(=O)c1n[nH]c2cc(Br)cc(Cl)c12)c1ccc(-c2c3nc(c(-c4ccccc4)c4ccc([nH]4)c(-c4ccccc4)c4nc(c(-c5ccccc5)c5ccc2[nH]5)C=C4)C=C3)cc1
REMARK SMILES IDX 5 1 4 2 3 3 1 4 2 5 24 7 25 8 71 9 26 10 70 11 27 12 28 13
REMARK SMILES IDX 29 14 64 15 30 16 69 17 63 18 65 19 31 20 68 21 62 22 61 23
REMARK SMILES IDX 32 25 54 26 39 27 53 28 40 29 43 30 52 31 66 32 41 33 42 34
REMARK SMILES IDX 51 36 67 37 44 38 33 39 34 40 38 41 35 42 37 43 36 44 55 45
REMARK SMILES IDX 56 46 60 47 57 48 59 49 58 50 45 51 46 52 50 53 47 54 49 55
REMARK SMILES IDX 48 56 6 57 7 58 8 59 9 60 10 61 11 62 12 64 13 65 14 66
REMARK SMILES IDX 23 67 15 68 16 69 21 70 17 72 20 73 22 74 18 75 19 76
REMARK H PARENT 3 6 65 24 43 35 10 63 15 71
REMARK Flexibility Score: inf
ROOT
ATOM      1  C   UNL     1       4.813   2.218   0.222  1.00  0.00     0.021 C 
ENDROOT
BRANCH   1   2
ATOM      2  C   UNL     1       4.620   0.806   0.777  1.00  0.00     0.116 C 
BRANCH   2   3
ATOM      3  N   UNL     1       3.245   0.473   1.086  1.00  0.00    -0.352 N 
ATOM      4  O   UNL     1       1.173  -0.282   1.034  1.00  0.00    -0.269 OA
ATOM      5  C   UNL     1       2.180  -0.003   0.377  1.00  0.00     0.251 C 
ATOM      6  H   UNL     1       3.027   0.626   2.034  1.00  0.00     0.163 HD
BRANCH   5   7
ATOM      7  C   UNL     1       2.125  -0.159  -1.104  1.00  0.00     0.039 A 
ATOM      8  C   UNL     1       3.199  -0.020  -1.984  1.00  0.00     0.014 A 
ATOM      9  C   UNL     1       0.855  -0.445  -1.643  1.00  0.00     0.014 A 
ATOM     10  C   UNL     1       2.999  -0.094  -3.361  1.00  0.00     0.010 A 
ATOM     11  C   UNL     1       0.651  -0.532  -3.018  1.00  0.00     0.010 A 
ATOM     12  C   UNL     1       1.721  -0.323  -3.880  1.00  0.00    -0.014 A 
BRANCH  12  13
ATOM     13  C   UNL     1       1.577  -0.412  -5.330  1.00  0.00     0.031 A 
ATOM     14  C   UNL     1       2.275  -1.550  -5.993  1.00  0.00     0.074 A 
ATOM     15  C   UNL     1       0.782   0.394  -6.060  1.00  0.00     0.049 A 
ATOM     16  N   UNL     1       3.215  -1.505  -6.882  1.00  0.00    -0.248 NA
ATOM     17  C   UNL     1       1.908  -2.911  -5.577  1.00  0.00     0.031 C 
ATOM     18  C   UNL     1      -0.213   1.360  -5.592  1.00  0.00     0.029 A 
ATOM     19  N   UNL     1       0.641   0.433  -7.417  1.00  0.00    -0.354 N 
ATOM     20  C   UNL     1       3.472  -2.826  -7.248  1.00  0.00     0.074 A 
ATOM     21  C   UNL     1       2.704  -3.652  -6.350  1.00  0.00     0.031 C 
ATOM     22  C   UNL     1      -1.001   1.724  -6.630  1.00  0.00     0.029 A 
ATOM     23  C   UNL     1      -0.473   1.135  -7.850  1.00  0.00     0.049 A 
ATOM     24  H   UNL     1       1.275   0.001  -8.034  1.00  0.00     0.167 HD
ATOM     25  C   UNL     1       4.174  -3.150  -8.371  1.00  0.00     0.031 A 
ATOM     26  C   UNL     1      -0.954   1.182  -9.114  1.00  0.00     0.031 A 
ATOM     27  C   UNL     1       4.914  -2.034  -8.893  1.00  0.00     0.049 A 
ATOM     28  C   UNL     1       0.136   0.793 -10.035  1.00  0.00     0.074 A 
ATOM     29  C   UNL     1       5.942  -1.235  -8.437  1.00  0.00     0.029 A 
ATOM     30  N   UNL     1       4.397  -1.389  -9.989  1.00  0.00    -0.354 N 
ATOM     31  N   UNL     1       1.191   1.522 -10.257  1.00  0.00    -0.248 NA
ATOM     32  C   UNL     1       0.237  -0.596 -10.450  1.00  0.00     0.031 C 
ATOM     33  C   UNL     1       5.672   0.056  -8.979  1.00  0.00     0.029 A 
ATOM     34  C   UNL     1       4.513  -0.046  -9.751  1.00  0.00     0.049 A 
ATOM     35  H   UNL     1       4.016  -1.812 -10.792  1.00  0.00     0.167 HD
ATOM     36  C   UNL     1       2.219   0.610 -10.439  1.00  0.00     0.074 A 
ATOM     37  C   UNL     1       1.552  -0.668 -10.673  1.00  0.00     0.031 C 
ATOM     38  C   UNL     1       3.506   0.925 -10.109  1.00  0.00     0.031 A 
BRANCH  25  39
ATOM     39  C   UNL     1       3.925  -4.382  -9.207  1.00  0.00    -0.014 A 
ATOM     40  C   UNL     1       4.743  -4.614 -10.332  1.00  0.00     0.009 A 
ATOM     41  C   UNL     1       2.756  -5.158  -9.109  1.00  0.00     0.009 A 
ATOM     42  C   UNL     1       4.366  -5.508 -11.341  1.00  0.00     0.001 A 
ATOM     43  C   UNL     1       2.399  -6.085 -10.094  1.00  0.00     0.001 A 
ATOM     44  C   UNL     1       3.187  -6.237 -11.226  1.00  0.00     0.000 A 
ENDBRANCH  25  39
BRANCH  26  45
ATOM     45  C   UNL     1      -2.355   1.287  -9.568  1.00  0.00    -0.014 A 
ATOM     46  C   UNL     1      -2.656   1.657 -10.889  1.00  0.00     0.009 A 
ATOM     47  C   UNL     1      -3.390   0.747  -8.784  1.00  0.00     0.009 A 
ATOM     48  C   UNL     1      -3.936   1.449 -11.418  1.00  0.00     0.001 A 
ATOM     49  C   UNL     1      -4.669   0.544  -9.312  1.00  0.00     0.001 A 
ATOM     50  C   UNL     1      -4.937   0.879 -10.635  1.00  0.00     0.000 A 
ENDBRANCH  26  45
BRANCH  38  51
ATOM     51  C   UNL     1       3.821   2.363  -9.784  1.00  0.00    -0.014 A 
ATOM     52  C   UNL     1       3.227   3.043  -8.707  1.00  0.00     0.009 A 
ATOM     53  C   UNL     1       4.867   2.994 -10.475  1.00  0.00     0.009 A 
ATOM     54  C   UNL     1       3.648   4.327  -8.349  1.00  0.00     0.001 A 
ATOM     55  C   UNL     1       5.303   4.268 -10.104  1.00  0.00     0.001 A 
ATOM     56  C   UNL     1       4.691   4.935  -9.044  1.00  0.00     0.000 A 
ENDBRANCH  38  51
ENDBRANCH  12  13
ENDBRANCH   5   7
ENDBRANCH   2   3
ENDBRANCH   1   2
BRANCH   1  57
ATOM     57  C   UNL     1       4.300   3.350   1.121  1.00  0.00     0.002 C 
BRANCH  57  58
ATOM     58  C   UNL     1       4.775   3.328   2.577  1.00  0.00     0.002 C 
BRANCH  58  59
ATOM     59  C   UNL     1       6.291   3.285   2.790  1.00  0.00     0.021 C 
BRANCH  59  60
ATOM     60  C   UNL     1       7.068   4.446   2.178  1.00  0.00     0.116 C 
BRANCH  60  61
ATOM     61  N   UNL     1       6.734   5.727   2.774  1.00  0.00    -0.351 N 
ATOM     62  C   UNL     1       7.581   6.748   3.152  1.00  0.00     0.272 C 
ATOM     63  H   UNL     1       5.775   5.888   2.930  1.00  0.00     0.163 HD
ATOM     64  O   UNL     1       7.101   7.758   3.667  1.00  0.00    -0.267 OA
BRANCH  62  65
ATOM     65  C   UNL     1       9.023   6.566   2.953  1.00  0.00     0.159 A 
ATOM     66  N   UNL     1       9.849   6.474   4.014  1.00  0.00    -0.169 NA
ATOM     67  C   UNL     1       9.736   6.385   1.725  1.00  0.00     0.051 A 
ATOM     68  N   UNL     1      11.047   6.210   3.482  1.00  0.00    -0.277 N 
ATOM     69  C   UNL     1      11.036   6.069   2.123  1.00  0.00     0.068 A 
ATOM     70  C   UNL     1       9.471   6.397   0.342  1.00  0.00     0.054 A 
ATOM     71  H   UNL     1      11.866   6.125   4.023  1.00  0.00     0.190 HD
ATOM     72  C   UNL     1      12.047   5.700   1.225  1.00  0.00     0.044 A 
ATOM     73  C   UNL     1      10.443   6.016  -0.583  1.00  0.00     0.037 A 
ATOM     74  Cl  UNL     1       7.931   6.926  -0.173  1.00  0.00    -0.083 Cl
ATOM     75  C   UNL     1      11.709   5.656  -0.133  1.00  0.00     0.021 A 
ATOM     76  Br  UNL     1      13.013   5.098  -1.386  1.00  0.00    -0.051 Br
ENDBRANCH  62  65
ENDBRANCH  60  61
ENDBRANCH  59  60
ENDBRANCH  58  59
ENDBRANCH  57  58
ENDBRANCH   1  57
TORSDOF 13
