REMARK SMILES COc1ccc(-n2nc(C(=O)NCCCCCCNC(=O)c3ccc(-c4c5nc(c(-c6ccccc6)c6ccc([nH]6)c(-c6ccccc6)c6nc(c(-c7ccccc7)c7ccc4[nH]7)C=C6)C=C5)cc3)c(=O)cc2C)cc1
REMARK SMILES IDX 15 1 14 2 13 3 12 4 10 5 11 6 9 8 7 9 8 10 73 11 72 12 74 13
REMARK SMILES IDX 70 14 71 15 6 16 3 17 4 18 76 19 5 20 75 21 2 22 1 23 16 24
REMARK SMILES IDX 17 25 18 26 19 27 20 28 21 30 22 31 23 32 69 33 24 34 68 35
REMARK SMILES IDX 25 36 26 37 27 38 62 39 28 40 67 41 61 42 63 43 29 44 66 45
REMARK SMILES IDX 60 46 59 47 30 49 52 50 37 51 51 52 38 53 41 54 50 55 64 56
REMARK SMILES IDX 39 57 40 58 49 60 65 61 42 62 31 63 32 64 36 65 33 66 35 67
REMARK SMILES IDX 34 68 53 69 54 70 58 71 55 72 57 73 56 74 43 75 44 76 48 77
REMARK SMILES IDX 45 78 47 79 46 80
REMARK H PARENT 12 7 19 29 63 48 41 59
REMARK Flexibility Score: inf
ROOT
ATOM      1  C   UNL     1       0.876  12.508  -4.948  1.00  0.00     0.002 C 
ENDROOT
BRANCH   1   2
ATOM      2  C   UNL     1       1.339  11.146  -5.476  1.00  0.00     0.021 C 
BRANCH   2   3
ATOM      3  C   UNL     1       2.110  10.267  -4.496  1.00  0.00     0.116 C 
BRANCH   3   4
ATOM      4  N   UNL     1       1.277   9.745  -3.434  1.00  0.00    -0.351 N 
ATOM      5  C   UNL     1       1.260   8.508  -2.833  1.00  0.00     0.275 C 
ATOM      6  O   UNL     1       0.527   8.348  -1.859  1.00  0.00    -0.267 OA
ATOM      7  H   UNL     1       0.612  10.381  -3.083  1.00  0.00     0.163 HD
BRANCH   5   8
ATOM      8  C   UNL     1       2.078   7.321  -3.332  1.00  0.00     0.196 A 
ATOM      9  N   UNL     1       2.230   5.031  -3.544  1.00  0.00    -0.237 N 
ATOM     10  N   UNL     1       1.505   6.151  -3.211  1.00  0.00    -0.158 NA
ATOM     11  C   UNL     1       3.366   5.078  -4.355  1.00  0.00     0.044 A 
ATOM     12  C   UNL     1       3.998   6.236  -4.596  1.00  0.00     0.078 A 
ATOM     13  C   UNL     1       3.893   3.826  -5.016  1.00  0.00     0.067 C 
ATOM     14  C   UNL     1       3.491   7.406  -3.865  1.00  0.00     0.213 A 
ATOM     15  O   UNL     1       4.185   8.398  -3.705  1.00  0.00    -0.287 OA
BRANCH   9  16
ATOM     16  C   UNL     1       1.766   3.846  -2.896  1.00  0.00     0.065 A 
ATOM     17  C   UNL     1       0.843   1.499  -1.627  1.00  0.00     0.119 A 
ATOM     18  C   UNL     1      -0.040   2.316  -2.334  1.00  0.00     0.048 A 
ATOM     19  C   UNL     1       2.188   1.852  -1.546  1.00  0.00     0.048 A 
ATOM     20  C   UNL     1       0.411   3.492  -2.941  1.00  0.00     0.032 A 
ATOM     21  C   UNL     1       2.644   3.017  -2.175  1.00  0.00     0.032 A 
BRANCH  17  22
ATOM     22  O   UNL     1       0.300   0.358  -1.104  1.00  0.00    -0.497 OA
ATOM     23  C   UNL     1       0.869  -0.079   0.125  1.00  0.00     0.278 C 
ENDBRANCH  17  22
ENDBRANCH   9  16
ENDBRANCH   5   8
ENDBRANCH   3   4
ENDBRANCH   2   3
ENDBRANCH   1   2
BRANCH   1  24
ATOM     24  C   UNL     1       1.968  13.438  -4.410  1.00  0.00     0.002 C 
BRANCH  24  25
ATOM     25  C   UNL     1       3.179  13.651  -5.321  1.00  0.00     0.021 C 
BRANCH  25  26
ATOM     26  C   UNL     1       2.863  14.148  -6.729  1.00  0.00     0.116 C 
BRANCH  26  27
ATOM     27  N   UNL     1       2.208  15.446  -6.729  1.00  0.00    -0.352 N 
ATOM     28  C   UNL     1       2.561  16.602  -7.377  1.00  0.00     0.251 C 
ATOM     29  H   UNL     1       1.391  15.504  -6.183  1.00  0.00     0.163 HD
ATOM     30  O   UNL     1       1.985  17.656  -7.116  1.00  0.00    -0.269 OA
BRANCH  28  31
ATOM     31  C   UNL     1       3.647  16.591  -8.380  1.00  0.00     0.039 A 
ATOM     32  C   UNL     1       4.593  17.619  -8.362  1.00  0.00     0.014 A 
ATOM     33  C   UNL     1       3.723  15.586  -9.348  1.00  0.00     0.014 A 
ATOM     34  C   UNL     1       5.648  17.608  -9.277  1.00  0.00     0.010 A 
ATOM     35  C   UNL     1       4.815  15.536 -10.212  1.00  0.00     0.010 A 
ATOM     36  C   UNL     1       5.785  16.549 -10.189  1.00  0.00    -0.014 A 
BRANCH  36  37
ATOM     37  C   UNL     1       6.937  16.485 -11.124  1.00  0.00     0.031 A 
ATOM     38  C   UNL     1       6.713  16.561 -12.610  1.00  0.00     0.074 A 
ATOM     39  C   UNL     1       8.180  16.300 -10.639  1.00  0.00     0.049 A 
ATOM     40  N   UNL     1       7.585  16.470 -13.582  1.00  0.00    -0.248 NA
ATOM     41  C   UNL     1       5.324  16.738 -13.065  1.00  0.00     0.031 C 
ATOM     42  C   UNL     1       8.526  16.176  -9.221  1.00  0.00     0.029 A 
ATOM     43  N   UNL     1       9.384  16.180 -11.286  1.00  0.00    -0.354 N 
ATOM     44  C   UNL     1       6.852  16.564 -14.758  1.00  0.00     0.074 A 
ATOM     45  C   UNL     1       5.459  16.666 -14.380  1.00  0.00     0.031 C 
ATOM     46  C   UNL     1       9.856  16.026  -9.105  1.00  0.00     0.029 A 
ATOM     47  C   UNL     1      10.450  15.998 -10.438  1.00  0.00     0.049 A 
ATOM     48  H   UNL     1       9.476  16.219 -12.265  1.00  0.00     0.167 HD
ATOM     49  C   UNL     1       7.297  16.584 -16.037  1.00  0.00     0.031 A 
ATOM     50  C   UNL     1      11.758  15.822 -10.702  1.00  0.00     0.031 A 
ATOM     51  C   UNL     1       8.683  16.487 -16.412  1.00  0.00     0.049 A 
ATOM     52  C   UNL     1      12.223  15.821 -12.132  1.00  0.00     0.074 A 
ATOM     53  C   UNL     1       9.239  16.549 -17.678  1.00  0.00     0.029 A 
ATOM     54  N   UNL     1       9.730  16.303 -15.523  1.00  0.00    -0.354 N 
ATOM     55  N   UNL     1      11.524  15.979 -13.229  1.00  0.00    -0.248 NA
ATOM     56  C   UNL     1      13.663  15.628 -12.357  1.00  0.00     0.031 C 
ATOM     57  C   UNL     1      10.618  16.344 -17.559  1.00  0.00     0.029 A 
ATOM     58  C   UNL     1      10.927  16.221 -16.214  1.00  0.00     0.049 A 
ATOM     59  H   UNL     1       9.637  16.241 -14.544  1.00  0.00     0.167 HD
ATOM     60  C   UNL     1      12.440  15.935 -14.272  1.00  0.00     0.074 A 
ATOM     61  C   UNL     1      13.747  15.753 -13.674  1.00  0.00     0.031 C 
ATOM     62  C   UNL     1      12.220  16.038 -15.606  1.00  0.00     0.031 A 
BRANCH  49  63
ATOM     63  C   UNL     1       6.269  16.704 -17.129  1.00  0.00    -0.014 A 
ATOM     64  C   UNL     1       5.545  17.892 -17.321  1.00  0.00     0.009 A 
ATOM     65  C   UNL     1       6.047  15.628 -18.002  1.00  0.00     0.009 A 
ATOM     66  C   UNL     1       4.593  17.986 -18.339  1.00  0.00     0.001 A 
ATOM     67  C   UNL     1       5.118  15.735 -19.039  1.00  0.00     0.001 A 
ATOM     68  C   UNL     1       4.385  16.910 -19.200  1.00  0.00     0.000 A 
ENDBRANCH  49  63
BRANCH  50  69
ATOM     69  C   UNL     1      12.727  15.640  -9.589  1.00  0.00    -0.014 A 
ATOM     70  C   UNL     1      13.674  16.635  -9.299  1.00  0.00     0.009 A 
ATOM     71  C   UNL     1      12.718  14.467  -8.818  1.00  0.00     0.009 A 
ATOM     72  C   UNL     1      14.610  16.445  -8.280  1.00  0.00     0.001 A 
ATOM     73  C   UNL     1      13.635  14.295  -7.779  1.00  0.00     0.001 A 
ATOM     74  C   UNL     1      14.587  15.278  -7.518  1.00  0.00     0.000 A 
ENDBRANCH  50  69
BRANCH  62  75
ATOM     75  C   UNL     1      13.422  15.996 -16.507  1.00  0.00    -0.014 A 
ATOM     76  C   UNL     1      14.140  14.808 -16.715  1.00  0.00     0.009 A 
ATOM     77  C   UNL     1      13.816  17.158 -17.190  1.00  0.00     0.009 A 
ATOM     78  C   UNL     1      15.251  14.794 -17.562  1.00  0.00     0.001 A 
ATOM     79  C   UNL     1      14.907  17.133 -18.061  1.00  0.00     0.001 A 
ATOM     80  C   UNL     1      15.629  15.954 -18.238  1.00  0.00     0.000 A 
ENDBRANCH  62  75
ENDBRANCH  36  37
ENDBRANCH  28  31
ENDBRANCH  26  27
ENDBRANCH  25  26
ENDBRANCH  24  25
ENDBRANCH   1  24
TORSDOF 15
