REMARK SMILES COc1cc(C)cc2c1[C@@H](C)[C@@H](CC(=O)N[C@@H](Cc1c[nH]c3ccccc13)C(=O)NCCCCCCNC(=O)c1ccc(-c3c4nc(c(-c5ccccc5)c5ccc([nH]5)c(-c5ccccc5)c5nc(c(-c6ccccc6)c6ccc3[nH]6)C=C5)C=C4)cc1)C(=O)O2
REMARK SMILES IDX 32 1 31 2 30 3 28 4 29 5 17 7 16 8 14 9 15 10 13 12 12 13
REMARK SMILES IDX 3 14 4 15 9 16 5 17 8 18 10 19 6 20 7 21 90 22 11 23 88 24
REMARK SMILES IDX 89 25 2 26 1 27 18 28 19 29 20 30 27 31 21 32 22 33 26 34
REMARK SMILES IDX 23 36 25 37 24 38 33 39 34 40 35 41 36 42 37 43 38 44 39 46
REMARK SMILES IDX 40 47 41 48 87 49 42 50 86 51 43 52 44 53 45 54 80 55 46 56
REMARK SMILES IDX 85 57 79 58 81 59 47 60 84 61 78 62 77 63 48 65 70 66 55 67
REMARK SMILES IDX 69 68 56 69 59 70 68 71 82 72 57 73 58 74 67 76 83 77 60 78
REMARK SMILES IDX 49 79 50 80 54 81 51 82 53 83 52 84 71 85 72 86 76 87 73 88
REMARK SMILES IDX 75 89 74 90 61 91 62 92 66 93 63 94 65 95 64 96
REMARK H PARENT 30 6 16 11 21 35 37 45 81 64 59 75
REMARK Flexibility Score: inf
ROOT
ATOM      1  C   UNL     1      -3.577  -3.202  10.153  1.00  0.00     0.021 C 
ENDROOT
BRANCH   1   2
ATOM      2  C   UNL     1      -2.725  -1.942  10.074  1.00  0.00     0.116 C 
BRANCH   2   3
ATOM      3  N   UNL     1      -1.563  -2.192   9.269  1.00  0.00    -0.354 N 
ATOM      4  C   UNL     1      -1.471  -2.228   7.920  1.00  0.00     0.242 C 
ATOM      5  O   UNL     1      -0.476  -2.797   7.451  1.00  0.00    -0.273 OA
ATOM      6  H   UNL     1      -0.726  -2.357   9.761  1.00  0.00     0.163 HD
BRANCH   4   7
ATOM      7  C   UNL     1      -2.508  -1.582   6.974  1.00  0.00     0.175 C 
BRANCH   7   8
ATOM      8  N   UNL     1      -3.127  -2.439   5.984  1.00  0.00    -0.344 N 
ATOM      9  C   UNL     1      -3.281  -2.122   4.661  1.00  0.00     0.221 C 
ATOM     10  O   UNL     1      -4.267  -2.534   4.054  1.00  0.00    -0.275 OA
ATOM     11  H   UNL     1      -3.462  -3.315   6.284  1.00  0.00     0.164 HD
BRANCH   9  12
ATOM     12  C   UNL     1      -2.147  -1.394   3.946  1.00  0.00     0.116 C 
BRANCH  12  13
ATOM     13  C   UNL     1      -2.220   0.148   3.786  1.00  0.00     0.116 C 
ATOM     14  C   UNL     1       1.150   0.249   2.034  1.00  0.00     0.126 A 
ATOM     15  C   UNL     1       2.419  -0.201   2.438  1.00  0.00     0.050 A 
ATOM     16  C   UNL     1       0.123   0.393   2.969  1.00  0.00     0.041 A 
ATOM     17  C   UNL     1       2.691  -0.501   3.782  1.00  0.00    -0.044 A 
ATOM     18  C   UNL     1       0.471   0.239   4.321  1.00  0.00     0.138 A 
ATOM     19  C   UNL     1      -1.335   0.695   2.632  1.00  0.00     0.038 C 
ATOM     20  C   UNL     1       4.034  -1.025   4.194  1.00  0.00     0.044 C 
ATOM     21  C   UNL     1       1.714  -0.234   4.735  1.00  0.00     0.051 A 
ATOM     22  O   UNL     1      -0.410   0.608   5.348  1.00  0.00    -0.426 OA
ATOM     23  C   UNL     1      -1.857   0.172   1.289  1.00  0.00     0.014 C 
ATOM     24  C   UNL     1      -1.691   0.942   4.959  1.00  0.00     0.315 C 
ATOM     25  O   UNL     1      -2.330   1.812   5.540  1.00  0.00    -0.251 OA
BRANCH  14  26
ATOM     26  O   UNL     1       0.904   0.689   0.764  1.00  0.00    -0.496 OA
ATOM     27  C   UNL     1       1.380  -0.164  -0.268  1.00  0.00     0.278 C 
ENDBRANCH  14  26
ENDBRANCH  12  13
ENDBRANCH   9  12
ENDBRANCH   7   8
BRANCH   7  28
ATOM     28  C   UNL     1      -3.384  -0.399   7.359  1.00  0.00     0.072 C 
BRANCH  28  29
ATOM     29  C   UNL     1      -4.787  -0.392   7.905  1.00  0.00    -0.020 A 
ATOM     30  C   UNL     1      -5.198   0.750   8.583  1.00  0.00     0.087 A 
ATOM     31  C   UNL     1      -5.962  -1.224   7.791  1.00  0.00     0.003 A 
ATOM     32  N   UNL     1      -6.554   0.786   8.567  1.00  0.00    -0.361 N 
ATOM     33  C   UNL     1      -7.039  -0.455   8.258  1.00  0.00     0.046 A 
ATOM     34  C   UNL     1      -6.287  -2.515   7.314  1.00  0.00     0.010 A 
ATOM     35  H   UNL     1      -7.103   1.583   8.750  1.00  0.00     0.166 HD
ATOM     36  C   UNL     1      -8.364  -0.903   8.316  1.00  0.00     0.026 A 
ATOM     37  C   UNL     1      -7.607  -2.998   7.400  1.00  0.00     0.001 A 
ATOM     38  C   UNL     1      -8.628  -2.205   7.908  1.00  0.00     0.002 A 
ENDBRANCH  28  29
ENDBRANCH   7  28
ENDBRANCH   4   7
ENDBRANCH   2   3
ENDBRANCH   1   2
BRANCH   1  39
ATOM     39  C   UNL     1      -3.076  -4.157  11.239  1.00  0.00     0.002 C 
BRANCH  39  40
ATOM     40  C   UNL     1      -3.048  -3.540  12.644  1.00  0.00     0.002 C 
BRANCH  40  41
ATOM     41  C   UNL     1      -4.362  -2.873  13.057  1.00  0.00     0.021 C 
BRANCH  41  42
ATOM     42  C   UNL     1      -5.546  -3.828  13.040  1.00  0.00     0.116 C 
BRANCH  42  43
ATOM     43  N   UNL     1      -5.350  -4.931  13.970  1.00  0.00    -0.352 N 
ATOM     44  C   UNL     1      -6.114  -5.293  15.054  1.00  0.00     0.251 C 
ATOM     45  H   UNL     1      -4.562  -5.495  13.799  1.00  0.00     0.163 HD
ATOM     46  O   UNL     1      -5.694  -6.074  15.888  1.00  0.00    -0.269 OA
BRANCH  44  47
ATOM     47  C   UNL     1      -7.455  -4.690  15.191  1.00  0.00     0.039 A 
ATOM     48  C   UNL     1      -8.289  -4.602  14.076  1.00  0.00     0.014 A 
ATOM     49  C   UNL     1      -7.849  -4.165  16.422  1.00  0.00     0.014 A 
ATOM     50  C   UNL     1      -9.437  -3.829  14.145  1.00  0.00     0.010 A 
ATOM     51  C   UNL     1      -9.060  -3.478  16.514  1.00  0.00     0.010 A 
ATOM     52  C   UNL     1      -9.838  -3.263  15.365  1.00  0.00    -0.014 A 
BRANCH  52  53
ATOM     53  C   UNL     1     -11.082  -2.458  15.412  1.00  0.00     0.031 A 
ATOM     54  C   UNL     1     -11.043  -0.997  15.763  1.00  0.00     0.074 A 
ATOM     55  C   UNL     1     -12.248  -3.047  15.084  1.00  0.00     0.049 A 
ATOM     56  N   UNL     1     -12.035  -0.146  15.835  1.00  0.00    -0.248 NA
ATOM     57  C   UNL     1      -9.730  -0.412  16.079  1.00  0.00     0.031 C 
ATOM     58  C   UNL     1     -12.400  -4.454  14.703  1.00  0.00     0.029 A 
ATOM     59  N   UNL     1     -13.518  -2.539  14.990  1.00  0.00    -0.354 N 
ATOM     60  C   UNL     1     -11.472   1.062  16.228  1.00  0.00     0.074 A 
ATOM     61  C   UNL     1     -10.056   0.831  16.406  1.00  0.00     0.031 C 
ATOM     62  C   UNL     1     -13.674  -4.680  14.361  1.00  0.00     0.029 A 
ATOM     63  C   UNL     1     -14.447  -3.462  14.578  1.00  0.00     0.049 A 
ATOM     64  H   UNL     1     -13.742  -1.603  15.197  1.00  0.00     0.167 HD
ATOM     65  C   UNL     1     -12.084   2.254  16.413  1.00  0.00     0.031 A 
ATOM     66  C   UNL     1     -15.779  -3.356  14.412  1.00  0.00     0.031 A 
ATOM     67  C   UNL     1     -13.493   2.474  16.214  1.00  0.00     0.049 A 
ATOM     68  C   UNL     1     -16.440  -2.034  14.668  1.00  0.00     0.074 A 
ATOM     69  C   UNL     1     -14.198   3.659  16.337  1.00  0.00     0.029 A 
ATOM     70  N   UNL     1     -14.410   1.498  15.854  1.00  0.00    -0.354 N 
ATOM     71  N   UNL     1     -15.890  -0.895  15.014  1.00  0.00    -0.248 NA
ATOM     72  C   UNL     1     -17.899  -1.976  14.510  1.00  0.00     0.031 C 
ATOM     73  C   UNL     1     -15.551   3.383  16.134  1.00  0.00     0.029 A 
ATOM     74  C   UNL     1     -15.680   2.046  15.792  1.00  0.00     0.049 A 
ATOM     75  H   UNL     1     -14.190   0.556  15.671  1.00  0.00     0.167 HD
ATOM     76  C   UNL     1     -16.931   0.018  15.101  1.00  0.00     0.074 A 
ATOM     77  C   UNL     1     -18.143  -0.694  14.750  1.00  0.00     0.031 C 
ATOM     78  C   UNL     1     -16.882   1.328  15.445  1.00  0.00     0.031 A 
BRANCH  65  79
ATOM     79  C   UNL     1     -11.254   3.425  16.869  1.00  0.00    -0.014 A 
ATOM     80  C   UNL     1     -11.491   3.990  18.133  1.00  0.00     0.009 A 
ATOM     81  C   UNL     1     -10.324   4.040  16.017  1.00  0.00     0.009 A 
ATOM     82  C   UNL     1     -10.834   5.157  18.526  1.00  0.00     0.001 A 
ATOM     83  C   UNL     1      -9.643   5.190  16.426  1.00  0.00     0.001 A 
ATOM     84  C   UNL     1      -9.908   5.755  17.674  1.00  0.00     0.000 A 
ENDBRANCH  65  79
BRANCH  66  85
ATOM     85  C   UNL     1     -16.547  -4.553  13.976  1.00  0.00    -0.014 A 
ATOM     86  C   UNL     1     -16.639  -5.681  14.810  1.00  0.00     0.009 A 
ATOM     87  C   UNL     1     -17.113  -4.612  12.695  1.00  0.00     0.009 A 
ATOM     88  C   UNL     1     -17.239  -6.856  14.355  1.00  0.00     0.001 A 
ATOM     89  C   UNL     1     -17.747  -5.778  12.256  1.00  0.00     0.001 A 
ATOM     90  C   UNL     1     -17.795  -6.902  13.079  1.00  0.00     0.000 A 
ENDBRANCH  66  85
BRANCH  78  91
ATOM     91  C   UNL     1     -18.170   2.105  15.456  1.00  0.00    -0.014 A 
ATOM     92  C   UNL     1     -18.359   3.150  14.535  1.00  0.00     0.009 A 
ATOM     93  C   UNL     1     -19.136   1.893  16.450  1.00  0.00     0.009 A 
ATOM     94  C   UNL     1     -19.475   3.983  14.627  1.00  0.00     0.001 A 
ATOM     95  C   UNL     1     -20.270   2.706  16.517  1.00  0.00     0.001 A 
ATOM     96  C   UNL     1     -20.430   3.758  15.616  1.00  0.00     0.000 A 
ENDBRANCH  78  91
ENDBRANCH  52  53
ENDBRANCH  44  47
ENDBRANCH  42  43
ENDBRANCH  41  42
ENDBRANCH  40  41
ENDBRANCH  39  40
ENDBRANCH   1  39
TORSDOF 19
