REMARK SMILES O=C(NCCCCCCNC(=O)[C@H]1CCCCN1c1cc(-c2ccccc2)nc(-c2cccc(Cl)c2)n1)c1ccc(-c2c3nc(c(-c4ccccc4)c4ccc([nH]4)c(-c4ccccc4)c4nc(c(-c5ccccc5)c5ccc2[nH]5)C=C4)C=C3)cc1
REMARK SMILES IDX 6 1 5 2 4 3 3 4 1 5 2 6 38 8 39 9 85 10 40 11 84 12 41 13
REMARK SMILES IDX 42 14 43 15 78 16 44 17 83 18 77 19 79 20 45 21 82 22 76 23
REMARK SMILES IDX 75 24 46 26 68 27 53 28 67 29 54 30 57 31 66 32 80 33 55 34
REMARK SMILES IDX 56 35 65 37 81 38 58 39 47 40 48 41 52 42 49 43 51 44 50 45
REMARK SMILES IDX 69 46 70 47 74 48 71 49 73 50 72 51 59 52 60 53 64 54 61 55
REMARK SMILES IDX 63 56 62 57 7 58 8 59 9 60 10 61 11 62 12 64 13 65 14 66
REMARK SMILES IDX 18 67 15 68 17 69 16 70 19 71 20 72 37 73 21 74 29 75 28 76
REMARK SMILES IDX 22 77 23 78 27 79 24 80 26 81 25 82 30 83 31 84 36 85 32 86
REMARK SMILES IDX 34 87 33 88 35 89
REMARK H PARENT 3 7 79 25 57 36 10 63
REMARK Flexibility Score: inf
ROOT
ATOM      1  C   UNL     1       6.140   6.448   0.991  1.00  0.00     0.002 C 
ENDROOT
BRANCH   1   2
ATOM      2  C   UNL     1       4.756   6.926   1.423  1.00  0.00     0.021 C 
BRANCH   2   3
ATOM      3  C   UNL     1       4.534   8.422   1.262  1.00  0.00     0.116 C 
BRANCH   3   4
ATOM      4  N   UNL     1       4.540   8.831  -0.133  1.00  0.00    -0.352 N 
ATOM      5  O   UNL     1       3.631   9.610  -2.050  1.00  0.00    -0.269 OA
ATOM      6  C   UNL     1       3.567   9.502  -0.829  1.00  0.00     0.251 C 
ATOM      7  H   UNL     1       5.347   8.595  -0.644  1.00  0.00     0.163 HD
BRANCH   6   8
ATOM      8  C   UNL     1       2.430  10.088  -0.091  1.00  0.00     0.039 A 
ATOM      9  C   UNL     1       2.654  10.826   1.075  1.00  0.00     0.014 A 
ATOM     10  C   UNL     1       1.133   9.905  -0.575  1.00  0.00     0.014 A 
ATOM     11  C   UNL     1       1.577  11.292   1.815  1.00  0.00     0.010 A 
ATOM     12  C   UNL     1       0.054  10.451   0.124  1.00  0.00     0.010 A 
ATOM     13  C   UNL     1       0.269  11.144   1.326  1.00  0.00    -0.014 A 
BRANCH  13  14
ATOM     14  C   UNL     1      -0.843  11.843   2.012  1.00  0.00     0.031 A 
ATOM     15  C   UNL     1      -1.965  11.087   2.660  1.00  0.00     0.074 A 
ATOM     16  C   UNL     1      -0.832  13.191   2.016  1.00  0.00     0.049 A 
ATOM     17  N   UNL     1      -3.030  11.559   3.257  1.00  0.00    -0.248 NA
ATOM     18  C   UNL     1      -1.892   9.618   2.632  1.00  0.00     0.031 C 
ATOM     19  C   UNL     1       0.207  14.028   1.405  1.00  0.00     0.029 A 
ATOM     20  N   UNL     1      -1.714  14.095   2.546  1.00  0.00    -0.354 N 
ATOM     21  C   UNL     1      -3.766  10.450   3.654  1.00  0.00     0.074 A 
ATOM     22  C   UNL     1      -3.033   9.280   3.221  1.00  0.00     0.031 C 
ATOM     23  C   UNL     1      -0.085  15.318   1.618  1.00  0.00     0.029 A 
ATOM     24  C   UNL     1      -1.365  15.403   2.308  1.00  0.00     0.049 A 
ATOM     25  H   UNL     1      -2.520  13.834   3.049  1.00  0.00     0.167 HD
ATOM     26  C   UNL     1      -4.948  10.420   4.314  1.00  0.00     0.031 A 
ATOM     27  C   UNL     1      -2.020  16.547   2.574  1.00  0.00     0.031 A 
ATOM     28  C   UNL     1      -5.667  11.594   4.741  1.00  0.00     0.049 A 
ATOM     29  C   UNL     1      -3.353  16.473   3.257  1.00  0.00     0.074 A 
ATOM     30  C   UNL     1      -6.839  11.664   5.474  1.00  0.00     0.029 A 
ATOM     31  N   UNL     1      -5.293  12.899   4.457  1.00  0.00    -0.354 N 
ATOM     32  N   UNL     1      -3.998  15.419   3.695  1.00  0.00    -0.248 NA
ATOM     33  C   UNL     1      -4.053  17.745   3.479  1.00  0.00     0.031 C 
ATOM     34  C   UNL     1      -7.215  13.007   5.569  1.00  0.00     0.029 A 
ATOM     35  C   UNL     1      -6.241  13.778   4.954  1.00  0.00     0.049 A 
ATOM     36  H   UNL     1      -4.476  13.161   3.975  1.00  0.00     0.167 HD
ATOM     37  C   UNL     1      -5.171  15.901   4.255  1.00  0.00     0.074 A 
ATOM     38  C   UNL     1      -5.136  17.343   4.130  1.00  0.00     0.031 C 
ATOM     39  C   UNL     1      -6.192  15.210   4.816  1.00  0.00     0.031 A 
BRANCH  26  40
ATOM     40  C   UNL     1      -5.575   9.082   4.591  1.00  0.00    -0.014 A 
ATOM     41  C   UNL     1      -5.060   8.215   5.566  1.00  0.00     0.009 A 
ATOM     42  C   UNL     1      -6.761   8.727   3.927  1.00  0.00     0.009 A 
ATOM     43  C   UNL     1      -5.710   7.013   5.857  1.00  0.00     0.001 A 
ATOM     44  C   UNL     1      -7.423   7.538   4.238  1.00  0.00     0.001 A 
ATOM     45  C   UNL     1      -6.895   6.679   5.199  1.00  0.00     0.000 A 
ENDBRANCH  26  40
BRANCH  27  46
ATOM     46  C   UNL     1      -1.454  17.849   2.135  1.00  0.00    -0.014 A 
ATOM     47  C   UNL     1      -1.042  18.808   3.072  1.00  0.00     0.009 A 
ATOM     48  C   UNL     1      -1.338  18.145   0.766  1.00  0.00     0.009 A 
ATOM     49  C   UNL     1      -0.559  20.048   2.647  1.00  0.00     0.001 A 
ATOM     50  C   UNL     1      -0.820  19.370   0.345  1.00  0.00     0.001 A 
ATOM     51  C   UNL     1      -0.445  20.326   1.286  1.00  0.00     0.000 A 
ENDBRANCH  27  46
BRANCH  39  52
ATOM     52  C   UNL     1      -7.346  16.008   5.352  1.00  0.00    -0.014 A 
ATOM     53  C   UNL     1      -8.255  16.637   4.487  1.00  0.00     0.009 A 
ATOM     54  C   UNL     1      -7.552  16.092   6.737  1.00  0.00     0.009 A 
ATOM     55  C   UNL     1      -9.335  17.356   5.002  1.00  0.00     0.001 A 
ATOM     56  C   UNL     1      -8.650  16.784   7.248  1.00  0.00     0.001 A 
ATOM     57  C   UNL     1      -9.536  17.422   6.380  1.00  0.00     0.000 A 
ENDBRANCH  39  52
ENDBRANCH  13  14
ENDBRANCH   6   8
ENDBRANCH   3   4
ENDBRANCH   2   3
ENDBRANCH   1   2
BRANCH   1  58
ATOM     58  C   UNL     1       7.312   7.138   1.696  1.00  0.00     0.002 C 
BRANCH  58  59
ATOM     59  C   UNL     1       7.272   7.107   3.229  1.00  0.00     0.021 C 
BRANCH  59  60
ATOM     60  C   UNL     1       7.111   5.715   3.837  1.00  0.00     0.116 C 
BRANCH  60  61
ATOM     61  N   UNL     1       8.174   4.828   3.414  1.00  0.00    -0.354 N 
ATOM     62  C   UNL     1       9.098   4.157   4.162  1.00  0.00     0.242 C 
ATOM     63  H   UNL     1       8.241   4.688   2.442  1.00  0.00     0.163 HD
ATOM     64  O   UNL     1       9.929   3.484   3.548  1.00  0.00    -0.273 OA
BRANCH  62  65
ATOM     65  C   UNL     1       9.085   4.293   5.706  1.00  0.00     0.173 C 
ATOM     66  C   UNL     1       9.710   3.066   6.381  1.00  0.00     0.035 C 
ATOM     67  N   UNL     1       9.798   5.524   6.095  1.00  0.00    -0.344 N 
ATOM     68  C   UNL     1      11.235   3.027   6.291  1.00  0.00     0.004 C 
ATOM     69  C   UNL     1      11.253   5.539   5.982  1.00  0.00     0.119 C 
ATOM     70  C   UNL     1      11.849   4.350   6.738  1.00  0.00     0.022 C 
BRANCH  67  71
ATOM     71  C   UNL     1       9.146   6.471   6.857  1.00  0.00     0.133 A 
ATOM     72  C   UNL     1       9.286   7.814   6.561  1.00  0.00     0.076 A 
ATOM     73  N   UNL     1       8.316   6.062   7.827  1.00  0.00    -0.211 NA
ATOM     74  C   UNL     1       8.510   8.714   7.268  1.00  0.00     0.076 A 
ATOM     75  C   UNL     1       7.641   7.008   8.506  1.00  0.00     0.162 A 
ATOM     76  N   UNL     1       7.686   8.325   8.257  1.00  0.00    -0.228 NA
BRANCH  74  77
ATOM     77  C   UNL     1       8.481  10.145   6.939  1.00  0.00     0.000 A 
ATOM     78  C   UNL     1       8.763  11.118   7.911  1.00  0.00     0.010 A 
ATOM     79  C   UNL     1       8.142  10.583   5.646  1.00  0.00     0.010 A 
ATOM     80  C   UNL     1       8.723  12.480   7.599  1.00  0.00     0.001 A 
ATOM     81  C   UNL     1       8.091  11.944   5.335  1.00  0.00     0.001 A 
ATOM     82  C   UNL     1       8.385  12.892   6.311  1.00  0.00     0.000 A 
ENDBRANCH  74  77
BRANCH  75  83
ATOM     83  C   UNL     1       6.748   6.556   9.572  1.00  0.00     0.021 A 
ATOM     84  C   UNL     1       7.232   5.780  10.641  1.00  0.00     0.012 A 
ATOM     85  C   UNL     1       5.380   6.876   9.549  1.00  0.00     0.032 A 
ATOM     86  C   UNL     1       6.377   5.335  11.654  1.00  0.00     0.002 A 
ATOM     87  C   UNL     1       4.527   6.411  10.549  1.00  0.00     0.041 A 
ATOM     88  C   UNL     1       5.019   5.645  11.602  1.00  0.00     0.020 A 
ATOM     89  Cl  UNL     1       2.846   6.775  10.472  1.00  0.00    -0.084 Cl
ENDBRANCH  75  83
ENDBRANCH  67  71
ENDBRANCH  62  65
ENDBRANCH  60  61
ENDBRANCH  59  60
ENDBRANCH  58  59
ENDBRANCH   1  58
TORSDOF 16
