REMARK SMILES O=C(NCCCCCCNC(=O)c1ccc2c(=O)n(CCC[NH+]3CCOCC3)c(=O)[nH]c2c1)c1ccc(-c2c3nc(c(-c4ccccc4)c4ccc([nH]4)c(-c4ccccc4)c4nc(c(-c5ccccc5)c5ccc2[nH]5)C=C4)C=C3)cc1
REMARK SMILES IDX 7 1 6 2 5 3 4 4 3 5 1 6 2 7 34 9 35 10 81 11 36 12 80 13
REMARK SMILES IDX 37 14 38 15 39 16 74 17 40 18 79 19 73 20 75 21 41 22 78 23
REMARK SMILES IDX 72 24 71 25 42 27 64 28 49 29 63 30 50 31 53 32 62 33 76 34
REMARK SMILES IDX 51 35 52 36 61 38 77 39 54 40 43 41 44 42 48 43 45 44 47 45
REMARK SMILES IDX 46 46 65 47 66 48 70 49 67 50 69 51 68 52 55 53 56 54 60 55
REMARK SMILES IDX 57 56 59 57 58 58 8 59 9 60 10 61 11 62 12 64 13 65 14 66
REMARK SMILES IDX 33 67 15 68 32 69 16 70 31 71 17 72 29 73 18 75 19 76 30 77
REMARK SMILES IDX 20 78 21 79 22 80 23 81 24 82 28 83 25 85 27 86 26 87
REMARK H PARENT 3 8 75 26 53 37 10 63 31 74 23 84
REMARK Flexibility Score: inf
ROOT
ATOM      1  C   UNL     1       4.808  -3.260   2.587  1.00  0.00     0.002 C 
ENDROOT
BRANCH   1   2
ATOM      2  C   UNL     1       4.270  -1.936   3.138  1.00  0.00     0.002 C 
BRANCH   2   3
ATOM      3  C   UNL     1       4.771  -0.681   2.417  1.00  0.00     0.021 C 
BRANCH   3   4
ATOM      4  C   UNL     1       4.502  -0.657   0.916  1.00  0.00     0.116 C 
BRANCH   4   5
ATOM      5  N   UNL     1       3.083  -0.726   0.623  1.00  0.00    -0.352 N 
ATOM      6  O   UNL     1       1.076   0.021  -0.059  1.00  0.00    -0.269 OA
ATOM      7  C   UNL     1       2.298   0.123  -0.112  1.00  0.00     0.251 C 
ATOM      8  H   UNL     1       2.613  -1.499   1.010  1.00  0.00     0.163 HD
BRANCH   7   9
ATOM      9  C   UNL     1       2.907   1.152  -0.982  1.00  0.00     0.039 A 
ATOM     10  C   UNL     1       2.292   2.405  -1.068  1.00  0.00     0.014 A 
ATOM     11  C   UNL     1       4.008   0.855  -1.791  1.00  0.00     0.014 A 
ATOM     12  C   UNL     1       2.774   3.359  -1.967  1.00  0.00     0.010 A 
ATOM     13  C   UNL     1       4.523   1.825  -2.648  1.00  0.00     0.010 A 
ATOM     14  C   UNL     1       3.886   3.071  -2.770  1.00  0.00    -0.014 A 
BRANCH  14  15
ATOM     15  C   UNL     1       4.333   4.002  -3.834  1.00  0.00     0.031 A 
ATOM     16  C   UNL     1       4.159   3.600  -5.274  1.00  0.00     0.074 A 
ATOM     17  C   UNL     1       4.922   5.171  -3.522  1.00  0.00     0.049 A 
ATOM     18  N   UNL     1       4.607   4.187  -6.354  1.00  0.00    -0.248 NA
ATOM     19  C   UNL     1       3.397   2.365  -5.533  1.00  0.00     0.031 C 
ATOM     20  C   UNL     1       5.131   5.680  -2.167  1.00  0.00     0.029 A 
ATOM     21  N   UNL     1       5.467   6.139  -4.331  1.00  0.00    -0.354 N 
ATOM     22  C   UNL     1       4.203   3.382  -7.412  1.00  0.00     0.074 A 
ATOM     23  C   UNL     1       3.505   2.250  -6.849  1.00  0.00     0.031 C 
ATOM     24  C   UNL     1       5.758   6.866  -2.237  1.00  0.00     0.029 A 
ATOM     25  C   UNL     1       6.038   7.178  -3.638  1.00  0.00     0.049 A 
ATOM     26  H   UNL     1       5.450   6.091  -5.314  1.00  0.00     0.167 HD
ATOM     27  C   UNL     1       4.386   3.581  -8.737  1.00  0.00     0.031 A 
ATOM     28  C   UNL     1       6.730   8.249  -4.077  1.00  0.00     0.031 A 
ATOM     29  C   UNL     1       5.044   4.729  -9.295  1.00  0.00     0.049 A 
ATOM     30  C   UNL     1       6.944   8.433  -5.556  1.00  0.00     0.074 A 
ATOM     31  C   UNL     1       5.237   5.037 -10.630  1.00  0.00     0.029 A 
ATOM     32  N   UNL     1       5.599   5.759  -8.555  1.00  0.00    -0.354 N 
ATOM     33  N   UNL     1       6.542   7.673  -6.545  1.00  0.00    -0.248 NA
ATOM     34  C   UNL     1       7.704   9.619  -5.982  1.00  0.00     0.031 C 
ATOM     35  C   UNL     1       5.956   6.230 -10.698  1.00  0.00     0.029 A 
ATOM     36  C   UNL     1       6.156   6.694  -9.408  1.00  0.00     0.049 A 
ATOM     37  H   UNL     1       5.598   5.816  -7.573  1.00  0.00     0.167 HD
ATOM     38  C   UNL     1       6.976   8.298  -7.707  1.00  0.00     0.074 A 
ATOM     39  C   UNL     1       7.665   9.505  -7.304  1.00  0.00     0.031 C 
ATOM     40  C   UNL     1       6.819   7.902  -8.992  1.00  0.00     0.031 A 
BRANCH  27  41
ATOM     41  C   UNL     1       3.862   2.550  -9.694  1.00  0.00    -0.014 A 
ATOM     42  C   UNL     1       4.763   1.765 -10.432  1.00  0.00     0.009 A 
ATOM     43  C   UNL     1       2.489   2.447  -9.963  1.00  0.00     0.009 A 
ATOM     44  C   UNL     1       4.302   0.914 -11.437  1.00  0.00     0.001 A 
ATOM     45  C   UNL     1       2.029   1.575 -10.951  1.00  0.00     0.001 A 
ATOM     46  C   UNL     1       2.935   0.820 -11.695  1.00  0.00     0.000 A 
ENDBRANCH  27  41
BRANCH  28  47
ATOM     47  C   UNL     1       7.280   9.221  -3.095  1.00  0.00    -0.014 A 
ATOM     48  C   UNL     1       8.328   8.850  -2.236  1.00  0.00     0.009 A 
ATOM     49  C   UNL     1       6.747  10.514  -2.991  1.00  0.00     0.009 A 
ATOM     50  C   UNL     1       8.816   9.745  -1.281  1.00  0.00     0.001 A 
ATOM     51  C   UNL     1       7.258  11.418  -2.055  1.00  0.00     0.001 A 
ATOM     52  C   UNL     1       8.285  11.030  -1.196  1.00  0.00     0.000 A 
ENDBRANCH  28  47
BRANCH  40  53
ATOM     53  C   UNL     1       7.369   8.773 -10.085  1.00  0.00    -0.014 A 
ATOM     54  C   UNL     1       6.484   9.458 -10.934  1.00  0.00     0.009 A 
ATOM     55  C   UNL     1       8.739   8.775 -10.380  1.00  0.00     0.009 A 
ATOM     56  C   UNL     1       6.957  10.102 -12.078  1.00  0.00     0.001 A 
ATOM     57  C   UNL     1       9.213   9.443 -11.511  1.00  0.00     0.001 A 
ATOM     58  C   UNL     1       8.321  10.092 -12.366  1.00  0.00     0.000 A 
ENDBRANCH  40  53
ENDBRANCH  14  15
ENDBRANCH   7   9
ENDBRANCH   4   5
ENDBRANCH   3   4
ENDBRANCH   2   3
ENDBRANCH   1   2
BRANCH   1  59
ATOM     59  C   UNL     1       6.336  -3.379   2.559  1.00  0.00     0.021 C 
BRANCH  59  60
ATOM     60  C   UNL     1       7.016  -3.140   3.906  1.00  0.00     0.116 C 
BRANCH  60  61
ATOM     61  N   UNL     1       6.562  -4.097   4.902  1.00  0.00    -0.352 N 
ATOM     62  C   UNL     1       7.304  -4.985   5.627  1.00  0.00     0.251 C 
ATOM     63  H   UNL     1       5.593  -4.106   5.077  1.00  0.00     0.163 HD
ATOM     64  O   UNL     1       6.776  -5.886   6.276  1.00  0.00    -0.269 OA
BRANCH  62  65
ATOM     65  C   UNL     1       8.765  -4.847   5.633  1.00  0.00     0.041 A 
ATOM     66  C   UNL     1       9.339  -3.693   6.181  1.00  0.00     0.015 A 
ATOM     67  C   UNL     1       9.550  -5.870   5.093  1.00  0.00     0.040 A 
ATOM     68  C   UNL     1      10.722  -3.562   6.190  1.00  0.00     0.017 A 
ATOM     69  C   UNL     1      10.931  -5.708   5.071  1.00  0.00     0.056 A 
ATOM     70  C   UNL     1      11.509  -4.577   5.636  1.00  0.00     0.064 A 
ATOM     71  N   UNL     1      11.745  -6.654   4.455  1.00  0.00    -0.307 N 
ATOM     72  C   UNL     1      12.972  -4.470   5.647  1.00  0.00     0.264 A 
ATOM     73  C   UNL     1      13.095  -6.502   4.288  1.00  0.00     0.328 A 
ATOM     74  H   UNL     1      11.327  -7.480   4.121  1.00  0.00     0.171 HD
ATOM     75  O   UNL     1      13.480  -3.608   6.357  1.00  0.00    -0.268 OA
ATOM     76  N   UNL     1      13.670  -5.372   4.854  1.00  0.00    -0.260 N 
ATOM     77  O   UNL     1      13.716  -7.357   3.659  1.00  0.00    -0.248 OA
BRANCH  76  78
ATOM     78  C   UNL     1      15.109  -5.176   4.713  1.00  0.00     0.137 C 
BRANCH  78  79
ATOM     79  C   UNL     1      15.481  -4.196   3.590  1.00  0.00     0.083 C 
BRANCH  79  80
ATOM     80  C   UNL     1      15.320  -2.699   3.907  1.00  0.00     0.264 C 
BRANCH  80  81
ATOM     81  N   UNL     1      15.949  -2.212   5.141  1.00  0.00    -0.331 N 
ATOM     82  C   UNL     1      15.850  -0.739   5.260  1.00  0.00     0.291 C 
ATOM     83  C   UNL     1      17.353  -2.598   5.352  1.00  0.00     0.291 C 
ATOM     84  H   UNL     1      15.409  -2.683   5.866  1.00  0.00     0.348 HD
ATOM     85  C   UNL     1      16.881   0.021   4.402  1.00  0.00     0.221 C 
ATOM     86  C   UNL     1      18.333  -1.838   4.453  1.00  0.00     0.221 C 
ATOM     87  O   UNL     1      18.221  -0.424   4.652  1.00  0.00    -0.370 OA
ENDBRANCH  80  81
ENDBRANCH  79  80
ENDBRANCH  78  79
ENDBRANCH  76  78
ENDBRANCH  62  65
ENDBRANCH  60  61
ENDBRANCH  59  60
ENDBRANCH   1  59
TORSDOF 17
