REMARK SMILES CS(=O)(=O)Nc1cc(NS(C)(=O)=O)cc(C(=O)NCCCCCCNC(=O)c2ccc(-c3c4nc(c(-c5ccccc5)c5ccc([nH]5)c(-c5ccccc5)c5nc(c(-c6ccccc6)c6ccc3[nH]6)C=C5)C=C4)cc2)c1
REMARK SMILES IDX 21 1 20 2 19 3 18 4 16 5 17 6 15 8 6 9 7 10 76 11 8 12 14 13
REMARK SMILES IDX 5 14 2 16 1 17 3 18 4 19 9 20 10 22 11 23 12 24 13 25 22 26
REMARK SMILES IDX 23 27 24 28 25 29 26 30 27 32 28 33 29 34 75 35 30 36 74 37
REMARK SMILES IDX 31 38 32 39 33 40 68 41 34 42 73 43 67 44 69 45 35 46 72 47
REMARK SMILES IDX 66 48 65 49 36 51 58 52 43 53 57 54 44 55 47 56 56 57 70 58
REMARK SMILES IDX 45 59 46 60 55 62 71 63 48 64 37 65 38 66 42 67 39 68 41 69
REMARK SMILES IDX 40 70 59 71 60 72 64 73 61 74 63 75 62 76 49 77 50 78 54 79
REMARK SMILES IDX 51 80 53 81 52 82
REMARK H PARENT 18 7 5 15 9 21 25 31 69 50 47 61
REMARK Flexibility Score: inf
ROOT
ATOM      1  C   UNL     1       6.275  -1.038   1.852  1.00  0.00     0.002 C 
ENDROOT
BRANCH   1   2
ATOM      2  C   UNL     1       5.225  -1.356   0.781  1.00  0.00     0.021 C 
BRANCH   2   3
ATOM      3  C   UNL     1       4.488  -0.104   0.307  1.00  0.00     0.116 C 
BRANCH   3   4
ATOM      4  N   UNL     1       5.185   0.491  -0.815  1.00  0.00    -0.352 N 
ATOM      5  C   UNL     1       4.993   0.488  -2.170  1.00  0.00     0.251 C 
ATOM      6  O   UNL     1       5.830   1.080  -2.853  1.00  0.00    -0.269 OA
ATOM      7  H   UNL     1       5.973   1.014  -0.542  1.00  0.00     0.163 HD
BRANCH   5   8
ATOM      8  C   UNL     1       3.799  -0.091  -2.850  1.00  0.00     0.043 A 
ATOM      9  C   UNL     1       1.646  -1.164  -2.834  1.00  0.00     0.051 A 
ATOM     10  C   UNL     1       1.401  -0.717  -4.131  1.00  0.00     0.053 A 
ATOM     11  C   UNL     1       2.900  -0.977  -2.267  1.00  0.00     0.040 A 
ATOM     12  C   UNL     1       2.398  -0.059  -4.846  1.00  0.00     0.051 A 
ATOM     13  C   UNL     1       3.548   0.341  -4.163  1.00  0.00     0.040 A 
BRANCH   9  14
ATOM     14  N   UNL     1       0.585  -1.836  -2.165  1.00  0.00    -0.284 N 
ATOM     15  H   UNL     1      -0.035  -2.382  -2.700  1.00  0.00     0.180 HD
BRANCH  14  16
ATOM     16  S   UNL     1       0.337  -1.742  -0.511  1.00  0.00     0.229 S 
ATOM     17  C   UNL     1       0.332   0.015  -0.180  1.00  0.00     0.183 C 
ATOM     18  O   UNL     1       1.474  -2.331   0.164  1.00  0.00    -0.207 OA
ATOM     19  O   UNL     1      -0.999  -2.246  -0.277  1.00  0.00    -0.207 OA
ENDBRANCH  14  16
ENDBRANCH   9  14
BRANCH  12  20
ATOM     20  N   UNL     1       2.224   0.414  -6.191  1.00  0.00    -0.284 N 
ATOM     21  H   UNL     1       2.487   1.332  -6.432  1.00  0.00     0.180 HD
BRANCH  20  22
ATOM     22  S   UNL     1       1.559  -0.624  -7.368  1.00  0.00     0.229 S 
ATOM     23  C   UNL     1       0.579   0.553  -8.267  1.00  0.00     0.183 C 
ATOM     24  O   UNL     1       2.663  -1.032  -8.212  1.00  0.00    -0.207 OA
ATOM     25  O   UNL     1       0.659  -1.585  -6.778  1.00  0.00    -0.207 OA
ENDBRANCH  20  22
ENDBRANCH  12  20
ENDBRANCH   5   8
ENDBRANCH   3   4
ENDBRANCH   2   3
ENDBRANCH   1   2
BRANCH   1  26
ATOM     26  C   UNL     1       5.702  -0.405   3.129  1.00  0.00     0.002 C 
BRANCH  26  27
ATOM     27  C   UNL     1       4.561  -1.194   3.774  1.00  0.00     0.021 C 
BRANCH  27  28
ATOM     28  C   UNL     1       4.951  -2.606   4.191  1.00  0.00     0.116 C 
BRANCH  28  29
ATOM     29  N   UNL     1       6.033  -2.589   5.164  1.00  0.00    -0.352 N 
ATOM     30  C   UNL     1       6.064  -3.097   6.436  1.00  0.00     0.251 C 
ATOM     31  H   UNL     1       6.862  -2.150   4.866  1.00  0.00     0.163 HD
ATOM     32  O   UNL     1       6.951  -2.765   7.215  1.00  0.00    -0.269 OA
BRANCH  30  33
ATOM     33  C   UNL     1       5.019  -4.046   6.864  1.00  0.00     0.039 A 
ATOM     34  C   UNL     1       4.467  -3.920   8.140  1.00  0.00     0.014 A 
ATOM     35  C   UNL     1       4.599  -5.070   6.009  1.00  0.00     0.014 A 
ATOM     36  C   UNL     1       3.462  -4.798   8.544  1.00  0.00     0.010 A 
ATOM     37  C   UNL     1       3.541  -5.889   6.381  1.00  0.00     0.010 A 
ATOM     38  C   UNL     1       2.974  -5.773   7.658  1.00  0.00    -0.014 A 
BRANCH  38  39
ATOM     39  C   UNL     1       1.882  -6.694   8.056  1.00  0.00     0.031 A 
ATOM     40  C   UNL     1       2.138  -8.174   8.133  1.00  0.00     0.074 A 
ATOM     41  C   UNL     1       0.651  -6.204   8.293  1.00  0.00     0.049 A 
ATOM     42  N   UNL     1       1.303  -9.142   8.416  1.00  0.00    -0.248 NA
ATOM     43  C   UNL     1       3.504  -8.630   7.830  1.00  0.00     0.031 C 
ATOM     44  C   UNL     1       0.270  -4.792   8.215  1.00  0.00     0.029 A 
ATOM     45  N   UNL     1      -0.511  -6.843   8.646  1.00  0.00    -0.354 N 
ATOM     46  C   UNL     1       2.037 -10.316   8.307  1.00  0.00     0.074 A 
ATOM     47  C   UNL     1       3.368  -9.947   7.879  1.00  0.00     0.031 C 
ATOM     48  C   UNL     1      -1.026  -4.669   8.542  1.00  0.00     0.029 A 
ATOM     49  C   UNL     1      -1.578  -5.993   8.806  1.00  0.00     0.049 A 
ATOM     50  H   UNL     1      -0.573  -7.817   8.773  1.00  0.00     0.167 HD
ATOM     51  C   UNL     1       1.646 -11.587   8.562  1.00  0.00     0.031 A 
ATOM     52  C   UNL     1      -2.861  -6.254   9.120  1.00  0.00     0.031 A 
ATOM     53  C   UNL     1       0.321 -11.951   8.989  1.00  0.00     0.049 A 
ATOM     54  C   UNL     1      -3.278  -7.678   9.368  1.00  0.00     0.074 A 
ATOM     55  C   UNL     1      -0.163 -13.204   9.321  1.00  0.00     0.029 A 
ATOM     56  N   UNL     1      -0.732 -11.061   9.136  1.00  0.00    -0.354 N 
ATOM     57  N   UNL     1      -2.554  -8.771   9.332  1.00  0.00    -0.248 NA
ATOM     58  C   UNL     1      -4.688  -7.901   9.716  1.00  0.00     0.031 C 
ATOM     59  C   UNL     1      -1.526 -13.082   9.607  1.00  0.00     0.029 A 
ATOM     60  C   UNL     1      -1.873 -11.742   9.527  1.00  0.00     0.049 A 
ATOM     61  H   UNL     1      -0.678 -10.090   8.985  1.00  0.00     0.167 HD
ATOM     62  C   UNL     1      -3.411  -9.805   9.685  1.00  0.00     0.074 A 
ATOM     63  C   UNL     1      -4.703  -9.205   9.948  1.00  0.00     0.031 C 
ATOM     64  C   UNL     1      -3.151 -11.131   9.787  1.00  0.00     0.031 A 
BRANCH  51  65
ATOM     65  C   UNL     1       2.663 -12.679   8.369  1.00  0.00    -0.014 A 
ATOM     66  C   UNL     1       3.781 -12.794   9.212  1.00  0.00     0.009 A 
ATOM     67  C   UNL     1       2.485 -13.626   7.349  1.00  0.00     0.009 A 
ATOM     68  C   UNL     1       4.718 -13.810   9.012  1.00  0.00     0.001 A 
ATOM     69  C   UNL     1       3.405 -14.661   7.173  1.00  0.00     0.001 A 
ATOM     70  C   UNL     1       4.526 -14.746   7.997  1.00  0.00     0.000 A 
ENDBRANCH  51  65
BRANCH  52  71
ATOM     71  C   UNL     1      -3.844  -5.144   9.229  1.00  0.00    -0.014 A 
ATOM     72  C   UNL     1      -4.392  -4.795  10.473  1.00  0.00     0.009 A 
ATOM     73  C   UNL     1      -4.248  -4.433   8.088  1.00  0.00     0.009 A 
ATOM     74  C   UNL     1      -5.349  -3.781  10.566  1.00  0.00     0.001 A 
ATOM     75  C   UNL     1      -5.180  -3.398   8.189  1.00  0.00     0.001 A 
ATOM     76  C   UNL     1      -5.738  -3.081   9.426  1.00  0.00     0.000 A 
ENDBRANCH  52  71
BRANCH  64  77
ATOM     77  C   UNL     1      -4.272 -12.021  10.250  1.00  0.00    -0.014 A 
ATOM     78  C   UNL     1      -5.386 -12.285   9.437  1.00  0.00     0.009 A 
ATOM     79  C   UNL     1      -4.189 -12.637  11.509  1.00  0.00     0.009 A 
ATOM     80  C   UNL     1      -6.410 -13.117   9.894  1.00  0.00     0.001 A 
ATOM     81  C   UNL     1      -5.196 -13.496  11.947  1.00  0.00     0.001 A 
ATOM     82  C   UNL     1      -6.311 -13.727  11.144  1.00  0.00     0.000 A 
ENDBRANCH  64  77
ENDBRANCH  38  39
ENDBRANCH  30  33
ENDBRANCH  28  29
ENDBRANCH  27  28
ENDBRANCH  26  27
ENDBRANCH   1  26
TORSDOF 17
