REMARK SMILES O=C(Cc1cncnc1N1CCC2(CC1)OCCC[C@@H]2O)NCCCCCCNC(=O)c1ccc(-c2c3nc(c(-c4ccccc4)c4ccc([nH]4)c(-c4ccccc4)c4nc(c(-c5ccccc5)c5ccc2[nH]5)C=C4)C=C3)cc1
REMARK SMILES IDX 25 1 24 2 23 3 22 4 1 5 2 6 3 8 4 9 5 10 9 11 6 12 8 13 7 14
REMARK SMILES IDX 10 15 11 16 15 17 12 18 14 19 13 20 16 21 20 22 17 23 19 24
REMARK SMILES IDX 18 25 21 26 26 28 27 29 28 30 29 31 30 32 31 34 32 35 33 36
REMARK SMILES IDX 79 37 34 38 78 39 35 40 36 41 37 42 72 43 38 44 77 45 71 46
REMARK SMILES IDX 73 47 39 48 76 49 70 50 69 51 40 53 62 54 47 55 61 56 48 57
REMARK SMILES IDX 51 58 60 59 74 60 49 61 50 62 59 64 75 65 52 66 41 67 42 68
REMARK SMILES IDX 46 69 43 70 45 71 44 72 63 73 64 74 68 75 65 76 67 77 66 78
REMARK SMILES IDX 53 79 54 80 58 81 55 82 57 83 56 84
REMARK H PARENT 22 7 21 27 29 33 73 52 51 63
REMARK Flexibility Score: inf
ROOT
ATOM      1  C   UNL     1       4.182  -3.761  -0.979  1.00  0.00     0.002 C 
ENDROOT
BRANCH   1   2
ATOM      2  C   UNL     1       2.670  -3.512  -1.091  1.00  0.00     0.021 C 
BRANCH   2   3
ATOM      3  C   UNL     1       2.096  -2.612   0.000  1.00  0.00     0.116 C 
BRANCH   3   4
ATOM      4  N   UNL     1       2.765  -1.335  -0.002  1.00  0.00    -0.356 N 
ATOM      5  O   UNL     1       0.954  -0.068   0.623  1.00  0.00    -0.275 OA
ATOM      6  C   UNL     1       2.130  -0.154   0.295  1.00  0.00     0.224 C 
ATOM      7  H   UNL     1       3.723  -1.308  -0.228  1.00  0.00     0.163 HD
BRANCH   6   8
ATOM      8  C   UNL     1       3.045   1.038   0.163  1.00  0.00     0.141 C 
BRANCH   8   9
ATOM      9  C   UNL     1       3.750   1.440   1.428  1.00  0.00     0.022 A 
ATOM     10  C   UNL     1       4.297   0.502   2.289  1.00  0.00     0.121 A 
ATOM     11  C   UNL     1       4.078   2.766   1.698  1.00  0.00     0.135 A 
ATOM     12  N   UNL     1       5.093   0.801   3.329  1.00  0.00    -0.244 NA
ATOM     13  N   UNL     1       4.887   3.099   2.722  1.00  0.00    -0.219 NA
ATOM     14  C   UNL     1       5.345   2.103   3.491  1.00  0.00     0.224 A 
BRANCH  11  15
ATOM     15  N   UNL     1       3.675   3.767   0.837  1.00  0.00    -0.356 N 
ATOM     16  C   UNL     1       4.621   4.814   0.504  1.00  0.00     0.121 C 
ATOM     17  C   UNL     1       2.275   4.183   0.802  1.00  0.00     0.121 C 
ATOM     18  C   UNL     1       4.399   5.126  -0.973  1.00  0.00     0.060 C 
ATOM     19  C   UNL     1       1.932   4.550  -0.644  1.00  0.00     0.060 C 
ATOM     20  C   UNL     1       2.936   5.553  -1.265  1.00  0.00     0.097 C 
ATOM     21  O   UNL     1       2.646   6.825  -0.650  1.00  0.00    -0.372 OA
ATOM     22  C   UNL     1       2.711   5.613  -2.808  1.00  0.00     0.146 C 
ATOM     23  C   UNL     1       3.323   7.949  -1.201  1.00  0.00     0.161 C 
ATOM     24  C   UNL     1       3.439   6.799  -3.435  1.00  0.00     0.037 C 
ATOM     25  C   UNL     1       3.092   8.087  -2.698  1.00  0.00     0.031 C 
BRANCH  22  26
ATOM     26  O   UNL     1       1.317   5.726  -3.117  1.00  0.00    -0.390 OA
ATOM     27  H   UNL     1       0.970   6.553  -2.748  1.00  0.00     0.211 HD
ENDBRANCH  22  26
ENDBRANCH  11  15
ENDBRANCH   8   9
ENDBRANCH   6   8
ENDBRANCH   3   4
ENDBRANCH   2   3
ENDBRANCH   1   2
BRANCH   1  28
ATOM     28  C   UNL     1       4.640  -4.366   0.351  1.00  0.00     0.002 C 
BRANCH  28  29
ATOM     29  C   UNL     1       3.978  -5.697   0.705  1.00  0.00     0.021 C 
BRANCH  29  30
ATOM     30  C   UNL     1       4.111  -6.771  -0.367  1.00  0.00     0.116 C 
BRANCH  30  31
ATOM     31  N   UNL     1       5.495  -7.143  -0.613  1.00  0.00    -0.352 N 
ATOM     32  C   UNL     1       6.050  -8.395  -0.685  1.00  0.00     0.251 C 
ATOM     33  H   UNL     1       6.119  -6.393  -0.745  1.00  0.00     0.163 HD
ATOM     34  O   UNL     1       7.269  -8.534  -0.735  1.00  0.00    -0.269 OA
BRANCH  32  35
ATOM     35  C   UNL     1       5.170  -9.582  -0.674  1.00  0.00     0.039 A 
ATOM     36  C   UNL     1       5.487 -10.649   0.169  1.00  0.00     0.014 A 
ATOM     37  C   UNL     1       4.028  -9.633  -1.478  1.00  0.00     0.014 A 
ATOM     38  C   UNL     1       4.623 -11.742   0.251  1.00  0.00     0.010 A 
ATOM     39  C   UNL     1       3.130 -10.686  -1.337  1.00  0.00     0.010 A 
ATOM     40  C   UNL     1       3.420 -11.753  -0.473  1.00  0.00    -0.014 A 
BRANCH  40  41
ATOM     41  C   UNL     1       2.452 -12.871  -0.338  1.00  0.00     0.031 A 
ATOM     42  C   UNL     1       2.129 -13.741  -1.523  1.00  0.00     0.074 A 
ATOM     43  C   UNL     1       1.824 -13.072   0.837  1.00  0.00     0.049 A 
ATOM     44  N   UNL     1       1.274 -14.728  -1.613  1.00  0.00    -0.248 NA
ATOM     45  C   UNL     1       2.845 -13.451  -2.776  1.00  0.00     0.031 C 
ATOM     46  C   UNL     1       2.021 -12.278   2.053  1.00  0.00     0.029 A 
ATOM     47  N   UNL     1       0.885 -14.006   1.201  1.00  0.00    -0.354 N 
ATOM     48  C   UNL     1       1.342 -15.167  -2.929  1.00  0.00     0.074 A 
ATOM     49  C   UNL     1       2.280 -14.307  -3.615  1.00  0.00     0.031 C 
ATOM     50  C   UNL     1       1.250 -12.775   3.033  1.00  0.00     0.029 A 
ATOM     51  C   UNL     1       0.470 -13.891   2.506  1.00  0.00     0.049 A 
ATOM     52  H   UNL     1       0.542 -14.693   0.585  1.00  0.00     0.167 HD
ATOM     53  C   UNL     1       0.699 -16.208  -3.510  1.00  0.00     0.031 A 
ATOM     54  C   UNL     1      -0.443 -14.598   3.199  1.00  0.00     0.031 A 
ATOM     55  C   UNL     1      -0.231 -17.068  -2.828  1.00  0.00     0.049 A 
ATOM     56  C   UNL     1      -1.168 -15.726   2.518  1.00  0.00     0.074 A 
ATOM     57  C   UNL     1      -0.900 -18.175  -3.320  1.00  0.00     0.029 A 
ATOM     58  N   UNL     1      -0.624 -16.917  -1.507  1.00  0.00    -0.354 N 
ATOM     59  N   UNL     1      -1.042 -16.170   1.290  1.00  0.00    -0.248 NA
ATOM     60  C   UNL     1      -2.154 -16.460   3.324  1.00  0.00     0.031 C 
ATOM     61  C   UNL     1      -1.741 -18.660  -2.314  1.00  0.00     0.029 A 
ATOM     62  C   UNL     1      -1.546 -17.895  -1.176  1.00  0.00     0.049 A 
ATOM     63  H   UNL     1      -0.296 -16.218  -0.896  1.00  0.00     0.167 HD
ATOM     64  C   UNL     1      -1.906 -17.252   1.189  1.00  0.00     0.074 A 
ATOM     65  C   UNL     1      -2.535 -17.411   2.483  1.00  0.00     0.031 C 
ATOM     66  C   UNL     1      -2.158 -18.044   0.118  1.00  0.00     0.031 A 
BRANCH  53  67
ATOM     67  C   UNL     1       0.980 -16.477  -4.963  1.00  0.00    -0.014 A 
ATOM     68  C   UNL     1       2.223 -16.978  -5.381  1.00  0.00     0.009 A 
ATOM     69  C   UNL     1      -0.029 -16.280  -5.919  1.00  0.00     0.009 A 
ATOM     70  C   UNL     1       2.460 -17.249  -6.730  1.00  0.00     0.001 A 
ATOM     71  C   UNL     1       0.201 -16.581  -7.263  1.00  0.00     0.001 A 
ATOM     72  C   UNL     1       1.446 -17.057  -7.668  1.00  0.00     0.000 A 
ENDBRANCH  53  67
BRANCH  54  73
ATOM     73  C   UNL     1      -0.734 -14.264   4.620  1.00  0.00    -0.014 A 
ATOM     74  C   UNL     1      -0.395 -15.158   5.648  1.00  0.00     0.009 A 
ATOM     75  C   UNL     1      -1.384 -13.066   4.953  1.00  0.00     0.009 A 
ATOM     76  C   UNL     1      -0.737 -14.877   6.973  1.00  0.00     0.001 A 
ATOM     77  C   UNL     1      -1.694 -12.772   6.282  1.00  0.00     0.001 A 
ATOM     78  C   UNL     1      -1.383 -13.684   7.289  1.00  0.00     0.000 A 
ENDBRANCH  54  73
BRANCH  66  79
ATOM     79  C   UNL     1      -3.122 -19.182   0.314  1.00  0.00    -0.014 A 
ATOM     80  C   UNL     1      -4.497 -18.957   0.480  1.00  0.00     0.009 A 
ATOM     81  C   UNL     1      -2.647 -20.503   0.291  1.00  0.00     0.009 A 
ATOM     82  C   UNL     1      -5.371 -20.032   0.658  1.00  0.00     0.001 A 
ATOM     83  C   UNL     1      -3.527 -21.576   0.435  1.00  0.00     0.001 A 
ATOM     84  C   UNL     1      -4.887 -21.339   0.629  1.00  0.00     0.000 A 
ENDBRANCH  66  79
ENDBRANCH  40  41
ENDBRANCH  32  35
ENDBRANCH  30  31
ENDBRANCH  29  30
ENDBRANCH  28  29
ENDBRANCH   1  28
TORSDOF 16
