REMARK SMILES CN(C)S(=O)(=O)c1cccc(-c2cc(Cl)cc(C(=O)NCCCCCCNC(=O)c3ccc(-c4c5nc(c(-c6ccccc6)c6ccc([nH]6)c(-c6ccccc6)c6nc(c(-c7ccccc7)c7ccc4[nH]7)C=C6)C=C5)cc3)c2)c1
REMARK SMILES IDX 23 1 22 2 21 3 20 4 18 5 19 6 17 8 12 9 13 10 78 11 14 12
REMARK SMILES IDX 15 13 16 14 11 15 7 16 8 17 79 18 9 19 10 20 4 21 5 22 6 23
REMARK SMILES IDX 2 24 1 25 3 26 24 27 25 28 26 29 27 30 28 31 29 33 30 34
REMARK SMILES IDX 31 35 77 36 32 37 76 38 33 39 34 40 35 41 70 42 36 43 75 44
REMARK SMILES IDX 69 45 71 46 37 47 74 48 68 49 67 50 38 52 60 53 45 54 59 55
REMARK SMILES IDX 46 56 49 57 58 58 72 59 47 60 48 61 57 63 73 64 50 65 39 66
REMARK SMILES IDX 40 67 44 68 41 69 43 70 42 71 61 72 62 73 66 74 63 75 65 76
REMARK SMILES IDX 64 77 51 78 52 79 56 80 53 81 55 82 54 83
REMARK H PARENT 20 7 27 32 71 51 49 62
REMARK Flexibility Score: inf
ROOT
ATOM      1  C   UNL     1      -6.090  -1.087  -2.407  1.00  0.00     0.002 C 
ENDROOT
BRANCH   1   2
ATOM      2  C   UNL     1      -5.297  -0.424  -3.534  1.00  0.00     0.021 C 
BRANCH   2   3
ATOM      3  C   UNL     1      -3.968  -1.067  -3.915  1.00  0.00     0.116 C 
BRANCH   3   4
ATOM      4  N   UNL     1      -4.067  -2.424  -4.424  1.00  0.00    -0.352 N 
ATOM      5  C   UNL     1      -3.339  -3.069  -5.403  1.00  0.00     0.251 C 
ATOM      6  O   UNL     1      -3.619  -4.230  -5.688  1.00  0.00    -0.269 OA
ATOM      7  H   UNL     1      -4.767  -2.973  -4.001  1.00  0.00     0.163 HD
BRANCH   5   8
ATOM      8  C   UNL     1      -2.262  -2.378  -6.162  1.00  0.00     0.041 A 
ATOM      9  C   UNL     1      -0.594  -0.600  -6.334  1.00  0.00    -0.016 A 
ATOM     10  C   UNL     1      -0.465  -0.883  -7.700  1.00  0.00     0.029 A 
ATOM     11  C   UNL     1      -1.428  -1.431  -5.566  1.00  0.00     0.022 A 
ATOM     12  C   UNL     1      -1.201  -1.923  -8.277  1.00  0.00     0.042 A 
ATOM     13  Cl  UNL     1      -1.033  -2.245  -9.960  1.00  0.00    -0.084 Cl
ATOM     14  C   UNL     1      -2.116  -2.655  -7.523  1.00  0.00     0.034 A 
BRANCH   9  15
ATOM     15  C   UNL     1      -0.059   0.629  -5.719  1.00  0.00    -0.017 A 
ATOM     16  C   UNL     1       0.755   1.814  -3.759  1.00  0.00     0.083 A 
ATOM     17  C   UNL     1       0.460   3.045  -4.348  1.00  0.00     0.022 A 
ATOM     18  C   UNL     1       0.530   0.615  -4.445  1.00  0.00     0.030 A 
ATOM     19  C   UNL     1      -0.056   3.076  -5.639  1.00  0.00     0.002 A 
ATOM     20  C   UNL     1      -0.320   1.880  -6.313  1.00  0.00     0.009 A 
BRANCH  16  21
ATOM     21  S   UNL     1       1.307   1.776  -2.072  1.00  0.00     0.242 S 
ATOM     22  O   UNL     1       0.734   2.925  -1.392  1.00  0.00    -0.207 OA
ATOM     23  O   UNL     1       2.728   1.542  -2.099  1.00  0.00    -0.207 OA
BRANCH  21  24
ATOM     24  N   UNL     1       0.538   0.390  -1.407  1.00  0.00    -0.204 NA
ATOM     25  C   UNL     1       1.119  -0.004  -0.099  1.00  0.00     0.124 C 
ATOM     26  C   UNL     1      -0.937   0.460  -1.328  1.00  0.00     0.124 C 
ENDBRANCH  21  24
ENDBRANCH  16  21
ENDBRANCH   9  15
ENDBRANCH   5   8
ENDBRANCH   3   4
ENDBRANCH   2   3
ENDBRANCH   1   2
BRANCH   1  27
ATOM     27  C   UNL     1      -5.355  -1.329  -1.087  1.00  0.00     0.002 C 
BRANCH  27  28
ATOM     28  C   UNL     1      -4.623  -0.134  -0.475  1.00  0.00     0.021 C 
BRANCH  28  29
ATOM     29  C   UNL     1      -5.440   1.136  -0.262  1.00  0.00     0.116 C 
BRANCH  29  30
ATOM     30  N   UNL     1      -6.543   0.963   0.663  1.00  0.00    -0.352 N 
ATOM     31  C   UNL     1      -6.915   1.723   1.746  1.00  0.00     0.251 C 
ATOM     32  H   UNL     1      -7.114   0.180   0.488  1.00  0.00     0.163 HD
ATOM     33  O   UNL     1      -7.836   1.344   2.465  1.00  0.00    -0.269 OA
BRANCH  31  34
ATOM     34  C   UNL     1      -6.201   2.979   2.081  1.00  0.00     0.039 A 
ATOM     35  C   UNL     1      -5.910   3.241   3.425  1.00  0.00     0.014 A 
ATOM     36  C   UNL     1      -5.852   3.915   1.103  1.00  0.00     0.014 A 
ATOM     37  C   UNL     1      -5.224   4.406   3.780  1.00  0.00     0.010 A 
ATOM     38  C   UNL     1      -5.112   5.046   1.451  1.00  0.00     0.010 A 
ATOM     39  C   UNL     1      -4.796   5.307   2.793  1.00  0.00    -0.014 A 
BRANCH  39  40
ATOM     40  C   UNL     1      -4.035   6.533   3.148  1.00  0.00     0.031 A 
ATOM     41  C   UNL     1      -4.642   7.892   2.928  1.00  0.00     0.074 A 
ATOM     42  C   UNL     1      -2.778   6.431   3.622  1.00  0.00     0.049 A 
ATOM     43  N   UNL     1      -4.111   9.075   3.112  1.00  0.00    -0.248 NA
ATOM     44  C   UNL     1      -6.021   7.925   2.415  1.00  0.00     0.031 C 
ATOM     45  C   UNL     1      -2.058   5.179   3.859  1.00  0.00     0.029 A 
ATOM     46  N   UNL     1      -1.879   7.405   3.982  1.00  0.00    -0.354 N 
ATOM     47  C   UNL     1      -5.079   9.989   2.717  1.00  0.00     0.074 A 
ATOM     48  C   UNL     1      -6.216   9.225   2.249  1.00  0.00     0.031 C 
ATOM     49  C   UNL     1      -0.837   5.460   4.344  1.00  0.00     0.029 A 
ATOM     50  C   UNL     1      -0.675   6.908   4.419  1.00  0.00     0.049 A 
ATOM     51  H   UNL     1      -2.078   8.367   3.931  1.00  0.00     0.167 HD
ATOM     52  C   UNL     1      -5.036  11.342   2.755  1.00  0.00     0.031 A 
ATOM     53  C   UNL     1       0.436   7.546   4.831  1.00  0.00     0.031 A 
ATOM     54  C   UNL     1      -3.918  12.109   3.236  1.00  0.00     0.049 A 
ATOM     55  C   UNL     1       0.461   9.049   4.861  1.00  0.00     0.074 A 
ATOM     56  C   UNL     1      -3.800  13.483   3.352  1.00  0.00     0.029 A 
ATOM     57  N   UNL     1      -2.725  11.565   3.684  1.00  0.00    -0.354 N 
ATOM     58  N   UNL     1      -0.481   9.897   4.527  1.00  0.00    -0.248 NA
ATOM     59  C   UNL     1       1.701   9.680   5.335  1.00  0.00     0.031 C 
ATOM     60  C   UNL     1      -2.522  13.773   3.841  1.00  0.00     0.029 A 
ATOM     61  C   UNL     1      -1.861  12.577   4.068  1.00  0.00     0.049 A 
ATOM     62  H   UNL     1      -2.522  10.603   3.724  1.00  0.00     0.167 HD
ATOM     63  C   UNL     1       0.040  11.159   4.779  1.00  0.00     0.074 A 
ATOM     64  C   UNL     1       1.377  10.966   5.303  1.00  0.00     0.031 C 
ATOM     65  C   UNL     1      -0.538  12.370   4.595  1.00  0.00     0.031 A 
BRANCH  52  66
ATOM     66  C   UNL     1      -6.243  12.083   2.253  1.00  0.00    -0.014 A 
ATOM     67  C   UNL     1      -7.437  12.109   2.992  1.00  0.00     0.009 A 
ATOM     68  C   UNL     1      -6.178  12.787   1.041  1.00  0.00     0.009 A 
ATOM     69  C   UNL     1      -8.553  12.795   2.509  1.00  0.00     0.001 A 
ATOM     70  C   UNL     1      -7.288  13.494   0.573  1.00  0.00     0.001 A 
ATOM     71  C   UNL     1      -8.476  13.489   1.302  1.00  0.00     0.000 A 
ENDBRANCH  52  66
BRANCH  53  72
ATOM     72  C   UNL     1       1.621   6.767   5.274  1.00  0.00    -0.014 A 
ATOM     73  C   UNL     1       1.957   6.703   6.635  1.00  0.00     0.009 A 
ATOM     74  C   UNL     1       2.425   6.095   4.341  1.00  0.00     0.009 A 
ATOM     75  C   UNL     1       3.091   6.001   7.051  1.00  0.00     0.001 A 
ATOM     76  C   UNL     1       3.544   5.373   4.763  1.00  0.00     0.001 A 
ATOM     77  C   UNL     1       3.881   5.335   6.116  1.00  0.00     0.000 A 
ENDBRANCH  53  72
BRANCH  65  78
ATOM     78  C   UNL     1       0.254  13.578   5.003  1.00  0.00    -0.014 A 
ATOM     79  C   UNL     1       1.331  14.038   4.231  1.00  0.00     0.009 A 
ATOM     80  C   UNL     1      -0.109  14.286   6.160  1.00  0.00     0.009 A 
ATOM     81  C   UNL     1       2.049  15.169   4.626  1.00  0.00     0.001 A 
ATOM     82  C   UNL     1       0.596  15.428   6.540  1.00  0.00     0.001 A 
ATOM     83  C   UNL     1       1.679  15.864   5.777  1.00  0.00     0.000 A 
ENDBRANCH  65  78
ENDBRANCH  39  40
ENDBRANCH  31  34
ENDBRANCH  29  30
ENDBRANCH  28  29
ENDBRANCH  27  28
ENDBRANCH   1  27
TORSDOF 16
