REMARK SMILES COc1ccc([C@H]2CC(c3ccccc3)=NN2C(=O)CCCC(=O)NCCCCCCNC(=O)c2ccc(-c3c4nc(c(-c5ccccc5)c5ccc([nH]5)c(-c5ccccc5)c5nc(c(-c6ccccc6)c6ccc3[nH]6)C=C5)C=C4)cc2)cc1
REMARK SMILES IDX 26 1 25 2 23 3 24 4 22 6 21 7 20 8 18 9 19 10 17 11 7 12
REMARK SMILES IDX 8 13 9 14 16 15 6 16 3 17 4 18 84 19 5 20 83 21 2 22 1 23
REMARK SMILES IDX 10 24 11 25 15 26 12 27 14 28 13 29 27 30 28 31 29 32 30 33
REMARK SMILES IDX 31 34 32 35 33 36 34 38 35 39 36 40 82 41 37 42 81 43 38 44
REMARK SMILES IDX 39 45 40 46 75 47 41 48 80 49 74 50 76 51 42 52 79 53 73 54
REMARK SMILES IDX 72 55 43 57 65 58 50 59 64 60 51 61 54 62 63 63 77 64 52 65
REMARK SMILES IDX 53 66 62 68 78 69 55 70 44 71 45 72 49 73 46 74 48 75 47 76
REMARK SMILES IDX 66 77 67 78 71 79 68 80 70 81 69 82 56 83 57 84 61 85 58 86
REMARK SMILES IDX 60 87 59 88
REMARK H PARENT 25 5 32 37 76 56 54 67
REMARK Flexibility Score: inf
ROOT
ATOM      1  C   UNL     1       0.318   7.658  -1.305  1.00  0.00     0.116 C 
ENDROOT
BRANCH   1   2
ATOM      2  N   UNL     1      -0.413   6.489  -1.717  1.00  0.00    -0.356 N 
ATOM      3  C   UNL     1       0.041   5.385  -2.375  1.00  0.00     0.220 C 
ATOM      4  O   UNL     1      -0.775   4.741  -3.037  1.00  0.00    -0.275 OA
ATOM      5  H   UNL     1      -1.372   6.486  -1.492  1.00  0.00     0.163 HD
BRANCH   3   6
ATOM      6  C   UNL     1       1.448   4.870  -2.145  1.00  0.00     0.100 C 
BRANCH   6   7
ATOM      7  C   UNL     1       2.677   5.381  -2.849  1.00  0.00     0.020 C 
BRANCH   7   8
ATOM      8  C   UNL     1       3.361   6.616  -2.269  1.00  0.00     0.103 C 
BRANCH   8   9
ATOM      9  C   UNL     1       4.190   6.657  -0.961  1.00  0.00     0.243 C 
ATOM     10  O   UNL     1       5.394   6.932  -1.154  1.00  0.00    -0.273 OA
BRANCH   9  11
ATOM     11  N   UNL     1       3.722   6.597   0.353  1.00  0.00    -0.225 N 
ATOM     12  C   UNL     1       2.475   6.186   1.092  1.00  0.00     0.147 C 
ATOM     13  C   UNL     1       2.734   6.526   2.558  1.00  0.00     0.091 C 
ATOM     14  C   UNL     1       4.012   7.266   2.423  1.00  0.00     0.071 C 
ATOM     15  N   UNL     1       4.553   7.283   1.251  1.00  0.00    -0.174 NA
BRANCH  12  16
ATOM     16  C   UNL     1       2.020   4.740   1.040  1.00  0.00    -0.023 A 
ATOM     17  C   UNL     1       1.020   2.178   0.451  1.00  0.00     0.118 A 
ATOM     18  C   UNL     1       0.143   3.216   0.756  1.00  0.00     0.047 A 
ATOM     19  C   UNL     1       2.398   2.393   0.536  1.00  0.00     0.047 A 
ATOM     20  C   UNL     1       0.634   4.478   1.088  1.00  0.00     0.010 A 
ATOM     21  C   UNL     1       2.900   3.670   0.836  1.00  0.00     0.010 A 
BRANCH  17  22
ATOM     22  O   UNL     1       0.417   1.051  -0.031  1.00  0.00    -0.497 OA
ATOM     23  C   UNL     1       1.057  -0.183   0.248  1.00  0.00     0.278 C 
ENDBRANCH  17  22
ENDBRANCH  12  16
BRANCH  14  24
ATOM     24  C   UNL     1       4.618   7.888   3.597  1.00  0.00    -0.002 A 
ATOM     25  C   UNL     1       4.649   9.278   3.718  1.00  0.00     0.010 A 
ATOM     26  C   UNL     1       5.168   7.062   4.577  1.00  0.00     0.010 A 
ATOM     27  C   UNL     1       5.240   9.846   4.847  1.00  0.00     0.001 A 
ATOM     28  C   UNL     1       5.768   7.637   5.694  1.00  0.00     0.001 A 
ATOM     29  C   UNL     1       5.802   9.026   5.830  1.00  0.00     0.000 A 
ENDBRANCH  14  24
ENDBRANCH   9  11
ENDBRANCH   8   9
ENDBRANCH   7   8
ENDBRANCH   6   7
ENDBRANCH   3   6
ENDBRANCH   1   2
BRANCH   1  30
ATOM     30  C   UNL     1       0.206   8.731  -2.379  1.00  0.00     0.021 C 
BRANCH  30  31
ATOM     31  C   UNL     1      -1.009   9.618  -2.119  1.00  0.00     0.002 C 
BRANCH  31  32
ATOM     32  C   UNL     1      -0.812  10.583  -0.942  1.00  0.00     0.002 C 
BRANCH  32  33
ATOM     33  C   UNL     1       0.377  11.535  -1.091  1.00  0.00     0.021 C 
BRANCH  33  34
ATOM     34  C   UNL     1       0.413  12.274  -2.423  1.00  0.00     0.116 C 
BRANCH  34  35
ATOM     35  N   UNL     1      -0.827  12.995  -2.664  1.00  0.00    -0.352 N 
ATOM     36  C   UNL     1      -1.007  14.319  -2.971  1.00  0.00     0.251 C 
ATOM     37  H   UNL     1      -1.649  12.459  -2.598  1.00  0.00     0.163 HD
ATOM     38  O   UNL     1      -2.112  14.832  -2.912  1.00  0.00    -0.269 OA
BRANCH  36  39
ATOM     39  C   UNL     1       0.170  15.113  -3.367  1.00  0.00     0.039 A 
ATOM     40  C   UNL     1       0.368  16.364  -2.784  1.00  0.00     0.014 A 
ATOM     41  C   UNL     1       1.077  14.603  -4.301  1.00  0.00     0.014 A 
ATOM     42  C   UNL     1       1.510  17.093  -3.111  1.00  0.00     0.010 A 
ATOM     43  C   UNL     1       2.251  15.293  -4.561  1.00  0.00     0.010 A 
ATOM     44  C   UNL     1       2.470  16.551  -3.982  1.00  0.00    -0.014 A 
BRANCH  44  45
ATOM     45  C   UNL     1       3.704  17.296  -4.319  1.00  0.00     0.031 A 
ATOM     46  C   UNL     1       3.946  17.737  -5.735  1.00  0.00     0.074 A 
ATOM     47  C   UNL     1       4.626  17.523  -3.365  1.00  0.00     0.049 A 
ATOM     48  N   UNL     1       4.984  18.352  -6.242  1.00  0.00    -0.248 NA
ATOM     49  C   UNL     1       2.895  17.422  -6.718  1.00  0.00     0.031 C 
ATOM     50  C   UNL     1       4.518  17.110  -1.964  1.00  0.00     0.029 A 
ATOM     51  N   UNL     1       5.841  18.155  -3.432  1.00  0.00    -0.354 N 
ATOM     52  C   UNL     1       4.718  18.481  -7.599  1.00  0.00     0.074 A 
ATOM     53  C   UNL     1       3.450  17.832  -7.848  1.00  0.00     0.031 C 
ATOM     54  C   UNL     1       5.607  17.527  -1.298  1.00  0.00     0.029 A 
ATOM     55  C   UNL     1       6.508  18.194  -2.232  1.00  0.00     0.049 A 
ATOM     56  H   UNL     1       6.201  18.545  -4.262  1.00  0.00     0.167 HD
ATOM     57  C   UNL     1       5.454  19.103  -8.549  1.00  0.00     0.031 A 
ATOM     58  C   UNL     1       7.715  18.702  -1.923  1.00  0.00     0.031 A 
ATOM     59  C   UNL     1       6.712  19.750  -8.294  1.00  0.00     0.049 A 
ATOM     60  C   UNL     1       8.524  19.366  -3.003  1.00  0.00     0.074 A 
ATOM     61  C   UNL     1       7.513  20.454  -9.175  1.00  0.00     0.029 A 
ATOM     62  N   UNL     1       7.354  19.768  -7.065  1.00  0.00    -0.354 N 
ATOM     63  N   UNL     1       8.227  19.544  -4.268  1.00  0.00    -0.248 NA
ATOM     64  C   UNL     1       9.831  19.909  -2.608  1.00  0.00     0.031 C 
ATOM     65  C   UNL     1       8.669  20.847  -8.493  1.00  0.00     0.029 A 
ATOM     66  C   UNL     1       8.555  20.448  -7.171  1.00  0.00     0.049 A 
ATOM     67  H   UNL     1       7.007  19.358  -6.240  1.00  0.00     0.167 HD
ATOM     68  C   UNL     1       9.294  20.248  -4.812  1.00  0.00     0.074 A 
ATOM     69  C   UNL     1      10.236  20.477  -3.735  1.00  0.00     0.031 C 
ATOM     70  C   UNL     1       9.477  20.669  -6.087  1.00  0.00     0.031 A 
BRANCH  57  71
ATOM     71  C   UNL     1       4.917  19.102  -9.954  1.00  0.00    -0.014 A 
ATOM     72  C   UNL     1       3.765  19.829 -10.296  1.00  0.00     0.009 A 
ATOM     73  C   UNL     1       5.589  18.386 -10.957  1.00  0.00     0.009 A 
ATOM     74  C   UNL     1       3.277  19.809 -11.604  1.00  0.00     0.001 A 
ATOM     75  C   UNL     1       5.117  18.395 -12.271  1.00  0.00     0.001 A 
ATOM     76  C   UNL     1       3.957  19.097 -12.591  1.00  0.00     0.000 A 
ENDBRANCH  57  71
BRANCH  58  77
ATOM     77  C   UNL     1       8.227  18.617  -0.530  1.00  0.00    -0.014 A 
ATOM     78  C   UNL     1       8.360  19.773   0.253  1.00  0.00     0.009 A 
ATOM     79  C   UNL     1       8.594  17.379   0.022  1.00  0.00     0.009 A 
ATOM     80  C   UNL     1       8.881  19.697   1.547  1.00  0.00     0.001 A 
ATOM     81  C   UNL     1       9.084  17.302   1.327  1.00  0.00     0.001 A 
ATOM     82  C   UNL     1       9.238  18.461   2.084  1.00  0.00     0.000 A 
ENDBRANCH  58  77
BRANCH  70  83
ATOM     83  C   UNL     1      10.721  21.460  -6.379  1.00  0.00    -0.014 A 
ATOM     84  C   UNL     1      11.988  20.857  -6.394  1.00  0.00     0.009 A 
ATOM     85  C   UNL     1      10.613  22.825  -6.691  1.00  0.00     0.009 A 
ATOM     86  C   UNL     1      13.126  21.614  -6.682  1.00  0.00     0.001 A 
ATOM     87  C   UNL     1      11.747  23.572  -7.011  1.00  0.00     0.001 A 
ATOM     88  C   UNL     1      13.004  22.968  -6.996  1.00  0.00     0.000 A 
ENDBRANCH  70  83
ENDBRANCH  44  45
ENDBRANCH  36  39
ENDBRANCH  34  35
ENDBRANCH  33  34
ENDBRANCH  32  33
ENDBRANCH  31  32
ENDBRANCH  30  31
ENDBRANCH   1  30
TORSDOF 20
