REMARK SMILES [NH3+][C@@H](Cc1c[nH]c2ccccc12)C(=O)N[C@@H](CS)C(=O)N[C@@H](CO)C(=O)NCCCCCCNC(=O)c1ccc(-c2c3nc(c(-c4ccccc4)c4ccc([nH]4)c(-c4ccccc4)c4nc(c(-c5ccccc5)c5ccc2[nH]5)C=C4)C=C3)cc1
REMARK SMILES IDX 28 1 27 2 25 3 26 4 22 6 21 7 19 8 20 9 16 11 15 12 13 13
REMARK SMILES IDX 14 14 2 16 1 17 3 21 4 22 5 23 12 24 6 25 7 26 11 27 8 29
REMARK SMILES IDX 10 30 9 31 17 32 18 33 23 35 24 36 29 38 30 39 31 40 32 41
REMARK SMILES IDX 33 42 34 43 35 44 36 46 37 47 38 48 84 49 39 50 83 51 40 52
REMARK SMILES IDX 41 53 42 54 77 55 43 56 82 57 76 58 78 59 44 60 81 61 75 62
REMARK SMILES IDX 74 63 45 65 67 66 52 67 66 68 53 69 56 70 65 71 79 72 54 73
REMARK SMILES IDX 55 74 64 76 80 77 57 78 46 79 47 80 51 81 48 82 50 83 49 84
REMARK SMILES IDX 68 85 69 86 73 87 70 88 72 89 71 90 58 91 59 92 63 93 60 94
REMARK SMILES IDX 62 95 61 96
REMARK H PARENT 27 5 21 10 15 15 1 18 1 19 1 20 6 28 18 34 24 37 34 45 78 64
REMARK H PARENT 56 75
REMARK Flexibility Score: inf
ROOT
ATOM      1  C   UNL     1      -5.200  -6.183   0.032  1.00  0.00     0.116 C 
ENDROOT
BRANCH   1   2
ATOM      2  N   UNL     1      -5.322  -5.296   1.165  1.00  0.00    -0.354 N 
ATOM      3  C   UNL     1      -5.065  -3.971   1.274  1.00  0.00     0.244 C 
ATOM      4  O   UNL     1      -5.346  -3.422   2.344  1.00  0.00    -0.273 OA
ATOM      5  H   UNL     1      -5.644  -5.723   1.991  1.00  0.00     0.163 HD
BRANCH   3   6
ATOM      6  C   UNL     1      -4.496  -3.145   0.118  1.00  0.00     0.197 C 
BRANCH   6   7
ATOM      7  N   UNL     1      -3.215  -3.607  -0.382  1.00  0.00    -0.340 N 
ATOM      8  C   UNL     1      -2.178  -2.865  -0.829  1.00  0.00     0.244 C 
ATOM      9  O   UNL     1      -1.557  -3.371  -1.774  1.00  0.00    -0.273 OA
ATOM     10  H   UNL     1      -3.085  -4.583  -0.398  1.00  0.00     0.164 HD
BRANCH   8  11
ATOM     11  C   UNL     1      -1.777  -1.483  -0.254  1.00  0.00     0.181 C 
BRANCH  11  12
ATOM     12  N   UNL     1      -1.672  -0.511  -1.321  1.00  0.00    -0.338 N 
ATOM     13  C   UNL     1      -0.543   0.002  -1.879  1.00  0.00     0.279 C 
ATOM     14  O   UNL     1      -0.710   0.806  -2.806  1.00  0.00    -0.268 OA
ATOM     15  H   UNL     1      -2.523  -0.179  -1.688  1.00  0.00     0.164 HD
BRANCH  13  16
ATOM     16  C   UNL     1       0.900  -0.292  -1.356  1.00  0.00     0.275 C 
BRANCH  16  17
ATOM     17  N   UNL     1       1.165   0.428  -0.095  1.00  0.00    -0.347 N 
ATOM     18  H   UNL     1       2.111   0.219   0.224  1.00  0.00     0.345 HD
ATOM     19  H   UNL     1       0.494   0.131   0.613  1.00  0.00     0.345 HD
ATOM     20  H   UNL     1       1.073   1.431  -0.251  1.00  0.00     0.345 HD
ENDBRANCH  16  17
BRANCH  16  21
ATOM     21  C   UNL     1       1.514  -1.702  -1.467  1.00  0.00     0.113 C 
BRANCH  21  22
ATOM     22  C   UNL     1       1.333  -2.828  -0.463  1.00  0.00    -0.016 A 
ATOM     23  C   UNL     1       1.416  -4.148  -0.886  1.00  0.00     0.087 A 
ATOM     24  C   UNL     1       1.024  -2.901   0.954  1.00  0.00     0.003 A 
ATOM     25  N   UNL     1       0.998  -4.969   0.117  1.00  0.00    -0.361 N 
ATOM     26  C   UNL     1       0.653  -4.226   1.216  1.00  0.00     0.046 A 
ATOM     27  C   UNL     1       0.872  -1.985   2.022  1.00  0.00     0.010 A 
ATOM     28  H   UNL     1       0.950  -5.950   0.061  1.00  0.00     0.166 HD
ATOM     29  C   UNL     1       0.030  -4.638   2.403  1.00  0.00     0.026 A 
ATOM     30  C   UNL     1       0.253  -2.380   3.220  1.00  0.00     0.001 A 
ATOM     31  C   UNL     1      -0.194  -3.682   3.391  1.00  0.00     0.002 A 
ENDBRANCH  21  22
ENDBRANCH  16  21
ENDBRANCH  13  16
ENDBRANCH  11  12
BRANCH  11  32
ATOM     32  C   UNL     1      -2.288  -0.936   1.087  1.00  0.00     0.101 C 
BRANCH  32  33
ATOM     33  S   UNL     1      -3.534   0.407   0.988  1.00  0.00    -0.177 SA
ATOM     34  H   UNL     1      -2.979   1.497   0.394  1.00  0.00     0.102 HD
ENDBRANCH  32  33
ENDBRANCH  11  32
ENDBRANCH   8  11
ENDBRANCH   6   7
BRANCH   6  35
ATOM     35  C   UNL     1      -5.503  -2.872  -1.007  1.00  0.00     0.191 C 
BRANCH  35  36
ATOM     36  O   UNL     1      -5.606  -3.943  -1.942  1.00  0.00    -0.394 OA
ATOM     37  H   UNL     1      -4.749  -4.078  -2.376  1.00  0.00     0.210 HD
ENDBRANCH  35  36
ENDBRANCH   6  35
ENDBRANCH   3   6
ENDBRANCH   1   2
BRANCH   1  38
ATOM     38  C   UNL     1      -4.536  -7.494   0.431  1.00  0.00     0.021 C 
BRANCH  38  39
ATOM     39  C   UNL     1      -5.336  -8.312   1.448  1.00  0.00     0.002 C 
BRANCH  39  40
ATOM     40  C   UNL     1      -6.809  -8.522   1.085  1.00  0.00     0.002 C 
BRANCH  40  41
ATOM     41  C   UNL     1      -7.051  -9.087  -0.316  1.00  0.00     0.021 C 
BRANCH  41  42
ATOM     42  C   UNL     1      -6.301 -10.379  -0.602  1.00  0.00     0.116 C 
BRANCH  42  43
ATOM     43  N   UNL     1      -6.696 -11.441   0.307  1.00  0.00    -0.352 N 
ATOM     44  C   UNL     1      -7.192 -12.679   0.004  1.00  0.00     0.251 C 
ATOM     45  H   UNL     1      -6.593 -11.244   1.266  1.00  0.00     0.163 HD
ATOM     46  O   UNL     1      -7.697 -13.385   0.876  1.00  0.00    -0.269 OA
BRANCH  44  47
ATOM     47  C   UNL     1      -7.129 -13.152  -1.391  1.00  0.00     0.039 A 
ATOM     48  C   UNL     1      -8.270 -13.705  -1.973  1.00  0.00     0.014 A 
ATOM     49  C   UNL     1      -5.947 -13.015  -2.126  1.00  0.00     0.014 A 
ATOM     50  C   UNL     1      -8.241 -14.075  -3.316  1.00  0.00     0.010 A 
ATOM     51  C   UNL     1      -5.945 -13.308  -3.484  1.00  0.00     0.010 A 
ATOM     52  C   UNL     1      -7.089 -13.850  -4.089  1.00  0.00    -0.014 A 
BRANCH  52  53
ATOM     53  C   UNL     1      -7.058 -14.179  -5.534  1.00  0.00     0.031 A 
ATOM     54  C   UNL     1      -6.115 -15.232  -6.045  1.00  0.00     0.074 A 
ATOM     55  C   UNL     1      -7.837 -13.491  -6.390  1.00  0.00     0.049 A 
ATOM     56  N   UNL     1      -5.903 -15.623  -7.276  1.00  0.00    -0.248 NA
ATOM     57  C   UNL     1      -5.282 -15.920  -5.044  1.00  0.00     0.031 C 
ATOM     58  C   UNL     1      -8.769 -12.423  -6.020  1.00  0.00     0.029 A 
ATOM     59  N   UNL     1      -7.965 -13.585  -7.753  1.00  0.00    -0.354 N 
ATOM     60  C   UNL     1      -4.908 -16.588  -7.197  1.00  0.00     0.074 A 
ATOM     61  C   UNL     1      -4.517 -16.684  -5.809  1.00  0.00     0.031 C 
ATOM     62  C   UNL     1      -9.394 -11.984  -7.124  1.00  0.00     0.029 A 
ATOM     63  C   UNL     1      -8.876 -12.704  -8.282  1.00  0.00     0.049 A 
ATOM     64  H   UNL     1      -7.452 -14.224  -8.299  1.00  0.00     0.167 HD
ATOM     65  C   UNL     1      -4.381 -17.343  -8.190  1.00  0.00     0.031 A 
ATOM     66  C   UNL     1      -9.244 -12.492  -9.559  1.00  0.00     0.031 A 
ATOM     67  C   UNL     1      -4.774 -17.247  -9.570  1.00  0.00     0.049 A 
ATOM     68  C   UNL     1      -8.615 -13.317 -10.648  1.00  0.00     0.074 A 
ATOM     69  C   UNL     1      -4.337 -18.001 -10.645  1.00  0.00     0.029 A 
ATOM     70  N   UNL     1      -5.691 -16.334 -10.067  1.00  0.00    -0.354 N 
ATOM     71  N   UNL     1      -7.726 -14.275 -10.550  1.00  0.00    -0.248 NA
ATOM     72  C   UNL     1      -9.048 -13.034 -12.024  1.00  0.00     0.031 C 
ATOM     73  C   UNL     1      -4.944 -17.503 -11.802  1.00  0.00     0.029 A 
ATOM     74  C   UNL     1      -5.809 -16.484 -11.439  1.00  0.00     0.049 A 
ATOM     75  H   UNL     1      -6.186 -15.677  -9.525  1.00  0.00     0.167 HD
ATOM     76  C   UNL     1      -7.513 -14.729 -11.845  1.00  0.00     0.074 A 
ATOM     77  C   UNL     1      -8.381 -13.953 -12.708  1.00  0.00     0.031 C 
ATOM     78  C   UNL     1      -6.675 -15.700 -12.282  1.00  0.00     0.031 A 
BRANCH  65  79
ATOM     79  C   UNL     1      -3.312 -18.333  -7.815  1.00  0.00    -0.014 A 
ATOM     80  C   UNL     1      -3.607 -19.467  -7.041  1.00  0.00     0.009 A 
ATOM     81  C   UNL     1      -1.997 -18.145  -8.268  1.00  0.00     0.009 A 
ATOM     82  C   UNL     1      -2.599 -20.370  -6.695  1.00  0.00     0.001 A 
ATOM     83  C   UNL     1      -0.999 -19.067  -7.948  1.00  0.00     0.001 A 
ATOM     84  C   UNL     1      -1.298 -20.172  -7.153  1.00  0.00     0.000 A 
ENDBRANCH  65  79
BRANCH  66  85
ATOM     85  C   UNL     1     -10.265 -11.460  -9.881  1.00  0.00    -0.014 A 
ATOM     86  C   UNL     1     -11.531 -11.834 -10.358  1.00  0.00     0.009 A 
ATOM     87  C   UNL     1      -9.976 -10.095  -9.724  1.00  0.00     0.009 A 
ATOM     88  C   UNL     1     -12.475 -10.862 -10.698  1.00  0.00     0.001 A 
ATOM     89  C   UNL     1     -10.933  -9.127 -10.034  1.00  0.00     0.001 A 
ATOM     90  C   UNL     1     -12.177  -9.510 -10.531  1.00  0.00     0.000 A 
ENDBRANCH  66  85
BRANCH  78  91
ATOM     91  C   UNL     1      -6.679 -16.002 -13.755  1.00  0.00    -0.014 A 
ATOM     92  C   UNL     1      -6.129 -15.107 -14.686  1.00  0.00     0.009 A 
ATOM     93  C   UNL     1      -7.199 -17.224 -14.212  1.00  0.00     0.009 A 
ATOM     94  C   UNL     1      -6.130 -15.415 -16.047  1.00  0.00     0.001 A 
ATOM     95  C   UNL     1      -7.169 -17.544 -15.569  1.00  0.00     0.001 A 
ATOM     96  C   UNL     1      -6.644 -16.635 -16.487  1.00  0.00     0.000 A 
ENDBRANCH  78  91
ENDBRANCH  52  53
ENDBRANCH  44  47
ENDBRANCH  42  43
ENDBRANCH  41  42
ENDBRANCH  40  41
ENDBRANCH  39  40
ENDBRANCH  38  39
ENDBRANCH   1  38
TORSDOF 24
