REMARK SMILES CCc1ccc(N2C(=O)/C(=C/c3cc(Cl)c(OCC(=O)NCCCCCCNC(=O)c4ccc(-c5c6nc(c(-c7ccccc7)c7ccc([nH]7)c(-c7ccccc7)c7nc(c(-c8ccccc8)c8ccc5[nH]8)C=C7)C=C6)cc4)c(Cl)c3)C(=O)NC2=S)cc1
REMARK SMILES IDX 23 1 22 2 21 3 19 4 20 5 18 7 17 8 16 9 12 10 13 11 81 12
REMARK SMILES IDX 14 13 79 14 15 15 80 16 11 17 7 18 8 19 85 20 9 21 10 22
REMARK SMILES IDX 84 23 86 24 82 25 83 27 6 28 3 29 4 30 88 31 5 32 87 33 2 34
REMARK SMILES IDX 1 35 24 36 25 37 26 38 27 39 28 40 29 41 30 43 31 44 32 45
REMARK SMILES IDX 78 46 33 47 77 48 34 49 35 50 36 51 71 52 37 53 76 54 70 55
REMARK SMILES IDX 72 56 38 57 75 58 69 59 68 60 39 62 61 63 46 64 60 65 47 66
REMARK SMILES IDX 50 67 59 68 73 69 48 70 49 71 58 73 74 74 51 75 40 76 41 77
REMARK SMILES IDX 45 78 42 79 44 80 43 81 62 82 63 83 67 84 64 85 66 86 65 87
REMARK SMILES IDX 52 88 53 89 57 90 54 91 56 92 55 93
REMARK H PARENT 21 6 84 26 28 42 72 61 50 72
REMARK Flexibility Score: inf
ROOT
ATOM      1  C   UNL     1       6.166  -4.948 -11.445  1.00  0.00     0.021 C 
ENDROOT
BRANCH   1   2
ATOM      2  C   UNL     1       5.754  -5.820 -12.631  1.00  0.00     0.116 C 
BRANCH   2   3
ATOM      3  N   UNL     1       5.447  -7.175 -12.223  1.00  0.00    -0.353 N 
ATOM      4  C   UNL     1       4.326  -7.914 -12.454  1.00  0.00     0.257 C 
ATOM      5  O   UNL     1       4.318  -9.086 -12.077  1.00  0.00    -0.271 OA
ATOM      6  H   UNL     1       6.149  -7.627 -11.702  1.00  0.00     0.163 HD
BRANCH   4   7
ATOM      7  C   UNL     1       3.148  -7.302 -13.229  1.00  0.00     0.329 C 
BRANCH   7   8
ATOM      8  O   UNL     1       2.448  -6.175 -12.734  1.00  0.00    -0.481 OA
BRANCH   8   9
ATOM      9  C   UNL     1       2.093  -6.119 -11.413  1.00  0.00     0.157 A 
ATOM     10  C   UNL     1       1.369  -5.684  -8.713  1.00  0.00    -0.021 A 
ATOM     11  C   UNL     1       1.843  -4.627  -9.488  1.00  0.00     0.032 A 
ATOM     12  C   UNL     1       1.220  -6.943  -9.292  1.00  0.00     0.032 A 
ATOM     13  C   UNL     1       2.195  -4.844 -10.822  1.00  0.00     0.085 A 
ATOM     14  C   UNL     1       1.556  -7.158 -10.638  1.00  0.00     0.085 A 
ATOM     15  Cl  UNL     1       2.741  -3.468 -11.727  1.00  0.00    -0.080 Cl
ATOM     16  Cl  UNL     1       1.130  -8.710 -11.266  1.00  0.00    -0.080 Cl
BRANCH  10  17
ATOM     17  C   UNL     1       0.992  -5.440  -7.322  1.00  0.00     0.028 C 
ATOM     18  N   UNL     1       2.217  -4.622  -4.089  1.00  0.00    -0.253 N 
ATOM     19  C   UNL     1       1.230  -5.102  -4.959  1.00  0.00     0.270 C 
ATOM     20  C   UNL     1       3.520  -5.130  -4.088  1.00  0.00     0.187 C 
ATOM     21  O   UNL     1       0.014  -5.049  -4.779  1.00  0.00    -0.268 OA
ATOM     22  C   UNL     1       1.767  -5.635  -6.237  1.00  0.00     0.106 C 
ATOM     23  N   UNL     1       3.858  -5.943  -5.143  1.00  0.00    -0.298 N 
ATOM     24  S   UNL     1       4.709  -4.915  -2.919  1.00  0.00    -0.040 S 
ATOM     25  C   UNL     1       3.127  -6.197  -6.269  1.00  0.00     0.263 C 
ATOM     26  H   UNL     1       4.730  -6.396  -5.080  1.00  0.00     0.172 HD
ATOM     27  O   UNL     1       3.605  -6.822  -7.207  1.00  0.00    -0.269 OA
BRANCH  18  28
ATOM     28  C   UNL     1       1.839  -3.528  -3.239  1.00  0.00     0.052 A 
ATOM     29  C   UNL     1       0.951  -1.224  -1.877  1.00  0.00    -0.048 A 
ATOM     30  C   UNL     1       0.250  -2.430  -1.767  1.00  0.00     0.006 A 
ATOM     31  C   UNL     1       2.118  -1.185  -2.645  1.00  0.00     0.006 A 
ATOM     32  C   UNL     1       0.683  -3.569  -2.452  1.00  0.00     0.027 A 
ATOM     33  C   UNL     1       2.558  -2.325  -3.319  1.00  0.00     0.027 A 
BRANCH  29  34
ATOM     34  C   UNL     1       0.459   0.017  -1.178  1.00  0.00     0.032 C 
ATOM     35  C   UNL     1       0.982   0.110   0.245  1.00  0.00     0.009 C 
ENDBRANCH  29  34
ENDBRANCH  18  28
ENDBRANCH  10  17
ENDBRANCH   8   9
ENDBRANCH   7   8
ENDBRANCH   4   7
ENDBRANCH   2   3
ENDBRANCH   1   2
BRANCH   1  36
ATOM     36  C   UNL     1       7.376  -5.448 -10.645  1.00  0.00     0.002 C 
BRANCH  36  37
ATOM     37  C   UNL     1       8.651  -5.714 -11.449  1.00  0.00     0.002 C 
BRANCH  37  38
ATOM     38  C   UNL     1       9.160  -4.543 -12.291  1.00  0.00     0.021 C 
BRANCH  38  39
ATOM     39  C   UNL     1       9.437  -3.256 -11.521  1.00  0.00     0.116 C 
BRANCH  39  40
ATOM     40  N   UNL     1      10.517  -3.393 -10.557  1.00  0.00    -0.352 N 
ATOM     41  C   UNL     1      11.596  -2.571 -10.339  1.00  0.00     0.251 C 
ATOM     42  H   UNL     1      10.467  -4.188  -9.979  1.00  0.00     0.163 HD
ATOM     43  O   UNL     1      12.485  -2.908  -9.564  1.00  0.00    -0.269 OA
BRANCH  41  44
ATOM     44  C   UNL     1      11.703  -1.285 -11.064  1.00  0.00     0.039 A 
ATOM     45  C   UNL     1      12.920  -0.951 -11.667  1.00  0.00     0.014 A 
ATOM     46  C   UNL     1      10.615  -0.413 -11.150  1.00  0.00     0.014 A 
ATOM     47  C   UNL     1      13.025   0.224 -12.415  1.00  0.00     0.010 A 
ATOM     48  C   UNL     1      10.703   0.728 -11.945  1.00  0.00     0.010 A 
ATOM     49  C   UNL     1      11.907   1.056 -12.588  1.00  0.00    -0.014 A 
BRANCH  49  50
ATOM     50  C   UNL     1      11.970   2.272 -13.437  1.00  0.00     0.031 A 
ATOM     51  C   UNL     1      11.807   3.633 -12.820  1.00  0.00     0.074 A 
ATOM     52  C   UNL     1      12.098   2.150 -14.773  1.00  0.00     0.049 A 
ATOM     53  N   UNL     1      11.732   4.801 -13.406  1.00  0.00    -0.248 NA
ATOM     54  C   UNL     1      11.692   3.684 -11.354  1.00  0.00     0.031 C 
ATOM     55  C   UNL     1      12.238   0.888 -15.502  1.00  0.00     0.029 A 
ATOM     56  N   UNL     1      12.118   3.106 -15.757  1.00  0.00    -0.354 N 
ATOM     57  C   UNL     1      11.539   5.722 -12.384  1.00  0.00     0.074 A 
ATOM     58  C   UNL     1      11.472   4.974 -11.147  1.00  0.00     0.031 C 
ATOM     59  C   UNL     1      12.348   1.149 -16.814  1.00  0.00     0.029 A 
ATOM     60  C   UNL     1      12.248   2.590 -17.023  1.00  0.00     0.049 A 
ATOM     61  H   UNL     1      12.047   4.071 -15.573  1.00  0.00     0.167 HD
ATOM     62  C   UNL     1      11.441   7.071 -12.465  1.00  0.00     0.031 A 
ATOM     63  C   UNL     1      12.272   3.206 -18.220  1.00  0.00     0.031 A 
ATOM     64  C   UNL     1      11.524   7.820 -13.690  1.00  0.00     0.049 A 
ATOM     65  C   UNL     1      12.147   4.702 -18.284  1.00  0.00     0.074 A 
ATOM     66  C   UNL     1      11.485   9.192 -13.865  1.00  0.00     0.029 A 
ATOM     67  N   UNL     1      11.666   7.258 -14.948  1.00  0.00    -0.354 N 
ATOM     68  N   UNL     1      12.011   5.562 -17.305  1.00  0.00    -0.248 NA
ATOM     69  C   UNL     1      12.186   5.312 -19.622  1.00  0.00     0.031 C 
ATOM     70  C   UNL     1      11.566   9.460 -15.236  1.00  0.00     0.029 A 
ATOM     71  C   UNL     1      11.700   8.256 -15.908  1.00  0.00     0.049 A 
ATOM     72  H   UNL     1      11.733   6.294 -15.133  1.00  0.00     0.167 HD
ATOM     73  C   UNL     1      11.976   6.814 -17.903  1.00  0.00     0.074 A 
ATOM     74  C   UNL     1      12.114   6.604 -19.329  1.00  0.00     0.031 C 
ATOM     75  C   UNL     1      11.844   8.031 -17.322  1.00  0.00     0.031 A 
BRANCH  62  76
ATOM     76  C   UNL     1      11.227   7.823 -11.183  1.00  0.00    -0.014 A 
ATOM     77  C   UNL     1      12.260   7.962 -10.242  1.00  0.00     0.009 A 
ATOM     78  C   UNL     1       9.986   8.425 -10.925  1.00  0.00     0.009 A 
ATOM     79  C   UNL     1      12.043   8.660  -9.053  1.00  0.00     0.001 A 
ATOM     80  C   UNL     1       9.780   9.145  -9.746  1.00  0.00     0.001 A 
ATOM     81  C   UNL     1      10.806   9.253  -8.807  1.00  0.00     0.000 A 
ENDBRANCH  62  76
BRANCH  63  82
ATOM     82  C   UNL     1      12.434   2.410 -19.463  1.00  0.00    -0.014 A 
ATOM     83  C   UNL     1      13.646   2.444 -20.171  1.00  0.00     0.009 A 
ATOM     84  C   UNL     1      11.382   1.622 -19.952  1.00  0.00     0.009 A 
ATOM     85  C   UNL     1      13.791   1.722 -21.358  1.00  0.00     0.001 A 
ATOM     86  C   UNL     1      11.539   0.883 -21.127  1.00  0.00     0.001 A 
ATOM     87  C   UNL     1      12.739   0.940 -21.832  1.00  0.00     0.000 A 
ENDBRANCH  63  82
BRANCH  75  88
ATOM     88  C   UNL     1      11.882   9.230 -18.223  1.00  0.00    -0.014 A 
ATOM     89  C   UNL     1      10.784   9.569 -19.029  1.00  0.00     0.009 A 
ATOM     90  C   UNL     1      13.017  10.056 -18.232  1.00  0.00     0.009 A 
ATOM     91  C   UNL     1      10.834  10.700 -19.847  1.00  0.00     0.001 A 
ATOM     92  C   UNL     1      13.054  11.198 -19.032  1.00  0.00     0.001 A 
ATOM     93  C   UNL     1      11.966  11.515 -19.844  1.00  0.00     0.000 A 
ENDBRANCH  75  88
ENDBRANCH  49  50
ENDBRANCH  41  44
ENDBRANCH  39  40
ENDBRANCH  38  39
ENDBRANCH  37  38
ENDBRANCH  36  37
ENDBRANCH   1  36
TORSDOF 18
