REMARK SMILES O=C(NCCCCCCNC(=O)[C@H]1CCCC[C@H]1C(=O)N1CCN(S(=O)(=O)c2ccc(F)cc2)CC1)c1ccc(-c2c3nc(c(-c4ccccc4)c4ccc([nH]4)c(-c4ccccc4)c4nc(c(-c5ccccc5)c5ccc2[nH]5)C=C4)C=C3)cc1
REMARK SMILES IDX 7 1 6 2 5 3 4 4 3 5 1 6 2 7 37 9 38 10 84 11 39 12 83 13
REMARK SMILES IDX 40 14 41 15 42 16 77 17 43 18 82 19 76 20 78 21 44 22 81 23
REMARK SMILES IDX 75 24 74 25 45 27 67 28 52 29 66 30 53 31 56 32 65 33 79 34
REMARK SMILES IDX 54 35 55 36 64 38 80 39 57 40 46 41 47 42 51 43 48 44 50 45
REMARK SMILES IDX 49 46 68 47 69 48 73 49 70 50 72 51 71 52 58 53 59 54 63 55
REMARK SMILES IDX 60 56 62 57 61 58 8 59 9 60 10 61 11 62 12 64 13 65 14 66
REMARK SMILES IDX 18 67 15 68 17 69 16 70 19 71 20 72 21 73 22 74 36 75 23 76
REMARK SMILES IDX 35 77 24 78 25 79 26 80 27 81 28 82 29 83 34 84 30 85 33 86
REMARK SMILES IDX 31 87 32 88
REMARK H PARENT 3 8 78 26 56 37 10 63
REMARK Flexibility Score: inf
ROOT
ATOM      1  C   UNL     1       6.663   6.980   1.962  1.00  0.00     0.002 C 
ENDROOT
BRANCH   1   2
ATOM      2  C   UNL     1       5.463   6.466   1.173  1.00  0.00     0.002 C 
BRANCH   2   3
ATOM      3  C   UNL     1       4.174   7.236   1.420  1.00  0.00     0.021 C 
BRANCH   3   4
ATOM      4  C   UNL     1       4.300   8.741   1.234  1.00  0.00     0.116 C 
BRANCH   4   5
ATOM      5  N   UNL     1       4.471   9.118  -0.161  1.00  0.00    -0.352 N 
ATOM      6  O   UNL     1       3.812  10.027  -2.133  1.00  0.00    -0.269 OA
ATOM      7  C   UNL     1       3.656   9.921  -0.923  1.00  0.00     0.251 C 
ATOM      8  H   UNL     1       5.267   8.755  -0.613  1.00  0.00     0.163 HD
BRANCH   7   9
ATOM      9  C   UNL     1       2.563  10.645  -0.247  1.00  0.00     0.039 A 
ATOM     10  C   UNL     1       2.838  11.405   0.895  1.00  0.00     0.014 A 
ATOM     11  C   UNL     1       1.258  10.524  -0.727  1.00  0.00     0.014 A 
ATOM     12  C   UNL     1       1.790  11.946   1.627  1.00  0.00     0.010 A 
ATOM     13  C   UNL     1       0.214  11.143  -0.037  1.00  0.00     0.010 A 
ATOM     14  C   UNL     1       0.473  11.846   1.151  1.00  0.00    -0.014 A 
BRANCH  14  15
ATOM     15  C   UNL     1      -0.602  12.600   1.837  1.00  0.00     0.031 A 
ATOM     16  C   UNL     1      -1.738  11.903   2.525  1.00  0.00     0.074 A 
ATOM     17  C   UNL     1      -0.538  13.945   1.808  1.00  0.00     0.049 A 
ATOM     18  N   UNL     1      -2.774  12.429   3.127  1.00  0.00    -0.248 NA
ATOM     19  C   UNL     1      -1.718  10.432   2.538  1.00  0.00     0.031 C 
ATOM     20  C   UNL     1       0.520  14.725   1.155  1.00  0.00     0.029 A 
ATOM     21  N   UNL     1      -1.372  14.895   2.335  1.00  0.00    -0.354 N 
ATOM     22  C   UNL     1      -3.544  11.360   3.566  1.00  0.00     0.074 A 
ATOM     23  C   UNL     1      -2.859  10.152   3.157  1.00  0.00     0.031 C 
ATOM     24  C   UNL     1       0.285  16.030   1.343  1.00  0.00     0.029 A 
ATOM     25  C   UNL     1      -0.973  16.181   2.062  1.00  0.00     0.049 A 
ATOM     26  H   UNL     1      -2.177  14.678   2.857  1.00  0.00     0.167 HD
ATOM     27  C   UNL     1      -4.716  11.392   4.243  1.00  0.00     0.031 A 
ATOM     28  C   UNL     1      -1.571  17.356   2.322  1.00  0.00     0.031 A 
ATOM     29  C   UNL     1      -5.381  12.602   4.653  1.00  0.00     0.049 A 
ATOM     30  C   UNL     1      -2.889  17.353   3.034  1.00  0.00     0.074 A 
ATOM     31  C   UNL     1      -6.534  12.737   5.407  1.00  0.00     0.029 A 
ATOM     32  N   UNL     1      -4.962  13.883   4.330  1.00  0.00    -0.354 N 
ATOM     33  N   UNL     1      -3.570  16.334   3.499  1.00  0.00    -0.248 NA
ATOM     34  C   UNL     1      -3.526  18.658   3.247  1.00  0.00     0.031 C 
ATOM     35  C   UNL     1      -6.846  14.098   5.489  1.00  0.00     0.029 A 
ATOM     36  C   UNL     1      -5.860  14.812   4.829  1.00  0.00     0.049 A 
ATOM     37  H   UNL     1      -4.147  14.100   3.821  1.00  0.00     0.167 HD
ATOM     38  C   UNL     1      -4.715  16.875   4.063  1.00  0.00     0.074 A 
ATOM     39  C   UNL     1      -4.623  18.312   3.908  1.00  0.00     0.031 C 
ATOM     40  C   UNL     1      -5.756  16.236   4.650  1.00  0.00     0.031 A 
BRANCH  27  41
ATOM     41  C   UNL     1      -5.387  10.086   4.562  1.00  0.00    -0.014 A 
ATOM     42  C   UNL     1      -4.917   9.253   5.588  1.00  0.00     0.009 A 
ATOM     43  C   UNL     1      -6.564   9.731   3.883  1.00  0.00     0.009 A 
ATOM     44  C   UNL     1      -5.606   8.082   5.917  1.00  0.00     0.001 A 
ATOM     45  C   UNL     1      -7.261   8.571   4.228  1.00  0.00     0.001 A 
ATOM     46  C   UNL     1      -6.780   7.746   5.242  1.00  0.00     0.000 A 
ENDBRANCH  27  41
BRANCH  28  47
ATOM     47  C   UNL     1      -0.952  18.619   1.850  1.00  0.00    -0.014 A 
ATOM     48  C   UNL     1      -0.411  19.538   2.759  1.00  0.00     0.009 A 
ATOM     49  C   UNL     1      -0.889  18.904   0.475  1.00  0.00     0.009 A 
ATOM     50  C   UNL     1       0.162  20.727   2.302  1.00  0.00     0.001 A 
ATOM     51  C   UNL     1      -0.287  20.077   0.020  1.00  0.00     0.001 A 
ATOM     52  C   UNL     1       0.229  20.992   0.934  1.00  0.00     0.000 A 
ENDBRANCH  28  47
BRANCH  40  53
ATOM     53  C   UNL     1      -6.871  17.095   5.167  1.00  0.00    -0.014 A 
ATOM     54  C   UNL     1      -7.787  17.690   4.286  1.00  0.00     0.009 A 
ATOM     55  C   UNL     1      -7.025  17.286   6.548  1.00  0.00     0.009 A 
ATOM     56  C   UNL     1      -8.824  18.483   4.779  1.00  0.00     0.001 A 
ATOM     57  C   UNL     1      -8.079  18.058   7.039  1.00  0.00     0.001 A 
ATOM     58  C   UNL     1      -8.972  18.661   6.155  1.00  0.00     0.000 A 
ENDBRANCH  40  53
ENDBRANCH  14  15
ENDBRANCH   7   9
ENDBRANCH   4   5
ENDBRANCH   3   4
ENDBRANCH   2   3
ENDBRANCH   1   2
BRANCH   1  59
ATOM     59  C   UNL     1       6.529   7.035   3.486  1.00  0.00     0.021 C 
BRANCH  59  60
ATOM     60  C   UNL     1       6.357   5.679   4.165  1.00  0.00     0.116 C 
BRANCH  60  61
ATOM     61  N   UNL     1       7.376   4.726   3.761  1.00  0.00    -0.356 N 
ATOM     62  C   UNL     1       8.502   4.276   4.370  1.00  0.00     0.223 C 
ATOM     63  H   UNL     1       7.219   4.329   2.874  1.00  0.00     0.163 HD
ATOM     64  O   UNL     1       9.160   3.436   3.749  1.00  0.00    -0.275 OA
BRANCH  62  65
ATOM     65  C   UNL     1       8.917   4.758   5.758  1.00  0.00     0.091 C 
ATOM     66  C   UNL     1       9.290   3.505   6.594  1.00  0.00     0.014 C 
ATOM     67  C   UNL     1      10.005   5.856   5.872  1.00  0.00     0.091 C 
ATOM     68  C   UNL     1      10.751   3.074   6.459  1.00  0.00     0.001 C 
ATOM     69  C   UNL     1      11.473   5.391   5.924  1.00  0.00     0.014 C 
ATOM     70  C   UNL     1      11.683   4.208   6.848  1.00  0.00     0.001 C 
BRANCH  67  71
ATOM     71  C   UNL     1       9.903   7.137   5.027  1.00  0.00     0.226 C 
ATOM     72  O   UNL     1       9.343   8.127   5.506  1.00  0.00    -0.275 OA
ATOM     73  N   UNL     1      10.570   7.202   3.808  1.00  0.00    -0.340 N 
ATOM     74  C   UNL     1      10.896   8.527   3.263  1.00  0.00     0.136 C 
ATOM     75  C   UNL     1      10.477   6.123   2.834  1.00  0.00     0.136 C 
ATOM     76  C   UNL     1      11.978   8.485   2.158  1.00  0.00     0.124 C 
ATOM     77  C   UNL     1      11.535   6.135   1.739  1.00  0.00     0.124 C 
ATOM     78  N   UNL     1      11.670   7.461   1.089  1.00  0.00    -0.194 NA
BRANCH  78  79
ATOM     79  S   UNL     1      10.491   7.999  -0.019  1.00  0.00     0.243 S 
ATOM     80  O   UNL     1       9.270   8.264   0.716  1.00  0.00    -0.207 OA
ATOM     81  O   UNL     1      11.105   9.049  -0.798  1.00  0.00    -0.207 OA
BRANCH  79  82
ATOM     82  C   UNL     1      10.110   6.645  -1.117  1.00  0.00     0.082 A 
ATOM     83  C   UNL     1       9.228   5.644  -0.683  1.00  0.00     0.025 A 
ATOM     84  C   UNL     1      10.486   6.703  -2.462  1.00  0.00     0.025 A 
ATOM     85  C   UNL     1       8.737   4.693  -1.576  1.00  0.00     0.040 A 
ATOM     86  C   UNL     1       9.984   5.752  -3.358  1.00  0.00     0.040 A 
ATOM     87  C   UNL     1       9.114   4.761  -2.909  1.00  0.00     0.123 A 
ATOM     88  F   UNL     1       8.614   3.872  -3.777  1.00  0.00    -0.207 F 
ENDBRANCH  79  82
ENDBRANCH  78  79
ENDBRANCH  67  71
ENDBRANCH  62  65
ENDBRANCH  60  61
ENDBRANCH  59  60
ENDBRANCH   1  59
TORSDOF 16
