REMARK SMILES C[C@H]([C@@H]1CCCO1)n1c(SCC(=O)NCCCCCCNC(=O)c2ccc(-c3c4nc(c(-c5ccccc5)c5ccc([nH]5)c(-c5ccccc5)c5nc(c(-c6ccccc6)c6ccc3[nH]6)C=C5)C=C4)cc2)nc2cnccc21
REMARK SMILES IDX 16 1 15 2 14 3 12 4 13 5 11 7 10 8 9 9 8 10 78 11 72 12
REMARK SMILES IDX 73 13 77 14 74 15 76 16 75 17 2 18 1 19 3 20 4 21 7 22 5 23
REMARK SMILES IDX 6 24 17 25 18 26 19 27 20 28 21 29 22 30 23 32 24 33 25 34
REMARK SMILES IDX 71 35 26 36 70 37 27 38 28 39 29 40 64 41 30 42 69 43 63 44
REMARK SMILES IDX 65 45 31 46 68 47 62 48 61 49 32 51 54 52 39 53 53 54 40 55
REMARK SMILES IDX 43 56 52 57 66 58 41 59 42 60 51 62 67 63 44 64 33 65 34 66
REMARK SMILES IDX 38 67 35 68 37 69 36 70 55 71 56 72 60 73 57 74 59 75 58 76
REMARK SMILES IDX 45 77 46 78 50 79 47 80 49 81 48 82
REMARK H PARENT 14 6 21 31 65 50 43 61
REMARK Flexibility Score: inf
ROOT
ATOM      1  C   UNL     1      -1.257  -1.358  -5.346  1.00  0.00     0.021 C 
ENDROOT
BRANCH   1   2
ATOM      2  C   UNL     1      -0.138  -2.269  -4.861  1.00  0.00     0.116 C 
BRANCH   2   3
ATOM      3  N   UNL     1       1.004  -1.492  -4.456  1.00  0.00    -0.355 N 
ATOM      4  C   UNL     1       1.441  -1.274  -3.196  1.00  0.00     0.230 C 
ATOM      5  O   UNL     1       2.505  -0.665  -3.046  1.00  0.00    -0.274 OA
ATOM      6  H   UNL     1       1.526  -1.074  -5.179  1.00  0.00     0.163 HD
BRANCH   4   7
ATOM      7  C   UNL     1       0.725  -1.887  -2.028  1.00  0.00     0.178 C 
BRANCH   7   8
ATOM      8  S   UNL     1      -0.984  -1.445  -1.736  1.00  0.00    -0.078 SA
BRANCH   8   9
ATOM      9  C   UNL     1      -1.420   0.127  -1.153  1.00  0.00     0.169 A 
ATOM     10  N   UNL     1      -0.749   1.174  -0.546  1.00  0.00    -0.313 N 
ATOM     11  C   UNL     1      -1.659   2.237  -0.463  1.00  0.00     0.072 A 
ATOM     12  N   UNL     1      -2.713   0.397  -1.220  1.00  0.00    -0.221 NA
ATOM     13  C   UNL     1      -2.882   1.687  -0.811  1.00  0.00     0.108 A 
ATOM     14  C   UNL     1      -1.547   3.587  -0.107  1.00  0.00     0.049 A 
ATOM     15  C   UNL     1      -4.035   2.474  -0.731  1.00  0.00     0.141 A 
ATOM     16  C   UNL     1      -2.738   4.301  -0.092  1.00  0.00     0.113 A 
ATOM     17  N   UNL     1      -3.954   3.784  -0.373  1.00  0.00    -0.262 NA
BRANCH  10  18
ATOM     18  C   UNL     1       0.623   1.344  -0.071  1.00  0.00     0.116 C 
ATOM     19  C   UNL     1       1.584   1.504  -1.237  1.00  0.00     0.034 C 
BRANCH  18  20
ATOM     20  C   UNL     1       1.063   0.529   1.178  1.00  0.00     0.141 C 
ATOM     21  C   UNL     1       1.104  -0.980   1.110  1.00  0.00     0.036 C 
ATOM     22  O   UNL     1       0.179   0.842   2.282  1.00  0.00    -0.376 OA
ATOM     23  C   UNL     1       0.462  -1.479   2.372  1.00  0.00     0.031 C 
ATOM     24  C   UNL     1      -0.500  -0.358   2.673  1.00  0.00     0.160 C 
ENDBRANCH  18  20
ENDBRANCH  10  18
ENDBRANCH   8   9
ENDBRANCH   7   8
ENDBRANCH   4   7
ENDBRANCH   2   3
ENDBRANCH   1   2
BRANCH   1  25
ATOM     25  C   UNL     1      -0.899  -0.584  -6.616  1.00  0.00     0.002 C 
BRANCH  25  26
ATOM     26  C   UNL     1      -0.303  -1.444  -7.732  1.00  0.00     0.002 C 
BRANCH  26  27
ATOM     27  C   UNL     1      -1.090  -2.722  -8.046  1.00  0.00     0.021 C 
BRANCH  27  28
ATOM     28  C   UNL     1      -2.571  -2.481  -8.332  1.00  0.00     0.116 C 
BRANCH  28  29
ATOM     29  N   UNL     1      -2.774  -1.567  -9.429  1.00  0.00    -0.352 N 
ATOM     30  C   UNL     1      -2.669  -1.688 -10.780  1.00  0.00     0.251 C 
ATOM     31  H   UNL     1      -3.046  -0.666  -9.140  1.00  0.00     0.163 HD
ATOM     32  O   UNL     1      -2.883  -0.659 -11.438  1.00  0.00    -0.269 OA
BRANCH  30  33
ATOM     33  C   UNL     1      -2.277  -2.930 -11.500  1.00  0.00     0.039 A 
ATOM     34  C   UNL     1      -2.035  -4.176 -10.919  1.00  0.00     0.014 A 
ATOM     35  C   UNL     1      -2.113  -2.803 -12.891  1.00  0.00     0.014 A 
ATOM     36  C   UNL     1      -1.548  -5.230 -11.681  1.00  0.00     0.010 A 
ATOM     37  C   UNL     1      -1.665  -3.866 -13.667  1.00  0.00     0.010 A 
ATOM     38  C   UNL     1      -1.341  -5.069 -13.052  1.00  0.00    -0.014 A 
BRANCH  38  39
ATOM     39  C   UNL     1      -0.851  -6.224 -13.790  1.00  0.00     0.031 A 
ATOM     40  C   UNL     1      -1.680  -7.458 -13.689  1.00  0.00     0.074 A 
ATOM     41  C   UNL     1       0.250  -6.218 -14.565  1.00  0.00     0.049 A 
ATOM     42  N   UNL     1      -1.345  -8.598 -13.178  1.00  0.00    -0.248 NA
ATOM     43  C   UNL     1      -3.077  -7.389 -14.140  1.00  0.00     0.031 C 
ATOM     44  C   UNL     1       1.056  -5.083 -15.016  1.00  0.00     0.029 A 
ATOM     45  N   UNL     1       0.831  -7.279 -15.190  1.00  0.00    -0.354 N 
ATOM     46  C   UNL     1      -2.442  -9.440 -13.339  1.00  0.00     0.074 A 
ATOM     47  C   UNL     1      -3.508  -8.621 -13.866  1.00  0.00     0.031 C 
ATOM     48  C   UNL     1       1.869  -5.488 -16.019  1.00  0.00     0.029 A 
ATOM     49  C   UNL     1       1.757  -6.930 -16.157  1.00  0.00     0.049 A 
ATOM     50  H   UNL     1       0.610  -8.214 -14.973  1.00  0.00     0.167 HD
ATOM     51  C   UNL     1      -2.368 -10.785 -13.144  1.00  0.00     0.031 A 
ATOM     52  C   UNL     1       2.345  -7.771 -17.039  1.00  0.00     0.031 A 
ATOM     53  C   UNL     1      -1.197 -11.164 -12.404  1.00  0.00     0.049 A 
ATOM     54  C   UNL     1       2.272  -9.139 -16.478  1.00  0.00     0.074 A 
ATOM     55  C   UNL     1      -0.744 -10.917 -11.123  1.00  0.00     0.029 A 
ATOM     56  N   UNL     1      -0.109 -11.625 -13.104  1.00  0.00    -0.354 N 
ATOM     57  N   UNL     1       2.929  -9.520 -15.420  1.00  0.00    -0.248 NA
ATOM     58  C   UNL     1       1.153  -9.985 -16.857  1.00  0.00     0.031 C 
ATOM     59  C   UNL     1       0.665 -10.762 -11.259  1.00  0.00     0.029 A 
ATOM     60  C   UNL     1       0.991 -10.978 -12.600  1.00  0.00     0.049 A 
ATOM     61  H   UNL     1      -0.117 -12.292 -13.828  1.00  0.00     0.167 HD
ATOM     62  C   UNL     1       2.066 -10.379 -14.758  1.00  0.00     0.074 A 
ATOM     63  C   UNL     1       1.039 -10.713 -15.743  1.00  0.00     0.031 C 
ATOM     64  C   UNL     1       2.108 -10.523 -13.400  1.00  0.00     0.031 A 
BRANCH  51  65
ATOM     65  C   UNL     1      -3.231 -11.794 -13.850  1.00  0.00    -0.014 A 
ATOM     66  C   UNL     1      -3.922 -11.502 -15.041  1.00  0.00     0.009 A 
ATOM     67  C   UNL     1      -3.169 -13.146 -13.467  1.00  0.00     0.009 A 
ATOM     68  C   UNL     1      -4.524 -12.502 -15.810  1.00  0.00     0.001 A 
ATOM     69  C   UNL     1      -3.737 -14.155 -14.257  1.00  0.00     0.001 A 
ATOM     70  C   UNL     1      -4.413 -13.832 -15.429  1.00  0.00     0.000 A 
ENDBRANCH  51  65
BRANCH  52  71
ATOM     71  C   UNL     1       2.618  -7.526 -18.470  1.00  0.00    -0.014 A 
ATOM     72  C   UNL     1       1.799  -6.645 -19.200  1.00  0.00     0.009 A 
ATOM     73  C   UNL     1       3.475  -8.374 -19.187  1.00  0.00     0.009 A 
ATOM     74  C   UNL     1       1.798  -6.647 -20.597  1.00  0.00     0.001 A 
ATOM     75  C   UNL     1       3.472  -8.377 -20.587  1.00  0.00     0.001 A 
ATOM     76  C   UNL     1       2.622  -7.527 -21.291  1.00  0.00     0.000 A 
ENDBRANCH  52  71
BRANCH  64  77
ATOM     77  C   UNL     1       3.258  -9.894 -12.643  1.00  0.00    -0.014 A 
ATOM     78  C   UNL     1       3.945 -10.674 -11.698  1.00  0.00     0.009 A 
ATOM     79  C   UNL     1       3.550  -8.519 -12.699  1.00  0.00     0.009 A 
ATOM     80  C   UNL     1       4.880 -10.101 -10.833  1.00  0.00     0.001 A 
ATOM     81  C   UNL     1       4.508  -7.949 -11.853  1.00  0.00     0.001 A 
ATOM     82  C   UNL     1       5.164  -8.739 -10.912  1.00  0.00     0.000 A 
ENDBRANCH  64  77
ENDBRANCH  38  39
ENDBRANCH  30  33
ENDBRANCH  28  29
ENDBRANCH  27  28
ENDBRANCH  26  27
ENDBRANCH  25  26
ENDBRANCH   1  25
TORSDOF 17
