REMARK SMILES O=C(NCCCCCCNC(=O)c1ccc([C@@H]2CC(O)=Nc3c2ncn3-c2cccc(Cl)c2)cc1)c1ccc(-c2c3nc(c(-c4ccccc4)c4ccc([nH]4)c(-c4ccccc4)c4nc(c(-c5ccccc5)c5ccc2[nH]5)C=C4)C=C3)cc1
REMARK SMILES IDX 6 1 5 2 4 3 3 4 1 5 2 6 36 8 37 9 83 10 38 11 82 12 39 13
REMARK SMILES IDX 40 14 41 15 76 16 42 17 81 18 75 19 77 20 43 21 80 22 74 23
REMARK SMILES IDX 73 24 44 26 66 27 51 28 65 29 52 30 55 31 64 32 78 33 53 34
REMARK SMILES IDX 54 35 63 37 79 38 56 39 45 40 46 41 50 42 47 43 49 44 48 45
REMARK SMILES IDX 67 46 68 47 72 48 69 49 71 50 70 51 57 52 58 53 62 54 59 55
REMARK SMILES IDX 61 56 60 57 7 58 8 59 9 60 10 61 11 62 12 64 13 65 14 66
REMARK SMILES IDX 35 67 15 68 34 69 16 70 17 71 18 72 23 73 19 74 22 75 24 76
REMARK SMILES IDX 21 77 26 78 25 79 20 80 27 82 28 83 33 84 29 85 31 86 30 87
REMARK SMILES IDX 32 88
REMARK H PARENT 3 7 77 25 55 36 10 63 20 81
REMARK Flexibility Score: inf
ROOT
ATOM      1  C   UNL     1       4.220  -2.442  -2.733  1.00  0.00     0.002 C 
ENDROOT
BRANCH   1   2
ATOM      2  C   UNL     1       4.737  -1.902  -1.395  1.00  0.00     0.021 C 
BRANCH   2   3
ATOM      3  C   UNL     1       4.588  -0.390  -1.224  1.00  0.00     0.116 C 
BRANCH   3   4
ATOM      4  N   UNL     1       3.223   0.080  -1.312  1.00  0.00    -0.352 N 
ATOM      5  O   UNL     1       1.183   0.773  -0.823  1.00  0.00    -0.269 OA
ATOM      6  C   UNL     1       2.193   0.190  -0.424  1.00  0.00     0.251 C 
ATOM      7  H   UNL     1       2.983   0.389  -2.216  1.00  0.00     0.163 HD
BRANCH   6   8
ATOM      8  C   UNL     1       2.179  -0.418   0.931  1.00  0.00     0.039 A 
ATOM      9  C   UNL     1       3.277  -0.974   1.593  1.00  0.00     0.014 A 
ATOM     10  C   UNL     1       0.915  -0.485   1.544  1.00  0.00     0.014 A 
ATOM     11  C   UNL     1       3.100  -1.698   2.764  1.00  0.00     0.010 A 
ATOM     12  C   UNL     1       0.734  -1.186   2.724  1.00  0.00     0.010 A 
ATOM     13  C   UNL     1       1.820  -1.840   3.295  1.00  0.00    -0.014 A 
BRANCH  13  14
ATOM     14  C   UNL     1       1.663  -2.592   4.530  1.00  0.00     0.031 A 
ATOM     15  C   UNL     1       2.264  -1.949   5.733  1.00  0.00     0.074 A 
ATOM     16  C   UNL     1       0.887  -3.692   4.593  1.00  0.00     0.049 A 
ATOM     17  N   UNL     1       3.135  -2.436   6.556  1.00  0.00    -0.248 NA
ATOM     18  C   UNL     1       1.919  -0.540   5.992  1.00  0.00     0.031 C 
ATOM     19  C   UNL     1       0.025  -4.246   3.544  1.00  0.00     0.029 A 
ATOM     20  N   UNL     1       0.596  -4.472   5.669  1.00  0.00    -0.354 N 
ATOM     21  C   UNL     1       3.325  -1.461   7.534  1.00  0.00     0.074 A 
ATOM     22  C   UNL     1       2.662  -0.272   7.065  1.00  0.00     0.031 C 
ATOM     23  C   UNL     1      -0.870  -5.090   4.106  1.00  0.00     0.029 A 
ATOM     24  C   UNL     1      -0.555  -5.234   5.517  1.00  0.00     0.049 A 
ATOM     25  H   UNL     1       1.151  -4.494   6.482  1.00  0.00     0.167 HD
ATOM     26  C   UNL     1       3.819  -1.757   8.768  1.00  0.00     0.031 A 
ATOM     27  C   UNL     1      -1.247  -5.863   6.500  1.00  0.00     0.031 A 
ATOM     28  C   UNL     1       4.502  -3.020   8.791  1.00  0.00     0.049 A 
ATOM     29  C   UNL     1      -0.351  -5.981   7.674  1.00  0.00     0.074 A 
ATOM     30  C   UNL     1       5.617  -3.539   8.166  1.00  0.00     0.029 A 
ATOM     31  N   UNL     1       3.815  -4.101   9.288  1.00  0.00    -0.354 N 
ATOM     32  N   UNL     1       0.714  -6.729   7.688  1.00  0.00    -0.248 NA
ATOM     33  C   UNL     1      -0.378  -4.913   8.662  1.00  0.00     0.031 C 
ATOM     34  C   UNL     1       5.277  -4.895   7.883  1.00  0.00     0.029 A 
ATOM     35  C   UNL     1       4.006  -5.134   8.408  1.00  0.00     0.049 A 
ATOM     36  H   UNL     1       3.286  -4.128  10.118  1.00  0.00     0.167 HD
ATOM     37  C   UNL     1       1.665  -5.977   8.361  1.00  0.00     0.074 A 
ATOM     38  C   UNL     1       0.910  -4.910   9.018  1.00  0.00     0.031 C 
ATOM     39  C   UNL     1       2.996  -6.116   8.091  1.00  0.00     0.031 A 
BRANCH  26  40
ATOM     40  C   UNL     1       3.316  -1.099  10.030  1.00  0.00    -0.014 A 
ATOM     41  C   UNL     1       3.911  -1.440  11.258  1.00  0.00     0.009 A 
ATOM     42  C   UNL     1       2.095  -0.400  10.091  1.00  0.00     0.009 A 
ATOM     43  C   UNL     1       3.276  -1.165  12.476  1.00  0.00     0.001 A 
ATOM     44  C   UNL     1       1.478  -0.088  11.305  1.00  0.00     0.001 A 
ATOM     45  C   UNL     1       2.054  -0.499  12.497  1.00  0.00     0.000 A 
ENDBRANCH  26  40
BRANCH  27  46
ATOM     46  C   UNL     1      -2.712  -6.051   6.603  1.00  0.00    -0.014 A 
ATOM     47  C   UNL     1      -3.265  -6.995   7.481  1.00  0.00     0.009 A 
ATOM     48  C   UNL     1      -3.584  -5.109   6.024  1.00  0.00     0.009 A 
ATOM     49  C   UNL     1      -4.634  -6.979   7.787  1.00  0.00     0.001 A 
ATOM     50  C   UNL     1      -4.949  -5.093   6.327  1.00  0.00     0.001 A 
ATOM     51  C   UNL     1      -5.472  -6.021   7.220  1.00  0.00     0.000 A 
ENDBRANCH  27  46
BRANCH  39  52
ATOM     52  C   UNL     1       3.413  -7.233   7.164  1.00  0.00    -0.014 A 
ATOM     53  C   UNL     1       3.007  -7.298   5.818  1.00  0.00     0.009 A 
ATOM     54  C   UNL     1       4.367  -8.155   7.615  1.00  0.00     0.009 A 
ATOM     55  C   UNL     1       3.521  -8.276   4.959  1.00  0.00     0.001 A 
ATOM     56  C   UNL     1       4.894  -9.119   6.753  1.00  0.00     0.001 A 
ATOM     57  C   UNL     1       4.467  -9.183   5.428  1.00  0.00     0.000 A 
ENDBRANCH  39  52
ENDBRANCH  13  14
ENDBRANCH   6   8
ENDBRANCH   3   4
ENDBRANCH   2   3
ENDBRANCH   1   2
BRANCH   1  58
ATOM     58  C   UNL     1       4.733  -1.708  -3.975  1.00  0.00     0.002 C 
BRANCH  58  59
ATOM     59  C   UNL     1       6.256  -1.608  -4.087  1.00  0.00     0.021 C 
BRANCH  59  60
ATOM     60  C   UNL     1       6.975  -2.950  -4.142  1.00  0.00     0.116 C 
BRANCH  60  61
ATOM     61  N   UNL     1       6.638  -3.693  -5.346  1.00  0.00    -0.352 N 
ATOM     62  C   UNL     1       7.476  -4.152  -6.327  1.00  0.00     0.251 C 
ATOM     63  H   UNL     1       5.682  -3.893  -5.471  1.00  0.00     0.163 HD
ATOM     64  O   UNL     1       7.020  -4.585  -7.388  1.00  0.00    -0.269 OA
BRANCH  62  65
ATOM     65  C   UNL     1       8.934  -4.110  -6.116  1.00  0.00     0.039 A 
ATOM     66  C   UNL     1       9.741  -3.529  -7.094  1.00  0.00     0.014 A 
ATOM     67  C   UNL     1       9.499  -4.639  -4.952  1.00  0.00     0.014 A 
ATOM     68  C   UNL     1      11.114  -3.422  -6.875  1.00  0.00     0.005 A 
ATOM     69  C   UNL     1      10.868  -4.514  -4.727  1.00  0.00     0.005 A 
ATOM     70  C   UNL     1      11.694  -3.899  -5.684  1.00  0.00    -0.038 A 
BRANCH  70  71
ATOM     71  C   UNL     1      13.195  -3.782  -5.492  1.00  0.00     0.081 C 
ATOM     72  C   UNL     1      13.858  -5.158  -5.259  1.00  0.00     0.111 C 
ATOM     73  C   UNL     1      13.417  -2.865  -4.344  1.00  0.00     0.093 A 
ATOM     74  C   UNL     1      14.414  -5.380  -3.862  1.00  0.00     0.188 C 
ATOM     75  C   UNL     1      14.118  -3.269  -3.230  1.00  0.00     0.164 A 
ATOM     76  N   UNL     1      12.966  -1.578  -4.217  1.00  0.00    -0.238 NA
ATOM     77  N   UNL     1      14.592  -4.501  -2.930  1.00  0.00    -0.198 NA
ATOM     78  N   UNL     1      14.124  -2.176  -2.386  1.00  0.00    -0.283 N 
ATOM     79  C   UNL     1      13.365  -1.209  -3.014  1.00  0.00     0.206 A 
BRANCH  74  80
ATOM     80  O   UNL     1      14.790  -6.650  -3.616  1.00  0.00    -0.496 OA
ATOM     81  H   UNL     1      14.673  -7.308  -4.272  1.00  0.00     0.294 HD
ENDBRANCH  74  80
BRANCH  78  82
ATOM     82  C   UNL     1      14.778  -2.066  -1.138  1.00  0.00     0.050 A 
ATOM     83  C   UNL     1      14.146  -1.431  -0.062  1.00  0.00     0.027 A 
ATOM     84  C   UNL     1      16.061  -2.609  -0.987  1.00  0.00     0.047 A 
ATOM     85  C   UNL     1      14.787  -1.386   1.179  1.00  0.00     0.004 A 
ATOM     86  C   UNL     1      16.709  -2.509   0.240  1.00  0.00     0.043 A 
ATOM     87  C   UNL     1      16.070  -1.917   1.329  1.00  0.00     0.020 A 
ATOM     88  Cl  UNL     1      18.313  -3.107   0.411  1.00  0.00    -0.084 Cl
ENDBRANCH  78  82
ENDBRANCH  70  71
ENDBRANCH  62  65
ENDBRANCH  60  61
ENDBRANCH  59  60
ENDBRANCH  58  59
ENDBRANCH   1  58
TORSDOF 16
