REMARK SMILES N#CCCNC(=O)COc1ccc(C(=O)NCCCCCCNC(=O)c2ccc(-c3c4nc(c(-c5ccccc5)c5ccc([nH]5)c(-c5ccccc5)c5nc(c(-c6ccccc6)c6ccc3[nH]6)C=C5)C=C4)cc2)nc1
REMARK SMILES IDX 17 1 16 2 14 3 15 4 13 6 10 7 11 8 75 9 12 10 74 11 9 12
REMARK SMILES IDX 8 13 6 14 5 15 7 17 4 18 3 19 2 20 1 21 18 22 19 23 20 24
REMARK SMILES IDX 21 25 22 26 23 27 24 28 25 30 26 31 27 32 73 33 28 34 72 35
REMARK SMILES IDX 29 36 30 37 31 38 66 39 32 40 71 41 65 42 67 43 33 44 70 45
REMARK SMILES IDX 64 46 63 47 34 49 56 50 41 51 55 52 42 53 45 54 54 55 68 56
REMARK SMILES IDX 43 57 44 58 53 60 69 61 46 62 35 63 36 64 40 65 37 66 39 67
REMARK SMILES IDX 38 68 57 69 58 70 62 71 59 72 61 73 60 74 47 75 48 76 52 77
REMARK SMILES IDX 49 78 51 79 50 80
REMARK H PARENT 16 5 5 16 23 29 67 48 45 59
REMARK Flexibility Score: inf
ROOT
ATOM      1  C   UNL     1       3.829  -2.301  -7.012  1.00  0.00     0.116 C 
ENDROOT
BRANCH   1   2
ATOM      2  N   UNL     1       5.012  -1.506  -7.285  1.00  0.00    -0.351 N 
ATOM      3  C   UNL     1       6.043  -1.055  -6.491  1.00  0.00     0.269 C 
ATOM      4  O   UNL     1       6.929  -0.409  -7.055  1.00  0.00    -0.268 OA
ATOM      5  H   UNL     1       5.094  -1.235  -8.228  1.00  0.00     0.163 HD
BRANCH   3   6
ATOM      6  C   UNL     1       6.137  -1.326  -5.014  1.00  0.00     0.128 A 
ATOM      7  C   UNL     1       6.494  -1.780  -2.315  1.00  0.00     0.138 A 
ATOM      8  C   UNL     1       5.221  -1.844  -2.861  1.00  0.00     0.050 A 
ATOM      9  C   UNL     1       7.540  -1.463  -3.164  1.00  0.00     0.158 A 
ATOM     10  C   UNL     1       5.032  -1.562  -4.211  1.00  0.00     0.038 A 
ATOM     11  N   UNL     1       7.394  -1.268  -4.495  1.00  0.00    -0.247 NA
BRANCH   7  12
ATOM     12  O   UNL     1       6.720  -1.846  -0.972  1.00  0.00    -0.482 OA
BRANCH  12  13
ATOM     13  C   UNL     1       6.395  -3.103  -0.393  1.00  0.00     0.329 C 
BRANCH  13  14
ATOM     14  C   UNL     1       4.917  -3.430  -0.144  1.00  0.00     0.257 C 
ATOM     15  N   UNL     1       4.092  -2.505   0.431  1.00  0.00    -0.352 N 
ATOM     16  H   UNL     1       3.158  -2.793   0.552  1.00  0.00     0.163 HD
ATOM     17  O   UNL     1       4.447  -4.530  -0.438  1.00  0.00    -0.271 OA
BRANCH  15  18
ATOM     18  C   UNL     1       4.391  -1.156   0.890  1.00  0.00     0.131 C 
BRANCH  18  19
ATOM     19  C   UNL     1       3.853  -0.060  -0.035  1.00  0.00     0.141 C 
BRANCH  19  20
ATOM     20  C   UNL     1       2.333  -0.060  -0.035  1.00  0.00     0.064 C 
ATOM     21  N   UNL     1       1.072  -0.060  -0.035  1.00  0.00    -0.198 NA
ENDBRANCH  19  20
ENDBRANCH  18  19
ENDBRANCH  15  18
ENDBRANCH  13  14
ENDBRANCH  12  13
ENDBRANCH   7  12
ENDBRANCH   3   6
ENDBRANCH   1   2
BRANCH   1  22
ATOM     22  C   UNL     1       2.588  -1.405  -6.944  1.00  0.00     0.021 C 
BRANCH  22  23
ATOM     23  C   UNL     1       1.984  -1.100  -8.321  1.00  0.00     0.002 C 
BRANCH  23  24
ATOM     24  C   UNL     1       1.450  -2.325  -9.076  1.00  0.00     0.002 C 
BRANCH  24  25
ATOM     25  C   UNL     1       0.420  -3.162  -8.311  1.00  0.00     0.021 C 
BRANCH  25  26
ATOM     26  C   UNL     1      -0.860  -2.414  -7.952  1.00  0.00     0.116 C 
BRANCH  26  27
ATOM     27  N   UNL     1      -1.597  -2.011  -9.138  1.00  0.00    -0.352 N 
ATOM     28  C   UNL     1      -2.900  -2.262  -9.486  1.00  0.00     0.251 C 
ATOM     29  H   UNL     1      -1.085  -1.478  -9.789  1.00  0.00     0.163 HD
ATOM     30  O   UNL     1      -3.284  -2.037 -10.628  1.00  0.00    -0.269 OA
BRANCH  28  31
ATOM     31  C   UNL     1      -3.845  -2.807  -8.488  1.00  0.00     0.039 A 
ATOM     32  C   UNL     1      -4.746  -3.799  -8.886  1.00  0.00     0.014 A 
ATOM     33  C   UNL     1      -3.884  -2.307  -7.183  1.00  0.00     0.014 A 
ATOM     34  C   UNL     1      -5.663  -4.312  -7.968  1.00  0.00     0.010 A 
ATOM     35  C   UNL     1      -4.755  -2.865  -6.250  1.00  0.00     0.010 A 
ATOM     36  C   UNL     1      -5.664  -3.860  -6.638  1.00  0.00    -0.014 A 
BRANCH  36  37
ATOM     37  C   UNL     1      -6.632  -4.395  -5.650  1.00  0.00     0.031 A 
ATOM     38  C   UNL     1      -7.695  -3.500  -5.075  1.00  0.00     0.074 A 
ATOM     39  C   UNL     1      -6.525  -5.671  -5.234  1.00  0.00     0.049 A 
ATOM     40  N   UNL     1      -8.605  -3.773  -4.174  1.00  0.00    -0.248 NA
ATOM     41  C   UNL     1      -7.725  -2.110  -5.557  1.00  0.00     0.031 C 
ATOM     42  C   UNL     1      -5.514  -6.629  -5.687  1.00  0.00     0.029 A 
ATOM     43  N   UNL     1      -7.276  -6.380  -4.331  1.00  0.00    -0.354 N 
ATOM     44  C   UNL     1      -9.298  -2.587  -3.967  1.00  0.00     0.074 A 
ATOM     45  C   UNL     1      -8.678  -1.582  -4.803  1.00  0.00     0.031 C 
ATOM     46  C   UNL     1      -5.724  -7.807  -5.077  1.00  0.00     0.029 A 
ATOM     47  C   UNL     1      -6.860  -7.679  -4.170  1.00  0.00     0.049 A 
ATOM     48  H   UNL     1      -8.040  -5.995  -3.845  1.00  0.00     0.167 HD
ATOM     49  C   UNL     1     -10.367  -2.357  -3.168  1.00  0.00     0.031 A 
ATOM     50  C   UNL     1      -7.340  -8.657  -3.379  1.00  0.00     0.031 A 
ATOM     51  C   UNL     1     -10.997  -3.358  -2.350  1.00  0.00     0.049 A 
ATOM     52  C   UNL     1      -8.534  -8.380  -2.510  1.00  0.00     0.074 A 
ATOM     53  C   UNL     1     -12.119  -3.239  -1.550  1.00  0.00     0.029 A 
ATOM     54  N   UNL     1     -10.557  -4.667  -2.231  1.00  0.00    -0.354 N 
ATOM     55  N   UNL     1      -9.218  -7.270  -2.375  1.00  0.00    -0.248 NA
ATOM     56  C   UNL     1      -9.031  -9.498  -1.695  1.00  0.00     0.031 C 
ATOM     57  C   UNL     1     -12.335  -4.466  -0.914  1.00  0.00     0.029 A 
ATOM     58  C   UNL     1     -11.376  -5.362  -1.357  1.00  0.00     0.049 A 
ATOM     59  H   UNL     1      -9.777  -5.046  -2.698  1.00  0.00     0.167 HD
ATOM     60  C   UNL     1     -10.242  -7.563  -1.484  1.00  0.00     0.074 A 
ATOM     61  C   UNL     1     -10.097  -8.958  -1.122  1.00  0.00     0.031 C 
ATOM     62  C   UNL     1     -11.217  -6.750  -1.010  1.00  0.00     0.031 A 
BRANCH  49  63
ATOM     63  C   UNL     1     -10.919  -0.958  -3.138  1.00  0.00    -0.014 A 
ATOM     64  C   UNL     1     -11.609  -0.424  -4.238  1.00  0.00     0.009 A 
ATOM     65  C   UNL     1     -10.771  -0.173  -1.984  1.00  0.00     0.009 A 
ATOM     66  C   UNL     1     -12.105   0.880  -4.197  1.00  0.00     0.001 A 
ATOM     67  C   UNL     1     -11.293   1.121  -1.935  1.00  0.00     0.001 A 
ATOM     68  C   UNL     1     -11.951   1.649  -3.045  1.00  0.00     0.000 A 
ENDBRANCH  49  63
BRANCH  50  69
ATOM     69  C   UNL     1      -6.707 -10.000  -3.394  1.00  0.00    -0.014 A 
ATOM     70  C   UNL     1      -7.364 -11.088  -3.990  1.00  0.00     0.009 A 
ATOM     71  C   UNL     1      -5.447 -10.203  -2.812  1.00  0.00     0.009 A 
ATOM     72  C   UNL     1      -6.781 -12.357  -3.981  1.00  0.00     0.001 A 
ATOM     73  C   UNL     1      -4.855 -11.468  -2.828  1.00  0.00     0.001 A 
ATOM     74  C   UNL     1      -5.526 -12.545  -3.404  1.00  0.00     0.000 A 
ENDBRANCH  50  69
BRANCH  62  75
ATOM     75  C   UNL     1     -12.224  -7.360  -0.077  1.00  0.00    -0.014 A 
ATOM     76  C   UNL     1     -11.889  -7.684   1.246  1.00  0.00     0.009 A 
ATOM     77  C   UNL     1     -13.537  -7.581  -0.523  1.00  0.00     0.009 A 
ATOM     78  C   UNL     1     -12.842  -8.250   2.095  1.00  0.00     0.001 A 
ATOM     79  C   UNL     1     -14.494  -8.121   0.336  1.00  0.00     0.001 A 
ATOM     80  C   UNL     1     -14.144  -8.464   1.641  1.00  0.00     0.000 A 
ENDBRANCH  62  75
ENDBRANCH  36  37
ENDBRANCH  28  31
ENDBRANCH  26  27
ENDBRANCH  25  26
ENDBRANCH  24  25
ENDBRANCH  23  24
ENDBRANCH  22  23
ENDBRANCH   1  22
TORSDOF 19
