REMARK SMILES O=C(NCCCCCCNC(=O)c1ccc2c(=O)n3cc(C(=O)c4cc(F)ccc4O)cc(Cl)c3nc2c1)c1ccc(-c2c3nc(c(-c4ccccc4)c4ccc([nH]4)c(-c4ccccc4)c4nc(c(-c5ccccc5)c5ccc2[nH]5)C=C4)C=C3)cc1
REMARK SMILES IDX 7 1 6 2 5 3 4 4 3 5 1 6 2 7 39 9 40 10 86 11 41 12 85 13
REMARK SMILES IDX 42 14 43 15 44 16 79 17 45 18 84 19 78 20 80 21 46 22 83 23
REMARK SMILES IDX 77 24 76 25 47 27 69 28 54 29 68 30 55 31 58 32 67 33 81 34
REMARK SMILES IDX 56 35 57 36 66 38 82 39 59 40 48 41 49 42 53 43 50 44 52 45
REMARK SMILES IDX 51 46 70 47 71 48 75 49 72 50 74 51 73 52 60 53 61 54 65 55
REMARK SMILES IDX 62 56 64 57 63 58 8 59 9 60 10 61 11 62 12 64 13 65 14 66
REMARK SMILES IDX 38 67 15 68 37 69 16 70 36 71 17 72 35 73 18 74 19 75 33 76
REMARK SMILES IDX 20 77 32 78 34 79 21 80 22 81 23 82 24 83 25 84 30 85 26 86
REMARK SMILES IDX 29 87 27 88 28 89 31 90
REMARK H PARENT 3 8 80 26 58 37 10 63 31 91
REMARK Flexibility Score: inf
ROOT
ATOM      1  C   UNL     1       4.692   3.559  -2.386  1.00  0.00     0.002 C 
ENDROOT
BRANCH   1   2
ATOM      2  C   UNL     1       4.169   2.293  -3.071  1.00  0.00     0.002 C 
BRANCH   2   3
ATOM      3  C   UNL     1       4.656   0.976  -2.465  1.00  0.00     0.021 C 
BRANCH   3   4
ATOM      4  C   UNL     1       4.381   0.821  -0.975  1.00  0.00     0.116 C 
BRANCH   4   5
ATOM      5  N   UNL     1       2.961   0.828  -0.669  1.00  0.00    -0.352 N 
ATOM      6  O   UNL     1       1.006   0.013   0.096  1.00  0.00    -0.269 OA
ATOM      7  C   UNL     1       2.231  -0.052   0.089  1.00  0.00     0.251 C 
ATOM      8  H   UNL     1       2.449   1.571  -1.063  1.00  0.00     0.163 HD
BRANCH   7   9
ATOM      9  C   UNL     1       2.919  -1.092   0.885  1.00  0.00     0.039 A 
ATOM     10  C   UNL     1       2.364  -2.372   0.939  1.00  0.00     0.014 A 
ATOM     11  C   UNL     1       4.089  -0.806   1.595  1.00  0.00     0.014 A 
ATOM     12  C   UNL     1       2.996  -3.367   1.684  1.00  0.00     0.010 A 
ATOM     13  C   UNL     1       4.772  -1.825   2.251  1.00  0.00     0.010 A 
ATOM     14  C   UNL     1       4.216  -3.108   2.332  1.00  0.00    -0.014 A 
BRANCH  14  15
ATOM     15  C   UNL     1       4.887  -4.162   3.135  1.00  0.00     0.031 A 
ATOM     16  C   UNL     1       5.083  -3.979   4.616  1.00  0.00     0.074 A 
ATOM     17  C   UNL     1       5.322  -5.285   2.532  1.00  0.00     0.049 A 
ATOM     18  N   UNL     1       5.601  -4.809   5.486  1.00  0.00    -0.248 NA
ATOM     19  C   UNL     1       4.667  -2.690   5.195  1.00  0.00     0.031 C 
ATOM     20  C   UNL     1       5.233  -5.559   1.097  1.00  0.00     0.029 A 
ATOM     21  N   UNL     1       5.907  -6.412   3.053  1.00  0.00    -0.354 N 
ATOM     22  C   UNL     1       5.568  -4.144   6.706  1.00  0.00     0.074 A 
ATOM     23  C   UNL     1       5.063  -2.815   6.452  1.00  0.00     0.031 C 
ATOM     24  C   UNL     1       5.690  -6.798   0.861  1.00  0.00     0.029 A 
ATOM     25  C   UNL     1       6.142  -7.389   2.117  1.00  0.00     0.049 A 
ATOM     26  H   UNL     1       6.136  -6.510   4.005  1.00  0.00     0.167 HD
ATOM     27  C   UNL     1       5.888  -4.611   7.936  1.00  0.00     0.031 A 
ATOM     28  C   UNL     1       6.651  -8.630   2.252  1.00  0.00     0.031 A 
ATOM     29  C   UNL     1       6.385  -5.938   8.186  1.00  0.00     0.049 A 
ATOM     30  C   UNL     1       7.018  -9.125   3.623  1.00  0.00     0.074 A 
ATOM     31  C   UNL     1       6.702  -6.520   9.400  1.00  0.00     0.029 A 
ATOM     32  N   UNL     1       6.636  -6.888   7.207  1.00  0.00    -0.354 N 
ATOM     33  N   UNL     1       6.919  -8.508   4.776  1.00  0.00    -0.248 NA
ATOM     34  C   UNL     1       7.548 -10.492   3.715  1.00  0.00     0.031 C 
ATOM     35  C   UNL     1       7.214  -7.795   9.149  1.00  0.00     0.029 A 
ATOM     36  C   UNL     1       7.137  -8.041   7.787  1.00  0.00     0.049 A 
ATOM     37  H   UNL     1       6.481  -6.761   6.243  1.00  0.00     0.167 HD
ATOM     38  C   UNL     1       7.368  -9.411   5.731  1.00  0.00     0.074 A 
ATOM     39  C   UNL     1       7.703 -10.631   5.025  1.00  0.00     0.031 C 
ATOM     40  C   UNL     1       7.496  -9.241   7.071  1.00  0.00     0.031 A 
BRANCH  27  41
ATOM     41  C   UNL     1       5.691  -3.686   9.109  1.00  0.00    -0.014 A 
ATOM     42  C   UNL     1       6.793  -3.267   9.869  1.00  0.00     0.009 A 
ATOM     43  C   UNL     1       4.405  -3.279   9.503  1.00  0.00     0.009 A 
ATOM     44  C   UNL     1       6.613  -2.469  11.002  1.00  0.00     0.001 A 
ATOM     45  C   UNL     1       4.231  -2.450  10.613  1.00  0.00     0.001 A 
ATOM     46  C   UNL     1       5.333  -2.055  11.368  1.00  0.00     0.000 A 
ENDBRANCH  27  41
BRANCH  28  47
ATOM     47  C   UNL     1       6.780  -9.491   1.046  1.00  0.00    -0.014 A 
ATOM     48  C   UNL     1       7.691  -9.161   0.027  1.00  0.00     0.009 A 
ATOM     49  C   UNL     1       5.934 -10.594   0.862  1.00  0.00     0.009 A 
ATOM     50  C   UNL     1       7.722  -9.890  -1.163  1.00  0.00     0.001 A 
ATOM     51  C   UNL     1       5.991 -11.343  -0.316  1.00  0.00     0.001 A 
ATOM     52  C   UNL     1       6.873 -10.982  -1.333  1.00  0.00     0.000 A 
ENDBRANCH  28  47
BRANCH  40  53
ATOM     53  C   UNL     1       8.047 -10.391   7.873  1.00  0.00    -0.014 A 
ATOM     54  C   UNL     1       7.244 -11.029   8.832  1.00  0.00     0.009 A 
ATOM     55  C   UNL     1       9.388 -10.786   7.744  1.00  0.00     0.009 A 
ATOM     56  C   UNL     1       7.774 -12.027   9.653  1.00  0.00     0.001 A 
ATOM     57  C   UNL     1       9.905 -11.812   8.538  1.00  0.00     0.001 A 
ATOM     58  C   UNL     1       9.101 -12.423   9.499  1.00  0.00     0.000 A 
ENDBRANCH  40  53
ENDBRANCH  14  15
ENDBRANCH   7   9
ENDBRANCH   4   5
ENDBRANCH   3   4
ENDBRANCH   2   3
ENDBRANCH   1   2
BRANCH   1  59
ATOM     59  C   UNL     1       6.215   3.653  -2.265  1.00  0.00     0.021 C 
BRANCH  59  60
ATOM     60  C   UNL     1       6.969   3.506  -3.582  1.00  0.00     0.116 C 
BRANCH  60  61
ATOM     61  N   UNL     1       6.635   4.562  -4.523  1.00  0.00    -0.352 N 
ATOM     62  C   UNL     1       7.478   5.413  -5.191  1.00  0.00     0.251 C 
ATOM     63  H   UNL     1       5.675   4.683  -4.706  1.00  0.00     0.163 HD
ATOM     64  O   UNL     1       7.041   6.369  -5.824  1.00  0.00    -0.269 OA
BRANCH  62  65
ATOM     65  C   UNL     1       8.929   5.169  -5.131  1.00  0.00     0.041 A 
ATOM     66  C   UNL     1       9.436   3.906  -5.463  1.00  0.00     0.015 A 
ATOM     67  C   UNL     1       9.780   6.203  -4.726  1.00  0.00     0.043 A 
ATOM     68  C   UNL     1      10.787   3.648  -5.283  1.00  0.00     0.017 A 
ATOM     69  C   UNL     1      11.144   5.958  -4.576  1.00  0.00     0.079 A 
ATOM     70  C   UNL     1      11.621   4.672  -4.822  1.00  0.00     0.066 A 
ATOM     71  N   UNL     1      11.989   7.008  -4.198  1.00  0.00    -0.228 NA
ATOM     72  C   UNL     1      13.041   4.409  -4.576  1.00  0.00     0.265 A 
ATOM     73  C   UNL     1      13.258   6.776  -4.051  1.00  0.00     0.159 A 
ATOM     74  O   UNL     1      13.465   3.261  -4.710  1.00  0.00    -0.268 OA
ATOM     75  N   UNL     1      13.820   5.505  -4.204  1.00  0.00    -0.266 N 
ATOM     76  C   UNL     1      14.225   7.875  -3.702  1.00  0.00     0.085 A 
ATOM     77  C   UNL     1      15.175   5.281  -3.998  1.00  0.00     0.109 A 
ATOM     78  C   UNL     1      15.533   7.611  -3.578  1.00  0.00     0.038 A 
ATOM     79  Cl  UNL     1      13.617   9.470  -3.485  1.00  0.00    -0.080 Cl
ATOM     80  C   UNL     1      16.047   6.265  -3.732  1.00  0.00     0.041 A 
BRANCH  80  81
ATOM     81  C   UNL     1      17.505   5.986  -3.504  1.00  0.00     0.198 C 
ATOM     82  O   UNL     1      18.240   6.814  -2.970  1.00  0.00    -0.288 OA
BRANCH  81  83
ATOM     83  C   UNL     1      18.060   4.643  -3.781  1.00  0.00     0.067 A 
ATOM     84  C   UNL     1      17.874   4.013  -5.017  1.00  0.00     0.055 A 
ATOM     85  C   UNL     1      18.729   3.972  -2.750  1.00  0.00     0.126 A 
ATOM     86  C   UNL     1      18.280   2.691  -5.167  1.00  0.00     0.124 A 
ATOM     87  C   UNL     1      19.124   2.647  -2.910  1.00  0.00     0.050 A 
ATOM     88  F   UNL     1      18.059   2.067  -6.330  1.00  0.00    -0.207 F 
ATOM     89  C   UNL     1      18.886   1.998  -4.122  1.00  0.00     0.043 A 
BRANCH  85  90
ATOM     90  O   UNL     1      19.005   4.562  -1.547  1.00  0.00    -0.507 OA
ATOM     91  H   UNL     1      18.757   5.453  -1.395  1.00  0.00     0.293 HD
ENDBRANCH  85  90
ENDBRANCH  81  83
ENDBRANCH  80  81
ENDBRANCH  62  65
ENDBRANCH  60  61
ENDBRANCH  59  60
ENDBRANCH   1  59
TORSDOF 16
