REMARK SMILES Cc1cc(N2N=C(C(=O)NCCCCCCNC(=O)c3ccc(-c4c5nc(c(-c6ccccc6)c6ccc([nH]6)c(-c6ccccc6)c6nc(c(-c7ccccc7)c7ccc4[nH]7)C=C6)C=C5)cc3)C[C@H]2c2ccccc2)c([N+](=O)[O-])cc1C
REMARK SMILES IDX 13 1 12 2 11 3 10 4 8 5 9 6 7 8 5 9 6 10 69 11 68 12 4 13
REMARK SMILES IDX 1 14 2 15 3 16 81 17 80 18 82 19 76 20 77 21 78 22 79 23
REMARK SMILES IDX 70 24 71 25 75 26 72 27 74 28 73 29 14 30 15 31 16 32 17 33
REMARK SMILES IDX 18 34 19 36 20 37 21 38 67 39 22 40 66 41 23 42 24 43 25 44
REMARK SMILES IDX 60 45 26 46 65 47 59 48 61 49 27 50 64 51 58 52 57 53 28 55
REMARK SMILES IDX 50 56 35 57 49 58 36 59 39 60 48 61 62 62 37 63 38 64 47 66
REMARK SMILES IDX 63 67 40 68 29 69 30 70 34 71 31 72 33 73 32 74 51 75 52 76
REMARK SMILES IDX 56 77 53 78 55 79 54 80 41 81 42 82 46 83 43 84 45 85 44 86
REMARK H PARENT 10 7 17 35 61 54 39 65
REMARK Flexibility Score: inf
ROOT
ATOM      1  C   UNL     1     -10.213   3.363   0.249  1.00  0.00     0.002 C 
ENDROOT
BRANCH   1   2
ATOM      2  C   UNL     1      -8.979   2.963  -0.559  1.00  0.00     0.021 C 
BRANCH   2   3
ATOM      3  C   UNL     1      -7.654   3.433   0.028  1.00  0.00     0.116 C 
BRANCH   3   4
ATOM      4  N   UNL     1      -7.276   2.661   1.190  1.00  0.00    -0.351 N 
ATOM      5  C   UNL     1      -6.144   1.978   1.555  1.00  0.00     0.267 C 
ATOM      6  O   UNL     1      -6.166   1.376   2.627  1.00  0.00    -0.268 OA
ATOM      7  H   UNL     1      -7.988   2.615   1.869  1.00  0.00     0.163 HD
BRANCH   5   8
ATOM      8  C   UNL     1      -4.857   1.967   0.743  1.00  0.00     0.128 C 
ATOM      9  N   UNL     1      -2.783   1.668   0.317  1.00  0.00    -0.250 N 
ATOM     10  N   UNL     1      -3.767   1.452   1.230  1.00  0.00    -0.171 NA
ATOM     11  C   UNL     1      -3.248   2.325  -0.910  1.00  0.00     0.144 C 
ATOM     12  C   UNL     1      -4.745   2.489  -0.651  1.00  0.00     0.096 C 
BRANCH   9  13
ATOM     13  C   UNL     1      -1.692   0.801   0.269  1.00  0.00     0.138 A 
ATOM     14  C   UNL     1       2.079   1.363   0.242  1.00  0.00     0.045 C 
ATOM     15  C   UNL     1       0.770   0.624   0.228  1.00  0.00    -0.046 A 
ATOM     16  C   UNL     1      -0.412   1.370   0.367  1.00  0.00     0.039 A 
ATOM     17  C   UNL     1       0.684  -0.769   0.069  1.00  0.00    -0.041 A 
ATOM     18  C   UNL     1      -0.585  -1.369   0.017  1.00  0.00     0.091 A 
ATOM     19  C   UNL     1       1.894  -1.656  -0.033  1.00  0.00     0.045 C 
ATOM     20  C   UNL     1      -1.753  -0.586   0.100  1.00  0.00     0.294 A 
BRANCH  20  21
ATOM     21  N   UNL     1      -3.026  -1.271  -0.091  1.00  0.00     0.065 N 
ATOM     22  O   UNL     1      -3.185  -2.349   0.503  1.00  0.00    -0.258 OA
ATOM     23  O   UNL     1      -3.820  -0.801  -0.924  1.00  0.00    -0.258 OA
ENDBRANCH  20  21
ENDBRANCH   9  13
BRANCH  11  24
ATOM     24  C   UNL     1      -2.479   3.613  -1.195  1.00  0.00    -0.023 A 
ATOM     25  C   UNL     1      -2.887   4.884  -0.753  1.00  0.00     0.006 A 
ATOM     26  C   UNL     1      -1.274   3.531  -1.918  1.00  0.00     0.006 A 
ATOM     27  C   UNL     1      -2.137   6.026  -1.051  1.00  0.00     0.000 A 
ATOM     28  C   UNL     1      -0.500   4.665  -2.171  1.00  0.00     0.000 A 
ATOM     29  C   UNL     1      -0.939   5.915  -1.748  1.00  0.00     0.000 A 
ENDBRANCH  11  24
ENDBRANCH   5   8
ENDBRANCH   3   4
ENDBRANCH   2   3
ENDBRANCH   1   2
BRANCH   1  30
ATOM     30  C   UNL     1     -10.369   4.867   0.501  1.00  0.00     0.002 C 
BRANCH  30  31
ATOM     31  C   UNL     1     -10.253   5.756  -0.739  1.00  0.00     0.021 C 
BRANCH  31  32
ATOM     32  C   UNL     1     -11.217   5.407  -1.867  1.00  0.00     0.116 C 
BRANCH  32  33
ATOM     33  N   UNL     1     -12.607   5.572  -1.473  1.00  0.00    -0.352 N 
ATOM     34  C   UNL     1     -13.591   6.308  -2.082  1.00  0.00     0.251 C 
ATOM     35  H   UNL     1     -12.878   5.089  -0.659  1.00  0.00     0.163 HD
ATOM     36  O   UNL     1     -14.669   6.496  -1.525  1.00  0.00    -0.269 OA
BRANCH  34  37
ATOM     37  C   UNL     1     -13.333   6.896  -3.411  1.00  0.00     0.039 A 
ATOM     38  C   UNL     1     -13.617   8.247  -3.626  1.00  0.00     0.014 A 
ATOM     39  C   UNL     1     -12.785   6.115  -4.432  1.00  0.00     0.014 A 
ATOM     40  C   UNL     1     -13.284   8.835  -4.848  1.00  0.00     0.010 A 
ATOM     41  C   UNL     1     -12.391   6.718  -5.621  1.00  0.00     0.010 A 
ATOM     42  C   UNL     1     -12.635   8.083  -5.841  1.00  0.00    -0.014 A 
BRANCH  42  43
ATOM     43  C   UNL     1     -12.195   8.691  -7.121  1.00  0.00     0.031 A 
ATOM     44  C   UNL     1     -12.778   8.200  -8.417  1.00  0.00     0.074 A 
ATOM     45  C   UNL     1     -11.203   9.602  -7.126  1.00  0.00     0.049 A 
ATOM     46  N   UNL     1     -12.421   8.486  -9.643  1.00  0.00    -0.248 NA
ATOM     47  C   UNL     1     -13.889   7.239  -8.322  1.00  0.00     0.031 C 
ATOM     48  C   UNL     1     -10.536  10.140  -5.939  1.00  0.00     0.029 A 
ATOM     49  N   UNL     1     -10.564  10.221  -8.173  1.00  0.00    -0.354 N 
ATOM     50  C   UNL     1     -13.241   7.718 -10.461  1.00  0.00     0.074 A 
ATOM     51  C   UNL     1     -14.087   6.928  -9.594  1.00  0.00     0.031 C 
ATOM     52  C   UNL     1      -9.588  11.011  -6.323  1.00  0.00     0.029 A 
ATOM     53  C   UNL     1      -9.544  11.054  -7.781  1.00  0.00     0.049 A 
ATOM     54  H   UNL     1     -10.813  10.080  -9.115  1.00  0.00     0.167 HD
ATOM     55  C   UNL     1     -13.290   7.682 -11.813  1.00  0.00     0.031 A 
ATOM     56  C   UNL     1      -8.656  11.754  -8.513  1.00  0.00     0.031 A 
ATOM     57  C   UNL     1     -12.461   8.483 -12.672  1.00  0.00     0.049 A 
ATOM     58  C   UNL     1      -8.721  11.681 -10.014  1.00  0.00     0.074 A 
ATOM     59  C   UNL     1     -12.485   8.568 -14.054  1.00  0.00     0.029 A 
ATOM     60  N   UNL     1     -11.460   9.334 -12.234  1.00  0.00    -0.354 N 
ATOM     61  N   UNL     1      -9.546  11.002 -10.773  1.00  0.00    -0.248 NA
ATOM     62  C   UNL     1      -7.735  12.477 -10.761  1.00  0.00     0.031 C 
ATOM     63  C   UNL     1     -11.457   9.425 -14.454  1.00  0.00     0.029 A 
ATOM     64  C   UNL     1     -10.837   9.924 -13.320  1.00  0.00     0.049 A 
ATOM     65  H   UNL     1     -11.226   9.494 -11.291  1.00  0.00     0.167 HD
ATOM     66  C   UNL     1      -9.202  11.314 -12.082  1.00  0.00     0.074 A 
ATOM     67  C   UNL     1      -8.101  12.252 -12.015  1.00  0.00     0.031 C 
ATOM     68  C   UNL     1      -9.752  10.866 -13.236  1.00  0.00     0.031 A 
BRANCH  55  69
ATOM     69  C   UNL     1     -14.265   6.733 -12.453  1.00  0.00    -0.014 A 
ATOM     70  C   UNL     1     -15.649   6.957 -12.397  1.00  0.00     0.009 A 
ATOM     71  C   UNL     1     -13.784   5.627 -13.174  1.00  0.00     0.009 A 
ATOM     72  C   UNL     1     -16.534   6.076 -13.023  1.00  0.00     0.001 A 
ATOM     73  C   UNL     1     -14.669   4.766 -13.824  1.00  0.00     0.001 A 
ATOM     74  C   UNL     1     -16.043   4.986 -13.741  1.00  0.00     0.000 A 
ENDBRANCH  55  69
BRANCH  56  75
ATOM     75  C   UNL     1      -7.613  12.575  -7.841  1.00  0.00    -0.014 A 
ATOM     76  C   UNL     1      -7.646  13.976  -7.917  1.00  0.00     0.009 A 
ATOM     77  C   UNL     1      -6.565  11.961  -7.137  1.00  0.00     0.009 A 
ATOM     78  C   UNL     1      -6.634  14.742  -7.333  1.00  0.00     0.001 A 
ATOM     79  C   UNL     1      -5.572  12.730  -6.526  1.00  0.00     0.001 A 
ATOM     80  C   UNL     1      -5.601  14.119  -6.636  1.00  0.00     0.000 A 
ENDBRANCH  56  75
BRANCH  68  81
ATOM     81  C   UNL     1      -9.211  11.417 -14.525  1.00  0.00    -0.014 A 
ATOM     82  C   UNL     1      -7.956  11.030 -15.017  1.00  0.00     0.009 A 
ATOM     83  C   UNL     1     -10.007  12.282 -15.293  1.00  0.00     0.009 A 
ATOM     84  C   UNL     1      -7.500  11.516 -16.245  1.00  0.00     0.001 A 
ATOM     85  C   UNL     1      -9.562  12.742 -16.532  1.00  0.00     0.001 A 
ATOM     86  C   UNL     1      -8.307  12.364 -17.004  1.00  0.00     0.000 A 
ENDBRANCH  68  81
ENDBRANCH  42  43
ENDBRANCH  34  37
ENDBRANCH  32  33
ENDBRANCH  31  32
ENDBRANCH  30  31
ENDBRANCH   1  30
TORSDOF 16
