REMARK SMILES C[C@@H]1CCC[C@]1(Sc1ccc(F)cc1)C(=O)NCCCCCCNC(=O)c1ccc(-c2c3nc(c(-c4ccccc4)c4ccc([nH]4)c(-c4ccccc4)c4nc(c(-c5ccccc5)c5ccc2[nH]5)C=C4)C=C3)cc1
REMARK SMILES IDX 20 1 19 2 18 3 17 4 15 5 16 6 6 8 1 9 2 10 3 11 4 12 5 13
REMARK SMILES IDX 7 14 8 15 9 16 14 17 10 18 13 19 11 20 12 21 21 22 22 23
REMARK SMILES IDX 23 24 24 25 25 26 26 28 27 29 28 30 74 31 29 32 73 33 30 34
REMARK SMILES IDX 31 35 32 36 67 37 33 38 72 39 66 40 68 41 34 42 71 43 65 44
REMARK SMILES IDX 64 45 35 47 57 48 42 49 56 50 43 51 46 52 55 53 69 54 44 55
REMARK SMILES IDX 45 56 54 58 70 59 47 60 36 61 37 62 41 63 38 64 40 65 39 66
REMARK SMILES IDX 58 67 59 68 63 69 60 70 62 71 61 72 48 73 49 74 53 75 50 76
REMARK SMILES IDX 52 77 51 78
REMARK H PARENT 17 7 24 27 68 46 46 57
REMARK Flexibility Score: inf
ROOT
ATOM      1  C   UNL     1       4.501   3.423   1.552  1.00  0.00     0.002 C 
ENDROOT
BRANCH   1   2
ATOM      2  C   UNL     1       3.738   2.111   1.748  1.00  0.00     0.021 C 
BRANCH   2   3
ATOM      3  C   UNL     1       2.241   2.272   1.998  1.00  0.00     0.116 C 
BRANCH   3   4
ATOM      4  N   UNL     1       1.547   2.825   0.850  1.00  0.00    -0.355 N 
ATOM      5  C   UNL     1       0.432   2.388   0.186  1.00  0.00     0.236 C 
ATOM      6  O   UNL     1       0.006   3.122  -0.712  1.00  0.00    -0.273 OA
ATOM      7  H   UNL     1       1.943   3.650   0.488  1.00  0.00     0.163 HD
BRANCH   5   8
ATOM      8  C   UNL     1      -0.252   1.030   0.544  1.00  0.00     0.102 C 
ATOM      9  C   UNL     1       1.651  -0.024  -0.870  1.00  0.00     0.009 C 
ATOM     10  C   UNL     1       0.677  -0.193   0.311  1.00  0.00     0.012 C 
ATOM     11  C   UNL     1      -0.258  -1.367  -0.022  1.00  0.00     0.005 C 
ATOM     12  C   UNL     1      -1.560  -0.765  -0.529  1.00  0.00     0.002 C 
ATOM     13  C   UNL     1      -1.420   0.750  -0.425  1.00  0.00     0.028 C 
BRANCH   8  14
ATOM     14  S   UNL     1      -0.939   1.341   2.285  1.00  0.00    -0.109 SA
BRANCH  14  15
ATOM     15  C   UNL     1      -1.592  -0.194   2.876  1.00  0.00     0.008 A 
ATOM     16  C   UNL     1      -0.753  -1.207   3.353  1.00  0.00     0.018 A 
ATOM     17  C   UNL     1      -2.978  -0.323   3.034  1.00  0.00     0.018 A 
ATOM     18  C   UNL     1      -1.296  -2.366   3.913  1.00  0.00     0.040 A 
ATOM     19  C   UNL     1      -3.521  -1.472   3.613  1.00  0.00     0.040 A 
ATOM     20  C   UNL     1      -2.674  -2.487   4.038  1.00  0.00     0.123 A 
ATOM     21  F   UNL     1      -3.192  -3.590   4.593  1.00  0.00    -0.207 F 
ENDBRANCH  14  15
ENDBRANCH   8  14
ENDBRANCH   5   8
ENDBRANCH   3   4
ENDBRANCH   2   3
ENDBRANCH   1   2
BRANCH   1  22
ATOM     22  C   UNL     1       4.387   4.426   2.703  1.00  0.00     0.002 C 
BRANCH  22  23
ATOM     23  C   UNL     1       4.756   3.887   4.088  1.00  0.00     0.021 C 
BRANCH  23  24
ATOM     24  C   UNL     1       6.146   3.265   4.199  1.00  0.00     0.116 C 
BRANCH  24  25
ATOM     25  N   UNL     1       7.206   4.207   3.888  1.00  0.00    -0.352 N 
ATOM     26  C   UNL     1       8.387   4.441   4.541  1.00  0.00     0.251 C 
ATOM     27  H   UNL     1       7.053   4.761   3.089  1.00  0.00     0.163 HD
ATOM     28  O   UNL     1       9.095   5.389   4.199  1.00  0.00    -0.269 OA
BRANCH  26  29
ATOM     29  C   UNL     1       8.814   3.583   5.669  1.00  0.00     0.039 A 
ATOM     30  C   UNL     1       9.385   4.196   6.788  1.00  0.00     0.014 A 
ATOM     31  C   UNL     1       8.696   2.191   5.621  1.00  0.00     0.014 A 
ATOM     32  C   UNL     1       9.797   3.419   7.872  1.00  0.00     0.010 A 
ATOM     33  C   UNL     1       9.049   1.421   6.731  1.00  0.00     0.010 A 
ATOM     34  C   UNL     1       9.612   2.027   7.863  1.00  0.00    -0.014 A 
BRANCH  34  35
ATOM     35  C   UNL     1      10.009   1.211   9.039  1.00  0.00     0.031 A 
ATOM     36  C   UNL     1      11.143   0.228   8.944  1.00  0.00     0.074 A 
ATOM     37  C   UNL     1       9.336   1.349  10.198  1.00  0.00     0.049 A 
ATOM     38  N   UNL     1      11.659  -0.528   9.881  1.00  0.00    -0.248 NA
ATOM     39  C   UNL     1      11.769   0.057   7.623  1.00  0.00     0.031 C 
ATOM     40  C   UNL     1       8.187   2.233  10.410  1.00  0.00     0.029 A 
ATOM     41  N   UNL     1       9.531   0.757  11.420  1.00  0.00    -0.354 N 
ATOM     42  C   UNL     1      12.664  -1.264   9.264  1.00  0.00     0.074 A 
ATOM     43  C   UNL     1      12.650  -0.904   7.863  1.00  0.00     0.031 C 
ATOM     44  C   UNL     1       7.808   2.157  11.697  1.00  0.00     0.029 A 
ATOM     45  C   UNL     1       8.668   1.205  12.391  1.00  0.00     0.049 A 
ATOM     46  H   UNL     1      10.223   0.077  11.585  1.00  0.00     0.167 HD
ATOM     47  C   UNL     1      13.535  -2.142   9.816  1.00  0.00     0.031 A 
ATOM     48  C   UNL     1       8.589   0.895  13.698  1.00  0.00     0.031 A 
ATOM     49  C   UNL     1      13.558  -2.499  11.210  1.00  0.00     0.049 A 
ATOM     50  C   UNL     1       9.574  -0.074  14.287  1.00  0.00     0.074 A 
ATOM     51  C   UNL     1      14.428  -3.349  11.870  1.00  0.00     0.029 A 
ATOM     52  N   UNL     1      12.669  -2.021  12.159  1.00  0.00    -0.354 N 
ATOM     53  N   UNL     1      10.560  -0.709  13.702  1.00  0.00    -0.248 NA
ATOM     54  C   UNL     1       9.446  -0.351  15.725  1.00  0.00     0.031 C 
ATOM     55  C   UNL     1      14.043  -3.414  13.214  1.00  0.00     0.029 A 
ATOM     56  C   UNL     1      12.962  -2.568  13.398  1.00  0.00     0.049 A 
ATOM     57  H   UNL     1      11.938  -1.386  11.980  1.00  0.00     0.167 HD
ATOM     58  C   UNL     1      11.185  -1.439  14.704  1.00  0.00     0.074 A 
ATOM     59  C   UNL     1      10.480  -1.151  15.936  1.00  0.00     0.031 C 
ATOM     60  C   UNL     1      12.249  -2.274  14.613  1.00  0.00     0.031 A 
BRANCH  47  61
ATOM     61  C   UNL     1      14.545  -2.777   8.901  1.00  0.00    -0.014 A 
ATOM     62  C   UNL     1      15.615  -2.033   8.377  1.00  0.00     0.009 A 
ATOM     63  C   UNL     1      14.450  -4.142   8.589  1.00  0.00     0.009 A 
ATOM     64  C   UNL     1      16.549  -2.635   7.532  1.00  0.00     0.001 A 
ATOM     65  C   UNL     1      15.401  -4.747   7.764  1.00  0.00     0.001 A 
ATOM     66  C   UNL     1      16.444  -3.992   7.230  1.00  0.00     0.000 A 
ENDBRANCH  47  61
BRANCH  48  67
ATOM     67  C   UNL     1       7.563   1.541  14.557  1.00  0.00    -0.014 A 
ATOM     68  C   UNL     1       7.938   2.497  15.514  1.00  0.00     0.009 A 
ATOM     69  C   UNL     1       6.209   1.192  14.439  1.00  0.00     0.009 A 
ATOM     70  C   UNL     1       6.983   3.067  16.358  1.00  0.00     0.001 A 
ATOM     71  C   UNL     1       5.252   1.784  15.266  1.00  0.00     0.001 A 
ATOM     72  C   UNL     1       5.641   2.712  16.231  1.00  0.00     0.000 A 
ENDBRANCH  48  67
BRANCH  60  73
ATOM     73  C   UNL     1      12.727  -2.906  15.889  1.00  0.00    -0.014 A 
ATOM     74  C   UNL     1      11.989  -3.918  16.523  1.00  0.00     0.009 A 
ATOM     75  C   UNL     1      13.938  -2.486  16.461  1.00  0.00     0.009 A 
ATOM     76  C   UNL     1      12.432  -4.465  17.728  1.00  0.00     0.001 A 
ATOM     77  C   UNL     1      14.392  -3.054  17.652  1.00  0.00     0.001 A 
ATOM     78  C   UNL     1      13.633  -4.034  18.291  1.00  0.00     0.000 A 
ENDBRANCH  60  73
ENDBRANCH  34  35
ENDBRANCH  26  29
ENDBRANCH  24  25
ENDBRANCH  23  24
ENDBRANCH  22  23
ENDBRANCH   1  22
TORSDOF 15
