REMARK SMILES CC[NH+]1CCN(c2ccc(NC(=O)C3CCCC3)c(C(=O)NCCCCCCNC(=O)c3ccc(-c4c5nc(c(-c6ccccc6)c6ccc([nH]6)c(-c6ccccc6)c6nc(c(-c7ccccc7)c7ccc4[nH]7)C=C6)C=C5)cc3)c2)CC1
REMARK SMILES IDX 25 1 24 2 23 3 22 4 20 5 21 6 19 8 7 9 8 10 80 11 9 12 10 13
REMARK SMILES IDX 6 14 3 15 4 16 82 17 5 19 81 20 2 21 1 22 11 23 12 24 13 26
REMARK SMILES IDX 14 27 15 28 18 29 16 30 17 31 26 32 27 33 28 34 29 35 30 36
REMARK SMILES IDX 31 38 32 39 33 40 79 41 34 42 78 43 35 44 36 45 37 46 72 47
REMARK SMILES IDX 38 48 77 49 71 50 73 51 39 52 76 53 70 54 69 55 40 57 62 58
REMARK SMILES IDX 47 59 61 60 48 61 51 62 60 63 74 64 49 65 50 66 59 68 75 69
REMARK SMILES IDX 52 70 41 71 42 72 46 73 43 74 45 75 44 76 63 77 64 78 68 79
REMARK SMILES IDX 65 80 67 81 66 82 53 83 54 84 58 85 55 86 57 87 56 88
REMARK H PARENT 22 7 3 18 11 25 29 37 73 56 51 67
REMARK Flexibility Score: inf
ROOT
ATOM      1  C   UNL     1       2.898  -7.038  -5.225  1.00  0.00     0.002 C 
ENDROOT
BRANCH   1   2
ATOM      2  C   UNL     1       3.197  -5.825  -4.352  1.00  0.00     0.021 C 
BRANCH   2   3
ATOM      3  C   UNL     1       2.780  -5.917  -2.891  1.00  0.00     0.116 C 
BRANCH   3   4
ATOM      4  N   UNL     1       3.465  -6.928  -2.090  1.00  0.00    -0.352 N 
ATOM      5  C   UNL     1       3.971  -6.872  -0.798  1.00  0.00     0.253 C 
ATOM      6  O   UNL     1       4.508  -7.870  -0.321  1.00  0.00    -0.269 OA
ATOM      7  H   UNL     1       3.590  -7.794  -2.542  1.00  0.00     0.163 HD
BRANCH   5   8
ATOM      8  C   UNL     1       3.978  -5.594  -0.028  1.00  0.00     0.065 A 
ATOM      9  C   UNL     1       3.125  -3.318  -0.053  1.00  0.00     0.038 A 
ATOM     10  C   UNL     1       4.333  -2.928   0.522  1.00  0.00     0.028 A 
ATOM     11  C   UNL     1       2.924  -4.688  -0.203  1.00  0.00     0.042 A 
ATOM     12  C   UNL     1       5.295  -3.856   0.901  1.00  0.00     0.029 A 
ATOM     13  C   UNL     1       5.095  -5.210   0.728  1.00  0.00     0.054 A 
BRANCH   9  14
ATOM     14  N   UNL     1       2.270  -2.391  -0.616  1.00  0.00    -0.360 N 
ATOM     15  N   UNL     1       0.662  -0.548  -2.254  1.00  0.00    -0.332 N 
ATOM     16  C   UNL     1       2.126  -0.469  -2.216  1.00  0.00     0.283 C 
ATOM     17  C   UNL     1       0.224  -1.919  -1.949  1.00  0.00     0.283 C 
ATOM     18  H   UNL     1       0.371  -0.343  -3.210  1.00  0.00     0.348 HD
ATOM     19  C   UNL     1       2.805  -1.065  -0.971  1.00  0.00     0.178 C 
ATOM     20  C   UNL     1       0.814  -2.572  -0.681  1.00  0.00     0.178 C 
BRANCH  15  21
ATOM     21  C   UNL     1      -0.035   0.508  -1.519  1.00  0.00     0.258 C 
ATOM     22  C   UNL     1       0.367   0.814  -0.080  1.00  0.00     0.071 C 
ENDBRANCH  15  21
ENDBRANCH   9  14
BRANCH  13  23
ATOM     23  N   UNL     1       5.963  -6.161   1.290  1.00  0.00    -0.325 N 
ATOM     24  C   UNL     1       6.756  -6.158   2.400  1.00  0.00     0.227 C 
ATOM     25  H   UNL     1       6.007  -7.001   0.778  1.00  0.00     0.169 HD
ATOM     26  O   UNL     1       7.450  -7.171   2.580  1.00  0.00    -0.274 OA
BRANCH  24  27
ATOM     27  C   UNL     1       6.862  -5.035   3.450  1.00  0.00     0.079 C 
ATOM     28  C   UNL     1       7.906  -3.973   3.112  1.00  0.00     0.013 C 
ATOM     29  C   UNL     1       5.604  -4.311   3.942  1.00  0.00     0.013 C 
ATOM     30  C   UNL     1       7.424  -2.687   3.771  1.00  0.00     0.001 C 
ATOM     31  C   UNL     1       5.917  -2.814   3.931  1.00  0.00     0.001 C 
ENDBRANCH  24  27
ENDBRANCH  13  23
ENDBRANCH   5   8
ENDBRANCH   3   4
ENDBRANCH   2   3
ENDBRANCH   1   2
BRANCH   1  32
ATOM     32  C   UNL     1       1.458  -7.553  -5.192  1.00  0.00     0.002 C 
BRANCH  32  33
ATOM     33  C   UNL     1       0.359  -6.526  -5.476  1.00  0.00     0.021 C 
BRANCH  33  34
ATOM     34  C   UNL     1       0.501  -5.747  -6.780  1.00  0.00     0.116 C 
BRANCH  34  35
ATOM     35  N   UNL     1       0.504  -6.609  -7.949  1.00  0.00    -0.352 N 
ATOM     36  C   UNL     1      -0.283  -6.568  -9.074  1.00  0.00     0.251 C 
ATOM     37  H   UNL     1       1.171  -7.333  -7.932  1.00  0.00     0.163 HD
ATOM     38  O   UNL     1      -0.247  -7.487  -9.882  1.00  0.00    -0.269 OA
BRANCH  36  39
ATOM     39  C   UNL     1      -1.194  -5.424  -9.302  1.00  0.00     0.039 A 
ATOM     40  C   UNL     1      -2.494  -5.680  -9.748  1.00  0.00     0.014 A 
ATOM     41  C   UNL     1      -0.771  -4.108  -9.096  1.00  0.00     0.014 A 
ATOM     42  C   UNL     1      -3.386  -4.621  -9.928  1.00  0.00     0.010 A 
ATOM     43  C   UNL     1      -1.683  -3.061  -9.204  1.00  0.00     0.010 A 
ATOM     44  C   UNL     1      -2.999  -3.305  -9.624  1.00  0.00    -0.014 A 
BRANCH  44  45
ATOM     45  C   UNL     1      -3.962  -2.178  -9.732  1.00  0.00     0.031 A 
ATOM     46  C   UNL     1      -3.722  -1.063 -10.714  1.00  0.00     0.074 A 
ATOM     47  C   UNL     1      -5.026  -2.130  -8.905  1.00  0.00     0.049 A 
ATOM     48  N   UNL     1      -4.423   0.024 -10.914  1.00  0.00    -0.248 NA
ATOM     49  C   UNL     1      -2.527  -1.171 -11.567  1.00  0.00     0.031 C 
ATOM     50  C   UNL     1      -5.351  -3.128  -7.883  1.00  0.00     0.029 A 
ATOM     51  N   UNL     1      -6.028  -1.199  -8.788  1.00  0.00    -0.354 N 
ATOM     52  C   UNL     1      -3.747   0.734 -11.899  1.00  0.00     0.074 A 
ATOM     53  C   UNL     1      -2.558  -0.021 -12.224  1.00  0.00     0.031 C 
ATOM     54  C   UNL     1      -6.486  -2.768  -7.262  1.00  0.00     0.029 A 
ATOM     55  C   UNL     1      -6.944  -1.494  -7.807  1.00  0.00     0.049 A 
ATOM     56  H   UNL     1      -6.085  -0.395  -9.354  1.00  0.00     0.167 HD
ATOM     57  C   UNL     1      -4.095   1.901 -12.492  1.00  0.00     0.031 A 
ATOM     58  C   UNL     1      -8.024  -0.811  -7.383  1.00  0.00     0.031 A 
ATOM     59  C   UNL     1      -5.285   2.647 -12.177  1.00  0.00     0.049 A 
ATOM     60  C   UNL     1      -8.375   0.492  -8.048  1.00  0.00     0.074 A 
ATOM     61  C   UNL     1      -5.754   3.807 -12.767  1.00  0.00     0.029 A 
ATOM     62  N   UNL     1      -6.189   2.309 -11.183  1.00  0.00    -0.354 N 
ATOM     63  N   UNL     1      -7.767   1.108  -9.032  1.00  0.00    -0.248 NA
ATOM     64  C   UNL     1      -9.570   1.188  -7.550  1.00  0.00     0.031 C 
ATOM     65  C   UNL     1      -6.908   4.207 -12.088  1.00  0.00     0.029 A 
ATOM     66  C   UNL     1      -7.197   3.257 -11.122  1.00  0.00     0.049 A 
ATOM     67  H   UNL     1      -6.125   1.514 -10.606  1.00  0.00     0.167 HD
ATOM     68  C   UNL     1      -8.523   2.244  -9.292  1.00  0.00     0.074 A 
ATOM     69  C   UNL     1      -9.644   2.221  -8.376  1.00  0.00     0.031 C 
ATOM     70  C   UNL     1      -8.308   3.220 -10.208  1.00  0.00     0.031 A 
BRANCH  57  71
ATOM     71  C   UNL     1      -3.172   2.457 -13.541  1.00  0.00    -0.014 A 
ATOM     72  C   UNL     1      -3.039   1.843 -14.796  1.00  0.00     0.009 A 
ATOM     73  C   UNL     1      -2.477   3.652 -13.295  1.00  0.00     0.009 A 
ATOM     74  C   UNL     1      -2.207   2.398 -15.772  1.00  0.00     0.001 A 
ATOM     75  C   UNL     1      -1.671   4.221 -14.282  1.00  0.00     0.001 A 
ATOM     76  C   UNL     1      -1.531   3.590 -15.517  1.00  0.00     0.000 A 
ENDBRANCH  57  71
BRANCH  58  77
ATOM     77  C   UNL     1      -8.856  -1.337  -6.267  1.00  0.00    -0.014 A 
ATOM     78  C   UNL     1     -10.175  -1.762  -6.492  1.00  0.00     0.009 A 
ATOM     79  C   UNL     1      -8.345  -1.385  -4.960  1.00  0.00     0.009 A 
ATOM     80  C   UNL     1     -10.975  -2.185  -5.428  1.00  0.00     0.001 A 
ATOM     81  C   UNL     1      -9.136  -1.842  -3.904  1.00  0.00     0.001 A 
ATOM     82  C   UNL     1     -10.454  -2.227  -4.136  1.00  0.00     0.000 A 
ENDBRANCH  58  77
BRANCH  70  83
ATOM     83  C   UNL     1      -9.328   4.321 -10.296  1.00  0.00    -0.014 A 
ATOM     84  C   UNL     1      -9.457   5.284  -9.283  1.00  0.00     0.009 A 
ATOM     85  C   UNL     1     -10.146   4.417 -11.433  1.00  0.00     0.009 A 
ATOM     86  C   UNL     1     -10.410   6.299  -9.393  1.00  0.00     0.001 A 
ATOM     87  C   UNL     1     -11.073   5.452 -11.555  1.00  0.00     0.001 A 
ATOM     88  C   UNL     1     -11.212   6.386 -10.530  1.00  0.00     0.000 A 
ENDBRANCH  70  83
ENDBRANCH  44  45
ENDBRANCH  36  39
ENDBRANCH  34  35
ENDBRANCH  33  34
ENDBRANCH  32  33
ENDBRANCH   1  32
TORSDOF 17
