REMARK SMILES CO[C@@H]1C[C@@H](C(=O)NCCCCCCNC(=O)c2ccc(-c3c4nc(c(-c5ccccc5)c5ccc([nH]5)c(-c5ccccc5)c5nc(c(-c6ccccc6)c6ccc3[nH]6)C=C5)C=C4)cc2)N(C(=O)CSc2cccs2)C1
REMARK SMILES IDX 10 1 9 2 8 3 6 4 7 5 5 7 3 8 4 9 76 10 66 11 2 12 1 13 67 14
REMARK SMILES IDX 68 15 69 16 70 17 71 18 72 19 75 20 73 21 74 22 11 23 12 24
REMARK SMILES IDX 13 25 14 26 15 27 16 28 17 30 18 31 19 32 65 33 20 34 64 35
REMARK SMILES IDX 21 36 22 37 23 38 58 39 24 40 63 41 57 42 59 43 25 44 62 45
REMARK SMILES IDX 56 46 55 47 26 49 48 50 33 51 47 52 34 53 37 54 46 55 60 56
REMARK SMILES IDX 35 57 36 58 45 60 61 61 38 62 27 63 28 64 32 65 29 66 31 67
REMARK SMILES IDX 30 68 49 69 50 70 54 71 51 72 53 73 52 74 39 75 40 76 44 77
REMARK SMILES IDX 41 78 43 79 42 80
REMARK H PARENT 8 6 15 29 59 48 37 59
REMARK Flexibility Score: inf
ROOT
ATOM      1  C   UNL     1       4.128   6.504   3.307  1.00  0.00     0.021 C 
ENDROOT
BRANCH   1   2
ATOM      2  C   UNL     1       2.959   5.549   3.560  1.00  0.00     0.116 C 
BRANCH   2   3
ATOM      3  N   UNL     1       1.744   6.023   2.926  1.00  0.00    -0.354 N 
ATOM      4  C   UNL     1       1.024   5.580   1.860  1.00  0.00     0.242 C 
ATOM      5  O   UNL     1       0.010   6.232   1.585  1.00  0.00    -0.273 OA
ATOM      6  H   UNL     1       1.364   6.825   3.351  1.00  0.00     0.163 HD
BRANCH   4   7
ATOM      7  C   UNL     1       1.299   4.253   1.123  1.00  0.00     0.177 C 
ATOM      8  C   UNL     1       1.153   1.868   1.460  1.00  0.00     0.139 C 
ATOM      9  C   UNL     1       0.455   3.172   1.819  1.00  0.00     0.069 C 
ATOM     10  C   UNL     1       2.629   2.273   1.473  1.00  0.00     0.152 C 
ATOM     11  N   UNL     1       2.647   3.678   1.073  1.00  0.00    -0.327 N 
BRANCH   8  12
ATOM     12  O   UNL     1       0.703   1.477   0.160  1.00  0.00    -0.380 OA
ATOM     13  C   UNL     1       0.996   0.119  -0.147  1.00  0.00     0.195 C 
ENDBRANCH   8  12
BRANCH  11  14
ATOM     14  C   UNL     1       3.761   4.198   0.446  1.00  0.00     0.233 C 
ATOM     15  O   UNL     1       4.829   3.579   0.438  1.00  0.00    -0.274 OA
BRANCH  14  16
ATOM     16  C   UNL     1       3.675   5.585  -0.171  1.00  0.00     0.175 C 
BRANCH  16  17
ATOM     17  S   UNL     1       3.087   5.515  -1.880  1.00  0.00    -0.105 SA
BRANCH  17  18
ATOM     18  C   UNL     1       4.582   5.101  -2.694  1.00  0.00     0.060 A 
ATOM     19  C   UNL     1       5.628   5.961  -2.956  1.00  0.00     0.027 A 
ATOM     20  S   UNL     1       4.886   3.526  -3.275  1.00  0.00    -0.137 S 
ATOM     21  C   UNL     1       6.706   5.304  -3.619  1.00  0.00     0.013 A 
ATOM     22  C   UNL     1       6.435   3.973  -3.845  1.00  0.00     0.066 A 
ENDBRANCH  17  18
ENDBRANCH  16  17
ENDBRANCH  14  16
ENDBRANCH  11  14
ENDBRANCH   4   7
ENDBRANCH   2   3
ENDBRANCH   1   2
BRANCH   1  23
ATOM     23  C   UNL     1       4.015   7.854   4.027  1.00  0.00     0.002 C 
BRANCH  23  24
ATOM     24  C   UNL     1       4.093   7.785   5.554  1.00  0.00     0.002 C 
BRANCH  24  25
ATOM     25  C   UNL     1       5.317   7.057   6.116  1.00  0.00     0.021 C 
BRANCH  25  26
ATOM     26  C   UNL     1       6.664   7.545   5.587  1.00  0.00     0.116 C 
BRANCH  26  27
ATOM     27  N   UNL     1       6.912   8.938   5.913  1.00  0.00    -0.352 N 
ATOM     28  C   UNL     1       7.959   9.500   6.595  1.00  0.00     0.251 C 
ATOM     29  H   UNL     1       6.229   9.572   5.596  1.00  0.00     0.163 HD
ATOM     30  O   UNL     1       7.908  10.682   6.935  1.00  0.00    -0.269 OA
BRANCH  28  31
ATOM     31  C   UNL     1       9.146   8.691   6.942  1.00  0.00     0.039 A 
ATOM     32  C   UNL     1       9.684   8.808   8.227  1.00  0.00     0.014 A 
ATOM     33  C   UNL     1       9.753   7.853   6.001  1.00  0.00     0.014 A 
ATOM     34  C   UNL     1      10.805   8.056   8.580  1.00  0.00     0.010 A 
ATOM     35  C   UNL     1      10.833   7.055   6.375  1.00  0.00     0.010 A 
ATOM     36  C   UNL     1      11.378   7.160   7.662  1.00  0.00    -0.014 A 
BRANCH  36  37
ATOM     37  C   UNL     1      12.562   6.348   8.040  1.00  0.00     0.031 A 
ATOM     38  C   UNL     1      13.892   6.590   7.381  1.00  0.00     0.074 A 
ATOM     39  C   UNL     1      12.435   5.375   8.963  1.00  0.00     0.049 A 
ATOM     40  N   UNL     1      15.040   5.999   7.598  1.00  0.00    -0.248 NA
ATOM     41  C   UNL     1      13.935   7.615   6.325  1.00  0.00     0.031 C 
ATOM     42  C   UNL     1      11.191   5.010   9.644  1.00  0.00     0.029 A 
ATOM     43  N   UNL     1      13.368   4.518   9.490  1.00  0.00    -0.354 N 
ATOM     44  C   UNL     1      15.934   6.570   6.702  1.00  0.00     0.074 A 
ATOM     45  C   UNL     1      15.187   7.518   5.904  1.00  0.00     0.031 C 
ATOM     46  C   UNL     1      11.446   4.027  10.524  1.00  0.00     0.029 A 
ATOM     47  C   UNL     1      12.861   3.678  10.451  1.00  0.00     0.049 A 
ATOM     48  H   UNL     1      14.311   4.507   9.207  1.00  0.00     0.167 HD
ATOM     49  C   UNL     1      17.263   6.343   6.566  1.00  0.00     0.031 A 
ATOM     50  C   UNL     1      13.470   2.738  11.197  1.00  0.00     0.031 A 
ATOM     51  C   UNL     1      18.012   5.410   7.365  1.00  0.00     0.049 A 
ATOM     52  C   UNL     1      14.948   2.516  11.041  1.00  0.00     0.074 A 
ATOM     53  C   UNL     1      19.370   5.145   7.338  1.00  0.00     0.029 A 
ATOM     54  N   UNL     1      17.463   4.589   8.337  1.00  0.00    -0.354 N 
ATOM     55  N   UNL     1      15.792   3.115  10.237  1.00  0.00    -0.248 NA
ATOM     56  C   UNL     1      15.559   1.502  11.912  1.00  0.00     0.031 C 
ATOM     57  C   UNL     1      19.637   4.135   8.268  1.00  0.00     0.029 A 
ATOM     58  C   UNL     1      18.453   3.807   8.908  1.00  0.00     0.049 A 
ATOM     59  H   UNL     1      16.511   4.566   8.586  1.00  0.00     0.167 HD
ATOM     60  C   UNL     1      17.038   2.573  10.526  1.00  0.00     0.074 A 
ATOM     61  C   UNL     1      16.840   1.608  11.588  1.00  0.00     0.031 C 
ATOM     62  C   UNL     1      18.239   2.852   9.964  1.00  0.00     0.031 A 
BRANCH  49  63
ATOM     63  C   UNL     1      17.991   7.122   5.506  1.00  0.00    -0.014 A 
ATOM     64  C   UNL     1      18.225   8.500   5.650  1.00  0.00     0.009 A 
ATOM     65  C   UNL     1      18.474   6.468   4.363  1.00  0.00     0.009 A 
ATOM     66  C   UNL     1      18.894   9.212   4.652  1.00  0.00     0.001 A 
ATOM     67  C   UNL     1      19.167   7.177   3.381  1.00  0.00     0.001 A 
ATOM     68  C   UNL     1      19.368   8.549   3.521  1.00  0.00     0.000 A 
ENDBRANCH  49  63
BRANCH  50  69
ATOM     69  C   UNL     1      12.689   1.962  12.195  1.00  0.00    -0.014 A 
ATOM     70  C   UNL     1      12.854   2.200  13.568  1.00  0.00     0.009 A 
ATOM     71  C   UNL     1      11.777   0.980  11.780  1.00  0.00     0.009 A 
ATOM     72  C   UNL     1      12.141   1.452  14.507  1.00  0.00     0.001 A 
ATOM     73  C   UNL     1      11.046   0.251  12.721  1.00  0.00     0.001 A 
ATOM     74  C   UNL     1      11.235   0.481  14.083  1.00  0.00     0.000 A 
ENDBRANCH  50  69
BRANCH  62  75
ATOM     75  C   UNL     1      19.436   2.131  10.515  1.00  0.00    -0.014 A 
ATOM     76  C   UNL     1      19.652   0.769  10.255  1.00  0.00     0.009 A 
ATOM     77  C   UNL     1      20.373   2.835  11.287  1.00  0.00     0.009 A 
ATOM     78  C   UNL     1      20.765   0.118  10.790  1.00  0.00     0.001 A 
ATOM     79  C   UNL     1      21.499   2.188  11.797  1.00  0.00     0.001 A 
ATOM     80  C   UNL     1      21.689   0.828  11.556  1.00  0.00     0.000 A 
ENDBRANCH  62  75
ENDBRANCH  36  37
ENDBRANCH  28  31
ENDBRANCH  26  27
ENDBRANCH  25  26
ENDBRANCH  24  25
ENDBRANCH  23  24
ENDBRANCH   1  23
TORSDOF 18
