REMARK SMILES CN(C)C(=O)CCNC(=O)NC[C@H]1CC[C@@H](C(=O)NCCCCCCNC(=O)c2ccc(-c3c4nc(c(-c5ccccc5)c5ccc([nH]5)c(-c5ccccc5)c5nc(c(-c6ccccc6)c6ccc3[nH]6)C=C5)C=C4)cc2)CC1
REMARK SMILES IDX 21 1 20 2 19 3 17 4 18 5 16 7 13 8 14 9 78 10 15 11 77 12
REMARK SMILES IDX 12 13 11 14 8 15 9 16 10 18 7 20 6 21 4 22 1 23 2 24 3 25
REMARK SMILES IDX 5 26 22 27 23 28 24 29 25 30 26 31 27 32 28 34 29 35 30 36
REMARK SMILES IDX 76 37 31 38 75 39 32 40 33 41 34 42 69 43 35 44 74 45 68 46
REMARK SMILES IDX 70 47 36 48 73 49 67 50 66 51 37 53 59 54 44 55 58 56 45 57
REMARK SMILES IDX 48 58 57 59 71 60 46 61 47 62 56 64 72 65 49 66 38 67 39 68
REMARK SMILES IDX 43 69 40 70 42 71 41 72 60 73 61 74 65 75 62 76 64 77 63 78
REMARK SMILES IDX 50 79 51 80 55 81 52 82 54 83 53 84
REMARK H PARENT 19 6 8 17 11 19 26 33 70 52 48 63
REMARK Flexibility Score: inf
ROOT
ATOM      1  C   UNL     1      -0.693   7.279   4.942  1.00  0.00     0.021 C 
ENDROOT
BRANCH   1   2
ATOM      2  C   UNL     1      -0.841   8.574   4.144  1.00  0.00     0.116 C 
BRANCH   2   3
ATOM      3  N   UNL     1      -0.060   9.666   4.668  1.00  0.00    -0.356 N 
ATOM      4  C   UNL     1       0.897  10.458   4.127  1.00  0.00     0.223 C 
ATOM      5  O   UNL     1       1.236  11.426   4.821  1.00  0.00    -0.275 OA
ATOM      6  H   UNL     1      -0.262   9.880   5.608  1.00  0.00     0.163 HD
BRANCH   4   7
ATOM      7  C   UNL     1       1.585  10.240   2.768  1.00  0.00     0.078 C 
ATOM      8  C   UNL     1       0.755   7.978   0.934  1.00  0.00     0.008 C 
ATOM      9  C   UNL     1       0.021   9.339   0.916  1.00  0.00     0.006 C 
ATOM     10  C   UNL     1       1.737   7.760   2.102  1.00  0.00     0.006 C 
ATOM     11  C   UNL     1       0.773  10.522   1.510  1.00  0.00     0.014 C 
ATOM     12  C   UNL     1       2.444   8.990   2.643  1.00  0.00     0.014 C 
BRANCH   8  13
ATOM     13  C   UNL     1      -0.290   6.824   0.890  1.00  0.00     0.121 C 
BRANCH  13  14
ATOM     14  N   UNL     1      -0.335   6.152  -0.386  1.00  0.00    -0.338 N 
ATOM     15  N   UNL     1       1.124   4.300  -0.235  1.00  0.00    -0.338 N 
ATOM     16  C   UNL     1       0.301   5.103  -0.913  1.00  0.00     0.314 C 
ATOM     17  H   UNL     1       1.634   3.700  -0.826  1.00  0.00     0.165 HD
ATOM     18  O   UNL     1       0.104   4.853  -2.104  1.00  0.00    -0.249 OA
ATOM     19  H   UNL     1      -0.982   6.558  -1.008  1.00  0.00     0.165 HD
BRANCH  15  20
ATOM     20  C   UNL     1       1.447   4.100   1.167  1.00  0.00     0.127 C 
BRANCH  20  21
ATOM     21  C   UNL     1       0.447   3.190   1.873  1.00  0.00     0.121 C 
BRANCH  21  22
ATOM     22  C   UNL     1       0.826   1.744   1.618  1.00  0.00     0.223 C 
ATOM     23  C   UNL     1       0.955  -0.157   0.101  1.00  0.00     0.146 C 
ATOM     24  N   UNL     1       0.347   1.107   0.487  1.00  0.00    -0.349 N 
ATOM     25  C   UNL     1      -0.761   1.559  -0.345  1.00  0.00     0.146 C 
ATOM     26  O   UNL     1       1.617   1.197   2.391  1.00  0.00    -0.275 OA
ENDBRANCH  21  22
ENDBRANCH  20  21
ENDBRANCH  15  20
ENDBRANCH  13  14
ENDBRANCH   8  13
ENDBRANCH   4   7
ENDBRANCH   2   3
ENDBRANCH   1   2
BRANCH   1  27
ATOM     27  C   UNL     1      -1.903   6.937   5.815  1.00  0.00     0.002 C 
BRANCH  27  28
ATOM     28  C   UNL     1      -3.235   6.774   5.071  1.00  0.00     0.002 C 
BRANCH  28  29
ATOM     29  C   UNL     1      -3.243   5.780   3.904  1.00  0.00     0.021 C 
BRANCH  29  30
ATOM     30  C   UNL     1      -2.825   4.354   4.255  1.00  0.00     0.116 C 
BRANCH  30  31
ATOM     31  N   UNL     1      -3.650   3.780   5.306  1.00  0.00    -0.352 N 
ATOM     32  C   UNL     1      -4.462   2.678   5.296  1.00  0.00     0.251 C 
ATOM     33  H   UNL     1      -3.619   4.263   6.163  1.00  0.00     0.163 HD
ATOM     34  O   UNL     1      -5.230   2.480   6.240  1.00  0.00    -0.269 OA
BRANCH  32  35
ATOM     35  C   UNL     1      -4.443   1.728   4.165  1.00  0.00     0.039 A 
ATOM     36  C   UNL     1      -5.659   1.221   3.695  1.00  0.00     0.014 A 
ATOM     37  C   UNL     1      -3.240   1.292   3.603  1.00  0.00     0.014 A 
ATOM     38  C   UNL     1      -5.672   0.322   2.627  1.00  0.00     0.010 A 
ATOM     39  C   UNL     1      -3.256   0.442   2.498  1.00  0.00     0.010 A 
ATOM     40  C   UNL     1      -4.472  -0.053   2.002  1.00  0.00    -0.014 A 
BRANCH  40  41
ATOM     41  C   UNL     1      -4.473  -0.967   0.834  1.00  0.00     0.031 A 
ATOM     42  C   UNL     1      -3.862  -2.336   0.940  1.00  0.00     0.074 A 
ATOM     43  C   UNL     1      -4.985  -0.550  -0.339  1.00  0.00     0.049 A 
ATOM     44  N   UNL     1      -3.729  -3.254   0.016  1.00  0.00    -0.248 NA
ATOM     45  C   UNL     1      -3.310  -2.714   2.250  1.00  0.00     0.031 C 
ATOM     46  C   UNL     1      -5.597   0.759  -0.580  1.00  0.00     0.029 A 
ATOM     47  N   UNL     1      -5.076  -1.188  -1.550  1.00  0.00    -0.354 N 
ATOM     48  C   UNL     1      -3.070  -4.312   0.630  1.00  0.00     0.074 A 
ATOM     49  C   UNL     1      -2.786  -3.902   1.988  1.00  0.00     0.031 C 
ATOM     50  C   UNL     1      -6.032   0.812  -1.848  1.00  0.00     0.029 A 
ATOM     51  C   UNL     1      -5.695  -0.439  -2.521  1.00  0.00     0.049 A 
ATOM     52  H   UNL     1      -4.729  -2.095  -1.709  1.00  0.00     0.167 HD
ATOM     53  C   UNL     1      -2.746  -5.524   0.117  1.00  0.00     0.031 A 
ATOM     54  C   UNL     1      -5.964  -0.727  -3.808  1.00  0.00     0.031 A 
ATOM     55  C   UNL     1      -3.028  -5.938  -1.231  1.00  0.00     0.049 A 
ATOM     56  C   UNL     1      -5.552  -2.058  -4.367  1.00  0.00     0.074 A 
ATOM     57  C   UNL     1      -2.775  -7.159  -1.832  1.00  0.00     0.029 A 
ATOM     58  N   UNL     1      -3.627  -5.137  -2.191  1.00  0.00    -0.354 N 
ATOM     59  N   UNL     1      -4.966  -3.062  -3.763  1.00  0.00    -0.248 NA
ATOM     60  C   UNL     1      -5.843  -2.294  -5.789  1.00  0.00     0.031 C 
ATOM     61  C   UNL     1      -3.178  -7.080  -3.170  1.00  0.00     0.029 A 
ATOM     62  C   UNL     1      -3.727  -5.827  -3.388  1.00  0.00     0.049 A 
ATOM     63  H   UNL     1      -3.937  -4.214  -2.044  1.00  0.00     0.167 HD
ATOM     64  C   UNL     1      -4.840  -4.059  -4.722  1.00  0.00     0.074 A 
ATOM     65  C   UNL     1      -5.420  -3.541  -5.944  1.00  0.00     0.031 C 
ATOM     66  C   UNL     1      -4.296  -5.294  -4.599  1.00  0.00     0.031 A 
BRANCH  53  67
ATOM     67  C   UNL     1      -2.027  -6.479   1.029  1.00  0.00    -0.014 A 
ATOM     68  C   UNL     1      -2.685  -7.085   2.113  1.00  0.00     0.009 A 
ATOM     69  C   UNL     1      -0.676  -6.779   0.803  1.00  0.00     0.009 A 
ATOM     70  C   UNL     1      -1.991  -7.932   2.979  1.00  0.00     0.001 A 
ATOM     71  C   UNL     1       0.009  -7.649   1.653  1.00  0.00     0.001 A 
ATOM     72  C   UNL     1      -0.645  -8.214   2.748  1.00  0.00     0.000 A 
ENDBRANCH  53  67
BRANCH  54  73
ATOM     73  C   UNL     1      -6.686   0.259  -4.651  1.00  0.00    -0.014 A 
ATOM     74  C   UNL     1      -8.023   0.033  -5.010  1.00  0.00     0.009 A 
ATOM     75  C   UNL     1      -6.051   1.430  -5.093  1.00  0.00     0.009 A 
ATOM     76  C   UNL     1      -8.707   0.953  -5.808  1.00  0.00     0.001 A 
ATOM     77  C   UNL     1      -6.745   2.360  -5.871  1.00  0.00     0.001 A 
ATOM     78  C   UNL     1      -8.069   2.117  -6.233  1.00  0.00     0.000 A 
ENDBRANCH  54  73
BRANCH  66  79
ATOM     79  C   UNL     1      -4.324  -6.177  -5.814  1.00  0.00    -0.014 A 
ATOM     80  C   UNL     1      -3.465  -5.947  -6.899  1.00  0.00     0.009 A 
ATOM     81  C   UNL     1      -5.202  -7.271  -5.859  1.00  0.00     0.009 A 
ATOM     82  C   UNL     1      -3.507  -6.779  -8.020  1.00  0.00     0.001 A 
ATOM     83  C   UNL     1      -5.224  -8.116  -6.969  1.00  0.00     0.001 A 
ATOM     84  C   UNL     1      -4.383  -7.864  -8.052  1.00  0.00     0.000 A 
ENDBRANCH  66  79
ENDBRANCH  40  41
ENDBRANCH  32  35
ENDBRANCH  30  31
ENDBRANCH  29  30
ENDBRANCH  28  29
ENDBRANCH  27  28
ENDBRANCH   1  27
TORSDOF 18
