REMARK SMILES C[C@@H]1[C@H](C(=O)NCCCCCCNC(=O)c2ccc(-c3c4nc(c(-c5ccccc5)c5ccc([nH]5)c(-c5ccccc5)c5nc(c(-c6ccccc6)c6ccc3[nH]6)C=C5)C=C4)cc2)CC[N@@H+]1[C@@H](C)c1cc(F)cc(F)c1
REMARK SMILES IDX 9 1 8 2 7 3 6 4 4 5 5 6 3 8 1 9 2 10 66 11 64 12 65 13 67 15
REMARK SMILES IDX 68 16 69 17 70 18 76 19 71 20 74 21 72 22 73 23 75 24 10 25
REMARK SMILES IDX 11 26 12 27 13 28 14 29 15 31 16 32 17 33 63 34 18 35 62 36
REMARK SMILES IDX 19 37 20 38 21 39 56 40 22 41 61 42 55 43 57 44 23 45 60 46
REMARK SMILES IDX 54 47 53 48 24 50 46 51 31 52 45 53 32 54 35 55 44 56 58 57
REMARK SMILES IDX 33 58 34 59 43 61 59 62 36 63 25 64 26 65 30 66 27 67 29 68
REMARK SMILES IDX 28 69 47 70 48 71 52 72 49 73 51 74 50 75 37 76 38 77 42 78
REMARK SMILES IDX 39 79 41 80 40 81
REMARK H PARENT 6 7 66 14 13 30 57 49 35 60
REMARK Flexibility Score: inf
ROOT
ATOM      1  C   UNL     1       3.561   2.881   3.092  1.00  0.00     0.002 C 
ENDROOT
BRANCH   1   2
ATOM      2  C   UNL     1       2.886   1.693   2.404  1.00  0.00     0.021 C 
BRANCH   2   3
ATOM      3  C   UNL     1       1.425   1.921   2.018  1.00  0.00     0.116 C 
BRANCH   3   4
ATOM      4  N   UNL     1       1.315   2.655   0.777  1.00  0.00    -0.356 N 
ATOM      5  C   UNL     1       0.715   2.335  -0.398  1.00  0.00     0.229 C 
ATOM      6  O   UNL     1       0.868   3.133  -1.330  1.00  0.00    -0.275 OA
ATOM      7  H   UNL     1       1.750   3.538   0.786  1.00  0.00     0.163 HD
BRANCH   5   8
ATOM      8  C   UNL     1      -0.124   1.080  -0.611  1.00  0.00     0.142 C 
ATOM      9  C   UNL     1       2.083  -0.337  -0.564  1.00  0.00     0.076 C 
ATOM     10  C   UNL     1       0.568  -0.293  -0.723  1.00  0.00     0.194 C 
ATOM     11  N   UNL     1      -0.251  -1.202   0.082  1.00  0.00    -0.326 N 
ATOM     12  C   UNL     1      -1.287   0.897   0.359  1.00  0.00     0.081 C 
ATOM     13  C   UNL     1      -1.536  -0.600   0.384  1.00  0.00     0.264 C 
ATOM     14  H   UNL     1      -0.355  -2.001  -0.544  1.00  0.00     0.348 HD
BRANCH  11  15
ATOM     15  C   UNL     1       0.285  -2.252   0.937  1.00  0.00     0.212 C 
ATOM     16  C   UNL     1       0.718  -1.743   2.319  1.00  0.00     0.081 C 
BRANCH  15  17
ATOM     17  C   UNL     1      -0.673  -3.446   1.012  1.00  0.00     0.015 A 
ATOM     18  C   UNL     1      -1.343  -3.826   2.188  1.00  0.00     0.049 A 
ATOM     19  C   UNL     1      -0.895  -4.216  -0.144  1.00  0.00     0.049 A 
ATOM     20  C   UNL     1      -2.173  -4.947   2.202  1.00  0.00     0.126 A 
ATOM     21  C   UNL     1      -1.735  -5.328  -0.107  1.00  0.00     0.126 A 
ATOM     22  F   UNL     1      -2.781  -5.294   3.344  1.00  0.00    -0.207 F 
ATOM     23  C   UNL     1      -2.374  -5.707   1.062  1.00  0.00     0.078 A 
ATOM     24  F   UNL     1      -1.923  -6.047  -1.222  1.00  0.00    -0.207 F 
ENDBRANCH  15  17
ENDBRANCH  11  15
ENDBRANCH   5   8
ENDBRANCH   3   4
ENDBRANCH   2   3
ENDBRANCH   1   2
BRANCH   1  25
ATOM     25  C   UNL     1       2.984   3.263   4.459  1.00  0.00     0.002 C 
BRANCH  25  26
ATOM     26  C   UNL     1       2.853   2.122   5.473  1.00  0.00     0.021 C 
BRANCH  26  27
ATOM     27  C   UNL     1       4.124   1.314   5.728  1.00  0.00     0.116 C 
BRANCH  27  28
ATOM     28  N   UNL     1       5.215   2.134   6.225  1.00  0.00    -0.352 N 
ATOM     29  C   UNL     1       5.970   2.001   7.358  1.00  0.00     0.251 C 
ATOM     30  H   UNL     1       5.446   2.906   5.659  1.00  0.00     0.163 HD
ATOM     31  O   UNL     1       6.746   2.903   7.684  1.00  0.00    -0.269 OA
BRANCH  29  32
ATOM     32  C   UNL     1       5.860   0.798   8.210  1.00  0.00     0.039 A 
ATOM     33  C   UNL     1       5.840   0.963   9.598  1.00  0.00     0.014 A 
ATOM     34  C   UNL     1       5.832  -0.488   7.661  1.00  0.00     0.014 A 
ATOM     35  C   UNL     1       5.751  -0.153  10.433  1.00  0.00     0.010 A 
ATOM     36  C   UNL     1       5.684  -1.599   8.492  1.00  0.00     0.010 A 
ATOM     37  C   UNL     1       5.654  -1.442   9.886  1.00  0.00    -0.014 A 
BRANCH  37  38
ATOM     38  C   UNL     1       5.540  -2.632  10.767  1.00  0.00     0.031 A 
ATOM     39  C   UNL     1       6.660  -3.634  10.839  1.00  0.00     0.074 A 
ATOM     40  C   UNL     1       4.416  -2.828  11.482  1.00  0.00     0.049 A 
ATOM     41  N   UNL     1       6.737  -4.735  11.544  1.00  0.00    -0.248 NA
ATOM     42  C   UNL     1       7.837  -3.377   9.995  1.00  0.00     0.031 C 
ATOM     43  C   UNL     1       3.244  -1.951  11.476  1.00  0.00     0.029 A 
ATOM     44  N   UNL     1       4.077  -3.832  12.354  1.00  0.00    -0.354 N 
ATOM     45  C   UNL     1       7.961  -5.306  11.218  1.00  0.00     0.074 A 
ATOM     46  C   UNL     1       8.573  -4.456  10.221  1.00  0.00     0.031 C 
ATOM     47  C   UNL     1       2.326  -2.440  12.327  1.00  0.00     0.029 A 
ATOM     48  C   UNL     1       2.833  -3.677  12.914  1.00  0.00     0.049 A 
ATOM     49  H   UNL     1       4.670  -4.591  12.559  1.00  0.00     0.167 HD
ATOM     50  C   UNL     1       8.534  -6.428  11.717  1.00  0.00     0.031 A 
ATOM     51  C   UNL     1       2.174  -4.443  13.803  1.00  0.00     0.031 A 
ATOM     52  C   UNL     1       7.938  -7.269  12.720  1.00  0.00     0.049 A 
ATOM     53  C   UNL     1       2.830  -5.683  14.340  1.00  0.00     0.074 A 
ATOM     54  C   UNL     1       8.466  -8.394  13.329  1.00  0.00     0.029 A 
ATOM     55  N   UNL     1       6.676  -7.076  13.261  1.00  0.00    -0.354 N 
ATOM     56  N   UNL     1       4.015  -6.173  14.069  1.00  0.00    -0.248 NA
ATOM     57  C   UNL     1       2.060  -6.469  15.315  1.00  0.00     0.031 C 
ATOM     58  C   UNL     1       7.507  -8.906  14.210  1.00  0.00     0.029 A 
ATOM     59  C   UNL     1       6.400  -8.073  14.181  1.00  0.00     0.049 A 
ATOM     60  H   UNL     1       6.067  -6.339  13.026  1.00  0.00     0.167 HD
ATOM     61  C   UNL     1       4.142  -7.310  14.856  1.00  0.00     0.074 A 
ATOM     62  C   UNL     1       2.920  -7.428  15.625  1.00  0.00     0.031 C 
ATOM     63  C   UNL     1       5.179  -8.179  14.934  1.00  0.00     0.031 A 
BRANCH  50  64
ATOM     64  C   UNL     1       9.883  -6.811  11.177  1.00  0.00    -0.014 A 
ATOM     65  C   UNL     1      11.033  -6.078  11.510  1.00  0.00     0.009 A 
ATOM     66  C   UNL     1      10.011  -7.937  10.349  1.00  0.00     0.009 A 
ATOM     67  C   UNL     1      12.279  -6.444  10.996  1.00  0.00     0.001 A 
ATOM     68  C   UNL     1      11.262  -8.316   9.858  1.00  0.00     0.001 A 
ATOM     69  C   UNL     1      12.393  -7.564  10.174  1.00  0.00     0.000 A 
ENDBRANCH  50  64
BRANCH  51  70
ATOM     70  C   UNL     1       0.819  -4.046  14.264  1.00  0.00    -0.014 A 
ATOM     71  C   UNL     1       0.628  -3.548  15.562  1.00  0.00     0.009 A 
ATOM     72  C   UNL     1      -0.290  -4.167  13.412  1.00  0.00     0.009 A 
ATOM     73  C   UNL     1      -0.650  -3.201  16.005  1.00  0.00     0.001 A 
ATOM     74  C   UNL     1      -1.562  -3.796  13.850  1.00  0.00     0.001 A 
ATOM     75  C   UNL     1      -1.743  -3.322  15.148  1.00  0.00     0.000 A 
ENDBRANCH  51  70
BRANCH  63  76
ATOM     76  C   UNL     1       5.043  -9.320  15.901  1.00  0.00    -0.014 A 
ATOM     77  C   UNL     1       4.202 -10.409  15.624  1.00  0.00     0.009 A 
ATOM     78  C   UNL     1       5.791  -9.319  17.088  1.00  0.00     0.009 A 
ATOM     79  C   UNL     1       4.090 -11.461  16.534  1.00  0.00     0.001 A 
ATOM     80  C   UNL     1       5.695 -10.385  17.984  1.00  0.00     0.001 A 
ATOM     81  C   UNL     1       4.839 -11.450  17.711  1.00  0.00     0.000 A 
ENDBRANCH  63  76
ENDBRANCH  37  38
ENDBRANCH  29  32
ENDBRANCH  27  28
ENDBRANCH  26  27
ENDBRANCH  25  26
ENDBRANCH   1  25
TORSDOF 15
