REMARK SMILES O=C(COc1nc(NCc2ccc(F)cc2)nc2c1CCC2)NCCCCCCNC(=O)c1ccc(-c2c3nc(c(-c4ccccc4)c4ccc([nH]4)c(-c4ccccc4)c4nc(c(-c5ccccc5)c5ccc2[nH]5)C=C4)C=C3)cc1
REMARK SMILES IDX 25 1 24 2 23 3 1 4 2 5 3 7 4 8 5 9 6 10 19 11 7 12 18 13
REMARK SMILES IDX 20 14 17 15 22 16 21 17 8 18 9 20 10 21 11 22 16 23 12 24
REMARK SMILES IDX 15 25 13 26 14 27 26 28 27 29 28 30 29 31 30 32 31 33 32 35
REMARK SMILES IDX 33 36 34 37 80 38 35 39 79 40 36 41 37 42 38 43 73 44 39 45
REMARK SMILES IDX 78 46 72 47 74 48 40 49 77 50 71 51 70 52 41 54 63 55 48 56
REMARK SMILES IDX 62 57 49 58 52 59 61 60 75 61 50 62 51 63 60 65 76 66 53 67
REMARK SMILES IDX 42 68 43 69 47 70 44 71 46 72 45 73 64 74 65 75 69 76 66 77
REMARK SMILES IDX 68 78 67 79 54 80 55 81 59 82 56 83 58 84 57 85
REMARK H PARENT 23 6 8 19 30 34 74 53 52 64
REMARK Flexibility Score: inf
ROOT
ATOM      1  C   UNL     1       2.808  -2.836   1.761  1.00  0.00     0.021 C 
ENDROOT
BRANCH   1   2
ATOM      2  C   UNL     1       2.233  -1.435   1.950  1.00  0.00     0.116 C 
BRANCH   2   3
ATOM      3  N   UNL     1       2.823  -0.472   1.049  1.00  0.00    -0.353 N 
ATOM      4  O   UNL     1       1.129  -0.522  -0.498  1.00  0.00    -0.271 OA
ATOM      5  C   UNL     1       2.190  -0.048  -0.098  1.00  0.00     0.258 C 
ATOM      6  H   UNL     1       3.712  -0.106   1.263  1.00  0.00     0.163 HD
BRANCH   5   7
ATOM      7  C   UNL     1       2.961   1.010  -0.904  1.00  0.00     0.331 C 
BRANCH   7   8
ATOM      8  O   UNL     1       3.876   1.864  -0.227  1.00  0.00    -0.467 OA
BRANCH   8   9
ATOM      9  C   UNL     1       3.211   2.848   0.462  1.00  0.00     0.222 A 
ATOM     10  N   UNL     1       2.269   2.468   1.338  1.00  0.00    -0.177 NA
ATOM     11  C   UNL     1       3.583   4.146   0.311  1.00  0.00     0.036 A 
ATOM     12  C   UNL     1       1.649   3.428   2.046  1.00  0.00     0.226 A 
ATOM     13  C   UNL     1       2.884   5.054   1.069  1.00  0.00     0.053 A 
ATOM     14  C   UNL     1       4.560   4.802  -0.592  1.00  0.00     0.043 C 
ATOM     15  N   UNL     1       1.918   4.737   1.939  1.00  0.00    -0.218 NA
ATOM     16  C   UNL     1       3.304   6.458   0.739  1.00  0.00     0.057 C 
ATOM     17  C   UNL     1       4.649   6.202   0.040  1.00  0.00     0.011 C 
BRANCH  12  18
ATOM     18  N   UNL     1       0.707   2.967   2.914  1.00  0.00    -0.350 N 
ATOM     19  H   UNL     1       0.565   1.994   2.963  1.00  0.00     0.164 HD
BRANCH  18  20
ATOM     20  C   UNL     1      -0.094   3.803   3.762  1.00  0.00     0.152 C 
BRANCH  20  21
ATOM     21  C   UNL     1      -1.568   3.637   3.450  1.00  0.00    -0.029 A 
ATOM     22  C   UNL     1      -2.166   2.364   3.399  1.00  0.00     0.008 A 
ATOM     23  C   UNL     1      -2.375   4.770   3.253  1.00  0.00     0.008 A 
ATOM     24  C   UNL     1      -3.530   2.229   3.135  1.00  0.00     0.039 A 
ATOM     25  C   UNL     1      -3.741   4.633   2.999  1.00  0.00     0.039 A 
ATOM     26  C   UNL     1      -4.305   3.365   2.939  1.00  0.00     0.123 A 
ATOM     27  F   UNL     1      -5.616   3.235   2.695  1.00  0.00    -0.207 F 
ENDBRANCH  20  21
ENDBRANCH  18  20
ENDBRANCH  12  18
ENDBRANCH   8   9
ENDBRANCH   7   8
ENDBRANCH   5   7
ENDBRANCH   2   3
ENDBRANCH   1   2
BRANCH   1  28
ATOM     28  C   UNL     1       4.315  -2.950   2.022  1.00  0.00     0.002 C 
BRANCH  28  29
ATOM     29  C   UNL     1       4.786  -2.492   3.406  1.00  0.00     0.002 C 
BRANCH  29  30
ATOM     30  C   UNL     1       4.090  -3.159   4.593  1.00  0.00     0.021 C 
BRANCH  30  31
ATOM     31  C   UNL     1       4.169  -4.681   4.617  1.00  0.00     0.116 C 
BRANCH  31  32
ATOM     32  N   UNL     1       5.531  -5.167   4.775  1.00  0.00    -0.352 N 
ATOM     33  C   UNL     1       6.061  -5.986   5.741  1.00  0.00     0.251 C 
ATOM     34  H   UNL     1       6.167  -4.864   4.087  1.00  0.00     0.163 HD
ATOM     35  O   UNL     1       7.273  -6.166   5.805  1.00  0.00    -0.269 OA
BRANCH  33  36
ATOM     36  C   UNL     1       5.171  -6.635   6.727  1.00  0.00     0.039 A 
ATOM     37  C   UNL     1       5.523  -6.598   8.079  1.00  0.00     0.014 A 
ATOM     38  C   UNL     1       3.999  -7.281   6.323  1.00  0.00     0.014 A 
ATOM     39  C   UNL     1       4.668  -7.154   9.032  1.00  0.00     0.010 A 
ATOM     40  C   UNL     1       3.114  -7.773   7.279  1.00  0.00     0.010 A 
ATOM     41  C   UNL     1       3.442  -7.719   8.642  1.00  0.00    -0.014 A 
BRANCH  41  42
ATOM     42  C   UNL     1       2.503  -8.266   9.651  1.00  0.00     0.031 A 
ATOM     43  C   UNL     1       2.209  -9.739   9.693  1.00  0.00     0.074 A 
ATOM     44  C   UNL     1       1.882  -7.432  10.508  1.00  0.00     0.049 A 
ATOM     45  N   UNL     1       1.423 -10.399  10.506  1.00  0.00    -0.248 NA
ATOM     46  C   UNL     1       2.866 -10.578   8.679  1.00  0.00     0.031 C 
ATOM     47  C   UNL     1       2.050  -5.978  10.543  1.00  0.00     0.029 A 
ATOM     48  N   UNL     1       0.989  -7.690  11.517  1.00  0.00    -0.354 N 
ATOM     49  C   UNL     1       1.486 -11.724  10.096  1.00  0.00     0.074 A 
ATOM     50  C   UNL     1       2.341 -11.768   8.930  1.00  0.00     0.031 C 
ATOM     51  C   UNL     1       1.315  -5.477  11.549  1.00  0.00     0.029 A 
ATOM     52  C   UNL     1       0.601  -6.567  12.207  1.00  0.00     0.049 A 
ATOM     53  H   UNL     1       0.658  -8.593  11.727  1.00  0.00     0.167 HD
ATOM     54  C   UNL     1       0.905 -12.812  10.654  1.00  0.00     0.031 A 
ATOM     55  C   UNL     1      -0.232  -6.430  13.257  1.00  0.00     0.031 A 
ATOM     56  C   UNL     1       0.065 -12.773  11.819  1.00  0.00     0.049 A 
ATOM     57  C   UNL     1      -0.886  -7.647  13.845  1.00  0.00     0.074 A 
ATOM     58  C   UNL     1      -0.510 -13.830  12.501  1.00  0.00     0.029 A 
ATOM     59  N   UNL     1      -0.325 -11.613  12.471  1.00  0.00    -0.354 N 
ATOM     60  N   UNL     1      -0.752  -8.903  13.496  1.00  0.00    -0.248 NA
ATOM     61  C   UNL     1      -1.802  -7.429  14.975  1.00  0.00     0.031 C 
ATOM     62  C   UNL     1      -1.294 -13.306  13.534  1.00  0.00     0.029 A 
ATOM     63  C   UNL     1      -1.165 -11.926  13.525  1.00  0.00     0.049 A 
ATOM     64  H   UNL     1      -0.045 -10.703  12.221  1.00  0.00     0.167 HD
ATOM     65  C   UNL     1      -1.557  -9.627  14.366  1.00  0.00     0.074 A 
ATOM     66  C   UNL     1      -2.162  -8.671  15.271  1.00  0.00     0.031 C 
ATOM     67  C   UNL     1      -1.773 -10.964  14.408  1.00  0.00     0.031 A 
BRANCH  54  68
ATOM     68  C   UNL     1       1.163 -14.142  10.003  1.00  0.00    -0.014 A 
ATOM     69  C   UNL     1       2.425 -14.753  10.078  1.00  0.00     0.009 A 
ATOM     70  C   UNL     1       0.125 -14.806   9.333  1.00  0.00     0.009 A 
ATOM     71  C   UNL     1       2.652 -15.985   9.461  1.00  0.00     0.001 A 
ATOM     72  C   UNL     1       0.347 -16.051   8.742  1.00  0.00     0.001 A 
ATOM     73  C   UNL     1       1.612 -16.634   8.798  1.00  0.00     0.000 A 
ENDBRANCH  54  68
BRANCH  55  74
ATOM     74  C   UNL     1      -0.462  -5.081  13.834  1.00  0.00    -0.014 A 
ATOM     75  C   UNL     1       0.127  -4.726  15.057  1.00  0.00     0.009 A 
ATOM     76  C   UNL     1      -1.229  -4.128  13.146  1.00  0.00     0.009 A 
ATOM     77  C   UNL     1      -0.052  -3.445  15.582  1.00  0.00     0.001 A 
ATOM     78  C   UNL     1      -1.388  -2.840  13.664  1.00  0.00     0.001 A 
ATOM     79  C   UNL     1      -0.802  -2.501  14.882  1.00  0.00     0.000 A 
ENDBRANCH  55  74
BRANCH  67  80
ATOM     80  C   UNL     1      -2.710 -11.485  15.459  1.00  0.00    -0.014 A 
ATOM     81  C   UNL     1      -4.098 -11.332  15.324  1.00  0.00     0.009 A 
ATOM     82  C   UNL     1      -2.206 -12.216  16.546  1.00  0.00     0.009 A 
ATOM     83  C   UNL     1      -4.963 -11.894  16.264  1.00  0.00     0.001 A 
ATOM     84  C   UNL     1      -3.075 -12.797  17.471  1.00  0.00     0.001 A 
ATOM     85  C   UNL     1      -4.452 -12.633  17.331  1.00  0.00     0.000 A 
ENDBRANCH  67  80
ENDBRANCH  41  42
ENDBRANCH  33  36
ENDBRANCH  31  32
ENDBRANCH  30  31
ENDBRANCH  29  30
ENDBRANCH  28  29
ENDBRANCH   1  28
TORSDOF 18
