REMARK SMILES O=C(NCCCCCCNC(=O)[C@H](c1cnn(Cc2ccccc2)c1)[NH+]1CCOCC1)c1ccc(-c2c3nc(c(-c4ccccc4)c4ccc([nH]4)c(-c4ccccc4)c4nc(c(-c5ccccc5)c5ccc2[nH]5)C=C4)C=C3)cc1
REMARK SMILES IDX 7 1 6 2 5 3 4 4 3 5 1 6 2 7 32 9 33 10 79 11 34 12 78 13
REMARK SMILES IDX 35 14 36 15 37 16 72 17 38 18 77 19 71 20 73 21 39 22 76 23
REMARK SMILES IDX 70 24 69 25 40 27 62 28 47 29 61 30 48 31 51 32 60 33 74 34
REMARK SMILES IDX 49 35 50 36 59 38 75 39 52 40 41 41 42 42 46 43 43 44 45 45
REMARK SMILES IDX 44 46 63 47 64 48 68 49 65 50 67 51 66 52 53 53 54 54 58 55
REMARK SMILES IDX 55 56 57 57 56 58 8 59 9 60 10 61 11 62 12 64 13 65 26 66
REMARK SMILES IDX 27 67 31 68 28 70 30 71 29 72 14 73 15 74 25 75 16 76 17 77
REMARK SMILES IDX 18 78 19 79 20 80 24 81 21 82 23 83 22 84
REMARK H PARENT 3 8 73 26 51 37 10 63 26 69
REMARK Flexibility Score: inf
ROOT
ATOM      1  C   UNL     1      13.283   4.253   5.223  1.00  0.00     0.002 C 
ENDROOT
BRANCH   1   2
ATOM      2  C   UNL     1      14.173   3.555   4.187  1.00  0.00     0.002 C 
BRANCH   2   3
ATOM      3  C   UNL     1      15.370   4.376   3.688  1.00  0.00     0.021 C 
BRANCH   3   4
ATOM      4  C   UNL     1      16.274   4.906   4.800  1.00  0.00     0.116 C 
BRANCH   4   5
ATOM      5  N   UNL     1      16.916   3.864   5.575  1.00  0.00    -0.352 N 
ATOM      6  O   UNL     1      18.313   2.340   6.355  1.00  0.00    -0.269 OA
ATOM      7  C   UNL     1      18.035   3.098   5.418  1.00  0.00     0.251 C 
ATOM      8  H   UNL     1      16.433   3.662   6.408  1.00  0.00     0.163 HD
BRANCH   7   9
ATOM      9  C   UNL     1      18.896   3.066   4.205  1.00  0.00     0.039 A 
ATOM     10  C   UNL     1      18.909   4.019   3.186  1.00  0.00     0.014 A 
ATOM     11  C   UNL     1      19.772   1.968   4.104  1.00  0.00     0.014 A 
ATOM     12  C   UNL     1      19.721   3.845   2.066  1.00  0.00     0.010 A 
ATOM     13  C   UNL     1      20.597   1.798   2.998  1.00  0.00     0.010 A 
ATOM     14  C   UNL     1      20.549   2.725   1.962  1.00  0.00    -0.014 A 
BRANCH  14  15
ATOM     15  C   UNL     1      21.454   2.640   0.818  1.00  0.00     0.031 A 
ATOM     16  C   UNL     1      22.487   3.716   0.737  1.00  0.00     0.074 A 
ATOM     17  C   UNL     1      21.487   1.600  -0.039  1.00  0.00     0.049 A 
ATOM     18  N   UNL     1      22.706   4.550  -0.229  1.00  0.00    -0.248 NA
ATOM     19  C   UNL     1      23.344   3.927   1.915  1.00  0.00     0.031 C 
ATOM     20  C   UNL     1      20.774   0.324   0.053  1.00  0.00     0.029 A 
ATOM     21  N   UNL     1      22.273   1.436  -1.141  1.00  0.00    -0.354 N 
ATOM     22  C   UNL     1      23.813   5.308   0.153  1.00  0.00     0.074 A 
ATOM     23  C   UNL     1      24.108   4.944   1.517  1.00  0.00     0.031 C 
ATOM     24  C   UNL     1      21.326  -0.557  -0.814  1.00  0.00     0.029 A 
ATOM     25  C   UNL     1      22.325   0.132  -1.613  1.00  0.00     0.049 A 
ATOM     26  H   UNL     1      22.762   2.178  -1.565  1.00  0.00     0.167 HD
ATOM     27  C   UNL     1      24.519   6.075  -0.722  1.00  0.00     0.031 A 
ATOM     28  C   UNL     1      23.167  -0.355  -2.556  1.00  0.00     0.031 A 
ATOM     29  C   UNL     1      23.787   6.344  -1.928  1.00  0.00     0.049 A 
ATOM     30  C   UNL     1      23.698   0.788  -3.330  1.00  0.00     0.074 A 
ATOM     31  C   UNL     1      22.619   7.015  -2.226  1.00  0.00     0.029 A 
ATOM     32  N   UNL     1      24.074   5.586  -3.035  1.00  0.00    -0.354 N 
ATOM     33  N   UNL     1      22.973   1.514  -4.130  1.00  0.00    -0.248 NA
ATOM     34  C   UNL     1      24.952   1.386  -2.906  1.00  0.00     0.031 C 
ATOM     35  C   UNL     1      22.011   6.246  -3.261  1.00  0.00     0.029 A 
ATOM     36  C   UNL     1      22.872   5.189  -3.565  1.00  0.00     0.049 A 
ATOM     37  H   UNL     1      24.969   5.368  -3.383  1.00  0.00     0.167 HD
ATOM     38  C   UNL     1      23.450   2.805  -3.963  1.00  0.00     0.074 A 
ATOM     39  C   UNL     1      24.734   2.648  -3.284  1.00  0.00     0.031 C 
ATOM     40  C   UNL     1      22.634   3.886  -4.141  1.00  0.00     0.031 A 
BRANCH  27  41
ATOM     41  C   UNL     1      26.002   6.319  -0.614  1.00  0.00    -0.014 A 
ATOM     42  C   UNL     1      26.619   7.228  -1.493  1.00  0.00     0.009 A 
ATOM     43  C   UNL     1      26.854   5.489   0.140  1.00  0.00     0.009 A 
ATOM     44  C   UNL     1      28.012   7.265  -1.643  1.00  0.00     0.001 A 
ATOM     45  C   UNL     1      28.245   5.551   0.021  1.00  0.00     0.001 A 
ATOM     46  C   UNL     1      28.824   6.423  -0.889  1.00  0.00     0.000 A 
ENDBRANCH  27  41
BRANCH  28  47
ATOM     47  C   UNL     1      23.760  -1.705  -2.659  1.00  0.00    -0.014 A 
ATOM     48  C   UNL     1      24.307  -2.164  -3.868  1.00  0.00     0.009 A 
ATOM     49  C   UNL     1      24.041  -2.436  -1.491  1.00  0.00     0.009 A 
ATOM     50  C   UNL     1      25.137  -3.293  -3.897  1.00  0.00     0.001 A 
ATOM     51  C   UNL     1      24.868  -3.563  -1.521  1.00  0.00     0.001 A 
ATOM     52  C   UNL     1      25.428  -3.983  -2.723  1.00  0.00     0.000 A 
ENDBRANCH  28  47
BRANCH  40  53
ATOM     53  C   UNL     1      21.262   3.643  -4.726  1.00  0.00    -0.014 A 
ATOM     54  C   UNL     1      20.308   2.809  -4.114  1.00  0.00     0.009 A 
ATOM     55  C   UNL     1      20.867   4.389  -5.846  1.00  0.00     0.009 A 
ATOM     56  C   UNL     1      19.013   2.697  -4.631  1.00  0.00     0.001 A 
ATOM     57  C   UNL     1      19.567   4.295  -6.348  1.00  0.00     0.001 A 
ATOM     58  C   UNL     1      18.642   3.444  -5.746  1.00  0.00     0.000 A 
ENDBRANCH  40  53
ENDBRANCH  14  15
ENDBRANCH   7   9
ENDBRANCH   4   5
ENDBRANCH   3   4
ENDBRANCH   2   3
ENDBRANCH   1   2
BRANCH   1  59
ATOM     59  C   UNL     1      12.681   5.594   4.780  1.00  0.00     0.021 C 
BRANCH  59  60
ATOM     60  C   UNL     1      11.773   5.513   3.553  1.00  0.00     0.116 C 
BRANCH  60  61
ATOM     61  N   UNL     1      10.655   4.622   3.792  1.00  0.00    -0.351 N 
ATOM     62  C   UNL     1       9.311   4.876   3.776  1.00  0.00     0.283 C 
ATOM     63  H   UNL     1      10.901   3.691   3.996  1.00  0.00     0.163 HD
ATOM     64  O   UNL     1       8.573   3.918   4.028  1.00  0.00    -0.268 OA
BRANCH  62  65
ATOM     65  C   UNL     1       8.794   6.305   3.416  1.00  0.00     0.308 C 
BRANCH  65  66
ATOM     66  N   UNL     1       9.046   6.568   1.980  1.00  0.00    -0.317 N 
ATOM     67  C   UNL     1       8.942   7.969   1.551  1.00  0.00     0.292 C 
ATOM     68  C   UNL     1       8.405   5.662   1.012  1.00  0.00     0.292 C 
ATOM     69  H   UNL     1      10.037   6.331   1.950  1.00  0.00     0.349 HD
ATOM     70  C   UNL     1       7.584   8.379   0.954  1.00  0.00     0.221 C 
ATOM     71  C   UNL     1       7.067   6.153   0.433  1.00  0.00     0.221 C 
ATOM     72  O   UNL     1       7.187   7.481  -0.088  1.00  0.00    -0.370 OA
ENDBRANCH  65  66
BRANCH  65  73
ATOM     73  C   UNL     1       7.372   6.563   3.833  1.00  0.00     0.057 A 
ATOM     74  C   UNL     1       6.274   5.668   3.860  1.00  0.00     0.145 A 
ATOM     75  C   UNL     1       6.832   7.743   4.321  1.00  0.00     0.119 A 
ATOM     76  N   UNL     1       5.144   6.239   4.282  1.00  0.00    -0.181 NA
ATOM     77  N   UNL     1       5.495   7.520   4.506  1.00  0.00    -0.268 N 
BRANCH  77  78
ATOM     78  C   UNL     1       4.504   8.473   4.992  1.00  0.00     0.179 C 
BRANCH  78  79
ATOM     79  C   UNL     1       3.692   9.106   3.884  1.00  0.00    -0.027 A 
ATOM     80  C   UNL     1       3.626  10.502   3.759  1.00  0.00     0.005 A 
ATOM     81  C   UNL     1       2.925   8.319   3.009  1.00  0.00     0.005 A 
ATOM     82  C   UNL     1       2.814  11.093   2.787  1.00  0.00     0.000 A 
ATOM     83  C   UNL     1       2.118   8.911   2.036  1.00  0.00     0.000 A 
ATOM     84  C   UNL     1       2.059  10.298   1.927  1.00  0.00     0.000 A 
ENDBRANCH  78  79
ENDBRANCH  77  78
ENDBRANCH  65  73
ENDBRANCH  62  65
ENDBRANCH  60  61
ENDBRANCH  59  60
ENDBRANCH   1  59
TORSDOF 17
