REMARK SMILES O=C(COCC(=O)N1CCC([NH+]2CCN(c3ccc(F)cc3)CC2)CC1)NCCCCCCNC(=O)c1ccc(-c2c3nc(c(-c4ccccc4)c4ccc([nH]4)c(-c4ccccc4)c4nc(c(-c5ccccc5)c5ccc2[nH]5)C=C4)C=C3)cc1
REMARK SMILES IDX 29 1 28 2 27 3 1 4 2 5 3 7 4 8 5 9 6 10 7 11 8 12 9 13 26 14
REMARK SMILES IDX 10 15 25 16 11 17 12 18 13 19 24 20 14 22 23 23 15 24 16 25
REMARK SMILES IDX 17 26 22 27 18 28 21 29 19 30 20 31 30 32 31 33 32 34 33 35
REMARK SMILES IDX 34 36 35 37 36 39 37 40 38 41 84 42 39 43 83 44 40 45 41 46
REMARK SMILES IDX 42 47 77 48 43 49 82 50 76 51 78 52 44 53 81 54 75 55 74 56
REMARK SMILES IDX 45 58 67 59 52 60 66 61 53 62 56 63 65 64 79 65 54 66 55 67
REMARK SMILES IDX 64 69 80 70 57 71 46 72 47 73 51 74 48 75 50 76 49 77 68 78
REMARK SMILES IDX 69 79 73 80 70 81 72 82 71 83 58 84 59 85 63 86 60 87 62 88
REMARK SMILES IDX 61 89
REMARK H PARENT 27 6 12 21 34 38 78 57 56 68
REMARK Flexibility Score: inf
ROOT
ATOM      1  C   UNL     1       2.637  -1.188  -3.293  1.00  0.00     0.021 C 
ENDROOT
BRANCH   1   2
ATOM      2  C   UNL     1       2.080  -1.631  -1.941  1.00  0.00     0.116 C 
BRANCH   2   3
ATOM      3  N   UNL     1       2.654  -0.865  -0.859  1.00  0.00    -0.354 N 
ATOM      4  O   UNL     1       0.854   0.537  -0.562  1.00  0.00    -0.272 OA
ATOM      5  C   UNL     1       1.986   0.179  -0.257  1.00  0.00     0.246 C 
ATOM      6  H   UNL     1       3.556  -1.098  -0.539  1.00  0.00     0.163 HD
BRANCH   5   7
ATOM      7  C   UNL     1       2.827   0.925   0.781  1.00  0.00     0.260 C 
BRANCH   7   8
ATOM      8  O   UNL     1       3.767   0.158   1.518  1.00  0.00    -0.362 OA
BRANCH   8   9
ATOM      9  C   UNL     1       3.176  -0.750   2.425  1.00  0.00     0.260 C 
BRANCH   9  10
ATOM     10  C   UNL     1       2.147  -0.329   3.492  1.00  0.00     0.248 C 
ATOM     11  O   UNL     1       1.088  -0.960   3.580  1.00  0.00    -0.272 OA
ATOM     12  N   UNL     1       2.484   0.657   4.405  1.00  0.00    -0.340 N 
ATOM     13  C   UNL     1       1.749   0.707   5.659  1.00  0.00     0.125 C 
ATOM     14  C   UNL     1       3.541   1.660   4.264  1.00  0.00     0.125 C 
ATOM     15  C   UNL     1       1.159   2.085   5.918  1.00  0.00     0.086 C 
ATOM     16  C   UNL     1       2.981   3.072   4.501  1.00  0.00     0.086 C 
ATOM     17  C   UNL     1       2.264   3.151   5.867  1.00  0.00     0.187 C 
BRANCH  17  18
ATOM     18  N   UNL     1       1.874   4.503   6.291  1.00  0.00    -0.329 N 
ATOM     19  C   UNL     1       1.186   5.418   5.359  1.00  0.00     0.284 C 
ATOM     20  C   UNL     1       1.282   4.563   7.645  1.00  0.00     0.284 C 
ATOM     21  H   UNL     1       2.810   4.906   6.297  1.00  0.00     0.348 HD
ATOM     22  C   UNL     1      -0.366   5.556   5.452  1.00  0.00     0.178 C 
ATOM     23  C   UNL     1      -0.258   4.521   7.687  1.00  0.00     0.178 C 
ATOM     24  N   UNL     1      -0.793   5.594   6.853  1.00  0.00    -0.360 N 
BRANCH  24  25
ATOM     25  C   UNL     1      -1.635   6.538   7.390  1.00  0.00     0.037 A 
ATOM     26  C   UNL     1      -1.371   7.094   8.655  1.00  0.00     0.029 A 
ATOM     27  C   UNL     1      -2.799   6.957   6.732  1.00  0.00     0.029 A 
ATOM     28  C   UNL     1      -2.240   8.004   9.258  1.00  0.00     0.041 A 
ATOM     29  C   UNL     1      -3.685   7.860   7.334  1.00  0.00     0.041 A 
ATOM     30  C   UNL     1      -3.398   8.371   8.593  1.00  0.00     0.123 A 
ATOM     31  F   UNL     1      -4.250   9.225   9.175  1.00  0.00    -0.207 F 
ENDBRANCH  24  25
ENDBRANCH  17  18
ENDBRANCH   9  10
ENDBRANCH   8   9
ENDBRANCH   7   8
ENDBRANCH   5   7
ENDBRANCH   2   3
ENDBRANCH   1   2
BRANCH   1  32
ATOM     32  C   UNL     1       4.148  -1.403  -3.453  1.00  0.00     0.002 C 
BRANCH  32  33
ATOM     33  C   UNL     1       4.629  -2.847  -3.276  1.00  0.00     0.002 C 
BRANCH  33  34
ATOM     34  C   UNL     1       3.951  -3.875  -4.182  1.00  0.00     0.021 C 
BRANCH  34  35
ATOM     35  C   UNL     1       4.090  -3.600  -5.675  1.00  0.00     0.116 C 
BRANCH  35  36
ATOM     36  N   UNL     1       5.467  -3.704  -6.134  1.00  0.00    -0.352 N 
ATOM     37  C   UNL     1       5.976  -4.434  -7.180  1.00  0.00     0.251 C 
ATOM     38  H   UNL     1       6.125  -3.177  -5.625  1.00  0.00     0.163 HD
ATOM     39  O   UNL     1       7.190  -4.542  -7.333  1.00  0.00    -0.269 OA
BRANCH  37  40
ATOM     40  C   UNL     1       5.053  -5.115  -8.112  1.00  0.00     0.039 A 
ATOM     41  C   UNL     1       5.284  -6.452  -8.444  1.00  0.00     0.014 A 
ATOM     42  C   UNL     1       3.949  -4.439  -8.639  1.00  0.00     0.014 A 
ATOM     43  C   UNL     1       4.367  -7.133  -9.250  1.00  0.00     0.010 A 
ATOM     44  C   UNL     1       3.001  -5.138  -9.379  1.00  0.00     0.010 A 
ATOM     45  C   UNL     1       3.199  -6.492  -9.693  1.00  0.00    -0.014 A 
BRANCH  45  46
ATOM     46  C   UNL     1       2.168  -7.210 -10.486  1.00  0.00     0.031 A 
ATOM     47  C   UNL     1       1.852  -6.759 -11.887  1.00  0.00     0.074 A 
ATOM     48  C   UNL     1       1.458  -8.208  -9.922  1.00  0.00     0.049 A 
ATOM     49  N   UNL     1       0.912  -7.178 -12.697  1.00  0.00    -0.248 NA
ATOM     50  C   UNL     1       2.684  -5.678 -12.443  1.00  0.00     0.031 C 
ATOM     51  C   UNL     1       1.645  -8.724  -8.563  1.00  0.00     0.029 A 
ATOM     52  N   UNL     1       0.421  -8.959 -10.419  1.00  0.00    -0.354 N 
ATOM     53  C   UNL     1       1.022  -6.394 -13.839  1.00  0.00     0.074 A 
ATOM     54  C   UNL     1       2.093  -5.452 -13.607  1.00  0.00     0.031 C 
ATOM     55  C   UNL     1       0.766  -9.716  -8.344  1.00  0.00     0.029 A 
ATOM     56  C   UNL     1      -0.079  -9.874  -9.523  1.00  0.00     0.049 A 
ATOM     57  H   UNL     1       0.069  -8.852 -11.332  1.00  0.00     0.167 HD
ATOM     58  C   UNL     1       0.303  -6.462 -14.984  1.00  0.00     0.031 A 
ATOM     59  C   UNL     1      -1.113 -10.730  -9.631  1.00  0.00     0.031 A 
ATOM     60  C   UNL     1      -0.744  -7.418 -15.226  1.00  0.00     0.049 A 
ATOM     61  C   UNL     1      -1.908 -10.766 -10.910  1.00  0.00     0.074 A 
ATOM     62  C   UNL     1      -1.478  -7.611 -16.384  1.00  0.00     0.029 A 
ATOM     63  N   UNL     1      -1.206  -8.336 -14.299  1.00  0.00    -0.354 N 
ATOM     64  N   UNL     1      -1.738 -10.072 -12.009  1.00  0.00    -0.248 NA
ATOM     65  C   UNL     1      -3.033 -11.711 -10.966  1.00  0.00     0.031 C 
ATOM     66  C   UNL     1      -2.427  -8.606 -16.137  1.00  0.00     0.029 A 
ATOM     67  C   UNL     1      -2.238  -9.078 -14.848  1.00  0.00     0.049 A 
ATOM     68  H   UNL     1      -0.854  -8.445 -13.386  1.00  0.00     0.167 HD
ATOM     69  C   UNL     1      -2.705 -10.527 -12.897  1.00  0.00     0.074 A 
ATOM     70  C   UNL     1      -3.450 -11.563 -12.215  1.00  0.00     0.031 C 
ATOM     71  C   UNL     1      -2.954 -10.123 -14.166  1.00  0.00     0.031 A 
BRANCH  58  72
ATOM     72  C   UNL     1       0.611  -5.471 -16.071  1.00  0.00    -0.014 A 
ATOM     73  C   UNL     1       1.793  -5.554 -16.822  1.00  0.00     0.009 A 
ATOM     74  C   UNL     1      -0.337  -4.489 -16.401  1.00  0.00     0.009 A 
ATOM     75  C   UNL     1       2.028  -4.660 -17.869  1.00  0.00     0.001 A 
ATOM     76  C   UNL     1      -0.112  -3.615 -17.466  1.00  0.00     0.001 A 
ATOM     77  C   UNL     1       1.073  -3.698 -18.195  1.00  0.00     0.000 A 
ENDBRANCH  58  72
BRANCH  59  78
ATOM     78  C   UNL     1      -1.480 -11.627  -8.501  1.00  0.00    -0.014 A 
ATOM     79  C   UNL     1      -1.340 -13.019  -8.620  1.00  0.00     0.009 A 
ATOM     80  C   UNL     1      -2.026 -11.102  -7.319  1.00  0.00     0.009 A 
ATOM     81  C   UNL     1      -1.782 -13.867  -7.602  1.00  0.00     0.001 A 
ATOM     82  C   UNL     1      -2.434 -11.951  -6.287  1.00  0.00     0.001 A 
ATOM     83  C   UNL     1      -2.327 -13.333  -6.436  1.00  0.00     0.000 A 
ENDBRANCH  59  78
BRANCH  71  84
ATOM     84  C   UNL     1      -4.030 -10.843 -14.928  1.00  0.00    -0.014 A 
ATOM     85  C   UNL     1      -5.389 -10.665 -14.625  1.00  0.00     0.009 A 
ATOM     86  C   UNL     1      -3.675 -11.667 -16.008  1.00  0.00     0.009 A 
ATOM     87  C   UNL     1      -6.369 -11.323 -15.372  1.00  0.00     0.001 A 
ATOM     88  C   UNL     1      -4.658 -12.297 -16.772  1.00  0.00     0.001 A 
ATOM     89  C   UNL     1      -6.003 -12.131 -16.448  1.00  0.00     0.000 A 
ENDBRANCH  71  84
ENDBRANCH  45  46
ENDBRANCH  37  40
ENDBRANCH  35  36
ENDBRANCH  34  35
ENDBRANCH  33  34
ENDBRANCH  32  33
ENDBRANCH   1  32
TORSDOF 18
