REMARK SMILES CC(C)c1cc(OCC(=O)NCCCCCCNC(=O)c2ccc(-c3c4nc(c(-c5ccccc5)c5ccc([nH]5)c(-c5ccccc5)c5nc(c(-c6ccccc6)c6ccc3[nH]6)C=C5)C=C4)cc2)nc(Nc2ccc(F)cc2F)n1
REMARK SMILES IDX 13 1 12 2 11 3 9 4 10 5 8 7 7 8 6 9 4 10 5 11 80 12 70 13
REMARK SMILES IDX 69 14 2 15 1 16 3 17 71 18 72 20 73 21 78 22 74 23 77 24
REMARK SMILES IDX 79 25 75 26 76 27 14 28 15 29 16 30 17 31 18 32 19 33 20 35
REMARK SMILES IDX 21 36 22 37 68 38 23 39 67 40 24 41 25 42 26 43 61 44 27 45
REMARK SMILES IDX 66 46 60 47 62 48 28 49 65 50 59 51 58 52 29 54 51 55 36 56
REMARK SMILES IDX 50 57 37 58 40 59 49 60 63 61 38 62 39 63 48 65 64 66 41 67
REMARK SMILES IDX 30 68 31 69 35 70 32 71 34 72 33 73 52 74 53 75 57 76 54 77
REMARK SMILES IDX 56 78 55 79 42 80 43 81 47 82 44 83 46 84 45 85
REMARK H PARENT 11 6 71 19 18 34 62 53 40 64
REMARK Flexibility Score: inf
ROOT
ATOM      1  C   UNL     1      -4.294  -3.338  -2.594  1.00  0.00     0.021 C 
ENDROOT
BRANCH   1   2
ATOM      2  C   UNL     1      -4.232  -4.639  -1.795  1.00  0.00     0.116 C 
BRANCH   2   3
ATOM      3  N   UNL     1      -2.866  -5.036  -1.518  1.00  0.00    -0.353 N 
ATOM      4  C   UNL     1      -2.224  -5.086  -0.318  1.00  0.00     0.258 C 
ATOM      5  O   UNL     1      -1.044  -5.441  -0.287  1.00  0.00    -0.271 OA
ATOM      6  H   UNL     1      -2.332  -5.305  -2.300  1.00  0.00     0.163 HD
BRANCH   4   7
ATOM      7  C   UNL     1      -2.981  -4.729   0.967  1.00  0.00     0.331 C 
BRANCH   7   8
ATOM      8  O   UNL     1      -3.583  -3.449   1.034  1.00  0.00    -0.467 OA
BRANCH   8   9
ATOM      9  C   UNL     1      -2.774  -2.349   1.002  1.00  0.00     0.218 A 
ATOM     10  C   UNL     1      -0.761  -1.161   0.907  1.00  0.00     0.052 A 
ATOM     11  C   UNL     1      -1.399  -2.377   1.003  1.00  0.00     0.092 A 
ATOM     12  N   UNL     1      -1.448  -0.009   0.870  1.00  0.00    -0.217 NA
ATOM     13  C   UNL     1      -2.787  -0.060   0.893  1.00  0.00     0.230 A 
ATOM     14  N   UNL     1      -3.478  -1.203   0.967  1.00  0.00    -0.177 NA
BRANCH  10  15
ATOM     15  C   UNL     1       0.751  -1.083   0.904  1.00  0.00     0.032 C 
ATOM     16  C   UNL     1       1.262   0.046   0.003  1.00  0.00     0.014 C 
ATOM     17  C   UNL     1       1.266  -0.909   2.332  1.00  0.00     0.014 C 
ENDBRANCH  10  15
BRANCH  13  18
ATOM     18  N   UNL     1      -3.511   1.128   0.950  1.00  0.00    -0.322 N 
ATOM     19  H   UNL     1      -4.480   1.041   1.099  1.00  0.00     0.170 HD
BRANCH  18  20
ATOM     20  C   UNL     1      -3.018   2.431   0.819  1.00  0.00     0.077 A 
ATOM     21  C   UNL     1      -3.325   3.385   1.800  1.00  0.00     0.032 A 
ATOM     22  C   UNL     1      -2.115   2.796  -0.197  1.00  0.00     0.149 A 
ATOM     23  C   UNL     1      -2.731   4.651   1.769  1.00  0.00     0.041 A 
ATOM     24  C   UNL     1      -1.532   4.058  -0.243  1.00  0.00     0.080 A 
ATOM     25  F   UNL     1      -1.829   1.936  -1.188  1.00  0.00    -0.205 F 
ATOM     26  C   UNL     1      -1.839   4.972   0.751  1.00  0.00     0.126 A 
ATOM     27  F   UNL     1      -1.267   6.182   0.734  1.00  0.00    -0.207 F 
ENDBRANCH  18  20
ENDBRANCH  13  18
ENDBRANCH   8   9
ENDBRANCH   7   8
ENDBRANCH   4   7
ENDBRANCH   2   3
ENDBRANCH   1   2
BRANCH   1  28
ATOM     28  C   UNL     1      -3.637  -3.404  -3.979  1.00  0.00     0.002 C 
BRANCH  28  29
ATOM     29  C   UNL     1      -4.133  -4.529  -4.894  1.00  0.00     0.002 C 
BRANCH  29  30
ATOM     30  C   UNL     1      -5.645  -4.567  -5.123  1.00  0.00     0.021 C 
BRANCH  30  31
ATOM     31  C   UNL     1      -6.232  -3.300  -5.736  1.00  0.00     0.116 C 
BRANCH  31  32
ATOM     32  N   UNL     1      -5.740  -3.058  -7.083  1.00  0.00    -0.352 N 
ATOM     33  C   UNL     1      -6.444  -2.836  -8.240  1.00  0.00     0.251 C 
ATOM     34  H   UNL     1      -4.760  -3.051  -7.179  1.00  0.00     0.163 HD
ATOM     35  O   UNL     1      -5.863  -2.826  -9.324  1.00  0.00    -0.269 OA
BRANCH  33  36
ATOM     36  C   UNL     1      -7.907  -2.633  -8.190  1.00  0.00     0.039 A 
ATOM     37  C   UNL     1      -8.712  -3.288  -9.126  1.00  0.00     0.014 A 
ATOM     38  C   UNL     1      -8.486  -1.798  -7.231  1.00  0.00     0.014 A 
ATOM     39  C   UNL     1     -10.101  -3.156  -9.059  1.00  0.00     0.010 A 
ATOM     40  C   UNL     1      -9.872  -1.728  -7.118  1.00  0.00     0.010 A 
ATOM     41  C   UNL     1     -10.694  -2.404  -8.032  1.00  0.00    -0.014 A 
BRANCH  41  42
ATOM     42  C   UNL     1     -12.171  -2.319  -7.895  1.00  0.00     0.031 A 
ATOM     43  C   UNL     1     -12.874  -0.998  -8.046  1.00  0.00     0.074 A 
ATOM     44  C   UNL     1     -12.875  -3.423  -7.574  1.00  0.00     0.049 A 
ATOM     45  N   UNL     1     -14.146  -0.719  -7.912  1.00  0.00    -0.248 NA
ATOM     46  C   UNL     1     -12.035   0.168  -8.367  1.00  0.00     0.031 C 
ATOM     47  C   UNL     1     -12.312  -4.758  -7.364  1.00  0.00     0.029 A 
ATOM     48  N   UNL     1     -14.221  -3.594  -7.362  1.00  0.00    -0.354 N 
ATOM     49  C   UNL     1     -14.256   0.651  -8.113  1.00  0.00     0.074 A 
ATOM     50  C   UNL     1     -12.918   1.155  -8.330  1.00  0.00     0.031 C 
ATOM     51  C   UNL     1     -13.306  -5.616  -7.086  1.00  0.00     0.029 A 
ATOM     52  C   UNL     1     -14.569  -4.887  -7.052  1.00  0.00     0.049 A 
ATOM     53  H   UNL     1     -14.874  -2.861  -7.428  1.00  0.00     0.167 HD
ATOM     54  C   UNL     1     -15.372   1.419  -8.133  1.00  0.00     0.031 A 
ATOM     55  C   UNL     1     -15.770  -5.424  -6.764  1.00  0.00     0.031 A 
ATOM     56  C   UNL     1     -16.704   0.917  -7.926  1.00  0.00     0.049 A 
ATOM     57  C   UNL     1     -16.989  -4.544  -6.768  1.00  0.00     0.074 A 
ATOM     58  C   UNL     1     -17.903   1.606  -7.987  1.00  0.00     0.029 A 
ATOM     59  N   UNL     1     -17.013  -0.397  -7.611  1.00  0.00    -0.354 N 
ATOM     60  N   UNL     1     -17.084  -3.264  -7.034  1.00  0.00    -0.248 NA
ATOM     61  C   UNL     1     -18.269  -5.188  -6.441  1.00  0.00     0.031 C 
ATOM     62  C   UNL     1     -18.933   0.722  -7.650  1.00  0.00     0.029 A 
ATOM     63  C   UNL     1     -18.381  -0.532  -7.444  1.00  0.00     0.049 A 
ATOM     64  H   UNL     1     -16.357  -1.126  -7.519  1.00  0.00     0.167 HD
ATOM     65  C   UNL     1     -18.436  -2.957  -6.939  1.00  0.00     0.074 A 
ATOM     66  C   UNL     1     -19.123  -4.188  -6.606  1.00  0.00     0.031 C 
ATOM     67  C   UNL     1     -19.052  -1.763  -7.113  1.00  0.00     0.031 A 
BRANCH  54  68
ATOM     68  C   UNL     1     -15.197   2.893  -8.377  1.00  0.00    -0.014 A 
ATOM     69  C   UNL     1     -14.795   3.385  -9.629  1.00  0.00     0.009 A 
ATOM     70  C   UNL     1     -15.477   3.807  -7.349  1.00  0.00     0.009 A 
ATOM     71  C   UNL     1     -14.643   4.758  -9.836  1.00  0.00     0.001 A 
ATOM     72  C   UNL     1     -15.354   5.181  -7.567  1.00  0.00     0.001 A 
ATOM     73  C   UNL     1     -14.927   5.654  -8.806  1.00  0.00     0.000 A 
ENDBRANCH  54  68
BRANCH  55  74
ATOM     74  C   UNL     1     -15.886  -6.875  -6.457  1.00  0.00    -0.014 A 
ATOM     75  C   UNL     1     -16.537  -7.741  -7.349  1.00  0.00     0.009 A 
ATOM     76  C   UNL     1     -15.364  -7.399  -5.264  1.00  0.00     0.009 A 
ATOM     77  C   UNL     1     -16.690  -9.094  -7.039  1.00  0.00     0.001 A 
ATOM     78  C   UNL     1     -15.491  -8.758  -4.971  1.00  0.00     0.001 A 
ATOM     79  C   UNL     1     -16.164  -9.602  -5.853  1.00  0.00     0.000 A 
ENDBRANCH  55  74
BRANCH  67  80
ATOM     80  C   UNL     1     -20.551  -1.736  -6.989  1.00  0.00    -0.014 A 
ATOM     81  C   UNL     1     -21.186  -1.885  -5.746  1.00  0.00     0.009 A 
ATOM     82  C   UNL     1     -21.337  -1.520  -8.132  1.00  0.00     0.009 A 
ATOM     83  C   UNL     1     -22.579  -1.852  -5.657  1.00  0.00     0.001 A 
ATOM     84  C   UNL     1     -22.727  -1.455  -8.035  1.00  0.00     0.001 A 
ATOM     85  C   UNL     1     -23.347  -1.631  -6.800  1.00  0.00     0.000 A 
ENDBRANCH  67  80
ENDBRANCH  41  42
ENDBRANCH  33  36
ENDBRANCH  31  32
ENDBRANCH  30  31
ENDBRANCH  29  30
ENDBRANCH  28  29
ENDBRANCH   1  28
TORSDOF 18
