REMARK SMILES Cc1ccc(C(C)C)c(OCC(=O)Nc2nc(CC(=O)NCCCCCCNC(=O)c3ccc(-c4c5nc(c(-c6ccccc6)c6ccc([nH]6)c(-c6ccccc6)c6nc(c(-c7ccccc7)c7ccc4[nH]7)C=C6)C=C5)cc3)cs2)c1
REMARK SMILES IDX 22 1 21 2 19 3 20 4 18 6 17 7 15 8 16 9 80 10 79 11 14 12
REMARK SMILES IDX 12 13 13 14 11 16 10 17 9 18 1 19 2 20 3 21 81 22 4 23 5 24
REMARK SMILES IDX 6 25 7 26 8 27 23 28 24 29 25 30 26 31 27 32 28 33 29 34
REMARK SMILES IDX 30 36 31 37 32 38 78 39 33 40 77 41 34 42 35 43 36 44 71 45
REMARK SMILES IDX 37 46 76 47 70 48 72 49 38 50 75 51 69 52 68 53 39 55 61 56
REMARK SMILES IDX 46 57 60 58 47 59 50 60 59 61 73 62 48 63 49 64 58 66 74 67
REMARK SMILES IDX 51 68 40 69 41 70 45 71 42 72 44 73 43 74 62 75 63 76 67 77
REMARK SMILES IDX 64 78 66 79 65 80 52 81 53 82 57 83 54 84 56 85 55 86
REMARK H PARENT 21 5 14 15 28 35 72 54 50 65
REMARK Flexibility Score: inf
ROOT
ATOM      1  C   UNL     1      -4.240   0.146   3.676  1.00  0.00     0.116 C 
ENDROOT
BRANCH   1   2
ATOM      2  N   UNL     1      -5.630   0.545   3.781  1.00  0.00    -0.356 N 
ATOM      3  C   UNL     1      -6.325   1.448   3.027  1.00  0.00     0.226 C 
ATOM      4  O   UNL     1      -7.540   1.548   3.215  1.00  0.00    -0.275 OA
ATOM      5  H   UNL     1      -6.145   0.103   4.495  1.00  0.00     0.163 HD
BRANCH   3   6
ATOM      6  C   UNL     1      -5.625   2.285   1.969  1.00  0.00     0.157 C 
BRANCH   6   7
ATOM      7  C   UNL     1      -4.574   3.178   2.542  1.00  0.00     0.063 A 
ATOM      8  C   UNL     1      -2.503   3.925   2.618  1.00  0.00     0.189 A 
ATOM      9  N   UNL     1      -3.355   3.267   1.881  1.00  0.00    -0.224 NA
ATOM     10  S   UNL     1      -3.104   4.577   4.074  1.00  0.00    -0.105 S 
ATOM     11  C   UNL     1      -4.644   3.915   3.713  1.00  0.00     0.093 A 
BRANCH   8  12
ATOM     12  N   UNL     1      -1.176   4.139   2.417  1.00  0.00    -0.299 N 
ATOM     13  C   UNL     1      -0.462   3.841   1.298  1.00  0.00     0.264 C 
ATOM     14  O   UNL     1       0.765   4.003   1.346  1.00  0.00    -0.271 OA
ATOM     15  H   UNL     1      -0.679   4.553   3.159  1.00  0.00     0.172 HD
BRANCH  13  16
ATOM     16  C   UNL     1      -1.143   3.426  -0.018  1.00  0.00     0.329 C 
BRANCH  16  17
ATOM     17  O   UNL     1      -1.714   2.140  -0.135  1.00  0.00    -0.483 OA
BRANCH  17  18
ATOM     18  C   UNL     1      -0.917   1.033  -0.223  1.00  0.00     0.123 A 
ATOM     19  C   UNL     1       2.718  -0.107  -0.055  1.00  0.00     0.044 C 
ATOM     20  C   UNL     1       1.223  -0.133  -0.175  1.00  0.00    -0.047 A 
ATOM     21  C   UNL     1       0.556  -1.353  -0.294  1.00  0.00     0.004 A 
ATOM     22  C   UNL     1       0.480   1.055  -0.156  1.00  0.00     0.050 A 
ATOM     23  C   UNL     1      -0.832  -1.384  -0.406  1.00  0.00     0.008 A 
ATOM     24  C   UNL     1      -1.589  -0.200  -0.369  1.00  0.00    -0.003 A 
BRANCH  24  25
ATOM     25  C   UNL     1      -3.109  -0.269  -0.480  1.00  0.00     0.017 C 
ATOM     26  C   UNL     1      -3.556  -0.631  -1.897  1.00  0.00     0.012 C 
ATOM     27  C   UNL     1      -3.699  -1.257   0.528  1.00  0.00     0.012 C 
ENDBRANCH  24  25
ENDBRANCH  17  18
ENDBRANCH  16  17
ENDBRANCH  13  16
ENDBRANCH   8  12
ENDBRANCH   6   7
ENDBRANCH   3   6
ENDBRANCH   1   2
BRANCH   1  28
ATOM     28  C   UNL     1      -3.489   0.219   5.005  1.00  0.00     0.021 C 
BRANCH  28  29
ATOM     29  C   UNL     1      -3.844  -0.881   6.016  1.00  0.00     0.002 C 
BRANCH  29  30
ATOM     30  C   UNL     1      -3.767  -2.337   5.521  1.00  0.00     0.002 C 
BRANCH  30  31
ATOM     31  C   UNL     1      -2.499  -2.741   4.764  1.00  0.00     0.021 C 
BRANCH  31  32
ATOM     32  C   UNL     1      -1.230  -2.727   5.603  1.00  0.00     0.116 C 
BRANCH  32  33
ATOM     33  N   UNL     1      -0.928  -3.984   6.278  1.00  0.00    -0.352 N 
ATOM     34  C   UNL     1       0.054  -4.264   7.218  1.00  0.00     0.251 C 
ATOM     35  H   UNL     1      -1.504  -4.744   6.032  1.00  0.00     0.163 HD
ATOM     36  O   UNL     1       0.192  -5.393   7.649  1.00  0.00    -0.269 OA
BRANCH  34  37
ATOM     37  C   UNL     1       0.836  -3.143   7.804  1.00  0.00     0.039 A 
ATOM     38  C   UNL     1       0.960  -3.101   9.198  1.00  0.00     0.014 A 
ATOM     39  C   UNL     1       1.216  -2.048   7.036  1.00  0.00     0.014 A 
ATOM     40  C   UNL     1       1.180  -1.878   9.823  1.00  0.00     0.010 A 
ATOM     41  C   UNL     1       1.325  -0.818   7.650  1.00  0.00     0.010 A 
ATOM     42  C   UNL     1       1.222  -0.726   9.039  1.00  0.00    -0.014 A 
BRANCH  42  43
ATOM     43  C   UNL     1       1.067   0.615   9.584  1.00  0.00     0.031 A 
ATOM     44  C   UNL     1       2.258   1.472   9.764  1.00  0.00     0.074 A 
ATOM     45  C   UNL     1      -0.168   1.089   9.874  1.00  0.00     0.049 A 
ATOM     46  N   UNL     1       2.352   2.421  10.633  1.00  0.00    -0.248 NA
ATOM     47  C   UNL     1       3.482   1.276   8.993  1.00  0.00     0.031 C 
ATOM     48  C   UNL     1      -0.515   2.463  10.233  1.00  0.00     0.029 A 
ATOM     49  N   UNL     1      -1.353   0.384  10.111  1.00  0.00    -0.354 N 
ATOM     50  C   UNL     1       3.480   3.148  10.325  1.00  0.00     0.074 A 
ATOM     51  C   UNL     1       4.204   2.331   9.380  1.00  0.00     0.031 C 
ATOM     52  C   UNL     1      -1.661   2.446  10.934  1.00  0.00     0.029 A 
ATOM     53  C   UNL     1      -1.989   1.050  11.171  1.00  0.00     0.049 A 
ATOM     54  H   UNL     1      -1.675  -0.414   9.633  1.00  0.00     0.167 HD
ATOM     55  C   UNL     1       3.597   4.430  10.778  1.00  0.00     0.031 A 
ATOM     56  C   UNL     1      -2.201   0.499  12.404  1.00  0.00     0.031 A 
ATOM     57  C   UNL     1       2.497   4.784  11.677  1.00  0.00     0.049 A 
ATOM     58  C   UNL     1      -1.576   1.299  13.533  1.00  0.00     0.074 A 
ATOM     59  C   UNL     1       1.337   5.522  11.499  1.00  0.00     0.029 A 
ATOM     60  N   UNL     1       2.351   4.105  12.881  1.00  0.00    -0.354 N 
ATOM     61  N   UNL     1      -0.639   2.190  13.355  1.00  0.00    -0.248 NA
ATOM     62  C   UNL     1      -1.914   1.132  14.946  1.00  0.00     0.031 C 
ATOM     63  C   UNL     1       0.454   5.211  12.567  1.00  0.00     0.029 A 
ATOM     64  C   UNL     1       1.091   4.316  13.407  1.00  0.00     0.049 A 
ATOM     65  H   UNL     1       3.049   3.550  13.300  1.00  0.00     0.167 HD
ATOM     66  C   UNL     1      -0.265   2.720  14.562  1.00  0.00     0.074 A 
ATOM     67  C   UNL     1      -1.094   2.025  15.530  1.00  0.00     0.031 C 
ATOM     68  C   UNL     1       0.700   3.681  14.659  1.00  0.00     0.031 A 
BRANCH  55  69
ATOM     69  C   UNL     1       4.532   5.456  10.169  1.00  0.00    -0.014 A 
ATOM     70  C   UNL     1       4.233   6.827  10.290  1.00  0.00     0.009 A 
ATOM     71  C   UNL     1       5.673   5.151   9.408  1.00  0.00     0.009 A 
ATOM     72  C   UNL     1       4.964   7.815   9.613  1.00  0.00     0.001 A 
ATOM     73  C   UNL     1       6.390   6.128   8.701  1.00  0.00     0.001 A 
ATOM     74  C   UNL     1       6.026   7.462   8.793  1.00  0.00     0.000 A 
ENDBRANCH  55  69
BRANCH  56  75
ATOM     75  C   UNL     1      -2.351  -0.980  12.404  1.00  0.00    -0.014 A 
ATOM     76  C   UNL     1      -3.508  -1.533  11.823  1.00  0.00     0.009 A 
ATOM     77  C   UNL     1      -1.243  -1.813  12.614  1.00  0.00     0.009 A 
ATOM     78  C   UNL     1      -3.511  -2.848  11.347  1.00  0.00     0.001 A 
ATOM     79  C   UNL     1      -1.254  -3.133  12.144  1.00  0.00     0.001 A 
ATOM     80  C   UNL     1      -2.371  -3.635  11.475  1.00  0.00     0.000 A 
ENDBRANCH  56  75
BRANCH  68  81
ATOM     81  C   UNL     1       1.331   4.184  15.935  1.00  0.00    -0.014 A 
ATOM     82  C   UNL     1       1.395   3.451  17.127  1.00  0.00     0.009 A 
ATOM     83  C   UNL     1       2.030   5.413  15.909  1.00  0.00     0.009 A 
ATOM     84  C   UNL     1       2.084   3.942  18.247  1.00  0.00     0.001 A 
ATOM     85  C   UNL     1       2.754   5.884  17.006  1.00  0.00     0.001 A 
ATOM     86  C   UNL     1       2.771   5.151  18.183  1.00  0.00     0.000 A 
ENDBRANCH  68  81
ENDBRANCH  42  43
ENDBRANCH  34  37
ENDBRANCH  32  33
ENDBRANCH  31  32
ENDBRANCH  30  31
ENDBRANCH  29  30
ENDBRANCH  28  29
ENDBRANCH   1  28
TORSDOF 19
