REMARK SMILES Cc1ccc(-c2cc(Cl)cc3c2O[C@H](C(F)(F)F)C(C(=O)NCCCCCCNC(=O)c2ccc(-c4c5nc(c(-c6ccccc6)c6ccc([nH]6)c(-c6ccccc6)c6nc(c(-c7ccccc7)c7ccc4[nH]7)C=C6)C=C5)cc2)=C3)cc1F
REMARK SMILES IDX 26 1 25 2 24 3 23 4 22 5 20 6 21 7 19 9 6 10 7 11 12 12 8 13
REMARK SMILES IDX 11 14 13 15 9 16 10 17 80 18 14 19 5 20 1 21 2 22 3 23 82 24
REMARK SMILES IDX 4 25 81 26 83 27 15 28 16 29 17 30 18 31 27 32 28 33 29 34
REMARK SMILES IDX 30 35 31 37 32 38 33 39 79 40 34 41 78 42 35 43 36 44 37 45
REMARK SMILES IDX 72 46 38 47 77 48 71 49 73 50 39 51 76 52 70 53 69 54 40 56
REMARK SMILES IDX 62 57 47 58 61 59 48 60 51 61 60 62 74 63 49 64 50 65 59 67
REMARK SMILES IDX 75 68 52 69 41 70 42 71 46 72 43 73 45 74 44 75 63 76 64 77
REMARK SMILES IDX 68 78 65 79 67 80 66 81 53 82 54 83 58 84 55 85 57 86 56 87
REMARK H PARENT 22 8 29 36 73 55 51 66
REMARK Flexibility Score: inf
ROOT
ATOM      1  C   UNL     1      -0.405  -5.735   8.480  1.00  0.00     0.002 C 
ENDROOT
BRANCH   1   2
ATOM      2  C   UNL     1      -1.688  -4.905   8.332  1.00  0.00     0.002 C 
BRANCH   2   3
ATOM      3  C   UNL     1      -1.776  -4.044   7.067  1.00  0.00     0.021 C 
BRANCH   3   4
ATOM      4  C   UNL     1      -1.631  -4.832   5.767  1.00  0.00     0.116 C 
BRANCH   4   5
ATOM      5  N   UNL     1      -2.899  -5.392   5.327  1.00  0.00    -0.352 N 
ATOM      6  C   UNL     1      -3.722  -5.279   4.258  1.00  0.00     0.251 C 
ATOM      7  O   UNL     1      -4.725  -6.000   4.291  1.00  0.00    -0.270 OA
ATOM      8  H   UNL     1      -3.257  -6.027   5.988  1.00  0.00     0.163 HD
BRANCH   6   9
ATOM      9  C   UNL     1      -3.506  -4.376   3.088  1.00  0.00     0.067 C 
ATOM     10  C   UNL     1      -3.095  -1.732  -0.172  1.00  0.00     0.026 A 
ATOM     11  C   UNL     1      -4.041  -1.780  -1.205  1.00  0.00     0.033 A 
ATOM     12  C   UNL     1      -3.282  -2.583   0.936  1.00  0.00     0.135 A 
ATOM     13  C   UNL     1      -5.127  -2.654  -1.126  1.00  0.00     0.042 A 
ATOM     14  C   UNL     1      -4.364  -3.466   1.015  1.00  0.00     0.019 A 
ATOM     15  O   UNL     1      -2.396  -2.456   1.972  1.00  0.00    -0.475 OA
ATOM     16  Cl  UNL     1      -6.283  -2.689  -2.402  1.00  0.00    -0.084 Cl
ATOM     17  C   UNL     1      -5.293  -3.498  -0.026  1.00  0.00     0.032 A 
ATOM     18  C   UNL     1      -4.516  -4.308   2.198  1.00  0.00     0.025 C 
ATOM     19  C   UNL     1      -2.250  -3.591   2.855  1.00  0.00     0.314 C 
BRANCH  10  20
ATOM     20  C   UNL     1      -1.935  -0.828  -0.238  1.00  0.00    -0.012 A 
ATOM     21  C   UNL     1       1.512   1.780  -0.041  1.00  0.00     0.047 C 
ATOM     22  C   UNL     1       0.308   0.894  -0.143  1.00  0.00    -0.015 A 
ATOM     23  C   UNL     1      -0.988   1.419  -0.150  1.00  0.00     0.007 A 
ATOM     24  C   UNL     1       0.468  -0.490  -0.208  1.00  0.00     0.126 A 
ATOM     25  C   UNL     1      -2.098   0.566  -0.200  1.00  0.00     0.009 A 
ATOM     26  C   UNL     1      -0.630  -1.343  -0.262  1.00  0.00     0.048 A 
ATOM     27  F   UNL     1       1.699  -1.021  -0.195  1.00  0.00    -0.207 F 
ENDBRANCH  10  20
BRANCH  19  28
ATOM     28  C   UNL     1      -1.075  -4.461   2.375  1.00  0.00     0.429 C 
ATOM     29  F   UNL     1       0.095  -3.785   2.492  1.00  0.00    -0.167 F 
ATOM     30  F   UNL     1      -0.934  -5.594   3.102  1.00  0.00    -0.167 F 
ATOM     31  F   UNL     1      -1.199  -4.833   1.081  1.00  0.00    -0.167 F 
ENDBRANCH  19  28
ENDBRANCH   6   9
ENDBRANCH   4   5
ENDBRANCH   3   4
ENDBRANCH   2   3
ENDBRANCH   1   2
BRANCH   1  32
ATOM     32  C   UNL     1       0.907  -4.975   8.268  1.00  0.00     0.021 C 
BRANCH  32  33
ATOM     33  C   UNL     1       1.118  -3.784   9.197  1.00  0.00     0.116 C 
BRANCH  33  34
ATOM     34  N   UNL     1       1.216  -4.175  10.594  1.00  0.00    -0.352 N 
ATOM     35  C   UNL     1       2.178  -3.855  11.520  1.00  0.00     0.251 C 
ATOM     36  H   UNL     1       0.488  -4.750  10.923  1.00  0.00     0.163 HD
ATOM     37  O   UNL     1       2.183  -4.394  12.623  1.00  0.00    -0.269 OA
BRANCH  35  38
ATOM     38  C   UNL     1       3.235  -2.883  11.169  1.00  0.00     0.039 A 
ATOM     39  C   UNL     1       2.912  -1.671  10.554  1.00  0.00     0.014 A 
ATOM     40  C   UNL     1       4.568  -3.205  11.435  1.00  0.00     0.014 A 
ATOM     41  C   UNL     1       3.928  -0.857  10.062  1.00  0.00     0.010 A 
ATOM     42  C   UNL     1       5.586  -2.349  11.006  1.00  0.00     0.010 A 
ATOM     43  C   UNL     1       5.276  -1.193  10.272  1.00  0.00    -0.014 A 
BRANCH  43  44
ATOM     44  C   UNL     1       6.348  -0.342   9.695  1.00  0.00     0.031 A 
ATOM     45  C   UNL     1       7.240  -0.878   8.606  1.00  0.00     0.074 A 
ATOM     46  C   UNL     1       6.481   0.933  10.108  1.00  0.00     0.049 A 
ATOM     47  N   UNL     1       8.233  -0.286   7.991  1.00  0.00    -0.248 NA
ATOM     48  C   UNL     1       6.986  -2.252   8.141  1.00  0.00     0.031 C 
ATOM     49  C   UNL     1       5.645   1.584  11.120  1.00  0.00     0.029 A 
ATOM     50  N   UNL     1       7.347   1.920   9.709  1.00  0.00    -0.354 N 
ATOM     51  C   UNL     1       8.728  -1.215   7.084  1.00  0.00     0.074 A 
ATOM     52  C   UNL     1       7.945  -2.420   7.240  1.00  0.00     0.031 C 
ATOM     53  C   UNL     1       6.000   2.874  11.218  1.00  0.00     0.029 A 
ATOM     54  C   UNL     1       7.133   3.126  10.333  1.00  0.00     0.049 A 
ATOM     55  H   UNL     1       8.055   1.777   9.039  1.00  0.00     0.167 HD
ATOM     56  C   UNL     1       9.737  -1.071   6.194  1.00  0.00     0.031 A 
ATOM     57  C   UNL     1       7.781   4.300  10.216  1.00  0.00     0.031 A 
ATOM     58  C   UNL     1      10.504   0.134   6.026  1.00  0.00     0.049 A 
ATOM     59  C   UNL     1       8.949   4.404   9.276  1.00  0.00     0.074 A 
ATOM     60  C   UNL     1      11.550   0.368   5.149  1.00  0.00     0.029 A 
ATOM     61  N   UNL     1      10.304   1.306   6.735  1.00  0.00    -0.354 N 
ATOM     62  N   UNL     1       9.416   3.508   8.442  1.00  0.00    -0.248 NA
ATOM     63  C   UNL     1       9.684   5.677   9.267  1.00  0.00     0.031 C 
ATOM     64  C   UNL     1      12.014   1.667   5.361  1.00  0.00     0.029 A 
ATOM     65  C   UNL     1      11.218   2.261   6.327  1.00  0.00     0.049 A 
ATOM     66  H   UNL     1       9.615   1.440   7.425  1.00  0.00     0.167 HD
ATOM     67  C   UNL     1      10.481   4.117   7.791  1.00  0.00     0.074 A 
ATOM     68  C   UNL     1      10.585   5.461   8.317  1.00  0.00     0.031 C 
ATOM     69  C   UNL     1      11.300   3.602   6.843  1.00  0.00     0.031 A 
BRANCH  56  70
ATOM     70  C   UNL     1      10.092  -2.239   5.319  1.00  0.00    -0.014 A 
ATOM     71  C   UNL     1      11.306  -2.916   5.520  1.00  0.00     0.009 A 
ATOM     72  C   UNL     1       9.294  -2.584   4.218  1.00  0.00     0.009 A 
ATOM     73  C   UNL     1      11.726  -3.899   4.623  1.00  0.00     0.001 A 
ATOM     74  C   UNL     1       9.707  -3.585   3.335  1.00  0.00     0.001 A 
ATOM     75  C   UNL     1      10.926  -4.233   3.531  1.00  0.00     0.000 A 
ENDBRANCH  56  70
BRANCH  57  76
ATOM     76  C   UNL     1       7.337   5.475  11.012  1.00  0.00    -0.014 A 
ATOM     77  C   UNL     1       7.467   5.487  12.411  1.00  0.00     0.009 A 
ATOM     78  C   UNL     1       6.764   6.587  10.377  1.00  0.00     0.009 A 
ATOM     79  C   UNL     1       7.015   6.577  13.157  1.00  0.00     0.001 A 
ATOM     80  C   UNL     1       6.342   7.690  11.123  1.00  0.00     0.001 A 
ATOM     81  C   UNL     1       6.460   7.681  12.512  1.00  0.00     0.000 A 
ENDBRANCH  57  76
BRANCH  69  82
ATOM     82  C   UNL     1      12.365   4.491   6.271  1.00  0.00    -0.014 A 
ATOM     83  C   UNL     1      12.258   4.934   4.943  1.00  0.00     0.009 A 
ATOM     84  C   UNL     1      13.526   4.790   6.999  1.00  0.00     0.009 A 
ATOM     85  C   UNL     1      13.300   5.644   4.347  1.00  0.00     0.001 A 
ATOM     86  C   UNL     1      14.556   5.524   6.409  1.00  0.00     0.001 A 
ATOM     87  C   UNL     1      14.447   5.940   5.081  1.00  0.00     0.000 A 
ENDBRANCH  69  82
ENDBRANCH  43  44
ENDBRANCH  35  38
ENDBRANCH  33  34
ENDBRANCH  32  33
ENDBRANCH   1  32
TORSDOF 15
