REMARK SMILES CC(=O)c1nnn(-c2ccc(C(=O)NCCCCCCNC(=O)c3ccc(-c4c5nc(c(-c6ccccc6)c6ccc([nH]6)c(-c6ccccc6)c6nc(c(-c7ccccc7)c7ccc4[nH]7)C=C6)C=C5)cc3)cc2)c1C
REMARK SMILES IDX 17 1 16 2 15 3 14 4 12 5 13 6 11 8 8 9 9 10 73 11 10 12
REMARK SMILES IDX 72 13 7 14 4 15 5 16 74 17 6 18 75 19 2 20 1 21 3 22 18 23
REMARK SMILES IDX 19 24 20 25 21 26 22 27 23 29 24 30 25 31 71 32 26 33 70 34
REMARK SMILES IDX 27 35 28 36 29 37 64 38 30 39 69 40 63 41 65 42 31 43 68 44
REMARK SMILES IDX 62 45 61 46 32 48 54 49 39 50 53 51 40 52 43 53 52 54 66 55
REMARK SMILES IDX 41 56 42 57 51 59 67 60 44 61 33 62 34 63 38 64 35 65 37 66
REMARK SMILES IDX 36 67 55 68 56 69 60 70 57 71 59 72 58 73 45 74 46 75 50 76
REMARK SMILES IDX 47 77 49 78 48 79
REMARK H PARENT 14 7 21 28 65 47 43 58
REMARK Flexibility Score: inf
ROOT
ATOM      1  C   UNL     1       9.910   7.278  -2.759  1.00  0.00     0.002 C 
ENDROOT
BRANCH   1   2
ATOM      2  C   UNL     1       8.510   6.654  -2.690  1.00  0.00     0.021 C 
BRANCH   2   3
ATOM      3  C   UNL     1       8.213   5.987  -1.344  1.00  0.00     0.116 C 
BRANCH   3   4
ATOM      4  N   UNL     1       7.846   6.992  -0.363  1.00  0.00    -0.352 N 
ATOM      5  C   UNL     1       6.647   7.382   0.176  1.00  0.00     0.251 C 
ATOM      6  O   UNL     1       6.662   8.299   0.997  1.00  0.00    -0.269 OA
ATOM      7  H   UNL     1       8.616   7.495  -0.012  1.00  0.00     0.163 HD
BRANCH   5   8
ATOM      8  C   UNL     1       5.359   6.692  -0.116  1.00  0.00     0.039 A 
ATOM      9  C   UNL     1       3.052   5.141  -0.345  1.00  0.00     0.067 A 
ATOM     10  C   UNL     1       3.196   5.976   0.761  1.00  0.00     0.029 A 
ATOM     11  C   UNL     1       3.972   5.178  -1.395  1.00  0.00     0.029 A 
ATOM     12  C   UNL     1       4.370   6.723   0.885  1.00  0.00     0.016 A 
ATOM     13  C   UNL     1       5.091   6.003  -1.301  1.00  0.00     0.016 A 
BRANCH   9  14
ATOM     14  N   UNL     1       2.006   4.204  -0.386  1.00  0.00    -0.217 N 
ATOM     15  C   UNL     1       0.797   2.424  -0.694  1.00  0.00     0.151 A 
ATOM     16  N   UNL     1      -0.027   3.516  -0.576  1.00  0.00    -0.126 NA
ATOM     17  C   UNL     1       2.111   2.830  -0.523  1.00  0.00     0.073 A 
ATOM     18  N   UNL     1       0.717   4.572  -0.280  1.00  0.00    -0.061 NA
ATOM     19  C   UNL     1       3.398   2.100  -0.417  1.00  0.00     0.069 C 
BRANCH  15  20
ATOM     20  C   UNL     1       0.265   1.089  -0.923  1.00  0.00     0.181 C 
ATOM     21  C   UNL     1       0.630   0.003   0.057  1.00  0.00     0.095 C 
ATOM     22  O   UNL     1      -0.469   0.845  -1.879  1.00  0.00    -0.293 OA
ENDBRANCH  15  20
ENDBRANCH   9  14
ENDBRANCH   5   8
ENDBRANCH   3   4
ENDBRANCH   2   3
ENDBRANCH   1   2
BRANCH   1  23
ATOM     23  C   UNL     1      11.076   6.307  -2.504  1.00  0.00     0.002 C 
BRANCH  23  24
ATOM     24  C   UNL     1      11.081   5.028  -3.355  1.00  0.00     0.021 C 
BRANCH  24  25
ATOM     25  C   UNL     1      11.413   5.289  -4.814  1.00  0.00     0.116 C 
BRANCH  25  26
ATOM     26  N   UNL     1      12.809   5.688  -4.994  1.00  0.00    -0.352 N 
ATOM     27  C   UNL     1      13.457   6.021  -6.170  1.00  0.00     0.251 C 
ATOM     28  H   UNL     1      13.356   5.723  -4.177  1.00  0.00     0.163 HD
ATOM     29  O   UNL     1      14.668   5.987  -6.268  1.00  0.00    -0.269 OA
BRANCH  27  30
ATOM     30  C   UNL     1      12.623   6.452  -7.303  1.00  0.00     0.039 A 
ATOM     31  C   UNL     1      12.850   6.000  -8.606  1.00  0.00     0.014 A 
ATOM     32  C   UNL     1      11.561   7.301  -7.007  1.00  0.00     0.014 A 
ATOM     33  C   UNL     1      11.947   6.362  -9.602  1.00  0.00     0.010 A 
ATOM     34  C   UNL     1      10.584   7.504  -7.939  1.00  0.00     0.010 A 
ATOM     35  C   UNL     1      10.811   7.107  -9.251  1.00  0.00    -0.014 A 
BRANCH  35  36
ATOM     36  C   UNL     1       9.774   7.428 -10.220  1.00  0.00     0.031 A 
ATOM     37  C   UNL     1       9.094   6.245 -10.814  1.00  0.00     0.074 A 
ATOM     38  C   UNL     1       9.294   8.685 -10.342  1.00  0.00     0.049 A 
ATOM     39  N   UNL     1       9.093   5.866 -12.048  1.00  0.00    -0.248 NA
ATOM     40  C   UNL     1       8.436   5.292  -9.901  1.00  0.00     0.031 C 
ATOM     41  C   UNL     1       9.634   9.874  -9.543  1.00  0.00     0.029 A 
ATOM     42  N   UNL     1       8.286   9.144 -11.126  1.00  0.00    -0.354 N 
ATOM     43  C   UNL     1       8.277   4.738 -12.108  1.00  0.00     0.074 A 
ATOM     44  C   UNL     1       8.050   4.333 -10.745  1.00  0.00     0.031 C 
ATOM     45  C   UNL     1       8.685  10.821  -9.708  1.00  0.00     0.029 A 
ATOM     46  C   UNL     1       7.784  10.388 -10.758  1.00  0.00     0.049 A 
ATOM     47  H   UNL     1       7.938   8.636 -11.894  1.00  0.00     0.167 HD
ATOM     48  C   UNL     1       7.652   4.374 -13.263  1.00  0.00     0.031 A 
ATOM     49  C   UNL     1       6.685  10.998 -11.265  1.00  0.00     0.031 A 
ATOM     50  C   UNL     1       8.200   5.075 -14.396  1.00  0.00     0.049 A 
ATOM     51  C   UNL     1       6.380  10.335 -12.554  1.00  0.00     0.074 A 
ATOM     52  C   UNL     1       9.431   5.121 -15.016  1.00  0.00     0.029 A 
ATOM     53  N   UNL     1       7.524   6.200 -14.803  1.00  0.00    -0.354 N 
ATOM     54  N   UNL     1       7.166  10.387 -13.591  1.00  0.00    -0.248 NA
ATOM     55  C   UNL     1       5.433   9.233 -12.539  1.00  0.00     0.031 C 
ATOM     56  C   UNL     1       9.607   6.491 -15.373  1.00  0.00     0.029 A 
ATOM     57  C   UNL     1       8.445   7.188 -15.029  1.00  0.00     0.049 A 
ATOM     58  H   UNL     1       6.549   6.282 -14.913  1.00  0.00     0.167 HD
ATOM     59  C   UNL     1       7.125   9.108 -14.127  1.00  0.00     0.074 A 
ATOM     60  C   UNL     1       5.968   8.472 -13.498  1.00  0.00     0.031 C 
ATOM     61  C   UNL     1       8.195   8.596 -14.806  1.00  0.00     0.031 A 
BRANCH  48  62
ATOM     62  C   UNL     1       6.288   3.727 -13.323  1.00  0.00    -0.014 A 
ATOM     63  C   UNL     1       5.745   3.421 -14.586  1.00  0.00     0.009 A 
ATOM     64  C   UNL     1       5.404   3.666 -12.229  1.00  0.00     0.009 A 
ATOM     65  C   UNL     1       4.380   3.154 -14.752  1.00  0.00     0.001 A 
ATOM     66  C   UNL     1       4.048   3.360 -12.386  1.00  0.00     0.001 A 
ATOM     67  C   UNL     1       3.530   3.134 -13.652  1.00  0.00     0.000 A 
ENDBRANCH  48  62
BRANCH  49  68
ATOM     68  C   UNL     1       5.704  11.871 -10.584  1.00  0.00    -0.014 A 
ATOM     69  C   UNL     1       4.840  12.695 -11.324  1.00  0.00     0.009 A 
ATOM     70  C   UNL     1       5.412  11.675  -9.221  1.00  0.00     0.009 A 
ATOM     71  C   UNL     1       3.702  13.263 -10.733  1.00  0.00     0.001 A 
ATOM     72  C   UNL     1       4.275  12.242  -8.632  1.00  0.00     0.001 A 
ATOM     73  C   UNL     1       3.412  13.023  -9.393  1.00  0.00     0.000 A 
ENDBRANCH  49  68
BRANCH  61  74
ATOM     74  C   UNL     1       9.325   9.536 -15.158  1.00  0.00    -0.014 A 
ATOM     75  C   UNL     1      10.132  10.176 -14.200  1.00  0.00     0.009 A 
ATOM     76  C   UNL     1       9.688   9.644 -16.508  1.00  0.00     0.009 A 
ATOM     77  C   UNL     1      11.257  10.916 -14.588  1.00  0.00     0.001 A 
ATOM     78  C   UNL     1      10.820  10.363 -16.894  1.00  0.00     0.001 A 
ATOM     79  C   UNL     1      11.603  11.002 -15.935  1.00  0.00     0.000 A 
ENDBRANCH  61  74
ENDBRANCH  35  36
ENDBRANCH  27  30
ENDBRANCH  25  26
ENDBRANCH  24  25
ENDBRANCH  23  24
ENDBRANCH   1  23
TORSDOF 15
