REMARK SMILES CC[C@@H](NC(=O)N[C@H]1CCCCC[C@@H]1C(=O)NCCCCCCNC(=O)c1ccc(-c2c3nc(c(-c4ccccc4)c4ccc([nH]4)c(-c4ccccc4)c4nc(c(-c5ccccc5)c5ccc2[nH]5)C=C4)C=C3)cc1)C(C)C
REMARK SMILES IDX 19 1 18 2 17 3 15 4 16 5 14 7 8 8 7 9 4 10 5 11 6 13 3 15
REMARK SMILES IDX 2 16 1 17 75 18 76 19 77 20 9 21 10 22 11 23 13 25 12 26
REMARK SMILES IDX 20 28 21 29 22 30 23 31 24 32 25 33 26 35 27 36 28 37 74 38
REMARK SMILES IDX 29 39 73 40 30 41 31 42 32 43 67 44 33 45 72 46 66 47 68 48
REMARK SMILES IDX 34 49 71 50 65 51 64 52 35 54 57 55 42 56 56 57 43 58 46 59
REMARK SMILES IDX 55 60 69 61 44 62 45 63 54 65 70 66 47 67 36 68 37 69 41 70
REMARK SMILES IDX 38 71 40 72 39 73 58 74 59 75 63 76 60 77 62 78 61 79 48 80
REMARK SMILES IDX 49 81 53 82 50 83 52 84 51 85
REMARK H PARENT 17 6 4 12 7 14 24 34 68 53 46 64
REMARK Flexibility Score: 90.00
ROOT
ATOM      1  C   UNL     1      -4.870  -0.584  -2.595  1.00  0.00     0.021 C 
ENDROOT
BRANCH   1   2
ATOM      2  C   UNL     1      -3.764  -1.608  -2.811  1.00  0.00     0.116 C 
BRANCH   2   3
ATOM      3  N   UNL     1      -3.638  -1.996  -4.194  1.00  0.00    -0.356 N 
ATOM      4  C   UNL     1      -2.682  -1.805  -5.129  1.00  0.00     0.225 C 
ATOM      5  O   UNL     1      -2.910  -2.310  -6.234  1.00  0.00    -0.275 OA
ATOM      6  H   UNL     1      -4.411  -2.507  -4.526  1.00  0.00     0.163 HD
BRANCH   4   7
ATOM      7  C   UNL     1      -1.370  -1.043  -4.903  1.00  0.00     0.101 C 
BRANCH   7   8
ATOM      8  C   UNL     1      -0.120  -2.150  -4.042  1.00  0.00     0.096 C 
BRANCH   8   9
ATOM      9  N   UNL     1       0.644  -2.917  -5.032  1.00  0.00    -0.335 N 
ATOM     10  N   UNL     1       2.416  -1.500  -5.593  1.00  0.00    -0.335 N 
ATOM     11  C   UNL     1       1.686  -2.601  -5.816  1.00  0.00     0.315 C 
ATOM     12  H   UNL     1       3.013  -1.237  -6.331  1.00  0.00     0.165 HD
ATOM     13  O   UNL     1       1.976  -3.331  -6.761  1.00  0.00    -0.249 OA
ATOM     14  H   UNL     1       0.331  -3.844  -5.143  1.00  0.00     0.165 HD
BRANCH  10  15
ATOM     15  C   UNL     1       2.458  -0.627  -4.415  1.00  0.00     0.086 C 
BRANCH  15  16
ATOM     16  C   UNL     1       3.555  -1.248  -3.460  1.00  0.00     0.022 C 
ATOM     17  C   UNL     1       4.843  -0.420  -3.395  1.00  0.00     0.006 C 
ENDBRANCH  15  16
BRANCH  15  18
ATOM     18  C   UNL     1       0.875   0.104  -4.232  1.00  0.00     0.005 C 
ATOM     19  C   UNL     1      -0.585  -0.158  -2.872  1.00  0.00     0.009 C 
ATOM     20  C   UNL     1       1.113   1.384  -5.209  1.00  0.00     0.009 C 
ENDBRANCH  15  18
ENDBRANCH  10  15
ENDBRANCH   8   9
BRANCH   8  21
ATOM     21  C   UNL     1       0.916  -1.705  -2.541  1.00  0.00     0.026 C 
BRANCH  21  22
ATOM     22  C   UNL     1       1.434   0.035  -1.942  1.00  0.00     0.002 C 
BRANCH  22  23
ATOM     23  C   UNL     1       0.628   1.661  -2.398  1.00  0.00     0.000 CG0
ATOM     24  G   UNL     1      -0.752   1.990  -3.590  1.00  0.00     0.000 G0
ENDBRANCH  22  23
ENDBRANCH  21  22
ENDBRANCH   8  21
ENDBRANCH   7   8
BRANCH   7  25
ATOM     25  C   UNL     1      -1.655   0.758  -4.681  1.00  0.00     0.015 C 
BRANCH  25  26
ATOM     26  C   UNL     1      -0.752   1.990  -3.590  1.00  0.00     0.001 CG0
ATOM     27  G   UNL     1       0.628   1.661  -2.398  1.00  0.00     0.000 G0
ENDBRANCH  25  26
ENDBRANCH   7  25
ENDBRANCH   4   7
ENDBRANCH   2   3
ENDBRANCH   1   2
BRANCH   1  28
ATOM     28  C   UNL     1      -6.269  -1.195  -2.513  1.00  0.00     0.002 C 
BRANCH  28  29
ATOM     29  C   UNL     1      -6.427  -2.314  -1.477  1.00  0.00     0.002 C 
BRANCH  29  30
ATOM     30  C   UNL     1      -5.916  -1.978  -0.072  1.00  0.00     0.021 C 
BRANCH  30  31
ATOM     31  C   UNL     1      -6.545  -0.734   0.543  1.00  0.00     0.116 C 
BRANCH  31  32
ATOM     32  N   UNL     1      -7.992  -0.853   0.620  1.00  0.00    -0.352 N 
ATOM     33  C   UNL     1      -8.797  -0.839   1.723  1.00  0.00     0.251 C 
ATOM     34  H   UNL     1      -8.455  -0.958  -0.242  1.00  0.00     0.163 HD
ATOM     35  O   UNL     1      -9.967  -1.225   1.645  1.00  0.00    -0.269 OA
BRANCH  33  36
ATOM     36  C   UNL     1      -8.266  -0.357   3.009  1.00  0.00     0.039 A 
ATOM     37  C   UNL     1      -8.558  -1.066   4.176  1.00  0.00     0.014 A 
ATOM     38  C   UNL     1      -7.495   0.808   3.061  1.00  0.00     0.014 A 
ATOM     39  C   UNL     1      -8.042  -0.625   5.394  1.00  0.00     0.010 A 
ATOM     40  C   UNL     1      -6.920   1.203   4.263  1.00  0.00     0.010 A 
ATOM     41  C   UNL     1      -7.201   0.499   5.442  1.00  0.00    -0.014 A 
BRANCH  41  42
ATOM     42  C   UNL     1      -6.621   0.965   6.724  1.00  0.00     0.031 A 
ATOM     43  C   UNL     1      -7.005   2.308   7.279  1.00  0.00     0.074 A 
ATOM     44  C   UNL     1      -5.713   0.200   7.358  1.00  0.00     0.049 A 
ATOM     45  N   UNL     1      -6.577   2.906   8.362  1.00  0.00    -0.248 NA
ATOM     46  C   UNL     1      -7.979   3.095   6.503  1.00  0.00     0.031 C 
ATOM     47  C   UNL     1      -5.234  -1.106   6.899  1.00  0.00     0.029 A 
ATOM     48  N   UNL     1      -5.029   0.412   8.528  1.00  0.00    -0.354 N 
ATOM     49  C   UNL     1      -7.218   4.138   8.389  1.00  0.00     0.074 A 
ATOM     50  C   UNL     1      -8.018   4.228   7.188  1.00  0.00     0.031 C 
ATOM     51  C   UNL     1      -4.360  -1.592   7.794  1.00  0.00     0.029 A 
ATOM     52  C   UNL     1      -4.186  -0.618   8.866  1.00  0.00     0.049 A 
ATOM     53  H   UNL     1      -5.133   1.226   9.073  1.00  0.00     0.167 HD
ATOM     54  C   UNL     1      -7.164   5.100   9.341  1.00  0.00     0.031 A 
ATOM     55  C   UNL     1      -3.363  -0.758   9.922  1.00  0.00     0.031 A 
ATOM     56  C   UNL     1      -6.372   5.005  10.537  1.00  0.00     0.049 A 
ATOM     57  C   UNL     1      -3.304   0.335  10.952  1.00  0.00     0.074 A 
ATOM     58  C   UNL     1      -6.283   5.903  11.587  1.00  0.00     0.029 A 
ATOM     59  N   UNL     1      -5.529   3.947  10.842  1.00  0.00    -0.354 N 
ATOM     60  N   UNL     1      -3.965   1.466  10.997  1.00  0.00    -0.248 NA
ATOM     61  C   UNL     1      -2.391   0.124  12.084  1.00  0.00     0.031 C 
ATOM     62  C   UNL     1      -5.345   5.412  12.501  1.00  0.00     0.029 A 
ATOM     63  C   UNL     1      -4.897   4.181  12.051  1.00  0.00     0.049 A 
ATOM     64  H   UNL     1      -5.399   3.148  10.281  1.00  0.00     0.167 HD
ATOM     65  C   UNL     1      -3.573   2.087  12.175  1.00  0.00     0.074 A 
ATOM     66  C   UNL     1      -2.629   1.199  12.822  1.00  0.00     0.031 C 
ATOM     67  C   UNL     1      -3.960   3.285  12.678  1.00  0.00     0.031 A 
BRANCH  54  68
ATOM     68  C   UNL     1      -7.982   6.342   9.117  1.00  0.00    -0.014 A 
ATOM     69  C   UNL     1      -9.386   6.309   9.170  1.00  0.00     0.009 A 
ATOM     70  C   UNL     1      -7.343   7.569   8.881  1.00  0.00     0.009 A 
ATOM     71  C   UNL     1     -10.131   7.470   8.952  1.00  0.00     0.001 A 
ATOM     72  C   UNL     1      -8.089   8.734   8.694  1.00  0.00     0.001 A 
ATOM     73  C   UNL     1      -9.482   8.681   8.719  1.00  0.00     0.000 A 
ENDBRANCH  54  68
BRANCH  55  74
ATOM     74  C   UNL     1      -2.542  -1.988  10.069  1.00  0.00    -0.014 A 
ATOM     75  C   UNL     1      -2.821  -2.913  11.088  1.00  0.00     0.009 A 
ATOM     76  C   UNL     1      -1.469  -2.241   9.200  1.00  0.00     0.009 A 
ATOM     77  C   UNL     1      -2.025  -4.048  11.252  1.00  0.00     0.001 A 
ATOM     78  C   UNL     1      -0.694  -3.394   9.347  1.00  0.00     0.001 A 
ATOM     79  C   UNL     1      -0.965  -4.290  10.379  1.00  0.00     0.000 A 
ENDBRANCH  55  74
BRANCH  67  80
ATOM     80  C   UNL     1      -3.391   3.685  14.010  1.00  0.00    -0.014 A 
ATOM     81  C   UNL     1      -2.046   4.061  14.148  1.00  0.00     0.009 A 
ATOM     82  C   UNL     1      -4.226   3.720  15.138  1.00  0.00     0.009 A 
ATOM     83  C   UNL     1      -1.541   4.430  15.396  1.00  0.00     0.001 A 
ATOM     84  C   UNL     1      -3.727   4.120  16.378  1.00  0.00     0.001 A 
ATOM     85  C   UNL     1      -2.382   4.464  16.508  1.00  0.00     0.000 A 
ENDBRANCH  67  80
ENDBRANCH  41  42
ENDBRANCH  33  36
ENDBRANCH  31  32
ENDBRANCH  30  31
ENDBRANCH  29  30
ENDBRANCH  28  29
ENDBRANCH   1  28
TORSDOF 17
