REMARK SMILES Cc1c(CC(=O)N[C@H](CO)C(=O)NCCCCCCNC(=O)c2ccc(-c3c4nc(c(-c5ccccc5)c5ccc([nH]5)c(-c5ccccc5)c5nc(c(-c6ccccc6)c6ccc3[nH]6)C=C5)C=C4)cc2)cc(-c2ccc(S(C)(=O)=O)cc2)n1-c1cccc(F)c1
REMARK SMILES IDX 15 1 14 2 13 3 11 4 12 5 8 7 7 8 5 9 6 10 4 12 3 13 1 14
REMARK SMILES IDX 2 15 83 16 71 17 72 18 84 19 85 20 90 21 86 22 88 23 87 24
REMARK SMILES IDX 89 25 73 26 74 27 82 28 75 29 81 30 76 31 77 32 78 33 79 34
REMARK SMILES IDX 80 35 9 36 10 37 16 39 17 40 18 41 19 42 20 43 21 44 22 46
REMARK SMILES IDX 23 47 24 48 70 49 25 50 69 51 26 52 27 53 28 54 63 55 29 56
REMARK SMILES IDX 68 57 62 58 64 59 30 60 67 61 61 62 60 63 31 65 53 66 38 67
REMARK SMILES IDX 52 68 39 69 42 70 51 71 65 72 40 73 41 74 50 76 66 77 43 78
REMARK SMILES IDX 32 79 33 80 37 81 34 82 36 83 35 84 54 85 55 86 59 87 56 88
REMARK SMILES IDX 58 89 57 90 44 91 45 92 49 93 46 94 48 95 47 96
REMARK H PARENT 13 6 7 11 10 38 20 45 64 64 42 75
REMARK Flexibility Score: inf
ROOT
ATOM      1  C   UNL     1       6.785  -2.834  -0.806  1.00  0.00     0.021 C 
ENDROOT
BRANCH   1   2
ATOM      2  C   UNL     1       5.280  -2.824  -1.228  1.00  0.00     0.116 C 
BRANCH   2   3
ATOM      3  N   UNL     1       4.630  -4.134  -1.335  1.00  0.00    -0.354 N 
ATOM      4  C   UNL     1       3.353  -4.365  -1.735  1.00  0.00     0.244 C 
ATOM      5  O   UNL     1       2.906  -5.497  -1.852  1.00  0.00    -0.273 OA
ATOM      6  H   UNL     1       5.171  -4.920  -1.093  1.00  0.00     0.163 HD
BRANCH   4   7
ATOM      7  C   UNL     1       2.640  -3.107  -2.082  1.00  0.00     0.197 C 
BRANCH   7   8
ATOM      8  N   UNL     1       3.360  -2.566  -3.330  1.00  0.00    -0.342 N 
ATOM      9  C   UNL     1       4.566  -2.679  -4.027  1.00  0.00     0.225 C 
ATOM     10  O   UNL     1       4.607  -1.905  -5.004  1.00  0.00    -0.275 OA
ATOM     11  H   UNL     1       2.773  -1.925  -3.793  1.00  0.00     0.164 HD
BRANCH   9  12
ATOM     12  C   UNL     1       5.861  -3.662  -3.830  1.00  0.00     0.137 C 
BRANCH  12  13
ATOM     13  C   UNL     1       6.998  -3.414  -2.678  1.00  0.00    -0.017 A 
ATOM     14  C   UNL     1       7.550  -0.533  -2.873  1.00  0.00     0.065 C 
ATOM     15  C   UNL     1       7.722  -1.837  -2.171  1.00  0.00     0.024 A 
ATOM     16  N   UNL     1       8.485  -2.063  -0.472  1.00  0.00    -0.313 N 
ATOM     17  C   UNL     1       7.332  -4.669  -1.203  1.00  0.00     0.033 A 
ATOM     18  C   UNL     1       8.211  -3.818   0.112  1.00  0.00     0.053 A 
BRANCH  16  19
ATOM     19  C   UNL     1       8.755  -1.056   0.502  1.00  0.00     0.049 A 
ATOM     20  C   UNL     1       9.554  -1.433   1.587  1.00  0.00     0.027 A 
ATOM     21  C   UNL     1       8.132   0.186   0.462  1.00  0.00     0.065 A 
ATOM     22  C   UNL     1       9.572  -0.659   2.730  1.00  0.00     0.005 A 
ATOM     23  C   UNL     1       8.188   0.968   1.604  1.00  0.00     0.125 A 
ATOM     24  C   UNL     1       8.832   0.517   2.755  1.00  0.00     0.039 A 
ATOM     25  F   UNL     1       7.600   2.170   1.606  1.00  0.00    -0.207 F 
ENDBRANCH  16  19
BRANCH  18  26
ATOM     26  C   UNL     1       8.241  -4.257   1.520  1.00  0.00    -0.001 A 
ATOM     27  C   UNL     1       7.631  -3.527   2.561  1.00  0.00     0.011 A 
ATOM     28  C   UNL     1       8.853  -5.471   1.808  1.00  0.00     0.011 A 
ATOM     29  C   UNL     1       7.771  -3.928   3.890  1.00  0.00     0.021 A 
ATOM     30  C   UNL     1       8.985  -5.889   3.128  1.00  0.00     0.021 A 
ATOM     31  C   UNL     1       8.486  -5.093   4.163  1.00  0.00     0.067 A 
BRANCH  31  32
ATOM     32  S   UNL     1       8.788  -5.566   5.846  1.00  0.00     0.175 S 
ATOM     33  C   UNL     1       9.847  -4.278   6.455  1.00  0.00     0.163 C 
ATOM     34  O   UNL     1       7.521  -5.493   6.545  1.00  0.00    -0.224 OA
ATOM     35  O   UNL     1       9.566  -6.790   5.821  1.00  0.00    -0.224 OA
ENDBRANCH  31  32
ENDBRANCH  18  26
ENDBRANCH  12  13
ENDBRANCH   9  12
ENDBRANCH   7   8
BRANCH   7  36
ATOM     36  C   UNL     1       2.527  -2.244  -0.765  1.00  0.00     0.191 C 
BRANCH  36  37
ATOM     37  O   UNL     1       1.191  -2.181  -0.260  1.00  0.00    -0.394 OA
ATOM     38  H   UNL     1       0.617  -1.759  -0.918  1.00  0.00     0.210 HD
ENDBRANCH  36  37
ENDBRANCH   7  36
ENDBRANCH   4   7
ENDBRANCH   2   3
ENDBRANCH   1   2
BRANCH   1  39
ATOM     39  C   UNL     1       8.758  -3.439  -1.756  1.00  0.00     0.002 C 
BRANCH  39  40
ATOM     40  C   UNL     1       9.906  -2.762  -2.853  1.00  0.00     0.002 C 
BRANCH  40  41
ATOM     41  C   UNL     1      10.728  -1.430  -2.725  1.00  0.00     0.021 C 
BRANCH  41  42
ATOM     42  C   UNL     1      11.078  -0.857  -1.330  1.00  0.00     0.116 C 
BRANCH  42  43
ATOM     43  N   UNL     1      12.436  -0.445  -1.011  1.00  0.00    -0.352 N 
ATOM     44  C   UNL     1      12.895   0.427   0.003  1.00  0.00     0.251 C 
ATOM     45  H   UNL     1      13.138  -0.831  -1.583  1.00  0.00     0.163 HD
ATOM     46  O   UNL     1      14.103   0.378   0.247  1.00  0.00    -0.269 OA
BRANCH  44  47
ATOM     47  C   UNL     1      12.010   1.441   0.790  1.00  0.00     0.039 A 
ATOM     48  C   UNL     1      11.617   2.646   0.242  1.00  0.00     0.014 A 
ATOM     49  C   UNL     1      11.780   1.444   2.183  1.00  0.00     0.014 A 
ATOM     50  C   UNL     1      10.789   3.643   0.987  1.00  0.00     0.010 A 
ATOM     51  C   UNL     1      10.984   2.514   2.965  1.00  0.00     0.010 A 
ATOM     52  C   UNL     1      10.319   3.635   2.386  1.00  0.00    -0.014 A 
BRANCH  52  53
ATOM     53  C   UNL     1       9.669   5.154   3.126  1.00  0.00     0.031 A 
ATOM     54  C   UNL     1      10.753   6.001   2.576  1.00  0.00     0.074 A 
ATOM     55  C   UNL     1       8.844   5.904   4.111  1.00  0.00     0.049 A 
ATOM     56  N   UNL     1      11.909   5.609   3.017  1.00  0.00    -0.248 NA
ATOM     57  C   UNL     1      10.824   6.751   1.327  1.00  0.00     0.031 C 
ATOM     58  C   UNL     1       7.972   5.418   5.233  1.00  0.00     0.029 A 
ATOM     59  N   UNL     1       8.597   7.389   4.407  1.00  0.00    -0.354 N 
ATOM     60  C   UNL     1      12.898   6.200   2.286  1.00  0.00     0.074 A 
ATOM     61  C   UNL     1      12.162   6.793   1.163  1.00  0.00     0.031 C 
ATOM     62  C   UNL     1       7.234   6.395   5.883  1.00  0.00     0.029 A 
ATOM     63  C   UNL     1       7.488   7.767   5.403  1.00  0.00     0.049 A 
ATOM     64  H   UNL     1       9.137   8.085   3.969  1.00  0.00     0.167 HD
ATOM     65  C   UNL     1      13.821   6.734   3.138  1.00  0.00     0.031 A 
ATOM     66  C   UNL     1       6.959   9.040   5.894  1.00  0.00     0.031 A 
ATOM     67  C   UNL     1      13.307   7.995   3.631  1.00  0.00     0.049 A 
ATOM     68  C   UNL     1       8.155   9.865   6.026  1.00  0.00     0.074 A 
ATOM     69  C   UNL     1      12.640   9.008   2.957  1.00  0.00     0.029 A 
ATOM     70  N   UNL     1      12.899   8.062   4.947  1.00  0.00    -0.354 N 
ATOM     71  N   UNL     1       9.022   9.728   6.976  1.00  0.00    -0.248 NA
ATOM     72  C   UNL     1       8.423  10.882   5.034  1.00  0.00     0.031 C 
ATOM     73  C   UNL     1      11.476   9.188   3.719  1.00  0.00     0.029 A 
ATOM     74  C   UNL     1      11.797   8.880   5.030  1.00  0.00     0.049 A 
ATOM     75  H   UNL     1      13.327   7.599   5.704  1.00  0.00     0.167 HD
ATOM     76  C   UNL     1      10.155  10.027   6.284  1.00  0.00     0.074 A 
ATOM     77  C   UNL     1       9.740  10.929   5.207  1.00  0.00     0.031 C 
ATOM     78  C   UNL     1      11.130   9.083   6.278  1.00  0.00     0.031 A 
BRANCH  65  79
ATOM     79  C   UNL     1      14.405   5.628   4.026  1.00  0.00    -0.014 A 
ATOM     80  C   UNL     1      15.709   5.197   3.781  1.00  0.00     0.009 A 
ATOM     81  C   UNL     1      13.626   4.857   4.933  1.00  0.00     0.009 A 
ATOM     82  C   UNL     1      16.193   4.019   4.370  1.00  0.00     0.001 A 
ATOM     83  C   UNL     1      14.089   3.658   5.478  1.00  0.00     0.001 A 
ATOM     84  C   UNL     1      15.378   3.238   5.193  1.00  0.00     0.000 A 
ENDBRANCH  65  79
BRANCH  66  85
ATOM     85  C   UNL     1       5.815  10.031   6.626  1.00  0.00    -0.014 A 
ATOM     86  C   UNL     1       6.169  11.217   7.414  1.00  0.00     0.009 A 
ATOM     87  C   UNL     1       4.512  10.152   6.105  1.00  0.00     0.009 A 
ATOM     88  C   UNL     1       5.353  12.391   7.579  1.00  0.00     0.001 A 
ATOM     89  C   UNL     1       3.685  11.326   6.285  1.00  0.00     0.001 A 
ATOM     90  C   UNL     1       4.107  12.453   6.990  1.00  0.00     0.000 A 
ENDBRANCH  66  85
BRANCH  78  91
ATOM     91  C   UNL     1      11.343   8.262   7.527  1.00  0.00    -0.014 A 
ATOM     92  C   UNL     1      10.346   7.531   8.210  1.00  0.00     0.009 A 
ATOM     93  C   UNL     1      12.621   8.291   8.097  1.00  0.00     0.009 A 
ATOM     94  C   UNL     1      10.609   6.909   9.439  1.00  0.00     0.001 A 
ATOM     95  C   UNL     1      12.896   7.643   9.304  1.00  0.00     0.001 A 
ATOM     96  C   UNL     1      11.886   6.970   9.986  1.00  0.00     0.000 A 
ENDBRANCH  78  91
ENDBRANCH  52  53
ENDBRANCH  44  47
ENDBRANCH  42  43
ENDBRANCH  41  42
ENDBRANCH  40  41
ENDBRANCH  39  40
ENDBRANCH   1  39
TORSDOF 21
