REMARK SMILES CN(C)c1oc(/C=N/c2ccc(O)c(C(=O)NCCCCCCNC(=O)c3ccc(-c4c5nc(c(-c6ccccc6)c6ccc([nH]6)c(-c6ccccc6)c6nc(c(-c7ccccc7)c7ccc4[nH]7)C=C6)C=C5)cc3)c2)cc1Br
REMARK SMILES IDX 20 1 19 2 18 3 17 4 15 5 16 6 14 8 9 9 10 10 75 11 11 12
REMARK SMILES IDX 12 13 8 14 7 15 6 16 4 17 5 18 77 19 76 20 78 21 2 22 1 23
REMARK SMILES IDX 3 24 13 25 21 27 22 28 23 29 24 30 25 31 26 33 27 34 28 35
REMARK SMILES IDX 74 36 29 37 73 38 30 39 31 40 32 41 67 42 33 43 72 44 66 45
REMARK SMILES IDX 68 46 34 47 71 48 65 49 64 50 35 52 57 53 42 54 56 55 43 56
REMARK SMILES IDX 46 57 55 58 69 59 44 60 45 61 54 63 70 64 47 65 36 66 37 67
REMARK SMILES IDX 41 68 38 69 40 70 39 71 58 72 59 73 63 74 60 75 62 76 61 77
REMARK SMILES IDX 48 78 49 79 53 80 50 81 52 82 51 83
REMARK H PARENT 17 7 13 26 24 32 68 51 46 62
REMARK Flexibility Score: inf
ROOT
ATOM      1  C   UNL     1       0.260   5.574 -14.925  1.00  0.00     0.002 C 
ENDROOT
BRANCH   1   2
ATOM      2  C   UNL     1      -0.404   5.408 -13.553  1.00  0.00     0.021 C 
BRANCH   2   3
ATOM      3  C   UNL     1      -0.421   3.960 -13.050  1.00  0.00     0.116 C 
BRANCH   3   4
ATOM      4  N   UNL     1       0.839   3.647 -12.414  1.00  0.00    -0.352 N 
ATOM      5  C   UNL     1       1.240   3.618 -11.106  1.00  0.00     0.255 C 
ATOM      6  O   UNL     1       2.439   3.391 -10.918  1.00  0.00    -0.269 OA
ATOM      7  H   UNL     1       1.552   3.407 -13.049  1.00  0.00     0.163 HD
BRANCH   5   8
ATOM      8  C   UNL     1       0.347   3.752  -9.914  1.00  0.00     0.083 A 
ATOM      9  C   UNL     1       0.154   3.140  -7.540  1.00  0.00     0.064 A 
ATOM     10  C   UNL     1      -1.025   3.875  -7.447  1.00  0.00     0.032 A 
ATOM     11  C   UNL     1       0.808   3.064  -8.771  1.00  0.00     0.046 A 
ATOM     12  C   UNL     1      -1.504   4.570  -8.556  1.00  0.00     0.049 A 
ATOM     13  C   UNL     1      -0.796   4.548  -9.768  1.00  0.00     0.128 A 
BRANCH   9  14
ATOM     14  N   UNL     1       0.805   2.650  -6.406  1.00  0.00    -0.253 NA
ATOM     15  C   UNL     1       0.208   1.813  -5.625  1.00  0.00     0.158 C 
BRANCH  15  16
ATOM     16  C   UNL     1       0.864   1.424  -4.410  1.00  0.00     0.149 A 
ATOM     17  C   UNL     1       0.999   0.467  -2.422  1.00  0.00     0.210 A 
ATOM     18  O   UNL     1       0.219   0.589  -3.545  1.00  0.00    -0.438 OA
ATOM     19  C   UNL     1       2.158   1.194  -2.614  1.00  0.00     0.082 A 
ATOM     20  C   UNL     1       2.084   1.794  -3.884  1.00  0.00     0.070 A 
ATOM     21  Br  UNL     1       3.650   1.414  -1.498  1.00  0.00    -0.045 Br
BRANCH  17  22
ATOM     22  N   UNL     1       0.483  -0.275  -1.409  1.00  0.00    -0.348 N 
ATOM     23  C   UNL     1       0.926  -0.094  -0.040  1.00  0.00     0.146 C 
ATOM     24  C   UNL     1      -0.555  -1.252  -1.683  1.00  0.00     0.146 C 
ENDBRANCH  17  22
ENDBRANCH  15  16
ENDBRANCH   9  14
BRANCH  13  25
ATOM     25  O   UNL     1      -1.224   5.398 -10.745  1.00  0.00    -0.507 OA
ATOM     26  H   UNL     1      -1.994   5.916 -10.613  1.00  0.00     0.293 HD
ENDBRANCH  13  25
ENDBRANCH   5   8
ENDBRANCH   3   4
ENDBRANCH   2   3
ENDBRANCH   1   2
BRANCH   1  27
ATOM     27  C   UNL     1      -0.526   4.972 -16.096  1.00  0.00     0.002 C 
BRANCH  27  28
ATOM     28  C   UNL     1      -1.960   5.488 -16.256  1.00  0.00     0.021 C 
BRANCH  28  29
ATOM     29  C   UNL     1      -2.079   6.995 -16.472  1.00  0.00     0.116 C 
BRANCH  29  30
ATOM     30  N   UNL     1      -1.474   7.411 -17.727  1.00  0.00    -0.352 N 
ATOM     31  C   UNL     1      -2.026   8.081 -18.789  1.00  0.00     0.251 C 
ATOM     32  H   UNL     1      -0.523   7.176 -17.830  1.00  0.00     0.163 HD
ATOM     33  O   UNL     1      -1.420   8.150 -19.853  1.00  0.00    -0.269 OA
BRANCH  31  34
ATOM     34  C   UNL     1      -3.357   8.716 -18.665  1.00  0.00     0.039 A 
ATOM     35  C   UNL     1      -4.261   8.590 -19.724  1.00  0.00     0.014 A 
ATOM     36  C   UNL     1      -3.699   9.471 -17.539  1.00  0.00     0.014 A 
ATOM     37  C   UNL     1      -5.524   9.177 -19.633  1.00  0.00     0.010 A 
ATOM     38  C   UNL     1      -4.981  10.008 -17.424  1.00  0.00     0.010 A 
ATOM     39  C   UNL     1      -5.904   9.869 -18.471  1.00  0.00    -0.014 A 
BRANCH  39  40
ATOM     40  C   UNL     1      -7.269  10.437 -18.340  1.00  0.00     0.031 A 
ATOM     41  C   UNL     1      -7.479  11.925 -18.291  1.00  0.00     0.074 A 
ATOM     42  C   UNL     1      -8.322   9.605 -18.226  1.00  0.00     0.049 A 
ATOM     43  N   UNL     1      -8.598  12.596 -18.174  1.00  0.00    -0.248 NA
ATOM     44  C   UNL     1      -6.277  12.770 -18.363  1.00  0.00     0.031 C 
ATOM     45  C   UNL     1      -8.249   8.142 -18.215  1.00  0.00     0.029 A 
ATOM     46  N   UNL     1      -9.662   9.872 -18.096  1.00  0.00    -0.354 N 
ATOM     47  C   UNL     1      -8.235  13.936 -18.148  1.00  0.00     0.074 A 
ATOM     48  C   UNL     1      -6.790  13.983 -18.217  1.00  0.00     0.031 C 
ATOM     49  C   UNL     1      -9.492   7.642 -18.116  1.00  0.00     0.029 A 
ATOM     50  C   UNL     1     -10.443   8.745 -18.027  1.00  0.00     0.049 A 
ATOM     51  H   UNL     1     -10.028  10.785 -18.056  1.00  0.00     0.167 HD
ATOM     52  C   UNL     1      -9.032  15.030 -18.090  1.00  0.00     0.031 A 
ATOM     53  C   UNL     1     -11.777   8.612 -17.909  1.00  0.00     0.031 A 
ATOM     54  C   UNL     1     -10.469  14.988 -18.031  1.00  0.00     0.049 A 
ATOM     55  C   UNL     1     -12.637   9.842 -17.849  1.00  0.00     0.074 A 
ATOM     56  C   UNL     1     -11.364  16.045 -18.024  1.00  0.00     0.029 A 
ATOM     57  N   UNL     1     -11.222  13.827 -17.967  1.00  0.00    -0.354 N 
ATOM     58  N   UNL     1     -12.280  11.102 -17.892  1.00  0.00    -0.248 NA
ATOM     59  C   UNL     1     -14.087   9.627 -17.737  1.00  0.00     0.031 C 
ATOM     60  C   UNL     1     -12.657  15.523 -17.915  1.00  0.00     0.029 A 
ATOM     61  C   UNL     1     -12.569  14.140 -17.900  1.00  0.00     0.049 A 
ATOM     62  H   UNL     1     -10.853  12.914 -17.970  1.00  0.00     0.167 HD
ATOM     63  C   UNL     1     -13.461  11.830 -17.833  1.00  0.00     0.074 A 
ATOM     64  C   UNL     1     -14.544  10.870 -17.772  1.00  0.00     0.031 C 
ATOM     65  C   UNL     1     -13.633  13.174 -17.828  1.00  0.00     0.031 A 
BRANCH  52  66
ATOM     66  C   UNL     1      -8.359  16.375 -18.086  1.00  0.00    -0.014 A 
ATOM     67  C   UNL     1      -7.754  16.886 -19.245  1.00  0.00     0.009 A 
ATOM     68  C   UNL     1      -8.365  17.157 -16.921  1.00  0.00     0.009 A 
ATOM     69  C   UNL     1      -7.140  18.140 -19.228  1.00  0.00     0.001 A 
ATOM     70  C   UNL     1      -7.772  18.421 -16.914  1.00  0.00     0.001 A 
ATOM     71  C   UNL     1      -7.153  18.908 -18.064  1.00  0.00     0.000 A 
ENDBRANCH  52  66
BRANCH  53  72
ATOM     72  C   UNL     1     -12.388   7.260 -17.861  1.00  0.00    -0.014 A 
ATOM     73  C   UNL     1     -13.116   6.771 -18.957  1.00  0.00     0.009 A 
ATOM     74  C   UNL     1     -12.254   6.455 -16.720  1.00  0.00     0.009 A 
ATOM     75  C   UNL     1     -13.721   5.514 -18.900  1.00  0.00     0.001 A 
ATOM     76  C   UNL     1     -12.838   5.187 -16.676  1.00  0.00     0.001 A 
ATOM     77  C   UNL     1     -13.578   4.722 -17.762  1.00  0.00     0.000 A 
ENDBRANCH  53  72
BRANCH  65  78
ATOM     78  C   UNL     1     -15.047  13.678 -17.772  1.00  0.00    -0.014 A 
ATOM     79  C   UNL     1     -15.798  13.598 -16.589  1.00  0.00     0.009 A 
ATOM     80  C   UNL     1     -15.628  14.252 -18.913  1.00  0.00     0.009 A 
ATOM     81  C   UNL     1     -17.119  14.050 -16.561  1.00  0.00     0.001 A 
ATOM     82  C   UNL     1     -16.940  14.727 -18.874  1.00  0.00     0.001 A 
ATOM     83  C   UNL     1     -17.687  14.617 -17.702  1.00  0.00     0.000 A 
ENDBRANCH  65  78
ENDBRANCH  39  40
ENDBRANCH  31  34
ENDBRANCH  29  30
ENDBRANCH  28  29
ENDBRANCH  27  28
ENDBRANCH   1  27
TORSDOF 17
