REMARK SMILES O=C(NCCCCCCNC(=O)c1nccnc1C(=O)Nc1n[nH]c2ncccc12)c1ccc(-c2c3nc(c(-c4ccccc4)c4ccc([nH]4)c(-c4ccccc4)c4nc(c(-c5ccccc5)c5ccc2[nH]5)C=C4)C=C3)cc1
REMARK SMILES IDX 6 1 5 2 4 3 3 4 1 5 2 6 31 8 32 9 78 10 33 11 77 12 34 13
REMARK SMILES IDX 35 14 36 15 71 16 37 17 76 18 70 19 72 20 38 21 75 22 69 23
REMARK SMILES IDX 68 24 39 26 61 27 46 28 60 29 47 30 50 31 59 32 73 33 48 34
REMARK SMILES IDX 49 35 58 37 74 38 51 39 40 40 41 41 45 42 42 43 44 44 43 45
REMARK SMILES IDX 62 46 63 47 67 48 64 49 66 50 65 51 52 52 53 53 57 54 54 55
REMARK SMILES IDX 56 56 55 57 7 58 8 59 9 60 10 61 11 62 12 64 13 65 14 66
REMARK SMILES IDX 18 67 15 68 17 69 16 70 19 71 20 72 21 73 22 75 23 76 30 77
REMARK SMILES IDX 24 78 25 79 29 80 26 82 28 83 27 84
REMARK H PARENT 3 7 72 25 50 36 10 63 21 74 24 81
REMARK Flexibility Score: inf
ROOT
ATOM      1  C   UNL     1       3.664  -2.808   1.977  1.00  0.00     0.002 C 
ENDROOT
BRANCH   1   2
ATOM      2  C   UNL     1       4.238  -1.484   1.481  1.00  0.00     0.021 C 
BRANCH   2   3
ATOM      3  C   UNL     1       4.088  -1.275  -0.012  1.00  0.00     0.116 C 
BRANCH   3   4
ATOM      4  N   UNL     1       2.700  -1.029  -0.361  1.00  0.00    -0.352 N 
ATOM      5  O   UNL     1       0.814   0.210  -0.403  1.00  0.00    -0.269 OA
ATOM      6  C   UNL     1       2.039   0.171  -0.455  1.00  0.00     0.251 C 
ATOM      7  H   UNL     1       2.161  -1.829  -0.557  1.00  0.00     0.163 HD
BRANCH   6   8
ATOM      8  C   UNL     1       2.814   1.421  -0.616  1.00  0.00     0.039 A 
ATOM      9  C   UNL     1       3.943   1.444  -1.437  1.00  0.00     0.014 A 
ATOM     10  C   UNL     1       2.388   2.589   0.020  1.00  0.00     0.014 A 
ATOM     11  C   UNL     1       4.734   2.581  -1.498  1.00  0.00     0.010 A 
ATOM     12  C   UNL     1       3.112   3.772  -0.152  1.00  0.00     0.010 A 
ATOM     13  C   UNL     1       4.300   3.772  -0.901  1.00  0.00    -0.014 A 
BRANCH  13  14
ATOM     14  C   UNL     1       5.047   5.024  -1.172  1.00  0.00     0.031 A 
ATOM     15  C   UNL     1       5.675   5.813  -0.062  1.00  0.00     0.074 A 
ATOM     16  C   UNL     1       5.153   5.441  -2.450  1.00  0.00     0.049 A 
ATOM     17  N   UNL     1       6.338   6.940  -0.130  1.00  0.00    -0.248 NA
ATOM     18  C   UNL     1       5.537   5.278   1.301  1.00  0.00     0.031 C 
ATOM     19  C   UNL     1       4.585   4.752  -3.614  1.00  0.00     0.029 A 
ATOM     20  N   UNL     1       5.781   6.533  -2.989  1.00  0.00    -0.354 N 
ATOM     21  C   UNL     1       6.674   7.262   1.178  1.00  0.00     0.074 A 
ATOM     22  C   UNL     1       6.117   6.227   2.022  1.00  0.00     0.031 C 
ATOM     23  C   UNL     1       4.932   5.408  -4.728  1.00  0.00     0.029 A 
ATOM     24  C   UNL     1       5.665   6.609  -4.356  1.00  0.00     0.049 A 
ATOM     25  H   UNL     1       6.268   7.197  -2.450  1.00  0.00     0.167 HD
ATOM     26  C   UNL     1       7.382   8.326   1.630  1.00  0.00     0.031 A 
ATOM     27  C   UNL     1       6.070   7.559  -5.217  1.00  0.00     0.031 A 
ATOM     28  C   UNL     1       7.911   9.362   0.780  1.00  0.00     0.049 A 
ATOM     29  C   UNL     1       6.790   8.759  -4.680  1.00  0.00     0.074 A 
ATOM     30  C   UNL     1       8.662  10.469   1.136  1.00  0.00     0.029 A 
ATOM     31  N   UNL     1       7.732   9.428  -0.595  1.00  0.00    -0.354 N 
ATOM     32  N   UNL     1       7.131   9.032  -3.445  1.00  0.00    -0.248 NA
ATOM     33  C   UNL     1       7.182   9.781  -5.658  1.00  0.00     0.031 C 
ATOM     34  C   UNL     1       8.872  11.242  -0.010  1.00  0.00     0.029 A 
ATOM     35  C   UNL     1       8.328  10.574  -1.096  1.00  0.00     0.049 A 
ATOM     36  H   UNL     1       7.252   8.759  -1.135  1.00  0.00     0.167 HD
ATOM     37  C   UNL     1       7.806  10.243  -3.499  1.00  0.00     0.074 A 
ATOM     38  C   UNL     1       7.840  10.640  -4.892  1.00  0.00     0.031 C 
ATOM     39  C   UNL     1       8.351  10.959  -2.485  1.00  0.00     0.031 A 
BRANCH  26  40
ATOM     40  C   UNL     1       7.583   8.445   3.117  1.00  0.00    -0.014 A 
ATOM     41  C   UNL     1       8.387   7.539   3.828  1.00  0.00     0.009 A 
ATOM     42  C   UNL     1       6.980   9.503   3.816  1.00  0.00     0.009 A 
ATOM     43  C   UNL     1       8.544   7.664   5.211  1.00  0.00     0.001 A 
ATOM     44  C   UNL     1       7.167   9.647   5.192  1.00  0.00     0.001 A 
ATOM     45  C   UNL     1       7.938   8.720   5.891  1.00  0.00     0.000 A 
ENDBRANCH  26  40
BRANCH  27  46
ATOM     46  C   UNL     1       5.777   7.417  -6.668  1.00  0.00    -0.014 A 
ATOM     47  C   UNL     1       6.814   7.226  -7.593  1.00  0.00     0.009 A 
ATOM     48  C   UNL     1       4.452   7.460  -7.134  1.00  0.00     0.009 A 
ATOM     49  C   UNL     1       6.532   7.111  -8.956  1.00  0.00     0.001 A 
ATOM     50  C   UNL     1       4.171   7.307  -8.492  1.00  0.00     0.001 A 
ATOM     51  C   UNL     1       5.212   7.144  -9.403  1.00  0.00     0.000 A 
ENDBRANCH  27  46
BRANCH  39  52
ATOM     52  C   UNL     1       9.079  12.223  -2.854  1.00  0.00    -0.014 A 
ATOM     53  C   UNL     1       8.399  13.355  -3.330  1.00  0.00     0.009 A 
ATOM     54  C   UNL     1      10.472  12.289  -2.686  1.00  0.00     0.009 A 
ATOM     55  C   UNL     1       9.105  14.512  -3.667  1.00  0.00     0.001 A 
ATOM     56  C   UNL     1      11.169  13.459  -2.987  1.00  0.00     0.001 A 
ATOM     57  C   UNL     1      10.487  14.565  -3.488  1.00  0.00     0.000 A 
ENDBRANCH  39  52
ENDBRANCH  13  14
ENDBRANCH   6   8
ENDBRANCH   3   4
ENDBRANCH   2   3
ENDBRANCH   1   2
BRANCH   1  58
ATOM     58  C   UNL     1       4.273  -4.102   1.388  1.00  0.00     0.002 C 
BRANCH  58  59
ATOM     59  C   UNL     1       5.989  -4.465   1.497  1.00  0.00     0.021 C 
BRANCH  59  60
ATOM     60  C   UNL     1       7.296  -4.947   3.199  1.00  0.00     0.116 C 
BRANCH  60  61
ATOM     61  N   UNL     1       7.312  -6.174   4.229  1.00  0.00    -0.351 N 
ATOM     62  C   UNL     1       8.260  -7.163   4.386  1.00  0.00     0.272 C 
ATOM     63  H   UNL     1       6.537  -6.229   4.834  1.00  0.00     0.163 HD
ATOM     64  O   UNL     1       8.079  -8.132   5.112  1.00  0.00    -0.267 OA
BRANCH  62  65
ATOM     65  C   UNL     1       9.528  -6.973   3.663  1.00  0.00     0.159 A 
ATOM     66  N   UNL     1      10.306  -5.977   4.209  1.00  0.00    -0.247 NA
ATOM     67  C   UNL     1       9.825  -7.590   2.457  1.00  0.00     0.159 A 
ATOM     68  C   UNL     1      11.413  -5.649   3.521  1.00  0.00     0.132 A 
ATOM     69  N   UNL     1      10.954  -7.225   1.767  1.00  0.00    -0.247 NA
ATOM     70  C   UNL     1      11.731  -6.263   2.326  1.00  0.00     0.132 A 
BRANCH  67  71
ATOM     71  C   UNL     1       9.075  -8.728   1.844  1.00  0.00     0.277 C 
ATOM     72  O   UNL     1       9.732  -9.722   1.516  1.00  0.00    -0.267 OA
ATOM     73  N   UNL     1       7.711  -8.773   1.658  1.00  0.00    -0.303 N 
ATOM     74  H   UNL     1       7.366  -9.647   1.366  1.00  0.00     0.172 HD
BRANCH  73  75
ATOM     75  C   UNL     1       6.752  -7.806   1.813  1.00  0.00     0.164 A 
ATOM     76  N   UNL     1       5.534  -8.196   2.232  1.00  0.00    -0.155 NA
ATOM     77  C   UNL     1       6.890  -6.406   1.721  1.00  0.00     0.063 A 
ATOM     78  N   UNL     1       4.928  -7.152   2.871  1.00  0.00    -0.259 N 
ATOM     79  C   UNL     1       5.575  -5.955   2.753  1.00  0.00     0.157 A 
ATOM     80  C   UNL     1       8.005  -5.130   1.165  1.00  0.00     0.017 A 
ATOM     81  H   UNL     1       4.089  -7.254   3.377  1.00  0.00     0.192 HD
ATOM     82  N   UNL     1       5.390  -4.367   3.446  1.00  0.00    -0.237 NA
ATOM     83  C   UNL     1       7.863  -3.465   1.773  1.00  0.00     0.021 A 
ATOM     84  C   UNL     1       6.537  -3.116   2.868  1.00  0.00     0.113 A 
ENDBRANCH  73  75
ENDBRANCH  67  71
ENDBRANCH  62  65
ENDBRANCH  60  61
ENDBRANCH  59  60
ENDBRANCH  58  59
ENDBRANCH   1  58
TORSDOF 15
