REMARK SMILES C[C@@H]1CN(C(=O)N2c3ccccc3C[C@@H]2C(=O)NCCCCCCNC(=O)c2ccc(-c3c4nc(c(-c5ccccc5)c5ccc([nH]5)c(-c5ccccc5)c5nc(c(-c6ccccc6)c6ccc3[nH]6)C=C5)C=C4)cc2)C[C@@H]1C
REMARK SMILES IDX 21 1 20 2 19 3 18 4 16 5 17 6 15 8 7 9 8 10 9 11 13 12 14 13
REMARK SMILES IDX 10 14 12 15 11 16 5 17 6 18 4 19 1 20 2 21 3 22 77 23 76 24
REMARK SMILES IDX 78 25 22 26 23 27 24 28 25 29 26 30 27 32 28 33 29 34 75 35
REMARK SMILES IDX 30 36 74 37 31 38 32 39 33 40 68 41 34 42 73 43 67 44 69 45
REMARK SMILES IDX 35 46 72 47 66 48 65 49 36 51 58 52 43 53 57 54 44 55 47 56
REMARK SMILES IDX 56 57 70 58 45 59 46 60 55 62 71 63 48 64 37 65 38 66 42 67
REMARK SMILES IDX 39 68 41 69 40 70 59 71 60 72 64 73 61 74 63 75 62 76 49 77
REMARK SMILES IDX 50 78 54 79 51 80 53 81 52 82
REMARK H PARENT 18 7 25 31 69 50 47 61
REMARK Flexibility Score: inf
ROOT
ATOM      1  C   UNL     1       2.508  -2.558   3.440  1.00  0.00     0.002 C 
ENDROOT
BRANCH   1   2
ATOM      2  C   UNL     1       1.116  -3.102   3.102  1.00  0.00     0.021 C 
BRANCH   2   3
ATOM      3  C   UNL     1       0.251  -3.515   4.297  1.00  0.00     0.116 C 
BRANCH   3   4
ATOM      4  N   UNL     1      -0.466  -2.363   4.817  1.00  0.00    -0.354 N 
ATOM      5  C   UNL     1      -1.687  -1.858   4.465  1.00  0.00     0.243 C 
ATOM      6  O   UNL     1      -1.901  -0.687   4.798  1.00  0.00    -0.273 OA
ATOM      7  H   UNL     1      -0.001  -1.870   5.531  1.00  0.00     0.163 HD
BRANCH   5   8
ATOM      8  C   UNL     1      -2.735  -2.700   3.688  1.00  0.00     0.186 C 
ATOM      9  N   UNL     1      -2.627  -2.543   2.215  1.00  0.00    -0.281 N 
ATOM     10  C   UNL     1      -3.796  -1.927   1.728  1.00  0.00     0.050 A 
ATOM     11  C   UNL     1      -4.200  -1.732   0.416  1.00  0.00     0.027 A 
ATOM     12  C   UNL     1      -4.624  -1.561   2.782  1.00  0.00    -0.021 A 
ATOM     13  C   UNL     1      -4.148  -2.173   4.064  1.00  0.00     0.073 C 
ATOM     14  C   UNL     1      -5.365  -1.001   0.175  1.00  0.00     0.002 A 
ATOM     15  C   UNL     1      -5.785  -0.834   2.561  1.00  0.00     0.006 A 
ATOM     16  C   UNL     1      -6.135  -0.525   1.244  1.00  0.00     0.000 A 
BRANCH   9  17
ATOM     17  C   UNL     1      -1.726  -3.229   1.446  1.00  0.00     0.325 C 
ATOM     18  O   UNL     1      -1.411  -4.391   1.716  1.00  0.00    -0.248 OA
BRANCH  17  19
ATOM     19  N   UNL     1      -1.106  -2.534   0.425  1.00  0.00    -0.324 N 
ATOM     20  C   UNL     1       0.541   0.504  -0.932  1.00  0.00     0.010 C 
ATOM     21  C   UNL     1      -0.145  -0.854  -0.948  1.00  0.00     0.010 C 
ATOM     22  C   UNL     1      -1.019  -1.082   0.288  1.00  0.00     0.125 C 
ATOM     23  C   UNL     1       0.781  -2.079  -0.948  1.00  0.00     0.010 C 
ATOM     24  C   UNL     1      -0.157  -3.192  -0.455  1.00  0.00     0.125 C 
ATOM     25  C   UNL     1       2.001  -1.909  -0.051  1.00  0.00     0.010 C 
ENDBRANCH  17  19
ENDBRANCH   9  17
ENDBRANCH   5   8
ENDBRANCH   3   4
ENDBRANCH   2   3
ENDBRANCH   1   2
BRANCH   1  26
ATOM     26  C   UNL     1       3.582  -3.595   3.772  1.00  0.00     0.002 C 
BRANCH  26  27
ATOM     27  C   UNL     1       3.800  -4.774   2.813  1.00  0.00     0.021 C 
BRANCH  27  28
ATOM     28  C   UNL     1       4.313  -4.535   1.389  1.00  0.00     0.116 C 
BRANCH  28  29
ATOM     29  N   UNL     1       5.355  -3.537   1.240  1.00  0.00    -0.352 N 
ATOM     30  C   UNL     1       6.281  -3.443   0.224  1.00  0.00     0.251 C 
ATOM     31  H   UNL     1       5.407  -2.850   1.943  1.00  0.00     0.163 HD
ATOM     32  O   UNL     1       7.143  -2.570   0.228  1.00  0.00    -0.269 OA
BRANCH  30  33
ATOM     33  C   UNL     1       6.252  -4.435  -0.874  1.00  0.00     0.039 A 
ATOM     34  C   UNL     1       7.328  -5.314  -1.020  1.00  0.00     0.014 A 
ATOM     35  C   UNL     1       5.157  -4.507  -1.740  1.00  0.00     0.014 A 
ATOM     36  C   UNL     1       7.274  -6.319  -1.991  1.00  0.00     0.010 A 
ATOM     37  C   UNL     1       5.095  -5.527  -2.694  1.00  0.00     0.010 A 
ATOM     38  C   UNL     1       6.142  -6.457  -2.812  1.00  0.00    -0.014 A 
BRANCH  38  39
ATOM     39  C   UNL     1       6.013  -7.612  -3.742  1.00  0.00     0.031 A 
ATOM     40  C   UNL     1       6.081  -7.422  -5.231  1.00  0.00     0.074 A 
ATOM     41  C   UNL     1       5.788  -8.841  -3.236  1.00  0.00     0.049 A 
ATOM     42  N   UNL     1       5.949  -8.315  -6.181  1.00  0.00    -0.248 NA
ATOM     43  C   UNL     1       6.321  -6.056  -5.717  1.00  0.00     0.031 C 
ATOM     44  C   UNL     1       5.682  -9.165  -1.812  1.00  0.00     0.029 A 
ATOM     45  N   UNL     1       5.601 -10.049  -3.865  1.00  0.00    -0.354 N 
ATOM     46  C   UNL     1       6.094  -7.622  -7.376  1.00  0.00     0.074 A 
ATOM     47  C   UNL     1       6.284  -6.228  -7.032  1.00  0.00     0.031 C 
ATOM     48  C   UNL     1       5.465 -10.483  -1.675  1.00  0.00     0.029 A 
ATOM     49  C   UNL     1       5.380 -11.093  -2.999  1.00  0.00     0.049 A 
ATOM     50  H   UNL     1       5.624 -10.156  -4.843  1.00  0.00     0.167 HD
ATOM     51  C   UNL     1       6.087  -8.103  -8.643  1.00  0.00     0.031 A 
ATOM     52  C   UNL     1       5.126 -12.393  -3.240  1.00  0.00     0.031 A 
ATOM     53  C   UNL     1       5.888  -9.485  -8.995  1.00  0.00     0.049 A 
ATOM     54  C   UNL     1       5.065 -12.887  -4.659  1.00  0.00     0.074 A 
ATOM     55  C   UNL     1       5.889 -10.062 -10.255  1.00  0.00     0.029 A 
ATOM     56  N   UNL     1       5.650 -10.505  -8.089  1.00  0.00    -0.354 N 
ATOM     57  N   UNL     1       5.258 -12.225  -5.772  1.00  0.00    -0.248 NA
ATOM     58  C   UNL     1       4.756 -14.312  -4.851  1.00  0.00     0.031 C 
ATOM     59  C   UNL     1       5.610 -11.425 -10.113  1.00  0.00     0.029 A 
ATOM     60  C   UNL     1       5.481 -11.704  -8.763  1.00  0.00     0.049 A 
ATOM     61  H   UNL     1       5.607 -10.395  -7.112  1.00  0.00     0.167 HD
ATOM     62  C   UNL     1       5.122 -13.156  -6.794  1.00  0.00     0.074 A 
ATOM     63  C   UNL     1       4.847 -14.432  -6.168  1.00  0.00     0.031 C 
ATOM     64  C   UNL     1       5.215 -12.969  -8.132  1.00  0.00     0.031 A 
BRANCH  51  65
ATOM     65  C   UNL     1       6.307  -7.122  -9.760  1.00  0.00    -0.014 A 
ATOM     66  C   UNL     1       7.582  -6.588 -10.006  1.00  0.00     0.009 A 
ATOM     67  C   UNL     1       5.250  -6.783 -10.619  1.00  0.00     0.009 A 
ATOM     68  C   UNL     1       7.788  -5.715 -11.076  1.00  0.00     0.001 A 
ATOM     69  C   UNL     1       5.464  -5.928 -11.702  1.00  0.00     0.001 A 
ATOM     70  C   UNL     1       6.731  -5.391 -11.926  1.00  0.00     0.000 A 
ENDBRANCH  51  65
BRANCH  52  71
ATOM     71  C   UNL     1       4.901 -13.337  -2.113  1.00  0.00    -0.014 A 
ATOM     72  C   UNL     1       5.843 -14.335  -1.821  1.00  0.00     0.009 A 
ATOM     73  C   UNL     1       3.724 -13.270  -1.351  1.00  0.00     0.009 A 
ATOM     74  C   UNL     1       5.595 -15.269  -0.813  1.00  0.00     0.001 A 
ATOM     75  C   UNL     1       3.492 -14.188  -0.325  1.00  0.00     0.001 A 
ATOM     76  C   UNL     1       4.421 -15.194  -0.065  1.00  0.00     0.000 A 
ENDBRANCH  52  71
BRANCH  64  77
ATOM     77  C   UNL     1       5.053 -14.178  -9.009  1.00  0.00    -0.014 A 
ATOM     78  C   UNL     1       3.794 -14.759  -9.219  1.00  0.00     0.009 A 
ATOM     79  C   UNL     1       6.172 -14.718  -9.662  1.00  0.00     0.009 A 
ATOM     80  C   UNL     1       3.662 -15.877 -10.045  1.00  0.00     0.001 A 
ATOM     81  C   UNL     1       6.033 -15.820 -10.507  1.00  0.00     0.001 A 
ATOM     82  C   UNL     1       4.780 -16.403 -10.692  1.00  0.00     0.000 A 
ENDBRANCH  64  77
ENDBRANCH  38  39
ENDBRANCH  30  33
ENDBRANCH  28  29
ENDBRANCH  27  28
ENDBRANCH  26  27
ENDBRANCH   1  26
TORSDOF 15
