REMARK SMILES O=C(CC1CC[NH+](C[C@H]2Cc3ccccc3O2)CC1)NCCCCCCNC(=O)c1ccc(-c2c3nc(c(-c4ccccc4)c4ccc([nH]4)c(-c4ccccc4)c4nc(c(-c5ccccc5)c5ccc2[nH]5)C=C4)C=C3)cc1
REMARK SMILES IDX 23 1 22 2 21 3 20 4 1 5 2 6 3 8 4 9 5 10 19 11 6 12 18 13
REMARK SMILES IDX 7 14 8 16 9 17 10 18 17 19 11 20 16 21 12 22 15 23 13 24
REMARK SMILES IDX 14 25 24 26 25 27 26 28 27 29 28 30 29 32 30 33 31 34 77 35
REMARK SMILES IDX 32 36 76 37 33 38 34 39 35 40 70 41 36 42 75 43 69 44 71 45
REMARK SMILES IDX 37 46 74 47 68 48 67 49 38 51 60 52 45 53 59 54 46 55 49 56
REMARK SMILES IDX 58 57 72 58 47 59 48 60 57 62 73 63 50 64 39 65 40 66 44 67
REMARK SMILES IDX 41 68 43 69 42 70 61 71 62 72 66 73 63 74 65 75 64 76 51 77
REMARK SMILES IDX 52 78 56 79 53 80 55 81 54 82
REMARK H PARENT 20 7 7 15 27 31 71 50 49 61
REMARK Flexibility Score: inf
ROOT
ATOM      1  C   UNL     1       5.024   0.797   4.050  1.00  0.00     0.002 C 
ENDROOT
BRANCH   1   2
ATOM      2  C   UNL     1       3.629   0.280   3.698  1.00  0.00     0.021 C 
BRANCH   2   3
ATOM      3  C   UNL     1       3.171   0.557   2.271  1.00  0.00     0.116 C 
BRANCH   3   4
ATOM      4  N   UNL     1       4.104   0.119   1.248  1.00  0.00    -0.356 N 
ATOM      5  O   UNL     1       2.505  -0.335  -0.328  1.00  0.00    -0.275 OA
ATOM      6  C   UNL     1       3.671  -0.181  -0.028  1.00  0.00     0.220 C 
ATOM      7  H   UNL     1       5.060   0.035   1.468  1.00  0.00     0.163 HD
BRANCH   6   8
ATOM      8  C   UNL     1       4.763  -0.297  -1.067  1.00  0.00     0.104 C 
BRANCH   8   9
ATOM      9  C   UNL     1       5.088   0.973  -1.879  1.00  0.00     0.009 C 
ATOM     10  C   UNL     1       5.359   2.232  -1.055  1.00  0.00     0.066 C 
ATOM     11  C   UNL     1       4.086   1.324  -2.984  1.00  0.00     0.066 C 
ATOM     12  C   UNL     1       4.097   2.973  -0.590  1.00  0.00     0.262 C 
ATOM     13  C   UNL     1       2.835   2.052  -2.493  1.00  0.00     0.262 C 
ATOM     14  N   UNL     1       3.085   3.189  -1.620  1.00  0.00    -0.332 N 
ATOM     15  H   UNL     1       3.500   3.847  -2.280  1.00  0.00     0.348 HD
BRANCH  14  16
ATOM     16  C   UNL     1       1.884   3.892  -1.097  1.00  0.00     0.308 C 
BRANCH  16  17
ATOM     17  C   UNL     1       0.456   3.298  -0.828  1.00  0.00     0.232 C 
ATOM     18  C   UNL     1      -0.241   2.543  -1.968  1.00  0.00     0.090 C 
ATOM     19  O   UNL     1       0.369   2.521   0.401  1.00  0.00    -0.484 OA
ATOM     20  C   UNL     1      -0.338   1.199  -1.359  1.00  0.00    -0.002 A 
ATOM     21  C   UNL     1      -0.100   1.294   0.001  1.00  0.00     0.123 A 
ATOM     22  C   UNL     1      -0.609  -0.024  -1.950  1.00  0.00     0.007 A 
ATOM     23  C   UNL     1      -0.249   0.205   0.839  1.00  0.00     0.047 A 
ATOM     24  C   UNL     1      -0.663  -1.157  -1.133  1.00  0.00     0.001 A 
ATOM     25  C   UNL     1      -0.515  -1.039   0.259  1.00  0.00     0.004 A 
ENDBRANCH  16  17
ENDBRANCH  14  16
ENDBRANCH   8   9
ENDBRANCH   6   8
ENDBRANCH   3   4
ENDBRANCH   2   3
ENDBRANCH   1   2
BRANCH   1  26
ATOM     26  C   UNL     1       5.243   2.300   3.854  1.00  0.00     0.002 C 
BRANCH  26  27
ATOM     27  C   UNL     1       4.384   3.216   4.731  1.00  0.00     0.021 C 
BRANCH  27  28
ATOM     28  C   UNL     1       4.390   2.894   6.223  1.00  0.00     0.116 C 
BRANCH  28  29
ATOM     29  N   UNL     1       5.731   2.778   6.774  1.00  0.00    -0.352 N 
ATOM     30  C   UNL     1       6.223   3.204   7.979  1.00  0.00     0.251 C 
ATOM     31  H   UNL     1       6.383   2.326   6.192  1.00  0.00     0.163 HD
ATOM     32  O   UNL     1       7.421   3.105   8.224  1.00  0.00    -0.269 OA
BRANCH  30  33
ATOM     33  C   UNL     1       5.318   3.806   8.978  1.00  0.00     0.039 A 
ATOM     34  C   UNL     1       5.726   4.978   9.622  1.00  0.00     0.014 A 
ATOM     35  C   UNL     1       4.092   3.215   9.297  1.00  0.00     0.014 A 
ATOM     36  C   UNL     1       4.883   5.582  10.554  1.00  0.00     0.010 A 
ATOM     37  C   UNL     1       3.227   3.851  10.183  1.00  0.00     0.010 A 
ATOM     38  C   UNL     1       3.619   5.035  10.825  1.00  0.00    -0.014 A 
BRANCH  38  39
ATOM     39  C   UNL     1       2.703   5.696  11.782  1.00  0.00     0.031 A 
ATOM     40  C   UNL     1       2.374   5.043  13.094  1.00  0.00     0.074 A 
ATOM     41  C   UNL     1       2.139   6.873  11.450  1.00  0.00     0.049 A 
ATOM     42  N   UNL     1       1.615   5.482  14.066  1.00  0.00    -0.248 NA
ATOM     43  C   UNL     1       2.953   3.712  13.336  1.00  0.00     0.031 C 
ATOM     44  C   UNL     1       2.346   7.584  10.187  1.00  0.00     0.029 A 
ATOM     45  N   UNL     1       1.283   7.681  12.153  1.00  0.00    -0.354 N 
ATOM     46  C   UNL     1       1.613   4.476  15.024  1.00  0.00     0.074 A 
ATOM     47  C   UNL     1       2.408   3.388  14.499  1.00  0.00     0.031 C 
ATOM     48  C   UNL     1       1.669   8.743  10.222  1.00  0.00     0.029 A 
ATOM     49  C   UNL     1       0.962   8.842  11.494  1.00  0.00     0.049 A 
ATOM     50  H   UNL     1       0.933   7.451  13.043  1.00  0.00     0.167 HD
ATOM     51  C   UNL     1       1.015   4.467  16.240  1.00  0.00     0.031 A 
ATOM     52  C   UNL     1       0.195   9.877  11.880  1.00  0.00     0.031 A 
ATOM     53  C   UNL     1       0.237   5.556  16.767  1.00  0.00     0.049 A 
ATOM     54  C   UNL     1      -0.448   9.847  13.237  1.00  0.00     0.074 A 
ATOM     55  C   UNL     1      -0.346   5.676  18.016  1.00  0.00     0.029 A 
ATOM     56  N   UNL     1      -0.071   6.712  16.067  1.00  0.00    -0.354 N 
ATOM     57  N   UNL     1      -0.373   8.927  14.167  1.00  0.00    -0.248 NA
ATOM     58  C   UNL     1      -1.272  11.009  13.600  1.00  0.00     0.031 C 
ATOM     59  C   UNL     1      -1.045   6.888  18.056  1.00  0.00     0.029 A 
ATOM     60  C   UNL     1      -0.859   7.541  16.849  1.00  0.00     0.049 A 
ATOM     61  H   UNL     1       0.226   6.915  15.151  1.00  0.00     0.167 HD
ATOM     62  C   UNL     1      -1.119   9.407  15.235  1.00  0.00     0.074 A 
ATOM     63  C   UNL     1      -1.625  10.707  14.841  1.00  0.00     0.031 C 
ATOM     64  C   UNL     1      -1.362   8.825  16.435  1.00  0.00     0.031 A 
BRANCH  51  65
ATOM     65  C   UNL     1       1.174   3.226  17.073  1.00  0.00    -0.014 A 
ATOM     66  C   UNL     1       2.407   2.892  17.657  1.00  0.00     0.009 A 
ATOM     67  C   UNL     1       0.072   2.383  17.286  1.00  0.00     0.009 A 
ATOM     68  C   UNL     1       2.543   1.717  18.400  1.00  0.00     0.001 A 
ATOM     69  C   UNL     1       0.204   1.224  18.052  1.00  0.00     0.001 A 
ATOM     70  C   UNL     1       1.441   0.886  18.599  1.00  0.00     0.000 A 
ENDBRANCH  51  65
BRANCH  52  71
ATOM     71  C   UNL     1       0.033  11.053  10.989  1.00  0.00    -0.014 A 
ATOM     72  C   UNL     1       0.682  12.260  11.290  1.00  0.00     0.009 A 
ATOM     73  C   UNL     1      -0.758  10.976   9.833  1.00  0.00     0.009 A 
ATOM     74  C   UNL     1       0.524  13.374  10.463  1.00  0.00     0.001 A 
ATOM     75  C   UNL     1      -0.895  12.084   8.995  1.00  0.00     0.001 A 
ATOM     76  C   UNL     1      -0.260  13.284   9.314  1.00  0.00     0.000 A 
ENDBRANCH  52  71
BRANCH  64  77
ATOM     77  C   UNL     1      -2.196   9.606  17.409  1.00  0.00    -0.014 A 
ATOM     78  C   UNL     1      -3.579   9.756  17.224  1.00  0.00     0.009 A 
ATOM     79  C   UNL     1      -1.590  10.185  18.535  1.00  0.00     0.009 A 
ATOM     80  C   UNL     1      -4.333  10.505  18.129  1.00  0.00     0.001 A 
ATOM     81  C   UNL     1      -2.352  10.911  19.452  1.00  0.00     0.001 A 
ATOM     82  C   UNL     1      -3.720  11.079  19.243  1.00  0.00     0.000 A 
ENDBRANCH  64  77
ENDBRANCH  38  39
ENDBRANCH  30  33
ENDBRANCH  28  29
ENDBRANCH  27  28
ENDBRANCH  26  27
ENDBRANCH   1  26
TORSDOF 16
