REMARK SMILES Cc1c(Cl)cccc1S(=O)(=O)N[C@H]1C=C[C@@H](C(=O)NCCCCCCNC(=O)c2ccc(-c3c4nc(c(-c5ccccc5)c5ccc([nH]5)c(-c5ccccc5)c5nc(c(-c6ccccc6)c6ccc3[nH]6)C=C5)C=C4)cc2)C1
REMARK SMILES IDX 22 1 21 2 20 3 19 4 17 5 18 6 16 8 13 9 14 10 77 11 15 12
REMARK SMILES IDX 12 13 9 15 10 16 11 17 8 18 1 19 2 20 3 21 4 22 5 23 7 24
REMARK SMILES IDX 6 25 23 26 24 27 25 28 26 29 27 30 28 32 29 33 30 34 76 35
REMARK SMILES IDX 31 36 75 37 32 38 33 39 34 40 69 41 35 42 74 43 68 44 70 45
REMARK SMILES IDX 36 46 73 47 67 48 66 49 37 51 59 52 44 53 58 54 45 55 48 56
REMARK SMILES IDX 57 57 71 58 46 59 47 60 56 62 72 63 49 64 38 65 39 66 43 67
REMARK SMILES IDX 40 68 42 69 41 70 60 71 61 72 65 73 62 74 64 75 63 76 50 77
REMARK SMILES IDX 51 78 55 79 52 80 54 81 53 82
REMARK H PARENT 19 7 12 14 26 31 70 50 48 61
REMARK Flexibility Score: inf
ROOT
ATOM      1  C   UNL     1       2.419   2.284   3.484  1.00  0.00     0.002 C 
ENDROOT
BRANCH   1   2
ATOM      2  C   UNL     1       1.466   3.056   2.564  1.00  0.00     0.021 C 
BRANCH   2   3
ATOM      3  C   UNL     1       2.129   3.817   1.407  1.00  0.00     0.116 C 
BRANCH   3   4
ATOM      4  N   UNL     1       2.838   2.960   0.469  1.00  0.00    -0.356 N 
ATOM      5  C   UNL     1       2.843   2.844  -0.886  1.00  0.00     0.226 C 
ATOM      6  O   UNL     1       3.593   1.968  -1.341  1.00  0.00    -0.274 OA
ATOM      7  H   UNL     1       3.447   2.326   0.912  1.00  0.00     0.163 HD
BRANCH   5   8
ATOM      8  C   UNL     1       1.976   3.651  -1.871  1.00  0.00     0.103 C 
ATOM      9  C   UNL     1      -0.479   3.836  -1.666  1.00  0.00     0.093 C 
ATOM     10  C   UNL     1       0.230   5.129  -1.375  1.00  0.00    -0.011 C 
ATOM     11  C   UNL     1       0.640   3.000  -2.289  1.00  0.00     0.042 C 
ATOM     12  C   UNL     1       1.561   5.028  -1.481  1.00  0.00    -0.016 C 
BRANCH   9  13
ATOM     13  N   UNL     1      -0.937   3.277  -0.387  1.00  0.00    -0.204 NA
ATOM     14  H   UNL     1      -0.153   2.756   0.008  1.00  0.00     0.142 HD
BRANCH  13  15
ATOM     15  S   UNL     1      -2.269   2.250  -0.364  1.00  0.00     0.241 S 
ATOM     16  O   UNL     1      -2.952   2.387  -1.630  1.00  0.00    -0.207 OA
ATOM     17  O   UNL     1      -2.933   2.584   0.882  1.00  0.00    -0.207 OA
BRANCH  15  18
ATOM     18  C   UNL     1      -1.815   0.520  -0.203  1.00  0.00     0.086 A 
ATOM     19  C   UNL     1       0.721   0.713   0.193  1.00  0.00     0.047 C 
ATOM     20  C   UNL     1      -0.543  -0.045   0.008  1.00  0.00    -0.012 A 
ATOM     21  C   UNL     1      -0.432  -1.457   0.059  1.00  0.00     0.045 A 
ATOM     22  Cl  UNL     1       1.101  -2.249   0.259  1.00  0.00    -0.084 Cl
ATOM     23  C   UNL     1      -1.546  -2.284  -0.049  1.00  0.00     0.021 A 
ATOM     24  C   UNL     1      -2.934  -0.339  -0.295  1.00  0.00     0.022 A 
ATOM     25  C   UNL     1      -2.803  -1.724  -0.212  1.00  0.00     0.003 A 
ENDBRANCH  15  18
ENDBRANCH  13  15
ENDBRANCH   9  13
ENDBRANCH   5   8
ENDBRANCH   3   4
ENDBRANCH   2   3
ENDBRANCH   1   2
BRANCH   1  26
ATOM     26  C   UNL     1       3.147   3.155   4.510  1.00  0.00     0.002 C 
BRANCH  26  27
ATOM     27  C   UNL     1       2.239   4.048   5.362  1.00  0.00     0.021 C 
BRANCH  27  28
ATOM     28  C   UNL     1       1.084   3.320   6.045  1.00  0.00     0.116 C 
BRANCH  28  29
ATOM     29  N   UNL     1       1.553   2.466   7.124  1.00  0.00    -0.352 N 
ATOM     30  C   UNL     1       1.278   2.561   8.465  1.00  0.00     0.251 C 
ATOM     31  H   UNL     1       2.144   1.725   6.858  1.00  0.00     0.163 HD
ATOM     32  O   UNL     1       1.942   1.939   9.287  1.00  0.00    -0.269 OA
BRANCH  30  33
ATOM     33  C   UNL     1       0.176   3.437   8.916  1.00  0.00     0.039 A 
ATOM     34  C   UNL     1       0.404   4.330   9.964  1.00  0.00     0.014 A 
ATOM     35  C   UNL     1      -1.078   3.375   8.299  1.00  0.00     0.014 A 
ATOM     36  C   UNL     1      -0.615   5.199  10.362  1.00  0.00     0.010 A 
ATOM     37  C   UNL     1      -2.068   4.290   8.649  1.00  0.00     0.010 A 
ATOM     38  C   UNL     1      -1.849   5.206   9.689  1.00  0.00    -0.014 A 
BRANCH  38  39
ATOM     39  C   UNL     1      -2.912   6.174  10.060  1.00  0.00     0.031 A 
ATOM     40  C   UNL     1      -4.222   5.691  10.621  1.00  0.00     0.074 A 
ATOM     41  C   UNL     1      -2.716   7.489   9.846  1.00  0.00     0.049 A 
ATOM     42  N   UNL     1      -5.267   6.388  10.991  1.00  0.00    -0.248 NA
ATOM     43  C   UNL     1      -4.389   4.236  10.763  1.00  0.00     0.031 C 
ATOM     44  C   UNL     1      -1.511   8.082   9.263  1.00  0.00     0.029 A 
ATOM     45  N   UNL     1      -3.531   8.567  10.091  1.00  0.00    -0.354 N 
ATOM     46  C   UNL     1      -6.217   5.458  11.394  1.00  0.00     0.074 A 
ATOM     47  C   UNL     1      -5.644   4.147  11.176  1.00  0.00     0.031 C 
ATOM     48  C   UNL     1      -1.653   9.416   9.223  1.00  0.00     0.029 A 
ATOM     49  C   UNL     1      -2.971   9.771   9.738  1.00  0.00     0.049 A 
ATOM     50  H   UNL     1      -4.431   8.485  10.482  1.00  0.00     0.167 HD
ATOM     51  C   UNL     1      -7.449   5.674  11.915  1.00  0.00     0.031 A 
ATOM     52  C   UNL     1      -3.465  11.021   9.813  1.00  0.00     0.031 A 
ATOM     53  C   UNL     1      -8.018   6.978  12.132  1.00  0.00     0.049 A 
ATOM     54  C   UNL     1      -4.839  11.235  10.384  1.00  0.00     0.074 A 
ATOM     55  C   UNL     1      -9.230   7.303  12.716  1.00  0.00     0.029 A 
ATOM     56  N   UNL     1      -7.419   8.172  11.762  1.00  0.00    -0.354 N 
ATOM     57  N   UNL     1      -5.689  10.349  10.844  1.00  0.00    -0.248 NA
ATOM     58  C   UNL     1      -5.315  12.623  10.458  1.00  0.00     0.031 C 
ATOM     59  C   UNL     1      -9.394   8.690  12.639  1.00  0.00     0.029 A 
ATOM     60  C   UNL     1      -8.253   9.235  12.072  1.00  0.00     0.049 A 
ATOM     61  H   UNL     1      -6.532   8.254  11.342  1.00  0.00     0.167 HD
ATOM     62  C   UNL     1      -6.790  11.073  11.283  1.00  0.00     0.074 A 
ATOM     63  C   UNL     1      -6.489  12.472  11.055  1.00  0.00     0.031 C 
ATOM     64  C   UNL     1      -7.947  10.621  11.827  1.00  0.00     0.031 A 
BRANCH  51  65
ATOM     65  C   UNL     1      -8.275   4.466  12.269  1.00  0.00    -0.014 A 
ATOM     66  C   UNL     1      -7.920   3.622  13.334  1.00  0.00     0.009 A 
ATOM     67  C   UNL     1      -9.444   4.186  11.545  1.00  0.00     0.009 A 
ATOM     68  C   UNL     1      -8.697   2.502  13.639  1.00  0.00     0.001 A 
ATOM     69  C   UNL     1     -10.236   3.084  11.873  1.00  0.00     0.001 A 
ATOM     70  C   UNL     1      -9.856   2.236  12.912  1.00  0.00     0.000 A 
ENDBRANCH  51  65
BRANCH  52  71
ATOM     71  C   UNL     1      -2.649  12.171   9.340  1.00  0.00    -0.014 A 
ATOM     72  C   UNL     1      -2.127  13.102  10.251  1.00  0.00     0.009 A 
ATOM     73  C   UNL     1      -2.386  12.341   7.971  1.00  0.00     0.009 A 
ATOM     74  C   UNL     1      -1.381  14.193   9.798  1.00  0.00     0.001 A 
ATOM     75  C   UNL     1      -1.614  13.415   7.525  1.00  0.00     0.001 A 
ATOM     76  C   UNL     1      -1.121  14.345   8.437  1.00  0.00     0.000 A 
ENDBRANCH  52  71
BRANCH  64  77
ATOM     77  C   UNL     1      -8.964  11.652  12.234  1.00  0.00    -0.014 A 
ATOM     78  C   UNL     1      -9.678  12.392  11.278  1.00  0.00     0.009 A 
ATOM     79  C   UNL     1      -9.232  11.862  13.596  1.00  0.00     0.009 A 
ATOM     80  C   UNL     1     -10.613  13.348  11.681  1.00  0.00     0.001 A 
ATOM     81  C   UNL     1     -10.191  12.795  13.994  1.00  0.00     0.001 A 
ATOM     82  C   UNL     1     -10.872  13.545  13.037  1.00  0.00     0.000 A 
ENDBRANCH  64  77
ENDBRANCH  38  39
ENDBRANCH  30  33
ENDBRANCH  28  29
ENDBRANCH  27  28
ENDBRANCH  26  27
ENDBRANCH   1  26
TORSDOF 16
