REMARK SMILES Cc1ccc(S(=O)(=O)n2cc(C(=O)C(=O)NCC(=O)NCC(=O)NCCCCCCNC(=O)c3ccc(-c4c5nc(c(-c6ccccc6)c6ccc([nH]6)c(-c6ccccc6)c6nc(c(-c7ccccc7)c7ccc4[nH]7)C=C6)C=C5)cc3)c3ccccc32)cc1
REMARK SMILES IDX 25 1 24 2 22 3 23 4 21 6 20 7 18 8 19 9 17 11 16 12 14 13
REMARK SMILES IDX 15 14 12 16 13 17 11 18 9 19 10 20 87 21 82 22 86 23 83 24
REMARK SMILES IDX 85 25 84 26 6 27 7 28 8 29 5 30 1 31 2 32 3 33 89 34 4 35
REMARK SMILES IDX 88 36 26 37 27 38 28 39 29 40 30 41 31 42 32 43 33 45 34 46
REMARK SMILES IDX 35 47 81 48 36 49 80 50 37 51 38 52 39 53 74 54 40 55 79 56
REMARK SMILES IDX 73 57 75 58 41 59 78 60 72 61 71 62 42 64 64 65 49 66 63 67
REMARK SMILES IDX 50 68 53 69 62 70 76 71 51 72 52 73 61 75 77 76 54 77 43 78
REMARK SMILES IDX 44 79 48 80 45 81 47 82 46 83 65 84 66 85 70 86 67 87 69 88
REMARK SMILES IDX 68 89 55 90 56 91 60 92 57 93 59 94 58 95
REMARK H PARENT 24 5 20 10 16 15 31 44 75 63 53 74
REMARK Flexibility Score: inf
ROOT
ATOM      1  C   UNL     1      -9.755   3.380   3.598  1.00  0.00     0.116 C 
ENDROOT
BRANCH   1   2
ATOM      2  N   UNL     1     -10.263   2.921   2.329  1.00  0.00    -0.355 N 
ATOM      3  C   UNL     1     -10.115   3.476   1.090  1.00  0.00     0.239 C 
ATOM      4  O   UNL     1     -10.420   2.783   0.116  1.00  0.00    -0.273 OA
ATOM      5  H   UNL     1     -10.790   2.090   2.360  1.00  0.00     0.163 HD
BRANCH   3   6
ATOM      6  C   UNL     1      -9.428   4.841   0.895  1.00  0.00     0.216 C 
BRANCH   6   7
ATOM      7  N   UNL     1      -9.891   5.896   1.783  1.00  0.00    -0.346 N 
ATOM      8  C   UNL     1      -9.212   6.678   2.668  1.00  0.00     0.239 C 
ATOM      9  O   UNL     1      -9.867   7.462   3.360  1.00  0.00    -0.273 OA
ATOM     10  H   UNL     1     -10.858   6.075   1.737  1.00  0.00     0.164 HD
BRANCH   8  11
ATOM     11  C   UNL     1      -7.679   6.620   2.795  1.00  0.00     0.216 C 
BRANCH  11  12
ATOM     12  N   UNL     1      -7.139   5.359   3.310  1.00  0.00    -0.340 N 
ATOM     13  C   UNL     1      -6.313   4.410   2.737  1.00  0.00     0.292 C 
ATOM     14  O   UNL     1      -6.062   3.390   3.372  1.00  0.00    -0.265 OA
ATOM     15  H   UNL     1      -7.414   5.149   4.232  1.00  0.00     0.164 HD
BRANCH  13  16
ATOM     16  C   UNL     1      -5.718   4.631   1.331  1.00  0.00     0.252 C 
ATOM     17  O   UNL     1      -5.815   5.757   0.852  1.00  0.00    -0.283 OA
BRANCH  16  18
ATOM     18  C   UNL     1      -5.052   3.574   0.558  1.00  0.00     0.054 A 
ATOM     19  N   UNL     1      -4.153   1.648  -0.132  1.00  0.00    -0.240 N 
ATOM     20  C   UNL     1      -4.848   2.246   0.893  1.00  0.00     0.117 A 
ATOM     21  C   UNL     1      -3.897   2.540  -1.152  1.00  0.00     0.065 A 
ATOM     22  C   UNL     1      -4.450   3.758  -0.739  1.00  0.00     0.012 A 
ATOM     23  C   UNL     1      -3.211   2.417  -2.375  1.00  0.00     0.028 A 
ATOM     24  C   UNL     1      -4.315   4.880  -1.589  1.00  0.00     0.011 A 
ATOM     25  C   UNL     1      -3.073   3.554  -3.177  1.00  0.00     0.002 A 
ATOM     26  C   UNL     1      -3.621   4.770  -2.794  1.00  0.00     0.001 A 
BRANCH  19  27
ATOM     27  S   UNL     1      -3.587   0.040  -0.089  1.00  0.00     0.268 S 
ATOM     28  O   UNL     1      -3.935  -0.521  -1.377  1.00  0.00    -0.201 OA
ATOM     29  O   UNL     1      -4.088  -0.520   1.157  1.00  0.00    -0.201 OA
BRANCH  27  30
ATOM     30  C   UNL     1      -1.816   0.081   0.026  1.00  0.00     0.088 A 
ATOM     31  C   UNL     1       2.486  -0.049   0.021  1.00  0.00     0.044 C 
ATOM     32  C   UNL     1       0.986   0.001   0.042  1.00  0.00    -0.051 A 
ATOM     33  C   UNL     1       0.246  -1.185  -0.036  1.00  0.00     0.005 A 
ATOM     34  C   UNL     1       0.309   1.223   0.140  1.00  0.00     0.005 A 
ATOM     35  C   UNL     1      -1.149  -1.147  -0.050  1.00  0.00     0.022 A 
ATOM     36  C   UNL     1      -1.089   1.267   0.145  1.00  0.00     0.022 A 
ENDBRANCH  27  30
ENDBRANCH  19  27
ENDBRANCH  16  18
ENDBRANCH  13  16
ENDBRANCH  11  12
ENDBRANCH   8  11
ENDBRANCH   6   7
ENDBRANCH   3   6
ENDBRANCH   1   2
BRANCH   1  37
ATOM     37  C   UNL     1     -10.819   3.483   4.681  1.00  0.00     0.021 C 
BRANCH  37  38
ATOM     38  C   UNL     1     -11.228   2.143   5.292  1.00  0.00     0.002 C 
BRANCH  38  39
ATOM     39  C   UNL     1     -10.076   1.252   5.782  1.00  0.00     0.002 C 
BRANCH  39  40
ATOM     40  C   UNL     1      -9.024   1.935   6.655  1.00  0.00     0.021 C 
BRANCH  40  41
ATOM     41  C   UNL     1      -9.542   2.395   8.005  1.00  0.00     0.116 C 
BRANCH  41  42
ATOM     42  N   UNL     1      -9.606   1.328   8.992  1.00  0.00    -0.352 N 
ATOM     43  C   UNL     1      -9.858   1.369  10.350  1.00  0.00     0.251 C 
ATOM     44  H   UNL     1      -9.443   0.426   8.633  1.00  0.00     0.163 HD
ATOM     45  O   UNL     1      -9.726   0.345  11.016  1.00  0.00    -0.269 OA
BRANCH  43  46
ATOM     46  C   UNL     1     -10.494   2.565  10.964  1.00  0.00     0.039 A 
ATOM     47  C   UNL     1     -11.546   2.294  11.851  1.00  0.00     0.014 A 
ATOM     48  C   UNL     1     -10.403   3.807  10.352  1.00  0.00     0.014 A 
ATOM     49  C   UNL     1     -12.677   3.092  11.812  1.00  0.00     0.010 A 
ATOM     50  C   UNL     1     -11.565   4.508  10.180  1.00  0.00     0.010 A 
ATOM     51  C   UNL     1     -12.713   4.096  10.854  1.00  0.00    -0.014 A 
BRANCH  51  52
ATOM     52  C   UNL     1     -13.901   4.826  10.487  1.00  0.00     0.031 A 
ATOM     53  C   UNL     1     -14.129   6.092  11.186  1.00  0.00     0.074 A 
ATOM     54  C   UNL     1     -14.648   4.370   9.460  1.00  0.00     0.049 A 
ATOM     55  N   UNL     1     -15.287   6.595  11.411  1.00  0.00    -0.248 NA
ATOM     56  C   UNL     1     -13.037   6.864  11.783  1.00  0.00     0.031 C 
ATOM     57  C   UNL     1     -15.694   5.055   8.714  1.00  0.00     0.029 A 
ATOM     58  N   UNL     1     -14.705   3.066   8.988  1.00  0.00    -0.354 N 
ATOM     59  C   UNL     1     -15.074   7.886  11.837  1.00  0.00     0.074 A 
ATOM     60  C   UNL     1     -13.683   7.953  12.206  1.00  0.00     0.031 C 
ATOM     61  C   UNL     1     -16.443   4.139   8.069  1.00  0.00     0.029 A 
ATOM     62  C   UNL     1     -15.996   2.822   8.505  1.00  0.00     0.049 A 
ATOM     63  H   UNL     1     -13.962   2.421   8.992  1.00  0.00     0.167 HD
ATOM     64  C   UNL     1     -16.049   8.808  11.623  1.00  0.00     0.031 A 
ATOM     65  C   UNL     1     -16.793   1.905   9.137  1.00  0.00     0.031 A 
ATOM     66  C   UNL     1     -17.200   8.181  10.979  1.00  0.00     0.049 A 
ATOM     67  C   UNL     1     -17.962   2.564   9.839  1.00  0.00     0.074 A 
ATOM     68  C   UNL     1     -17.562   8.085   9.645  1.00  0.00     0.029 A 
ATOM     69  N   UNL     1     -17.909   7.200  11.658  1.00  0.00    -0.354 N 
ATOM     70  N   UNL     1     -17.959   3.801  10.256  1.00  0.00    -0.248 NA
ATOM     71  C   UNL     1     -19.231   1.889  10.101  1.00  0.00     0.031 C 
ATOM     72  C   UNL     1     -18.449   6.985   9.517  1.00  0.00     0.029 A 
ATOM     73  C   UNL     1     -18.646   6.438  10.773  1.00  0.00     0.049 A 
ATOM     74  H   UNL     1     -17.889   7.066  12.633  1.00  0.00     0.167 HD
ATOM     75  C   UNL     1     -19.184   4.107  10.787  1.00  0.00     0.074 A 
ATOM     76  C   UNL     1     -19.941   2.873  10.681  1.00  0.00     0.031 C 
ATOM     77  C   UNL     1     -19.486   5.353  11.258  1.00  0.00     0.031 A 
BRANCH  64  78
ATOM     78  C   UNL     1     -15.840  10.299  11.666  1.00  0.00    -0.014 A 
ATOM     79  C   UNL     1     -16.712  11.123  10.931  1.00  0.00     0.009 A 
ATOM     80  C   UNL     1     -14.809  10.955  12.360  1.00  0.00     0.009 A 
ATOM     81  C   UNL     1     -16.532  12.507  10.838  1.00  0.00     0.001 A 
ATOM     82  C   UNL     1     -14.607  12.339  12.254  1.00  0.00     0.001 A 
ATOM     83  C   UNL     1     -15.467  13.115  11.488  1.00  0.00     0.000 A 
ENDBRANCH  64  78
BRANCH  65  84
ATOM     84  C   UNL     1     -16.009   0.751   9.682  1.00  0.00    -0.014 A 
ATOM     85  C   UNL     1     -15.371  -0.100   8.754  1.00  0.00     0.009 A 
ATOM     86  C   UNL     1     -15.534   0.775  11.002  1.00  0.00     0.009 A 
ATOM     87  C   UNL     1     -14.182  -0.758   9.088  1.00  0.00     0.001 A 
ATOM     88  C   UNL     1     -14.357   0.092  11.335  1.00  0.00     0.001 A 
ATOM     89  C   UNL     1     -13.652  -0.625  10.368  1.00  0.00     0.000 A 
ENDBRANCH  65  84
BRANCH  77  90
ATOM     90  C   UNL     1     -20.651   5.707  12.152  1.00  0.00    -0.014 A 
ATOM     91  C   UNL     1     -21.403   4.772  12.872  1.00  0.00     0.009 A 
ATOM     92  C   UNL     1     -20.931   7.070  12.410  1.00  0.00     0.009 A 
ATOM     93  C   UNL     1     -22.415   5.174  13.754  1.00  0.00     0.001 A 
ATOM     94  C   UNL     1     -21.891   7.476  13.337  1.00  0.00     0.001 A 
ATOM     95  C   UNL     1     -22.650   6.524  13.996  1.00  0.00     0.000 A 
ENDBRANCH  77  90
ENDBRANCH  51  52
ENDBRANCH  43  46
ENDBRANCH  41  42
ENDBRANCH  40  41
ENDBRANCH  39  40
ENDBRANCH  38  39
ENDBRANCH  37  38
ENDBRANCH   1  37
TORSDOF 20
