REMARK SMILES O=C(NCCCCCCNC(=O)[C@@H]1CCCN(c2ccc3cc(S(=O)(=O)N4CCCCC4)ccc3n2)C1)c1ccc(-c2c3nc(c(-c4ccccc4)c4ccc([nH]4)c(-c4ccccc4)c4nc(c(-c5ccccc5)c5ccc2[nH]5)C=C4)C=C3)cc1
REMARK SMILES IDX 7 1 6 2 5 3 4 4 3 5 1 6 2 7 38 9 39 10 85 11 40 12 84 13
REMARK SMILES IDX 41 14 42 15 43 16 78 17 44 18 83 19 77 20 79 21 45 22 82 23
REMARK SMILES IDX 76 24 75 25 46 27 68 28 53 29 67 30 54 31 57 32 66 33 80 34
REMARK SMILES IDX 55 35 56 36 65 38 81 39 58 40 47 41 48 42 52 43 49 44 51 45
REMARK SMILES IDX 50 46 69 47 70 48 74 49 71 50 73 51 72 52 59 53 60 54 64 55
REMARK SMILES IDX 61 56 63 57 62 58 8 59 9 60 10 61 11 62 12 64 13 65 14 66
REMARK SMILES IDX 37 67 15 68 17 69 16 70 18 71 19 72 36 73 20 74 35 75 21 76
REMARK SMILES IDX 34 77 22 78 33 79 23 80 24 81 25 82 26 83 27 84 28 85 32 86
REMARK SMILES IDX 29 87 31 88 30 89
REMARK H PARENT 3 8 79 26 57 37 10 63
REMARK Flexibility Score: inf
ROOT
ATOM      1  C   UNL     1       5.005   0.153   4.248  1.00  0.00     0.002 C 
ENDROOT
BRANCH   1   2
ATOM      2  C   UNL     1       4.347   1.351   3.555  1.00  0.00     0.002 C 
BRANCH   2   3
ATOM      3  C   UNL     1       4.770   1.548   2.101  1.00  0.00     0.021 C 
BRANCH   3   4
ATOM      4  C   UNL     1       4.529   0.332   1.221  1.00  0.00     0.116 C 
BRANCH   4   5
ATOM      5  N   UNL     1       3.113   0.036   1.069  1.00  0.00    -0.352 N 
ATOM      6  O   UNL     1       1.158  -0.148  -0.051  1.00  0.00    -0.269 OA
ATOM      7  C   UNL     1       2.382  -0.084  -0.086  1.00  0.00     0.251 C 
ATOM      8  H   UNL     1       2.612  -0.095   1.907  1.00  0.00     0.163 HD
BRANCH   7   9
ATOM      9  C   UNL     1       3.091  -0.115  -1.381  1.00  0.00     0.039 A 
ATOM     10  C   UNL     1       4.229  -0.911  -1.537  1.00  0.00     0.014 A 
ATOM     11  C   UNL     1       2.627   0.670  -2.437  1.00  0.00     0.014 A 
ATOM     12  C   UNL     1       4.982  -0.814  -2.698  1.00  0.00     0.010 A 
ATOM     13  C   UNL     1       3.331   0.689  -3.643  1.00  0.00     0.010 A 
ATOM     14  C   UNL     1       4.527  -0.035  -3.774  1.00  0.00    -0.014 A 
BRANCH  14  15
ATOM     15  C   UNL     1       5.274  -0.069  -5.055  1.00  0.00     0.031 A 
ATOM     16  C   UNL     1       5.929   1.161  -5.614  1.00  0.00     0.074 A 
ATOM     17  C   UNL     1       5.373  -1.246  -5.703  1.00  0.00     0.049 A 
ATOM     18  N   UNL     1       6.628   1.290  -6.715  1.00  0.00    -0.248 NA
ATOM     19  C   UNL     1       5.779   2.409  -4.849  1.00  0.00     0.031 C 
ATOM     20  C   UNL     1       4.779  -2.510  -5.254  1.00  0.00     0.029 A 
ATOM     21  N   UNL     1       6.022  -1.580  -6.863  1.00  0.00    -0.354 N 
ATOM     22  C   UNL     1       6.987   2.630  -6.784  1.00  0.00     0.074 A 
ATOM     23  C   UNL     1       6.406   3.280  -5.629  1.00  0.00     0.031 C 
ATOM     24  C   UNL     1       5.137  -3.488  -6.096  1.00  0.00     0.029 A 
ATOM     25  C   UNL     1       5.915  -2.911  -7.184  1.00  0.00     0.049 A 
ATOM     26  H   UNL     1       6.517  -0.930  -7.412  1.00  0.00     0.167 HD
ATOM     27  C   UNL     1       7.735   3.256  -7.724  1.00  0.00     0.031 A 
ATOM     28  C   UNL     1       6.370  -3.593  -8.249  1.00  0.00     0.031 A 
ATOM     29  C   UNL     1       8.298   2.604  -8.879  1.00  0.00     0.049 A 
ATOM     30  C   UNL     1       7.142  -2.858  -9.305  1.00  0.00     0.074 A 
ATOM     31  C   UNL     1       9.089   3.148  -9.877  1.00  0.00     0.029 A 
ATOM     32  N   UNL     1       8.121   1.266  -9.198  1.00  0.00    -0.354 N 
ATOM     33  N   UNL     1       7.502  -1.598  -9.337  1.00  0.00    -0.248 NA
ATOM     34  C   UNL     1       7.570  -3.641 -10.470  1.00  0.00     0.031 C 
ATOM     35  C   UNL     1       9.337   2.156 -10.830  1.00  0.00     0.029 A 
ATOM     36  C   UNL     1       8.762   0.974 -10.391  1.00  0.00     0.049 A 
ATOM     37  H   UNL     1       7.614   0.618  -8.656  1.00  0.00     0.167 HD
ATOM     38  C   UNL     1       8.220  -1.442 -10.514  1.00  0.00     0.074 A 
ATOM     39  C   UNL     1       8.263  -2.742 -11.154  1.00  0.00     0.031 C 
ATOM     40  C   UNL     1       8.792  -0.322 -11.019  1.00  0.00     0.031 A 
BRANCH  27  41
ATOM     41  C   UNL     1       7.965   4.735  -7.562  1.00  0.00    -0.014 A 
ATOM     42  C   UNL     1       8.794   5.241  -6.547  1.00  0.00     0.009 A 
ATOM     43  C   UNL     1       7.386   5.634  -8.472  1.00  0.00     0.009 A 
ATOM     44  C   UNL     1       9.010   6.617  -6.429  1.00  0.00     0.001 A 
ATOM     45  C   UNL     1       7.628   7.006  -8.370  1.00  0.00     0.001 A 
ATOM     46  C   UNL     1       8.432   7.497  -7.343  1.00  0.00     0.000 A 
ENDBRANCH  27  41
BRANCH  28  47
ATOM     47  C   UNL     1       6.089  -5.047  -8.375  1.00  0.00    -0.014 A 
ATOM     48  C   UNL     1       7.127  -5.986  -8.292  1.00  0.00     0.009 A 
ATOM     49  C   UNL     1       4.775  -5.503  -8.575  1.00  0.00     0.009 A 
ATOM     50  C   UNL     1       6.859  -7.349  -8.433  1.00  0.00     0.001 A 
ATOM     51  C   UNL     1       4.506  -6.867  -8.680  1.00  0.00     0.001 A 
ATOM     52  C   UNL     1       5.549  -7.789  -8.621  1.00  0.00     0.000 A 
ENDBRANCH  28  47
BRANCH  40  53
ATOM     53  C   UNL     1       9.549  -0.467 -12.310  1.00  0.00    -0.014 A 
ATOM     54  C   UNL     1       8.887  -0.699 -13.526  1.00  0.00     0.009 A 
ATOM     55  C   UNL     1      10.947  -0.344 -12.310  1.00  0.00     0.009 A 
ATOM     56  C   UNL     1       9.615  -0.844 -14.709  1.00  0.00     0.001 A 
ATOM     57  C   UNL     1      11.669  -0.454 -13.498  1.00  0.00     0.001 A 
ATOM     58  C   UNL     1      11.004  -0.716 -14.695  1.00  0.00     0.000 A 
ENDBRANCH  40  53
ENDBRANCH  14  15
ENDBRANCH   7   9
ENDBRANCH   4   5
ENDBRANCH   3   4
ENDBRANCH   2   3
ENDBRANCH   1   2
BRANCH   1  59
ATOM     59  C   UNL     1       6.541   0.152   4.210  1.00  0.00     0.021 C 
BRANCH  59  60
ATOM     60  C   UNL     1       7.165   1.397   4.838  1.00  0.00     0.116 C 
BRANCH  60  61
ATOM     61  N   UNL     1       6.816   1.449   6.244  1.00  0.00    -0.356 N 
ATOM     62  C   UNL     1       7.600   1.214   7.335  1.00  0.00     0.224 C 
ATOM     63  H   UNL     1       5.881   1.689   6.439  1.00  0.00     0.163 HD
ATOM     64  O   UNL     1       7.035   0.947   8.393  1.00  0.00    -0.275 OA
BRANCH  62  65
ATOM     65  C   UNL     1       9.107   1.360   7.195  1.00  0.00     0.098 C 
ATOM     66  C   UNL     1       9.877   0.765   8.386  1.00  0.00     0.017 C 
ATOM     67  C   UNL     1       9.440   2.843   6.997  1.00  0.00     0.131 C 
ATOM     68  C   UNL     1       9.836   1.636   9.647  1.00  0.00     0.022 C 
ATOM     69  N   UNL     1       9.346   3.552   8.261  1.00  0.00    -0.356 N 
ATOM     70  C   UNL     1      10.185   3.098   9.356  1.00  0.00     0.118 C 
BRANCH  69  71
ATOM     71  C   UNL     1       8.548   4.655   8.436  1.00  0.00     0.129 A 
ATOM     72  C   UNL     1       7.207   4.643   8.061  1.00  0.00     0.047 A 
ATOM     73  N   UNL     1       9.095   5.746   9.005  1.00  0.00    -0.231 NA
ATOM     74  C   UNL     1       6.408   5.761   8.278  1.00  0.00     0.014 A 
ATOM     75  C   UNL     1       8.341   6.841   9.180  1.00  0.00     0.073 A 
ATOM     76  C   UNL     1       6.976   6.899   8.840  1.00  0.00     0.002 A 
ATOM     77  C   UNL     1       8.931   7.974   9.708  1.00  0.00     0.030 A 
ATOM     78  C   UNL     1       6.230   8.069   9.059  1.00  0.00     0.032 A 
ATOM     79  C   UNL     1       8.206   9.152   9.912  1.00  0.00     0.024 A 
ATOM     80  C   UNL     1       6.850   9.200   9.597  1.00  0.00     0.083 A 
BRANCH  80  81
ATOM     81  S   UNL     1       5.827  10.646   9.822  1.00  0.00     0.243 S 
ATOM     82  O   UNL     1       5.381  11.025   8.498  1.00  0.00    -0.207 OA
ATOM     83  O   UNL     1       4.883  10.306  10.867  1.00  0.00    -0.207 OA
BRANCH  81  84
ATOM     84  N   UNL     1       6.830  11.898  10.411  1.00  0.00    -0.198 NA
ATOM     85  C   UNL     1       7.256  11.770  11.827  1.00  0.00     0.102 C 
ATOM     86  C   UNL     1       7.777  12.477   9.427  1.00  0.00     0.102 C 
ATOM     87  C   UNL     1       8.061  12.967  12.309  1.00  0.00     0.017 C 
ATOM     88  C   UNL     1       8.556  13.656   9.989  1.00  0.00     0.017 C 
ATOM     89  C   UNL     1       9.173  13.320  11.336  1.00  0.00     0.003 C 
ENDBRANCH  81  84
ENDBRANCH  80  81
ENDBRANCH  69  71
ENDBRANCH  62  65
ENDBRANCH  60  61
ENDBRANCH  59  60
ENDBRANCH   1  59
TORSDOF 16
