REMARK SMILES CCCn1nc(C(=O)NCCCCCCNC(=O)c2ccc(-c3c4nc(c(-c5ccccc5)c5ccc([nH]5)c(-c5ccccc5)c5nc(c(-c6ccccc6)c6ccc3[nH]6)C=C5)C=C4)cc2)c2c1CC[C@@H]([NH+]1CC[NH+](Cc3ccccn3)CC1)C2
REMARK SMILES IDX 12 1 11 2 10 3 9 4 7 5 8 6 6 8 4 9 5 10 68 11 67 12 69 13
REMARK SMILES IDX 85 14 70 15 71 16 3 17 2 18 1 19 72 20 73 21 84 22 74 24
REMARK SMILES IDX 83 25 75 26 76 28 77 29 78 30 82 31 79 32 81 33 80 34 13 35
REMARK SMILES IDX 14 36 15 37 16 38 17 39 18 41 19 42 20 43 66 44 21 45 65 46
REMARK SMILES IDX 22 47 23 48 24 49 59 50 25 51 64 52 58 53 60 54 26 55 63 56
REMARK SMILES IDX 57 57 56 58 27 60 49 61 34 62 48 63 35 64 38 65 47 66 61 67
REMARK SMILES IDX 36 68 37 69 46 71 62 72 39 73 28 74 29 75 33 76 30 77 32 78
REMARK SMILES IDX 31 79 50 80 51 81 55 82 52 83 54 84 53 85 40 86 41 87 45 88
REMARK SMILES IDX 42 89 44 90 43 91
REMARK H PARENT 9 7 72 23 75 27 16 40 60 59 38 70
REMARK Flexibility Score: inf
ROOT
ATOM      1  C   UNL     1      -2.162  -6.244   6.838  1.00  0.00     0.002 C 
ENDROOT
BRANCH   1   2
ATOM      2  C   UNL     1      -1.747  -5.607   5.515  1.00  0.00     0.021 C 
BRANCH   2   3
ATOM      3  C   UNL     1      -0.274  -5.822   5.116  1.00  0.00     0.116 C 
BRANCH   3   4
ATOM      4  N   UNL     1      -0.122  -6.476   3.827  1.00  0.00    -0.351 N 
ATOM      5  C   UNL     1       0.286  -6.093   2.567  1.00  0.00     0.272 C 
ATOM      6  O   UNL     1       0.562  -7.045   1.827  1.00  0.00    -0.267 OA
ATOM      7  H   UNL     1      -0.373  -7.427   3.862  1.00  0.00     0.163 HD
BRANCH   5   8
ATOM      8  C   UNL     1       0.363  -4.691   2.075  1.00  0.00     0.153 A 
ATOM      9  N   UNL     1       0.747  -3.158   0.583  1.00  0.00    -0.269 N 
ATOM     10  N   UNL     1       1.002  -4.444   0.908  1.00  0.00    -0.167 NA
ATOM     11  C   UNL     1       0.061  -2.525   1.574  1.00  0.00     0.043 A 
ATOM     12  C   UNL     1      -0.222  -3.480   2.529  1.00  0.00     0.012 A 
ATOM     13  C   UNL     1      -0.462  -1.141   1.612  1.00  0.00     0.062 C 
ATOM     14  C   UNL     1      -1.093  -3.188   3.689  1.00  0.00     0.105 C 
ATOM     15  C   UNL     1      -0.894  -0.780   3.033  1.00  0.00     0.072 C 
ATOM     16  C   UNL     1      -1.809  -1.826   3.679  1.00  0.00     0.189 C 
BRANCH   9  17
ATOM     17  C   UNL     1       1.115  -2.752  -0.766  1.00  0.00     0.144 C 
BRANCH  17  18
ATOM     18  C   UNL     1       0.840  -1.327  -1.256  1.00  0.00     0.020 C 
ATOM     19  C   UNL     1       1.876  -0.314  -0.787  1.00  0.00     0.006 C 
ENDBRANCH  17  18
ENDBRANCH   9  17
BRANCH  16  20
ATOM     20  N   UNL     1      -3.191  -1.897   3.201  1.00  0.00    -0.323 N 
ATOM     21  C   UNL     1      -3.537  -2.602   1.978  1.00  0.00     0.324 C 
ATOM     22  C   UNL     1      -4.062  -0.784   3.572  1.00  0.00     0.324 C 
ATOM     23  H   UNL     1      -3.450  -2.665   3.820  1.00  0.00     0.348 HD
ATOM     24  C   UNL     1      -4.088  -1.753   0.806  1.00  0.00     0.324 C 
ATOM     25  C   UNL     1      -5.166  -0.435   2.550  1.00  0.00     0.324 C 
ATOM     26  N   UNL     1      -4.766  -0.506   1.148  1.00  0.00    -0.321 N 
ATOM     27  H   UNL     1      -5.653  -0.559   0.646  1.00  0.00     0.348 HD
BRANCH  26  28
ATOM     28  C   UNL     1      -4.250   0.725   0.532  1.00  0.00     0.319 C 
BRANCH  28  29
ATOM     29  C   UNL     1      -3.073   1.465   1.158  1.00  0.00     0.095 A 
ATOM     30  C   UNL     1      -1.849   1.546   0.491  1.00  0.00     0.030 A 
ATOM     31  N   UNL     1      -3.272   2.101   2.344  1.00  0.00    -0.255 NA
ATOM     32  C   UNL     1      -0.783   2.222   1.091  1.00  0.00     0.004 A 
ATOM     33  C   UNL     1      -2.222   2.750   2.902  1.00  0.00     0.111 A 
ATOM     34  C   UNL     1      -0.965   2.822   2.329  1.00  0.00     0.020 A 
ENDBRANCH  28  29
ENDBRANCH  26  28
ENDBRANCH  16  20
ENDBRANCH   5   8
ENDBRANCH   3   4
ENDBRANCH   2   3
ENDBRANCH   1   2
BRANCH   1  35
ATOM     35  C   UNL     1      -1.412  -5.698   8.061  1.00  0.00     0.002 C 
BRANCH  35  36
ATOM     36  C   UNL     1      -1.627  -4.215   8.410  1.00  0.00     0.021 C 
BRANCH  36  37
ATOM     37  C   UNL     1      -3.051  -3.875   8.822  1.00  0.00     0.116 C 
BRANCH  37  38
ATOM     38  N   UNL     1      -3.503  -4.649   9.982  1.00  0.00    -0.352 N 
ATOM     39  C   UNL     1      -4.723  -4.641  10.621  1.00  0.00     0.251 C 
ATOM     40  H   UNL     1      -2.835  -5.266  10.360  1.00  0.00     0.163 HD
ATOM     41  O   UNL     1      -4.839  -5.107  11.756  1.00  0.00    -0.269 OA
BRANCH  39  42
ATOM     42  C   UNL     1      -5.893  -4.071   9.938  1.00  0.00     0.039 A 
ATOM     43  C   UNL     1      -6.897  -3.391  10.632  1.00  0.00     0.014 A 
ATOM     44  C   UNL     1      -5.973  -4.227   8.557  1.00  0.00     0.014 A 
ATOM     45  C   UNL     1      -7.942  -2.827   9.906  1.00  0.00     0.010 A 
ATOM     46  C   UNL     1      -6.863  -3.489   7.833  1.00  0.00     0.010 A 
ATOM     47  C   UNL     1      -7.904  -2.873   8.502  1.00  0.00    -0.014 A 
BRANCH  47  48
ATOM     48  C   UNL     1      -8.916  -2.228   7.689  1.00  0.00     0.031 A 
ATOM     49  C   UNL     1      -9.073  -0.783   7.955  1.00  0.00     0.074 A 
ATOM     50  C   UNL     1      -9.538  -2.831   6.654  1.00  0.00     0.049 A 
ATOM     51  N   UNL     1     -10.025  -0.229   8.623  1.00  0.00    -0.248 NA
ATOM     52  C   UNL     1      -7.983   0.132   7.585  1.00  0.00     0.031 C 
ATOM     53  C   UNL     1      -9.276  -4.142   6.045  1.00  0.00     0.029 A 
ATOM     54  N   UNL     1     -10.506  -2.322   5.851  1.00  0.00    -0.354 N 
ATOM     55  C   UNL     1      -9.773   1.134   8.589  1.00  0.00     0.074 A 
ATOM     56  C   UNL     1      -8.423   1.282   8.103  1.00  0.00     0.031 C 
ATOM     57  C   UNL     1      -9.898  -4.216   4.844  1.00  0.00     0.029 A 
ATOM     58  C   UNL     1     -10.741  -3.045   4.690  1.00  0.00     0.049 A 
ATOM     59  H   UNL     1     -11.003  -1.503   6.075  1.00  0.00     0.167 HD
ATOM     60  C   UNL     1     -10.787   2.032   8.733  1.00  0.00     0.031 A 
ATOM     61  C   UNL     1     -11.560  -2.679   3.674  1.00  0.00     0.031 A 
ATOM     62  C   UNL     1     -12.004   1.387   9.164  1.00  0.00     0.049 A 
ATOM     63  C   UNL     1     -12.516  -1.686   4.221  1.00  0.00     0.074 A 
ATOM     64  C   UNL     1     -12.376   0.649  10.270  1.00  0.00     0.029 A 
ATOM     65  N   UNL     1     -12.925   1.092   8.184  1.00  0.00    -0.354 N 
ATOM     66  N   UNL     1     -13.424  -1.985   5.105  1.00  0.00    -0.248 NA
ATOM     67  C   UNL     1     -12.159  -0.278   4.143  1.00  0.00     0.031 C 
ATOM     68  C   UNL     1     -13.193  -0.400   9.752  1.00  0.00     0.029 A 
ATOM     69  C   UNL     1     -13.343  -0.199   8.378  1.00  0.00     0.049 A 
ATOM     70  H   UNL     1     -13.228   1.700   7.471  1.00  0.00     0.167 HD
ATOM     71  C   UNL     1     -13.413  -0.918   5.992  1.00  0.00     0.074 A 
ATOM     72  C   UNL     1     -12.693   0.147   5.293  1.00  0.00     0.031 C 
ATOM     73  C   UNL     1     -13.732  -1.093   7.309  1.00  0.00     0.031 A 
BRANCH  60  74
ATOM     74  C   UNL     1     -10.808   3.390   8.088  1.00  0.00    -0.014 A 
ATOM     75  C   UNL     1     -11.885   4.247   8.375  1.00  0.00     0.009 A 
ATOM     76  C   UNL     1      -9.981   3.745   7.007  1.00  0.00     0.009 A 
ATOM     77  C   UNL     1     -12.165   5.356   7.570  1.00  0.00     0.001 A 
ATOM     78  C   UNL     1     -10.235   4.875   6.226  1.00  0.00     0.001 A 
ATOM     79  C   UNL     1     -11.345   5.664   6.490  1.00  0.00     0.000 A 
ENDBRANCH  60  74
BRANCH  61  80
ATOM     80  C   UNL     1     -11.402  -2.892   2.220  1.00  0.00    -0.014 A 
ATOM     81  C   UNL     1     -12.486  -2.691   1.349  1.00  0.00     0.009 A 
ATOM     82  C   UNL     1     -10.117  -2.986   1.656  1.00  0.00     0.009 A 
ATOM     83  C   UNL     1     -12.284  -2.530  -0.029  1.00  0.00     0.001 A 
ATOM     84  C   UNL     1      -9.915  -2.826   0.280  1.00  0.00     0.001 A 
ATOM     85  C   UNL     1     -10.997  -2.579  -0.559  1.00  0.00     0.000 A 
ENDBRANCH  61  80
BRANCH  73  86
ATOM     86  C   UNL     1     -14.326  -2.420   7.723  1.00  0.00    -0.014 A 
ATOM     87  C   UNL     1     -13.665  -3.652   7.567  1.00  0.00     0.009 A 
ATOM     88  C   UNL     1     -15.541  -2.404   8.423  1.00  0.00     0.009 A 
ATOM     89  C   UNL     1     -14.225  -4.834   8.067  1.00  0.00     0.001 A 
ATOM     90  C   UNL     1     -16.088  -3.579   8.941  1.00  0.00     0.001 A 
ATOM     91  C   UNL     1     -15.434  -4.795   8.757  1.00  0.00     0.000 A 
ENDBRANCH  73  86
ENDBRANCH  47  48
ENDBRANCH  39  42
ENDBRANCH  37  38
ENDBRANCH  36  37
ENDBRANCH  35  36
ENDBRANCH   1  35
TORSDOF 18
