REMARK SMILES Cc1ccc(/C=C/C(=O)N2C[C@@H](O)C[C@H]2C(=O)NCCCCCCNC(=O)c2ccc(-c3c4nc(c(-c5ccccc5)c5ccc([nH]5)c(-c5ccccc5)c5nc(c(-c6ccccc6)c6ccc3[nH]6)C=C5)C=C4)cc2)c(C)c1
REMARK SMILES IDX 21 1 20 2 19 3 18 4 16 5 17 6 15 8 10 9 11 10 12 11 14 12
REMARK SMILES IDX 8 13 9 14 7 15 6 16 5 17 1 18 2 19 3 20 78 21 4 22 76 23
REMARK SMILES IDX 77 24 13 25 22 27 23 28 24 29 25 30 26 31 27 33 28 34 29 35
REMARK SMILES IDX 75 36 30 37 74 38 31 39 32 40 33 41 68 42 34 43 73 44 67 45
REMARK SMILES IDX 69 46 35 47 72 48 66 49 65 50 36 52 58 53 43 54 57 55 44 56
REMARK SMILES IDX 47 57 56 58 70 59 45 60 46 61 55 63 71 64 48 65 37 66 38 67
REMARK SMILES IDX 42 68 39 69 41 70 40 71 59 72 60 73 64 74 61 75 63 76 62 77
REMARK SMILES IDX 49 78 50 79 54 80 51 81 53 82 52 83
REMARK H PARENT 18 7 13 26 25 32 69 51 47 62
REMARK Flexibility Score: inf
ROOT
ATOM      1  C   UNL     1      -8.504  -3.524   3.601  1.00  0.00     0.002 C 
ENDROOT
BRANCH   1   2
ATOM      2  C   UNL     1      -7.140  -3.696   2.925  1.00  0.00     0.021 C 
BRANCH   2   3
ATOM      3  C   UNL     1      -7.130  -4.751   1.827  1.00  0.00     0.116 C 
BRANCH   3   4
ATOM      4  N   UNL     1      -7.808  -4.311   0.632  1.00  0.00    -0.354 N 
ATOM      5  C   UNL     1      -7.322  -4.100  -0.625  1.00  0.00     0.242 C 
ATOM      6  O   UNL     1      -8.156  -3.982  -1.530  1.00  0.00    -0.273 OA
ATOM      7  H   UNL     1      -8.771  -4.135   0.740  1.00  0.00     0.163 HD
BRANCH   5   8
ATOM      8  C   UNL     1      -5.820  -4.234  -0.960  1.00  0.00     0.177 C 
ATOM      9  N   UNL     1      -4.867  -3.525  -0.100  1.00  0.00    -0.324 N 
ATOM     10  C   UNL     1      -3.846  -4.411   0.435  1.00  0.00     0.152 C 
ATOM     11  C   UNL     1      -3.976  -5.704  -0.364  1.00  0.00     0.136 C 
ATOM     12  C   UNL     1      -5.402  -5.708  -0.907  1.00  0.00     0.069 C 
BRANCH   9  13
ATOM     13  C   UNL     1      -4.870  -2.149  -0.089  1.00  0.00     0.247 C 
ATOM     14  O   UNL     1      -5.814  -1.475  -0.491  1.00  0.00    -0.270 OA
BRANCH  13  15
ATOM     15  C   UNL     1      -3.663  -1.455   0.414  1.00  0.00     0.072 C 
ATOM     16  C   UNL     1      -2.552  -1.500  -0.338  1.00  0.00     0.014 C 
BRANCH  16  17
ATOM     17  C   UNL     1      -1.293  -0.788  -0.076  1.00  0.00    -0.023 A 
ATOM     18  C   UNL     1       2.639   1.013   0.090  1.00  0.00     0.044 C 
ATOM     19  C   UNL     1       1.282   0.372   0.085  1.00  0.00    -0.051 A 
ATOM     20  C   UNL     1       1.138  -1.014   0.053  1.00  0.00     0.004 A 
ATOM     21  C   UNL     1       0.132   1.170   0.072  1.00  0.00     0.007 A 
ATOM     22  C   UNL     1      -0.134  -1.585  -0.029  1.00  0.00     0.008 A 
ATOM     23  C   UNL     1      -1.161   0.611  -0.005  1.00  0.00    -0.044 A 
ATOM     24  C   UNL     1      -2.308   1.578  -0.122  1.00  0.00     0.045 C 
ENDBRANCH  16  17
ENDBRANCH  13  15
ENDBRANCH   9  13
BRANCH  11  25
ATOM     25  O   UNL     1      -3.727  -6.852   0.435  1.00  0.00    -0.391 OA
ATOM     26  H   UNL     1      -4.356  -6.875   1.172  1.00  0.00     0.211 HD
ENDBRANCH  11  25
ENDBRANCH   5   8
ENDBRANCH   3   4
ENDBRANCH   2   3
ENDBRANCH   1   2
BRANCH   1  27
ATOM     27  C   UNL     1      -9.107  -4.807   4.187  1.00  0.00     0.002 C 
BRANCH  27  28
ATOM     28  C   UNL     1      -8.197  -5.575   5.150  1.00  0.00     0.021 C 
BRANCH  28  29
ATOM     29  C   UNL     1      -7.762  -4.780   6.377  1.00  0.00     0.116 C 
BRANCH  29  30
ATOM     30  N   UNL     1      -8.897  -4.381   7.192  1.00  0.00    -0.352 N 
ATOM     31  C   UNL     1      -9.146  -4.611   8.521  1.00  0.00     0.251 C 
ATOM     32  H   UNL     1      -9.592  -3.868   6.720  1.00  0.00     0.163 HD
ATOM     33  O   UNL     1     -10.259  -4.393   8.985  1.00  0.00    -0.269 OA
BRANCH  31  34
ATOM     34  C   UNL     1      -8.075  -5.135   9.394  1.00  0.00     0.039 A 
ATOM     35  C   UNL     1      -8.393  -6.124  10.328  1.00  0.00     0.014 A 
ATOM     36  C   UNL     1      -6.771  -4.637   9.314  1.00  0.00     0.014 A 
ATOM     37  C   UNL     1      -7.392  -6.647  11.148  1.00  0.00     0.010 A 
ATOM     38  C   UNL     1      -5.760  -5.213  10.077  1.00  0.00     0.010 A 
ATOM     39  C   UNL     1      -6.062  -6.218  11.008  1.00  0.00    -0.014 A 
BRANCH  39  40
ATOM     40  C   UNL     1      -4.980  -6.817  11.828  1.00  0.00     0.031 A 
ATOM     41  C   UNL     1      -4.213  -5.981  12.812  1.00  0.00     0.074 A 
ATOM     42  C   UNL     1      -4.654  -8.111  11.646  1.00  0.00     0.049 A 
ATOM     43  N   UNL     1      -3.230  -6.330  13.603  1.00  0.00    -0.248 NA
ATOM     44  C   UNL     1      -4.581  -4.559  12.903  1.00  0.00     0.031 C 
ATOM     45  C   UNL     1      -5.285  -9.015  10.682  1.00  0.00     0.029 A 
ATOM     46  N   UNL     1      -3.707  -8.889  12.261  1.00  0.00    -0.354 N 
ATOM     47  C   UNL     1      -2.857  -5.174  14.276  1.00  0.00     0.074 A 
ATOM     48  C   UNL     1      -3.677  -4.101  13.756  1.00  0.00     0.031 C 
ATOM     49  C   UNL     1      -4.725 -10.230  10.790  1.00  0.00     0.029 A 
ATOM     50  C   UNL     1      -3.674 -10.181  11.800  1.00  0.00     0.049 A 
ATOM     51  H   UNL     1      -3.107  -8.552  12.966  1.00  0.00     0.167 HD
ATOM     52  C   UNL     1      -1.933  -5.021  15.255  1.00  0.00     0.031 A 
ATOM     53  C   UNL     1      -2.884 -11.214  12.148  1.00  0.00     0.031 A 
ATOM     54  C   UNL     1      -1.111  -6.087  15.764  1.00  0.00     0.049 A 
ATOM     55  C   UNL     1      -1.859 -11.022  13.229  1.00  0.00     0.074 A 
ATOM     56  C   UNL     1      -0.181  -6.047  16.788  1.00  0.00     0.029 A 
ATOM     57  N   UNL     1      -1.114  -7.386  15.278  1.00  0.00    -0.354 N 
ATOM     58  N   UNL     1      -1.574  -9.940  13.913  1.00  0.00    -0.248 NA
ATOM     59  C   UNL     1      -1.060 -12.198  13.597  1.00  0.00     0.031 C 
ATOM     60  C   UNL     1       0.421  -7.307  16.881  1.00  0.00     0.029 A 
ATOM     61  C   UNL     1      -0.181  -8.150  15.960  1.00  0.00     0.049 A 
ATOM     62  H   UNL     1      -1.694  -7.717  14.554  1.00  0.00     0.167 HD
ATOM     63  C   UNL     1      -0.576 -10.309  14.805  1.00  0.00     0.074 A 
ATOM     64  C   UNL     1      -0.324 -11.720  14.590  1.00  0.00     0.031 C 
ATOM     65  C   UNL     1       0.074  -9.548  15.721  1.00  0.00     0.031 A 
BRANCH  52  66
ATOM     66  C   UNL     1      -1.760  -3.637  15.823  1.00  0.00    -0.014 A 
ATOM     67  C   UNL     1      -2.774  -3.025  16.578  1.00  0.00     0.009 A 
ATOM     68  C   UNL     1      -0.564  -2.935  15.604  1.00  0.00     0.009 A 
ATOM     69  C   UNL     1      -2.617  -1.722  17.056  1.00  0.00     0.001 A 
ATOM     70  C   UNL     1      -0.395  -1.645  16.113  1.00  0.00     0.001 A 
ATOM     71  C   UNL     1      -1.426  -1.034  16.825  1.00  0.00     0.000 A 
ENDBRANCH  52  66
BRANCH  53  72
ATOM     72  C   UNL     1      -3.046 -12.524  11.466  1.00  0.00    -0.014 A 
ATOM     73  C   UNL     1      -3.600 -13.621  12.142  1.00  0.00     0.009 A 
ATOM     74  C   UNL     1      -2.668 -12.675  10.122  1.00  0.00     0.009 A 
ATOM     75  C   UNL     1      -3.754 -14.848  11.492  1.00  0.00     0.001 A 
ATOM     76  C   UNL     1      -2.851 -13.894   9.466  1.00  0.00     0.001 A 
ATOM     77  C   UNL     1      -3.387 -14.981  10.153  1.00  0.00     0.000 A 
ENDBRANCH  53  72
BRANCH  65  78
ATOM     78  C   UNL     1       1.109 -10.235  16.569  1.00  0.00    -0.014 A 
ATOM     79  C   UNL     1       2.330 -10.666  16.025  1.00  0.00     0.009 A 
ATOM     80  C   UNL     1       0.868 -10.432  17.937  1.00  0.00     0.009 A 
ATOM     81  C   UNL     1       3.269 -11.319  16.827  1.00  0.00     0.001 A 
ATOM     82  C   UNL     1       1.823 -11.055  18.743  1.00  0.00     0.001 A 
ATOM     83  C   UNL     1       3.017 -11.508  18.185  1.00  0.00     0.000 A 
ENDBRANCH  65  78
ENDBRANCH  39  40
ENDBRANCH  31  34
ENDBRANCH  29  30
ENDBRANCH  28  29
ENDBRANCH  27  28
ENDBRANCH   1  27
TORSDOF 17
