REMARK SMILES CCc1ccc(S(=O)(=O)CC(=O)NCCCCCCNC(=O)c2ccc(-c3c4nc(c(-c5ccccc5)c5ccc([nH]5)c(-c5ccccc5)c5nc(c(-c6ccccc6)c6ccc3[nH]6)C=C5)C=C4)cc2)cc1
REMARK SMILES IDX 16 1 15 2 14 3 13 4 11 5 12 6 10 8 7 9 8 10 9 11 6 12 3 13
REMARK SMILES IDX 4 14 72 15 5 16 71 17 2 18 1 19 17 20 18 21 19 22 20 23
REMARK SMILES IDX 21 24 22 26 23 27 24 28 70 29 25 30 69 31 26 32 27 33 28 34
REMARK SMILES IDX 63 35 29 36 68 37 62 38 64 39 30 40 67 41 61 42 60 43 31 45
REMARK SMILES IDX 53 46 38 47 52 48 39 49 42 50 51 51 65 52 40 53 41 54 50 56
REMARK SMILES IDX 66 57 43 58 32 59 33 60 37 61 34 62 36 63 35 64 54 65 55 66
REMARK SMILES IDX 59 67 56 68 58 69 57 70 44 71 45 72 49 73 46 74 48 75 47 76
REMARK H PARENT 13 7 20 25 64 44 42 55
REMARK Flexibility Score: inf
ROOT
ATOM      1  C   UNL     1       0.044   6.022  -5.001  1.00  0.00     0.002 C 
ENDROOT
BRANCH   1   2
ATOM      2  C   UNL     1       1.180   6.449  -4.059  1.00  0.00     0.021 C 
BRANCH   2   3
ATOM      3  C   UNL     1       0.883   7.726  -3.272  1.00  0.00     0.116 C 
BRANCH   3   4
ATOM      4  N   UNL     1      -0.153   7.478  -2.289  1.00  0.00    -0.355 N 
ATOM      5  C   UNL     1      -0.060   7.355  -0.941  1.00  0.00     0.235 C 
ATOM      6  O   UNL     1      -1.075   7.004  -0.334  1.00  0.00    -0.274 OA
ATOM      7  H   UNL     1      -1.062   7.383  -2.655  1.00  0.00     0.163 HD
BRANCH   5   8
ATOM      8  C   UNL     1       1.169   7.756  -0.196  1.00  0.00     0.241 C 
BRANCH   8   9
ATOM      9  S   UNL     1       2.458   6.569  -0.148  1.00  0.00     0.187 S 
ATOM     10  O   UNL     1       3.266   6.872   1.020  1.00  0.00    -0.223 OA
ATOM     11  O   UNL     1       3.090   6.553  -1.459  1.00  0.00    -0.223 OA
BRANCH   9  12
ATOM     12  C   UNL     1       1.837   4.932   0.120  1.00  0.00     0.067 A 
ATOM     13  C   UNL     1       1.000   2.280   0.531  1.00  0.00    -0.048 A 
ATOM     14  C   UNL     1       2.210   2.549  -0.119  1.00  0.00     0.005 A 
ATOM     15  C   UNL     1       0.230   3.363   0.987  1.00  0.00     0.005 A 
ATOM     16  C   UNL     1       2.620   3.866  -0.337  1.00  0.00     0.020 A 
ATOM     17  C   UNL     1       0.648   4.684   0.798  1.00  0.00     0.020 A 
BRANCH  13  18
ATOM     18  C   UNL     1       0.538   0.874   0.843  1.00  0.00     0.032 C 
ATOM     19  C   UNL     1       0.992  -0.210  -0.127  1.00  0.00     0.009 C 
ENDBRANCH  13  18
ENDBRANCH   9  12
ENDBRANCH   8   9
ENDBRANCH   5   8
ENDBRANCH   3   4
ENDBRANCH   2   3
ENDBRANCH   1   2
BRANCH   1  20
ATOM     20  C   UNL     1      -0.342   7.055  -6.065  1.00  0.00     0.002 C 
BRANCH  20  21
ATOM     21  C   UNL     1       0.819   7.558  -6.925  1.00  0.00     0.021 C 
BRANCH  21  22
ATOM     22  C   UNL     1       1.556   6.466  -7.691  1.00  0.00     0.116 C 
BRANCH  22  23
ATOM     23  N   UNL     1       0.706   5.827  -8.684  1.00  0.00    -0.352 N 
ATOM     24  C   UNL     1       0.914   5.668 -10.031  1.00  0.00     0.251 C 
ATOM     25  H   UNL     1      -0.138   5.455  -8.340  1.00  0.00     0.163 HD
ATOM     26  O   UNL     1       0.004   5.282 -10.758  1.00  0.00    -0.269 OA
BRANCH  24  27
ATOM     27  C   UNL     1       2.236   5.983 -10.610  1.00  0.00     0.039 A 
ATOM     28  C   UNL     1       2.299   6.726 -11.791  1.00  0.00     0.014 A 
ATOM     29  C   UNL     1       3.410   5.542  -9.992  1.00  0.00     0.014 A 
ATOM     30  C   UNL     1       3.542   7.079 -12.321  1.00  0.00     0.010 A 
ATOM     31  C   UNL     1       4.646   5.956 -10.480  1.00  0.00     0.010 A 
ATOM     32  C   UNL     1       4.725   6.724 -11.652  1.00  0.00    -0.014 A 
BRANCH  32  33
ATOM     33  C   UNL     1       6.054   7.143 -12.163  1.00  0.00     0.031 A 
ATOM     34  C   UNL     1       7.048   6.111 -12.617  1.00  0.00     0.074 A 
ATOM     35  C   UNL     1       6.389   8.448 -12.161  1.00  0.00     0.049 A 
ATOM     36  N   UNL     1       8.278   6.276 -13.034  1.00  0.00    -0.248 NA
ATOM     37  C   UNL     1       6.612   4.705 -12.576  1.00  0.00     0.031 C 
ATOM     38  C   UNL     1       5.527   9.545 -11.715  1.00  0.00     0.029 A 
ATOM     39  N   UNL     1       7.551   9.072 -12.541  1.00  0.00    -0.354 N 
ATOM     40  C   UNL     1       8.764   5.000 -13.291  1.00  0.00     0.074 A 
ATOM     41  C   UNL     1       7.717   4.069 -12.933  1.00  0.00     0.031 C 
ATOM     42  C   UNL     1       6.180  10.708 -11.873  1.00  0.00     0.029 A 
ATOM     43  C   UNL     1       7.518  10.437 -12.388  1.00  0.00     0.049 A 
ATOM     44  H   UNL     1       8.333   8.587 -12.891  1.00  0.00     0.167 HD
ATOM     45  C   UNL     1       9.966   4.636 -13.798  1.00  0.00     0.031 A 
ATOM     46  C   UNL     1       8.464  11.365 -12.627  1.00  0.00     0.031 A 
ATOM     47  C   UNL     1      11.007   5.562 -14.157  1.00  0.00     0.049 A 
ATOM     48  C   UNL     1       9.801  10.932 -13.160  1.00  0.00     0.074 A 
ATOM     49  C   UNL     1      12.243   5.294 -14.720  1.00  0.00     0.029 A 
ATOM     50  N   UNL     1      10.934   6.935 -13.985  1.00  0.00    -0.354 N 
ATOM     51  N   UNL     1      10.222   9.726 -13.456  1.00  0.00    -0.248 NA
ATOM     52  C   UNL     1      10.790  11.992 -13.401  1.00  0.00     0.031 C 
ATOM     53  C   UNL     1      12.939   6.501 -14.840  1.00  0.00     0.029 A 
ATOM     54  C   UNL     1      12.113   7.527 -14.409  1.00  0.00     0.049 A 
ATOM     55  H   UNL     1      10.160   7.419 -13.616  1.00  0.00     0.167 HD
ATOM     56  C   UNL     1      11.511   9.886 -13.948  1.00  0.00     0.074 A 
ATOM     57  C   UNL     1      11.797  11.306 -13.924  1.00  0.00     0.031 C 
ATOM     58  C   UNL     1      12.380   8.941 -14.382  1.00  0.00     0.031 A 
BRANCH  45  59
ATOM     59  C   UNL     1      10.219   3.166 -13.989  1.00  0.00    -0.014 A 
ATOM     60  C   UNL     1       9.538   2.433 -14.974  1.00  0.00     0.009 A 
ATOM     61  C   UNL     1      11.174   2.511 -13.196  1.00  0.00     0.009 A 
ATOM     62  C   UNL     1       9.780   1.067 -15.135  1.00  0.00     0.001 A 
ATOM     63  C   UNL     1      11.436   1.152 -13.379  1.00  0.00     0.001 A 
ATOM     64  C   UNL     1      10.732   0.429 -14.341  1.00  0.00     0.000 A 
ENDBRANCH  45  59
BRANCH  46  65
ATOM     65  C   UNL     1       8.180  12.803 -12.375  1.00  0.00    -0.014 A 
ATOM     66  C   UNL     1       8.060  13.703 -13.445  1.00  0.00     0.009 A 
ATOM     67  C   UNL     1       8.042  13.286 -11.064  1.00  0.00     0.009 A 
ATOM     68  C   UNL     1       7.840  15.062 -13.206  1.00  0.00     0.001 A 
ATOM     69  C   UNL     1       7.791  14.640 -10.830  1.00  0.00     0.001 A 
ATOM     70  C   UNL     1       7.702  15.528 -11.900  1.00  0.00     0.000 A 
ENDBRANCH  46  65
BRANCH  58  71
ATOM     71  C   UNL     1      13.707   9.415 -14.907  1.00  0.00    -0.014 A 
ATOM     72  C   UNL     1      14.696   9.918 -14.048  1.00  0.00     0.009 A 
ATOM     73  C   UNL     1      13.982   9.317 -16.280  1.00  0.00     0.009 A 
ATOM     74  C   UNL     1      15.924  10.345 -14.560  1.00  0.00     0.001 A 
ATOM     75  C   UNL     1      15.221   9.716 -16.785  1.00  0.00     0.001 A 
ATOM     76  C   UNL     1      16.186  10.238 -15.926  1.00  0.00     0.000 A 
ENDBRANCH  58  71
ENDBRANCH  32  33
ENDBRANCH  24  27
ENDBRANCH  22  23
ENDBRANCH  21  22
ENDBRANCH  20  21
ENDBRANCH   1  20
TORSDOF 16
