REMARK SMILES CNC(=O)[C@H](C)S(=O)(=O)c1cc(C(=O)NCCCCCCNC(=O)c2ccc(-c3c4nc(c(-c5ccccc5)c5ccc([nH]5)c(-c5ccccc5)c5nc(c(-c6ccccc6)c6ccc3[nH]6)C=C5)C=C4)cc2)c(C)cc1C
REMARK SMILES IDX 18 1 17 2 16 3 15 4 13 5 14 6 12 8 10 9 11 10 76 11 75 12
REMARK SMILES IDX 77 13 73 14 74 15 7 16 8 17 9 18 5 19 6 20 3 21 1 22 2 23
REMARK SMILES IDX 4 25 19 26 20 27 21 28 22 29 23 30 24 32 25 33 26 34 72 35
REMARK SMILES IDX 27 36 71 37 28 38 29 39 30 40 65 41 31 42 70 43 64 44 66 45
REMARK SMILES IDX 32 46 69 47 63 48 62 49 33 51 55 52 40 53 54 54 41 55 44 56
REMARK SMILES IDX 53 57 67 58 42 59 43 60 52 62 68 63 45 64 34 65 35 66 39 67
REMARK SMILES IDX 36 68 38 69 37 70 56 71 57 72 61 73 58 74 60 75 59 76 46 77
REMARK SMILES IDX 47 78 51 79 48 80 50 81 49 82
REMARK H PARENT 15 7 2 24 22 31 66 50 44 61
REMARK Flexibility Score: inf
ROOT
ATOM      1  C   UNL     1       3.727   0.180   7.579  1.00  0.00     0.002 C 
ENDROOT
BRANCH   1   2
ATOM      2  C   UNL     1       2.785   0.604   6.450  1.00  0.00     0.021 C 
BRANCH   2   3
ATOM      3  C   UNL     1       3.241   0.165   5.052  1.00  0.00     0.116 C 
BRANCH   3   4
ATOM      4  N   UNL     1       2.558  -1.057   4.700  1.00  0.00    -0.352 N 
ATOM      5  C   UNL     1       1.441  -1.361   3.974  1.00  0.00     0.251 C 
ATOM      6  O   UNL     1       1.102  -2.549   4.028  1.00  0.00    -0.269 OA
ATOM      7  H   UNL     1       2.999  -1.857   5.068  1.00  0.00     0.163 HD
BRANCH   5   8
ATOM      8  C   UNL     1       0.675  -0.444   3.061  1.00  0.00     0.044 A 
ATOM      9  C   UNL     1      -0.740  -0.508   1.026  1.00  0.00     0.071 A 
ATOM     10  C   UNL     1       0.065  -1.137   1.993  1.00  0.00     0.034 A 
ATOM     11  C   UNL     1      -0.887   0.879   1.042  1.00  0.00    -0.032 A 
ATOM     12  C   UNL     1      -0.320   1.570   2.123  1.00  0.00     0.009 A 
ATOM     13  C   UNL     1      -1.706   1.679   0.070  1.00  0.00     0.046 C 
ATOM     14  C   UNL     1       0.380   0.924   3.174  1.00  0.00    -0.038 A 
ATOM     15  C   UNL     1       0.620   1.781   4.377  1.00  0.00     0.045 C 
BRANCH   9  16
ATOM     16  S   UNL     1      -1.716  -1.590  -0.014  1.00  0.00     0.190 S 
ATOM     17  O   UNL     1      -2.820  -0.830  -0.560  1.00  0.00    -0.223 OA
ATOM     18  O   UNL     1      -2.046  -2.753   0.802  1.00  0.00    -0.223 OA
BRANCH  16  19
ATOM     19  C   UNL     1      -0.682  -2.116  -1.361  1.00  0.00     0.199 C 
ATOM     20  C   UNL     1      -0.439  -0.970  -2.344  1.00  0.00     0.036 C 
BRANCH  19  21
ATOM     21  C   UNL     1       0.631  -2.659  -0.851  1.00  0.00     0.238 C 
ATOM     22  C   UNL     1      -0.287  -4.916  -0.110  1.00  0.00     0.142 C 
ATOM     23  N   UNL     1       0.740  -3.932  -0.380  1.00  0.00    -0.358 N 
ATOM     24  H   UNL     1       1.660  -4.230  -0.195  1.00  0.00     0.163 HD
ATOM     25  O   UNL     1       1.661  -1.980  -0.876  1.00  0.00    -0.274 OA
ENDBRANCH  19  21
ENDBRANCH  16  19
ENDBRANCH   9  16
ENDBRANCH   5   8
ENDBRANCH   3   4
ENDBRANCH   2   3
ENDBRANCH   1   2
BRANCH   1  26
ATOM     26  C   UNL     1       5.058   0.936   7.608  1.00  0.00     0.002 C 
BRANCH  26  27
ATOM     27  C   UNL     1       4.938   2.463   7.658  1.00  0.00     0.021 C 
BRANCH  27  28
ATOM     28  C   UNL     1       4.119   3.003   8.828  1.00  0.00     0.116 C 
BRANCH  28  29
ATOM     29  N   UNL     1       4.732   2.685  10.107  1.00  0.00    -0.352 N 
ATOM     30  C   UNL     1       5.232   3.528  11.066  1.00  0.00     0.251 C 
ATOM     31  H   UNL     1       4.798   1.725  10.315  1.00  0.00     0.163 HD
ATOM     32  O   UNL     1       5.938   3.090  11.969  1.00  0.00    -0.269 OA
BRANCH  30  33
ATOM     33  C   UNL     1       4.925   4.973  11.009  1.00  0.00     0.039 A 
ATOM     34  C   UNL     1       5.951   5.894  11.233  1.00  0.00     0.014 A 
ATOM     35  C   UNL     1       3.621   5.415  10.767  1.00  0.00     0.014 A 
ATOM     36  C   UNL     1       5.680   7.262  11.160  1.00  0.00     0.010 A 
ATOM     37  C   UNL     1       3.366   6.777  10.630  1.00  0.00     0.010 A 
ATOM     38  C   UNL     1       4.391   7.714  10.831  1.00  0.00    -0.014 A 
BRANCH  38  39
ATOM     39  C   UNL     1       4.093   9.161  10.697  1.00  0.00     0.031 A 
ATOM     40  C   UNL     1       3.139   9.829  11.647  1.00  0.00     0.074 A 
ATOM     41  C   UNL     1       4.631   9.859   9.678  1.00  0.00     0.049 A 
ATOM     42  N   UNL     1       2.705  11.065  11.649  1.00  0.00    -0.248 NA
ATOM     43  C   UNL     1       2.579   8.994  12.721  1.00  0.00     0.031 C 
ATOM     44  C   UNL     1       5.543   9.319   8.667  1.00  0.00     0.029 A 
ATOM     45  N   UNL     1       4.481  11.176   9.321  1.00  0.00    -0.354 N 
ATOM     46  C   UNL     1       1.811  11.149  12.709  1.00  0.00     0.074 A 
ATOM     47  C   UNL     1       1.728   9.830  13.298  1.00  0.00     0.031 C 
ATOM     48  C   UNL     1       5.889  10.300   7.819  1.00  0.00     0.029 A 
ATOM     49  C   UNL     1       5.196  11.526   8.201  1.00  0.00     0.049 A 
ATOM     50  H   UNL     1       3.916  11.809   9.819  1.00  0.00     0.167 HD
ATOM     51  C   UNL     1       1.132  12.229  13.162  1.00  0.00     0.031 A 
ATOM     52  C   UNL     1       5.279  12.702   7.551  1.00  0.00     0.031 A 
ATOM     53  C   UNL     1       1.223  13.543  12.584  1.00  0.00     0.049 A 
ATOM     54  C   UNL     1       4.509  13.884   8.069  1.00  0.00     0.074 A 
ATOM     55  C   UNL     1       0.618  14.715  13.005  1.00  0.00     0.029 A 
ATOM     56  N   UNL     1       1.967  13.859  11.458  1.00  0.00    -0.354 N 
ATOM     57  N   UNL     1       3.717  13.962   9.110  1.00  0.00    -0.248 NA
ATOM     58  C   UNL     1       4.656  15.145   7.326  1.00  0.00     0.031 C 
ATOM     59  C   UNL     1       0.959  15.730  12.105  1.00  0.00     0.029 A 
ATOM     60  C   UNL     1       1.819  15.202  11.156  1.00  0.00     0.049 A 
ATOM     61  H   UNL     1       2.518  13.222  10.948  1.00  0.00     0.167 HD
ATOM     62  C   UNL     1       3.294  15.284   9.165  1.00  0.00     0.074 A 
ATOM     63  C   UNL     1       3.928  15.974   8.061  1.00  0.00     0.031 C 
ATOM     64  C   UNL     1       2.457  15.873  10.054  1.00  0.00     0.031 A 
BRANCH  51  65
ATOM     65  C   UNL     1       0.221  12.030  14.342  1.00  0.00    -0.014 A 
ATOM     66  C   UNL     1       0.736  11.784  15.626  1.00  0.00     0.009 A 
ATOM     67  C   UNL     1      -1.169  12.120  14.175  1.00  0.00     0.009 A 
ATOM     68  C   UNL     1      -0.124  11.596  16.709  1.00  0.00     0.001 A 
ATOM     69  C   UNL     1      -2.026  11.961  15.266  1.00  0.00     0.001 A 
ATOM     70  C   UNL     1      -1.504  11.689  16.530  1.00  0.00     0.000 A 
ENDBRANCH  51  65
BRANCH  52  71
ATOM     71  C   UNL     1       6.141  12.826   6.347  1.00  0.00    -0.014 A 
ATOM     72  C   UNL     1       7.334  13.563   6.400  1.00  0.00     0.009 A 
ATOM     73  C   UNL     1       5.777  12.211   5.140  1.00  0.00     0.009 A 
ATOM     74  C   UNL     1       8.131  13.702   5.262  1.00  0.00     0.001 A 
ATOM     75  C   UNL     1       6.590  12.328   4.011  1.00  0.00     0.001 A 
ATOM     76  C   UNL     1       7.761  13.081   4.070  1.00  0.00     0.000 A 
ENDBRANCH  52  71
BRANCH  64  77
ATOM     77  C   UNL     1       2.208  17.346   9.890  1.00  0.00    -0.014 A 
ATOM     78  C   UNL     1       1.410  17.840   8.847  1.00  0.00     0.009 A 
ATOM     79  C   UNL     1       2.750  18.247  10.819  1.00  0.00     0.009 A 
ATOM     80  C   UNL     1       1.185  19.212   8.721  1.00  0.00     0.001 A 
ATOM     81  C   UNL     1       2.500  19.615  10.707  1.00  0.00     0.001 A 
ATOM     82  C   UNL     1       1.726  20.097   9.653  1.00  0.00     0.000 A 
ENDBRANCH  64  77
ENDBRANCH  38  39
ENDBRANCH  30  33
ENDBRANCH  28  29
ENDBRANCH  27  28
ENDBRANCH  26  27
ENDBRANCH   1  26
TORSDOF 16
