REMARK SMILES O=C(NCCCCCCNC(=O)c1coc(-c2csc(-c3ccc(Cl)cn3)n2)c1)c1ccc(-c2c3nc(c(-c4ccccc4)c4ccc([nH]4)c(-c4ccccc4)c4nc(c(-c5ccccc5)c5ccc2[nH]5)C=C4)C=C3)cc1
REMARK SMILES IDX 6 1 5 2 4 3 3 4 1 5 2 6 30 8 31 9 77 10 32 11 76 12 33 13
REMARK SMILES IDX 34 14 35 15 70 16 36 17 75 18 69 19 71 20 37 21 74 22 68 23
REMARK SMILES IDX 67 24 38 26 60 27 45 28 59 29 46 30 49 31 58 32 72 33 47 34
REMARK SMILES IDX 48 35 57 37 73 38 50 39 39 40 40 41 44 42 41 43 43 44 42 45
REMARK SMILES IDX 61 46 62 47 66 48 63 49 65 50 64 51 51 52 52 53 56 54 53 55
REMARK SMILES IDX 55 56 54 57 7 58 8 59 9 60 10 61 11 62 12 64 13 65 14 66
REMARK SMILES IDX 29 67 15 68 16 69 17 70 18 71 28 72 19 73 20 74 21 75 22 76
REMARK SMILES IDX 27 77 23 78 26 79 24 80 25 81
REMARK H PARENT 3 7 71 25 49 36 10 63
REMARK Flexibility Score: inf
ROOT
ATOM      1  C   UNL     1       4.132  -3.845   1.281  1.00  0.00     0.002 C 
ENDROOT
BRANCH   1   2
ATOM      2  C   UNL     1       4.461  -2.455   1.836  1.00  0.00     0.021 C 
BRANCH   2   3
ATOM      3  C   UNL     1       4.362  -1.304   0.836  1.00  0.00     0.116 C 
BRANCH   3   4
ATOM      4  N   UNL     1       3.013  -1.105   0.340  1.00  0.00    -0.352 N 
ATOM      5  O   UNL     1       1.179   0.045  -0.277  1.00  0.00    -0.269 OA
ATOM      6  C   UNL     1       2.373   0.064   0.009  1.00  0.00     0.251 C 
ATOM      7  H   UNL     1       2.480  -1.925   0.225  1.00  0.00     0.163 HD
BRANCH   6   8
ATOM      8  C   UNL     1       3.100   1.355   0.018  1.00  0.00     0.039 A 
ATOM      9  C   UNL     1       4.358   1.493  -0.576  1.00  0.00     0.014 A 
ATOM     10  C   UNL     1       2.469   2.470   0.583  1.00  0.00     0.014 A 
ATOM     11  C   UNL     1       5.014   2.724  -0.537  1.00  0.00     0.010 A 
ATOM     12  C   UNL     1       3.114   3.710   0.596  1.00  0.00     0.010 A 
ATOM     13  C   UNL     1       4.399   3.840   0.052  1.00  0.00    -0.014 A 
BRANCH  13  14
ATOM     14  C   UNL     1       5.099   5.146   0.062  1.00  0.00     0.031 A 
ATOM     15  C   UNL     1       5.759   5.655   1.310  1.00  0.00     0.074 A 
ATOM     16  C   UNL     1       5.162   5.868  -1.072  1.00  0.00     0.049 A 
ATOM     17  N   UNL     1       6.474   6.739   1.477  1.00  0.00    -0.248 NA
ATOM     18  C   UNL     1       5.597   4.843   2.526  1.00  0.00     0.031 C 
ATOM     19  C   UNL     1       4.552   5.495  -2.349  1.00  0.00     0.029 A 
ATOM     20  N   UNL     1       5.787   7.061  -1.332  1.00  0.00    -0.354 N 
ATOM     21  C   UNL     1       6.839   6.747   2.816  1.00  0.00     0.074 A 
ATOM     22  C   UNL     1       6.261   5.564   3.420  1.00  0.00     0.031 C 
ATOM     23  C   UNL     1       4.862   6.425  -3.267  1.00  0.00     0.029 A 
ATOM     24  C   UNL     1       5.677   7.461  -2.639  1.00  0.00     0.049 A 
ATOM     25  H   UNL     1       6.267   7.580  -0.647  1.00  0.00     0.167 HD
ATOM     26  C   UNL     1       7.593   7.652   3.483  1.00  0.00     0.031 A 
ATOM     27  C   UNL     1       6.185   8.536  -3.268  1.00  0.00     0.031 A 
ATOM     28  C   UNL     1       8.185   8.823   2.897  1.00  0.00     0.049 A 
ATOM     29  C   UNL     1       7.015   9.524  -2.506  1.00  0.00     0.074 A 
ATOM     30  C   UNL     1       8.998   9.772   3.494  1.00  0.00     0.029 A 
ATOM     31  N   UNL     1       8.022   9.208   1.577  1.00  0.00    -0.354 N 
ATOM     32  N   UNL     1       7.380   9.496  -1.249  1.00  0.00    -0.248 NA
ATOM     33  C   UNL     1       7.499  10.694  -3.254  1.00  0.00     0.031 C 
ATOM     34  C   UNL     1       9.317  10.742   2.535  1.00  0.00     0.029 A 
ATOM     35  C   UNL     1       8.708  10.388   1.342  1.00  0.00     0.049 A 
ATOM     36  H   UNL     1       7.497   8.716   0.905  1.00  0.00     0.167 HD
ATOM     37  C   UNL     1       8.138  10.641  -1.053  1.00  0.00     0.074 A 
ATOM     38  C   UNL     1       8.188  11.339  -2.322  1.00  0.00     0.031 C 
ATOM     39  C   UNL     1       8.740  11.074   0.080  1.00  0.00     0.031 A 
BRANCH  26  40
ATOM     40  C   UNL     1       7.815   7.405   4.943  1.00  0.00    -0.014 A 
ATOM     41  C   UNL     1       8.852   6.566   5.375  1.00  0.00     0.009 A 
ATOM     42  C   UNL     1       6.999   8.036   5.894  1.00  0.00     0.009 A 
ATOM     43  C   UNL     1       9.059   6.350   6.739  1.00  0.00     0.001 A 
ATOM     44  C   UNL     1       7.213   7.822   7.256  1.00  0.00     0.001 A 
ATOM     45  C   UNL     1       8.239   6.977   7.677  1.00  0.00     0.000 A 
ENDBRANCH  26  40
BRANCH  27  46
ATOM     46  C   UNL     1       5.935   8.721  -4.714  1.00  0.00    -0.014 A 
ATOM     47  C   UNL     1       6.885   8.292  -5.652  1.00  0.00     0.009 A 
ATOM     48  C   UNL     1       4.743   9.308  -5.160  1.00  0.00     0.009 A 
ATOM     49  C   UNL     1       6.646   8.455  -7.018  1.00  0.00     0.001 A 
ATOM     50  C   UNL     1       4.506   9.464  -6.527  1.00  0.00     0.001 A 
ATOM     51  C   UNL     1       5.458   9.040  -7.453  1.00  0.00     0.000 A 
ENDBRANCH  27  46
BRANCH  39  52
ATOM     52  C   UNL     1       9.497  12.362  -0.008  1.00  0.00    -0.014 A 
ATOM     53  C   UNL     1       8.833  13.588   0.148  1.00  0.00     0.009 A 
ATOM     54  C   UNL     1      10.882  12.353  -0.228  1.00  0.00     0.009 A 
ATOM     55  C   UNL     1       9.543  14.786   0.066  1.00  0.00     0.001 A 
ATOM     56  C   UNL     1      11.589  13.553  -0.303  1.00  0.00     0.001 A 
ATOM     57  C   UNL     1      10.919  14.768  -0.160  1.00  0.00     0.000 A 
ENDBRANCH  39  52
ENDBRANCH  13  14
ENDBRANCH   6   8
ENDBRANCH   3   4
ENDBRANCH   2   3
ENDBRANCH   1   2
BRANCH   1  58
ATOM     58  C   UNL     1       4.969  -4.301   0.082  1.00  0.00     0.002 C 
BRANCH  58  59
ATOM     59  C   UNL     1       6.491  -4.279   0.281  1.00  0.00     0.021 C 
BRANCH  59  60
ATOM     60  C   UNL     1       7.003  -5.093   1.472  1.00  0.00     0.116 C 
BRANCH  60  61
ATOM     61  N   UNL     1       6.686  -6.502   1.329  1.00  0.00    -0.352 N 
ATOM     62  C   UNL     1       7.522  -7.554   1.065  1.00  0.00     0.254 C 
ATOM     63  H   UNL     1       5.735  -6.734   1.437  1.00  0.00     0.163 HD
ATOM     64  O   UNL     1       7.044  -8.633   0.730  1.00  0.00    -0.269 OA
BRANCH  62  65
ATOM     65  C   UNL     1       8.947  -7.357   1.195  1.00  0.00     0.078 A 
ATOM     66  C   UNL     1       9.619  -7.071   2.364  1.00  0.00     0.209 A 
ATOM     67  C   UNL     1       9.956  -7.519   0.206  1.00  0.00     0.066 A 
ATOM     68  O   UNL     1      10.961  -7.051   2.157  1.00  0.00    -0.462 OA
ATOM     69  C   UNL     1      11.170  -7.324   0.834  1.00  0.00     0.153 A 
BRANCH  69  70
ATOM     70  C   UNL     1      12.506  -7.427   0.184  1.00  0.00     0.117 A 
ATOM     71  C   UNL     1      13.682  -7.427   0.902  1.00  0.00     0.099 A 
ATOM     72  N   UNL     1      12.644  -7.532  -1.188  1.00  0.00    -0.231 NA
ATOM     73  S   UNL     1      15.008  -7.644  -0.162  1.00  0.00    -0.120 S 
ATOM     74  C   UNL     1      13.920  -7.668  -1.498  1.00  0.00     0.142 A 
BRANCH  74  75
ATOM     75  C   UNL     1      14.446  -7.753  -2.864  1.00  0.00     0.099 A 
ATOM     76  C   UNL     1      14.070  -6.815  -3.825  1.00  0.00     0.033 A 
ATOM     77  N   UNL     1      15.284  -8.788  -3.132  1.00  0.00    -0.252 NA
ATOM     78  C   UNL     1      14.585  -6.931  -5.116  1.00  0.00     0.024 A 
ATOM     79  C   UNL     1      15.749  -8.886  -4.402  1.00  0.00     0.132 A 
ATOM     80  C   UNL     1      15.435  -7.989  -5.412  1.00  0.00     0.059 A 
ATOM     81  Cl  UNL     1      16.077  -8.178  -6.992  1.00  0.00    -0.083 Cl
ENDBRANCH  74  75
ENDBRANCH  69  70
ENDBRANCH  62  65
ENDBRANCH  60  61
ENDBRANCH  59  60
ENDBRANCH  58  59
ENDBRANCH   1  58
TORSDOF 15
