REMARK SMILES CC1(C)[C@@H](CBr)CC[C@]1(C)C(=O)NCCCCCCNC(=O)c1ccc(-c2c3nc(c(-c4ccccc4)c4ccc([nH]4)c(-c4ccccc4)c4nc(c(-c5ccccc5)c5ccc2[nH]5)C=C4)C=C3)cc1
REMARK SMILES IDX 17 1 16 2 15 3 14 4 13 5 11 6 12 7 9 9 1 10 2 11 3 12 4 13
REMARK SMILES IDX 7 14 8 15 10 16 5 17 6 18 18 19 19 20 20 21 21 22 22 24
REMARK SMILES IDX 23 25 24 26 70 27 25 28 69 29 26 30 27 31 28 32 63 33 29 34
REMARK SMILES IDX 68 35 62 36 64 37 30 38 67 39 61 40 60 41 31 43 53 44 38 45
REMARK SMILES IDX 52 46 39 47 42 48 51 49 65 50 40 51 41 52 50 54 66 55 43 56
REMARK SMILES IDX 32 57 33 58 37 59 34 60 36 61 35 62 54 63 55 64 59 65 56 66
REMARK SMILES IDX 58 67 57 68 44 69 45 70 49 71 46 72 48 73 47 74
REMARK H PARENT 13 8 20 23 64 42 42 53
REMARK Flexibility Score: inf
ROOT
ATOM      1  C   UNL     1       5.239   4.067   0.070  1.00  0.00     0.002 C 
ENDROOT
BRANCH   1   2
ATOM      2  C   UNL     1       4.991   2.897  -0.887  1.00  0.00     0.002 C 
BRANCH   2   3
ATOM      3  C   UNL     1       3.868   1.955  -0.455  1.00  0.00     0.021 C 
BRANCH   3   4
ATOM      4  C   UNL     1       2.498   2.626  -0.368  1.00  0.00     0.116 C 
BRANCH   4   5
ATOM      5  N   UNL     1       1.918   2.821  -1.678  1.00  0.00    -0.356 N 
ATOM      6  C   UNL     1       0.821   2.305  -2.294  1.00  0.00     0.226 C 
ATOM      7  O   UNL     1       0.673   2.655  -3.469  1.00  0.00    -0.274 OA
ATOM      8  H   UNL     1       2.419   3.457  -2.238  1.00  0.00     0.163 HD
BRANCH   6   9
ATOM      9  C   UNL     1      -0.190   1.353  -1.587  1.00  0.00     0.052 C 
ATOM     10  C   UNL     1       0.953  -0.393   0.069  1.00  0.00     0.012 C 
ATOM     11  C   UNL     1       0.356  -0.120  -1.319  1.00  0.00    -0.018 C 
ATOM     12  C   UNL     1       1.460  -0.503  -2.352  1.00  0.00     0.012 C 
ATOM     13  C   UNL     1      -0.871  -1.063  -1.605  1.00  0.00     0.006 C 
ATOM     14  C   UNL     1      -1.513  -0.389  -2.818  1.00  0.00     0.006 C 
ATOM     15  C   UNL     1      -1.416   1.105  -2.546  1.00  0.00     0.017 C 
ATOM     16  C   UNL     1      -0.774   2.122  -0.377  1.00  0.00     0.022 C 
BRANCH  13  17
ATOM     17  C   UNL     1      -1.916  -1.242  -0.495  1.00  0.00     0.084 C 
ATOM     18  Br  UNL     1      -1.488  -2.736   0.689  1.00  0.00    -0.092 Br
ENDBRANCH  13  17
ENDBRANCH   6   9
ENDBRANCH   4   5
ENDBRANCH   3   4
ENDBRANCH   2   3
ENDBRANCH   1   2
BRANCH   1  19
ATOM     19  C   UNL     1       5.434   3.668   1.535  1.00  0.00     0.021 C 
BRANCH  19  20
ATOM     20  C   UNL     1       6.551   2.657   1.769  1.00  0.00     0.116 C 
BRANCH  20  21
ATOM     21  N   UNL     1       7.844   3.178   1.355  1.00  0.00    -0.352 N 
ATOM     22  C   UNL     1       8.991   3.317   2.089  1.00  0.00     0.251 C 
ATOM     23  H   UNL     1       7.902   3.471   0.417  1.00  0.00     0.163 HD
ATOM     24  O   UNL     1       9.928   3.989   1.658  1.00  0.00    -0.269 OA
BRANCH  22  25
ATOM     25  C   UNL     1       9.097   2.667   3.408  1.00  0.00     0.039 A 
ATOM     26  C   UNL     1       9.617   3.391   4.482  1.00  0.00     0.014 A 
ATOM     27  C   UNL     1       8.689   1.340   3.581  1.00  0.00     0.014 A 
ATOM     28  C   UNL     1       9.686   2.799   5.743  1.00  0.00     0.010 A 
ATOM     29  C   UNL     1       8.688   0.777   4.853  1.00  0.00     0.010 A 
ATOM     30  C   UNL     1       9.197   1.497   5.944  1.00  0.00    -0.014 A 
BRANCH  30  31
ATOM     31  C   UNL     1       9.223   0.869   7.288  1.00  0.00     0.031 A 
ATOM     32  C   UNL     1      10.066  -0.352   7.535  1.00  0.00     0.074 A 
ATOM     33  C   UNL     1       8.455   1.373   8.274  1.00  0.00     0.049 A 
ATOM     34  N   UNL     1      10.193  -1.059   8.630  1.00  0.00    -0.248 NA
ATOM     35  C   UNL     1      10.853  -0.858   6.398  1.00  0.00     0.031 C 
ATOM     36  C   UNL     1       7.570   2.534   8.152  1.00  0.00     0.029 A 
ATOM     37  N   UNL     1       8.297   0.970   9.576  1.00  0.00    -0.354 N 
ATOM     38  C   UNL     1      11.064  -2.094   8.310  1.00  0.00     0.074 A 
ATOM     39  C   UNL     1      11.387  -1.958   6.907  1.00  0.00     0.031 C 
ATOM     40  C   UNL     1       6.992   2.771   9.341  1.00  0.00     0.029 A 
ATOM     41  C   UNL     1       7.429   1.756  10.294  1.00  0.00     0.049 A 
ATOM     42  H   UNL     1       8.762   0.192   9.960  1.00  0.00     0.167 HD
ATOM     43  C   UNL     1      11.570  -3.057   9.117  1.00  0.00     0.031 A 
ATOM     44  C   UNL     1       7.029   1.668  11.576  1.00  0.00     0.031 A 
ATOM     45  C   UNL     1      11.249  -3.192  10.513  1.00  0.00     0.049 A 
ATOM     46  C   UNL     1       7.579   0.568  12.441  1.00  0.00     0.074 A 
ATOM     47  C   UNL     1      11.734  -4.114  11.424  1.00  0.00     0.029 A 
ATOM     48  N   UNL     1      10.360  -2.380  11.199  1.00  0.00    -0.354 N 
ATOM     49  N   UNL     1       8.446  -0.368  12.138  1.00  0.00    -0.248 NA
ATOM     50  C   UNL     1       7.105   0.523  13.831  1.00  0.00     0.031 C 
ATOM     51  C   UNL     1      11.100  -3.891  12.650  1.00  0.00     0.029 A 
ATOM     52  C   UNL     1      10.268  -2.790  12.518  1.00  0.00     0.049 A 
ATOM     53  H   UNL     1       9.866  -1.624  10.807  1.00  0.00     0.167 HD
ATOM     54  C   UNL     1       8.650  -1.087  13.309  1.00  0.00     0.074 A 
ATOM     55  C   UNL     1       7.828  -0.470  14.329  1.00  0.00     0.031 C 
ATOM     56  C   UNL     1       9.450  -2.160  13.522  1.00  0.00     0.031 A 
BRANCH  43  57
ATOM     57  C   UNL     1      12.525  -4.043   8.502  1.00  0.00    -0.014 A 
ATOM     58  C   UNL     1      13.809  -3.650   8.090  1.00  0.00     0.009 A 
ATOM     59  C   UNL     1      12.152  -5.389   8.364  1.00  0.00     0.009 A 
ATOM     60  C   UNL     1      14.685  -4.576   7.518  1.00  0.00     0.001 A 
ATOM     61  C   UNL     1      13.041  -6.319   7.821  1.00  0.00     0.001 A 
ATOM     62  C   UNL     1      14.302  -5.910   7.389  1.00  0.00     0.000 A 
ENDBRANCH  43  57
BRANCH  44  63
ATOM     63  C   UNL     1       6.071   2.659  12.133  1.00  0.00    -0.014 A 
ATOM     64  C   UNL     1       6.487   3.582  13.106  1.00  0.00     0.009 A 
ATOM     65  C   UNL     1       4.731   2.674  11.716  1.00  0.00     0.009 A 
ATOM     66  C   UNL     1       5.574   4.473  13.675  1.00  0.00     0.001 A 
ATOM     67  C   UNL     1       3.827   3.587  12.264  1.00  0.00     0.001 A 
ATOM     68  C   UNL     1       4.247   4.477  13.251  1.00  0.00     0.000 A 
ENDBRANCH  44  63
BRANCH  56  69
ATOM     69  C   UNL     1       9.518  -2.699  14.924  1.00  0.00    -0.014 A 
ATOM     70  C   UNL     1       8.436  -3.381  15.503  1.00  0.00     0.009 A 
ATOM     71  C   UNL     1      10.700  -2.546  15.666  1.00  0.00     0.009 A 
ATOM     72  C   UNL     1       8.524  -3.862  16.811  1.00  0.00     0.001 A 
ATOM     73  C   UNL     1      10.797  -3.057  16.960  1.00  0.00     0.001 A 
ATOM     74  C   UNL     1       9.705  -3.704  17.536  1.00  0.00     0.000 A 
ENDBRANCH  56  69
ENDBRANCH  30  31
ENDBRANCH  22  25
ENDBRANCH  20  21
ENDBRANCH  19  20
ENDBRANCH   1  19
TORSDOF 14
