REMARK SMILES O=C(C[C@@H]1CN(c2ccc([N+](=O)[O-])cc2Cl)CCO1)NCCCCCCNC(=O)c1ccc(-c2c3nc(c(-c4ccccc4)c4ccc([nH]4)c(-c4ccccc4)c4nc(c(-c5ccccc5)c5ccc2[nH]5)C=C4)C=C3)cc1
REMARK SMILES IDX 23 1 22 2 21 3 20 4 1 5 2 6 3 8 4 9 5 10 19 11 6 12 18 13
REMARK SMILES IDX 17 14 7 15 8 16 15 17 9 18 14 19 16 20 10 21 11 22 12 23
REMARK SMILES IDX 13 24 24 25 25 26 26 27 27 28 28 29 29 31 30 32 31 33 77 34
REMARK SMILES IDX 32 35 76 36 33 37 34 38 35 39 70 40 36 41 75 42 69 43 71 44
REMARK SMILES IDX 37 45 74 46 68 47 67 48 38 50 60 51 45 52 59 53 46 54 49 55
REMARK SMILES IDX 58 56 72 57 47 58 48 59 57 61 73 62 50 63 39 64 40 65 44 66
REMARK SMILES IDX 41 67 43 68 42 69 61 70 62 71 66 72 63 73 65 74 64 75 51 76
REMARK SMILES IDX 52 77 56 78 53 79 55 80 54 81
REMARK H PARENT 20 7 27 30 71 49 49 60
REMARK Flexibility Score: inf
ROOT
ATOM      1  C   UNL     1       4.146  -3.566   1.121  1.00  0.00     0.002 C 
ENDROOT
BRANCH   1   2
ATOM      2  C   UNL     1       2.641  -3.450   0.836  1.00  0.00     0.021 C 
BRANCH   2   3
ATOM      3  C   UNL     1       2.047  -2.062   1.065  1.00  0.00     0.116 C 
BRANCH   3   4
ATOM      4  N   UNL     1       2.648  -1.073   0.196  1.00  0.00    -0.356 N 
ATOM      5  O   UNL     1       0.856   0.363   0.174  1.00  0.00    -0.275 OA
ATOM      6  C   UNL     1       2.010   0.101  -0.141  1.00  0.00     0.222 C 
ATOM      7  H   UNL     1       3.546  -1.246  -0.169  1.00  0.00     0.163 HD
BRANCH   6   8
ATOM      8  C   UNL     1       2.910   1.070  -0.875  1.00  0.00     0.133 C 
BRANCH   8   9
ATOM      9  C   UNL     1       3.741   1.953   0.064  1.00  0.00     0.147 C 
ATOM     10  C   UNL     1       4.009   1.355   1.467  1.00  0.00     0.149 C 
ATOM     11  O   UNL     1       3.099   3.245   0.189  1.00  0.00    -0.374 OA
ATOM     12  N   UNL     1       4.819   2.305   2.239  1.00  0.00    -0.365 N 
ATOM     13  C   UNL     1       3.933   4.157   0.930  1.00  0.00     0.182 C 
ATOM     14  C   UNL     1       4.227   3.641   2.352  1.00  0.00     0.145 C 
BRANCH  12  15
ATOM     15  C   UNL     1       5.796   1.841   3.096  1.00  0.00     0.056 A 
ATOM     16  C   UNL     1       5.668   2.015   4.484  1.00  0.00     0.034 A 
ATOM     17  C   UNL     1       6.960   1.187   2.625  1.00  0.00     0.071 A 
ATOM     18  C   UNL     1       6.650   1.558   5.372  1.00  0.00     0.088 A 
ATOM     19  C   UNL     1       7.952   0.733   3.498  1.00  0.00     0.108 A 
ATOM     20  Cl  UNL     1       7.264   0.975   0.929  1.00  0.00    -0.082 Cl
ATOM     21  C   UNL     1       7.791   0.923   4.871  1.00  0.00     0.271 A 
BRANCH  21  22
ATOM     22  N   UNL     1       8.837   0.460   5.791  1.00  0.00     0.062 N 
ATOM     23  O   UNL     1       8.644   0.613   7.005  1.00  0.00    -0.258 OA
ATOM     24  O   UNL     1       9.850  -0.055   5.298  1.00  0.00    -0.258 OA
ENDBRANCH  21  22
ENDBRANCH  12  15
ENDBRANCH   8   9
ENDBRANCH   6   8
ENDBRANCH   3   4
ENDBRANCH   2   3
ENDBRANCH   1   2
BRANCH   1  25
ATOM     25  C   UNL     1       4.567  -3.292   2.568  1.00  0.00     0.002 C 
BRANCH  25  26
ATOM     26  C   UNL     1       3.911  -4.190   3.618  1.00  0.00     0.021 C 
BRANCH  26  27
ATOM     27  C   UNL     1       4.068  -5.688   3.378  1.00  0.00     0.116 C 
BRANCH  27  28
ATOM     28  N   UNL     1       5.453  -6.125   3.429  1.00  0.00    -0.352 N 
ATOM     29  C   UNL     1       5.991  -7.216   4.067  1.00  0.00     0.251 C 
ATOM     30  H   UNL     1       6.094  -5.562   2.938  1.00  0.00     0.163 HD
ATOM     31  O   UNL     1       7.211  -7.357   4.127  1.00  0.00    -0.269 OA
BRANCH  29  32
ATOM     32  C   UNL     1       5.103  -8.212   4.704  1.00  0.00     0.039 A 
ATOM     33  C   UNL     1       5.425  -8.686   5.979  1.00  0.00     0.014 A 
ATOM     34  C   UNL     1       3.965  -8.687   4.047  1.00  0.00     0.014 A 
ATOM     35  C   UNL     1       4.578  -9.599   6.614  1.00  0.00     0.010 A 
ATOM     36  C   UNL     1       3.083  -9.536   4.711  1.00  0.00     0.010 A 
ATOM     37  C   UNL     1       3.386 -10.012   5.996  1.00  0.00    -0.014 A 
BRANCH  37  38
ATOM     38  C   UNL     1       2.465 -10.970   6.660  1.00  0.00     0.031 A 
ATOM     39  C   UNL     1       2.217 -12.322   6.046  1.00  0.00     0.074 A 
ATOM     40  C   UNL     1       1.819 -10.614   7.788  1.00  0.00     0.049 A 
ATOM     41  N   UNL     1       1.401 -13.270   6.436  1.00  0.00    -0.248 NA
ATOM     42  C   UNL     1       2.967 -12.644   4.820  1.00  0.00     0.031 C 
ATOM     43  C   UNL     1       1.945  -9.324   8.471  1.00  0.00     0.029 A 
ATOM     44  N   UNL     1       0.918 -11.308   8.558  1.00  0.00    -0.354 N 
ATOM     45  C   UNL     1       1.536 -14.291   5.503  1.00  0.00     0.074 A 
ATOM     46  C   UNL     1       2.463 -13.825   4.495  1.00  0.00     0.031 C 
ATOM     47  C   UNL     1       1.169  -9.329   9.567  1.00  0.00     0.029 A 
ATOM     48  C   UNL     1       0.460 -10.602   9.645  1.00  0.00     0.049 A 
ATOM     49  H   UNL     1       0.628 -12.226   8.351  1.00  0.00     0.167 HD
ATOM     50  C   UNL     1       0.965 -15.519   5.497  1.00  0.00     0.031 A 
ATOM     51  C   UNL     1      -0.436 -10.939  10.591  1.00  0.00     0.031 A 
ATOM     52  C   UNL     1       0.049 -15.991   6.500  1.00  0.00     0.049 A 
ATOM     53  C   UNL     1      -1.076 -12.301  10.546  1.00  0.00     0.074 A 
ATOM     54  C   UNL     1      -0.569 -17.226   6.591  1.00  0.00     0.029 A 
ATOM     55  N   UNL     1      -0.374 -15.249   7.591  1.00  0.00    -0.354 N 
ATOM     56  N   UNL     1      -0.901 -13.270   9.680  1.00  0.00    -0.248 NA
ATOM     57  C   UNL     1      -2.024 -12.622  11.623  1.00  0.00     0.031 C 
ATOM     58  C   UNL     1      -1.397 -17.218   7.717  1.00  0.00     0.029 A 
ATOM     59  C   UNL     1      -1.248 -16.000   8.359  1.00  0.00     0.049 A 
ATOM     60  H   UNL     1      -0.094 -14.327   7.791  1.00  0.00     0.167 HD
ATOM     61  C   UNL     1      -1.683 -14.326  10.132  1.00  0.00     0.074 A 
ATOM     62  C   UNL     1      -2.319 -13.885  11.354  1.00  0.00     0.031 C 
ATOM     63  C   UNL     1      -1.857 -15.553   9.584  1.00  0.00     0.031 A 
BRANCH  50  64
ATOM     64  C   UNL     1       1.329 -16.448   4.372  1.00  0.00    -0.014 A 
ATOM     65  C   UNL     1       2.612 -17.014   4.290  1.00  0.00     0.009 A 
ATOM     66  C   UNL     1       0.368 -16.805   3.414  1.00  0.00     0.009 A 
ATOM     67  C   UNL     1       2.933 -17.893   3.255  1.00  0.00     0.001 A 
ATOM     68  C   UNL     1       0.683 -17.709   2.397  1.00  0.00     0.001 A 
ATOM     69  C   UNL     1       1.967 -18.246   2.314  1.00  0.00     0.000 A 
ENDBRANCH  50  64
BRANCH  51  70
ATOM     70  C   UNL     1      -0.791  -9.979  11.672  1.00  0.00    -0.014 A 
ATOM     71  C   UNL     1      -0.443 -10.241  13.007  1.00  0.00     0.009 A 
ATOM     72  C   UNL     1      -1.526  -8.819  11.380  1.00  0.00     0.009 A 
ATOM     73  C   UNL     1      -0.863  -9.387  14.030  1.00  0.00     0.001 A 
ATOM     74  C   UNL     1      -1.914  -7.949  12.402  1.00  0.00     0.001 A 
ATOM     75  C   UNL     1      -1.596  -8.242  13.726  1.00  0.00     0.000 A 
ENDBRANCH  51  70
BRANCH  63  76
ATOM     76  C   UNL     1      -2.717 -16.530  10.338  1.00  0.00    -0.014 A 
ATOM     77  C   UNL     1      -4.107 -16.370  10.430  1.00  0.00     0.009 A 
ATOM     78  C   UNL     1      -2.120 -17.650  10.938  1.00  0.00     0.009 A 
ATOM     79  C   UNL     1      -4.878 -17.290  11.144  1.00  0.00     0.001 A 
ATOM     80  C   UNL     1      -2.896 -18.586  11.623  1.00  0.00     0.001 A 
ATOM     81  C   UNL     1      -4.272 -18.399  11.735  1.00  0.00     0.000 A 
ENDBRANCH  63  76
ENDBRANCH  37  38
ENDBRANCH  29  32
ENDBRANCH  27  28
ENDBRANCH  26  27
ENDBRANCH  25  26
ENDBRANCH   1  25
TORSDOF 16
