REMARK SMILES O=C(Cn1c(-c2nc(-c3ccc(C(F)(F)F)cc3)no2)cc2ccccc21)NCCCCCCNC(=O)c1ccc(-c2c3nc(c(-c4ccccc4)c4ccc([nH]4)c(-c4ccccc4)c4nc(c(-c5ccccc5)c5ccc2[nH]5)C=C4)C=C3)cc1
REMARK SMILES IDX 30 1 29 2 28 3 1 4 2 5 3 7 4 8 5 9 27 10 21 11 22 12 26 13
REMARK SMILES IDX 23 14 25 15 24 16 6 17 7 18 20 19 8 20 19 21 9 22 10 23
REMARK SMILES IDX 18 24 11 25 17 26 12 27 13 28 14 29 15 30 16 31 31 32 32 33
REMARK SMILES IDX 33 34 34 35 35 36 36 37 37 39 38 40 39 41 85 42 40 43 84 44
REMARK SMILES IDX 41 45 42 46 43 47 78 48 44 49 83 50 77 51 79 52 45 53 82 54
REMARK SMILES IDX 76 55 75 56 46 58 68 59 53 60 67 61 54 62 57 63 66 64 80 65
REMARK SMILES IDX 55 66 56 67 65 69 81 70 58 71 47 72 48 73 52 74 49 75 51 76
REMARK SMILES IDX 50 77 69 78 70 79 74 80 71 81 73 82 72 83 59 84 60 85 64 86
REMARK SMILES IDX 61 87 63 88 62 89
REMARK H PARENT 28 6 35 38 79 57 57 68
REMARK Flexibility Score: inf
ROOT
ATOM      1  C   UNL     1       2.904   0.732   3.574  1.00  0.00     0.021 C 
ENDROOT
BRANCH   1   2
ATOM      2  C   UNL     1       2.239   1.120   2.260  1.00  0.00     0.116 C 
BRANCH   2   3
ATOM      3  N   UNL     1       2.868   0.494   1.115  1.00  0.00    -0.355 N 
ATOM      4  O   UNL     1       0.914  -0.271   0.184  1.00  0.00    -0.273 OA
ATOM      5  C   UNL     1       2.119  -0.097   0.112  1.00  0.00     0.239 C 
ATOM      6  H   UNL     1       3.850   0.490   1.048  1.00  0.00     0.163 HD
BRANCH   5   7
ATOM      7  C   UNL     1       2.928  -0.605  -1.056  1.00  0.00     0.222 C 
BRANCH   7   8
ATOM      8  N   UNL     1       3.607   0.377  -1.907  1.00  0.00    -0.327 N 
ATOM      9  C   UNL     1       3.446   1.746  -1.999  1.00  0.00     0.109 A 
ATOM     10  C   UNL     1       4.641  -0.020  -2.765  1.00  0.00     0.049 A 
ATOM     11  C   UNL     1       4.332   2.205  -2.957  1.00  0.00     0.042 A 
ATOM     12  C   UNL     1       5.107   1.121  -3.418  1.00  0.00     0.000 A 
ATOM     13  C   UNL     1       5.219  -1.282  -3.006  1.00  0.00     0.027 A 
ATOM     14  C   UNL     1       6.187   1.018  -4.316  1.00  0.00     0.010 A 
ATOM     15  C   UNL     1       6.295  -1.360  -3.898  1.00  0.00     0.002 A 
ATOM     16  C   UNL     1       6.778  -0.226  -4.542  1.00  0.00     0.001 A 
BRANCH   9  17
ATOM     17  C   UNL     1       2.687   2.617  -1.155  1.00  0.00     0.274 A 
ATOM     18  N   UNL     1       1.376   2.721  -1.060  1.00  0.00    -0.185 NA
ATOM     19  O   UNL     1       3.340   3.529  -0.372  1.00  0.00    -0.332 OA
ATOM     20  C   UNL     1       1.219   3.770  -0.166  1.00  0.00     0.202 A 
ATOM     21  N   UNL     1       2.382   4.273   0.278  1.00  0.00    -0.057 NA
BRANCH  20  22
ATOM     22  C   UNL     1      -0.061   4.309   0.300  1.00  0.00     0.023 A 
ATOM     23  C   UNL     1      -0.061   5.393   1.197  1.00  0.00     0.013 A 
ATOM     24  C   UNL     1      -1.294   3.785  -0.104  1.00  0.00     0.013 A 
ATOM     25  C   UNL     1      -1.250   5.935   1.687  1.00  0.00     0.014 A 
ATOM     26  C   UNL     1      -2.494   4.331   0.387  1.00  0.00     0.014 A 
ATOM     27  C   UNL     1      -2.483   5.408   1.290  1.00  0.00     0.056 A 
BRANCH  27  28
ATOM     28  C   UNL     1      -3.750   6.002   1.857  1.00  0.00     0.416 C 
ATOM     29  F   UNL     1      -3.840   5.831   3.207  1.00  0.00    -0.166 F 
ATOM     30  F   UNL     1      -3.834   7.346   1.650  1.00  0.00    -0.166 F 
ATOM     31  F   UNL     1      -4.890   5.471   1.337  1.00  0.00    -0.166 F 
ENDBRANCH  27  28
ENDBRANCH  20  22
ENDBRANCH   9  17
ENDBRANCH   7   8
ENDBRANCH   5   7
ENDBRANCH   2   3
ENDBRANCH   1   2
BRANCH   1  32
ATOM     32  C   UNL     1       4.378   1.135   3.693  1.00  0.00     0.002 C 
BRANCH  32  33
ATOM     33  C   UNL     1       4.671   2.636   3.599  1.00  0.00     0.002 C 
BRANCH  33  34
ATOM     34  C   UNL     1       3.939   3.529   4.609  1.00  0.00     0.021 C 
BRANCH  34  35
ATOM     35  C   UNL     1       3.994   3.042   6.058  1.00  0.00     0.116 C 
BRANCH  35  36
ATOM     36  N   UNL     1       5.337   2.832   6.554  1.00  0.00    -0.352 N 
ATOM     37  C   UNL     1       6.270   3.598   7.188  1.00  0.00     0.251 C 
ATOM     38  H   UNL     1       5.654   1.913   6.396  1.00  0.00     0.163 HD
ATOM     39  O   UNL     1       7.286   3.010   7.568  1.00  0.00    -0.269 OA
BRANCH  37  40
ATOM     40  C   UNL     1       6.183   5.068   7.389  1.00  0.00     0.039 A 
ATOM     41  C   UNL     1       5.084   5.874   7.086  1.00  0.00     0.014 A 
ATOM     42  C   UNL     1       7.353   5.683   7.875  1.00  0.00     0.014 A 
ATOM     43  C   UNL     1       5.184   7.259   7.161  1.00  0.00     0.010 A 
ATOM     44  C   UNL     1       7.454   7.063   7.967  1.00  0.00     0.010 A 
ATOM     45  C   UNL     1       6.385   7.851   7.553  1.00  0.00    -0.014 A 
BRANCH  45  46
ATOM     46  C   UNL     1       6.460   9.308   7.575  1.00  0.00     0.031 A 
ATOM     47  C   UNL     1       5.556   9.989   8.549  1.00  0.00     0.074 A 
ATOM     48  C   UNL     1       7.377   9.992   6.862  1.00  0.00     0.049 A 
ATOM     49  N   UNL     1       4.703  10.938   8.334  1.00  0.00    -0.248 NA
ATOM     50  C   UNL     1       5.562   9.491   9.934  1.00  0.00     0.031 C 
ATOM     51  C   UNL     1       8.508   9.452   6.101  1.00  0.00     0.029 A 
ATOM     52  N   UNL     1       7.565  11.339   6.776  1.00  0.00    -0.354 N 
ATOM     53  C   UNL     1       4.165  11.264   9.579  1.00  0.00     0.074 A 
ATOM     54  C   UNL     1       4.648  10.272  10.506  1.00  0.00     0.031 C 
ATOM     55  C   UNL     1       9.392  10.445   5.852  1.00  0.00     0.029 A 
ATOM     56  C   UNL     1       8.817  11.701   6.298  1.00  0.00     0.049 A 
ATOM     57  H   UNL     1       6.875  11.995   7.030  1.00  0.00     0.167 HD
ATOM     58  C   UNL     1       3.496  12.428   9.809  1.00  0.00     0.031 A 
ATOM     59  C   UNL     1       9.373  12.936   6.343  1.00  0.00     0.031 A 
ATOM     60  C   UNL     1       3.005  13.018   8.596  1.00  0.00     0.049 A 
ATOM     61  C   UNL     1       8.286  13.917   6.547  1.00  0.00     0.074 A 
ATOM     62  C   UNL     1       2.093  12.636   7.633  1.00  0.00     0.029 A 
ATOM     63  N   UNL     1       3.722  14.050   8.045  1.00  0.00    -0.354 N 
ATOM     64  N   UNL     1       7.364  14.174   5.665  1.00  0.00    -0.248 NA
ATOM     65  C   UNL     1       7.985  14.332   7.907  1.00  0.00     0.031 C 
ATOM     66  C   UNL     1       2.634  13.115   6.406  1.00  0.00     0.029 A 
ATOM     67  C   UNL     1       3.811  13.808   6.699  1.00  0.00     0.049 A 
ATOM     68  H   UNL     1       4.102  14.820   8.527  1.00  0.00     0.167 HD
ATOM     69  C   UNL     1       6.213  14.381   6.409  1.00  0.00     0.074 A 
ATOM     70  C   UNL     1       6.680  14.579   7.779  1.00  0.00     0.031 C 
ATOM     71  C   UNL     1       4.979  14.098   5.896  1.00  0.00     0.031 A 
BRANCH  58  72
ATOM     72  C   UNL     1       3.581  13.194  11.108  1.00  0.00    -0.014 A 
ATOM     73  C   UNL     1       4.547  12.927  12.098  1.00  0.00     0.009 A 
ATOM     74  C   UNL     1       2.854  14.390  11.249  1.00  0.00     0.009 A 
ATOM     75  C   UNL     1       4.790  13.804  13.159  1.00  0.00     0.001 A 
ATOM     76  C   UNL     1       3.124  15.293  12.287  1.00  0.00     0.001 A 
ATOM     77  C   UNL     1       4.095  15.001  13.239  1.00  0.00     0.000 A 
ENDBRANCH  58  72
BRANCH  59  78
ATOM     78  C   UNL     1      10.787  13.277   6.612  1.00  0.00    -0.014 A 
ATOM     79  C   UNL     1      11.567  12.441   7.434  1.00  0.00     0.009 A 
ATOM     80  C   UNL     1      11.282  14.557   6.320  1.00  0.00     0.009 A 
ATOM     81  C   UNL     1      12.775  12.883   7.980  1.00  0.00     0.001 A 
ATOM     82  C   UNL     1      12.492  15.000   6.869  1.00  0.00     0.001 A 
ATOM     83  C   UNL     1      13.229  14.170   7.712  1.00  0.00     0.000 A 
ENDBRANCH  59  78
BRANCH  71  84
ATOM     84  C   UNL     1       4.871  13.771   4.422  1.00  0.00    -0.014 A 
ATOM     85  C   UNL     1       3.912  14.450   3.656  1.00  0.00     0.009 A 
ATOM     86  C   UNL     1       5.549  12.691   3.827  1.00  0.00     0.009 A 
ATOM     87  C   UNL     1       3.626  14.057   2.346  1.00  0.00     0.001 A 
ATOM     88  C   UNL     1       5.282  12.314   2.506  1.00  0.00     0.001 A 
ATOM     89  C   UNL     1       4.312  12.990   1.771  1.00  0.00     0.000 A 
ENDBRANCH  71  84
ENDBRANCH  45  46
ENDBRANCH  37  40
ENDBRANCH  35  36
ENDBRANCH  34  35
ENDBRANCH  33  34
ENDBRANCH  32  33
ENDBRANCH   1  32
TORSDOF 17
