REMARK SMILES O=C(C[C@@H]1C(=O)NC(=S)N1c1ccccc1)NCCCCCCNC(=O)c1ccc(-c2c3nc(c(-c4ccccc4)c4ccc([nH]4)c(-c4ccccc4)c4nc(c(-c5ccccc5)c5ccc2[nH]5)C=C4)C=C3)cc1
REMARK SMILES IDX 20 1 19 2 18 3 17 4 1 5 2 6 3 8 4 9 5 10 10 11 6 12 7 13
REMARK SMILES IDX 8 14 9 16 11 17 12 18 16 19 13 20 15 21 14 22 21 23 22 24
REMARK SMILES IDX 23 25 24 26 25 27 26 29 27 30 28 31 74 32 29 33 73 34 30 35
REMARK SMILES IDX 31 36 32 37 67 38 33 39 72 40 66 41 68 42 34 43 71 44 65 45
REMARK SMILES IDX 64 46 35 48 57 49 42 50 56 51 43 52 46 53 55 54 69 55 44 56
REMARK SMILES IDX 45 57 54 59 70 60 47 61 36 62 37 63 41 64 38 65 40 66 39 67
REMARK SMILES IDX 58 68 59 69 63 70 60 71 62 72 61 73 48 74 49 75 53 76 50 77
REMARK SMILES IDX 52 78 51 79
REMARK H PARENT 17 7 7 15 24 28 68 47 46 58
REMARK Flexibility Score: inf
ROOT
ATOM      1  C   UNL     1       4.144   3.321  -1.606  1.00  0.00     0.002 C 
ENDROOT
BRANCH   1   2
ATOM      2  C   UNL     1       2.641   3.178  -1.339  1.00  0.00     0.021 C 
BRANCH   2   3
ATOM      3  C   UNL     1       2.082   1.781  -1.594  1.00  0.00     0.116 C 
BRANCH   3   4
ATOM      4  N   UNL     1       2.685   0.798  -0.715  1.00  0.00    -0.356 N 
ATOM      5  O   UNL     1       0.696  -0.074   0.013  1.00  0.00    -0.275 OA
ATOM      6  C   UNL     1       1.925  -0.083   0.011  1.00  0.00     0.222 C 
ATOM      7  H   UNL     1       3.665   0.762  -0.637  1.00  0.00     0.163 HD
BRANCH   6   8
ATOM      8  C   UNL     1       2.685  -1.015   0.926  1.00  0.00     0.135 C 
BRANCH   8   9
ATOM      9  C   UNL     1       3.743  -1.923   0.316  1.00  0.00     0.188 C 
ATOM     10  C   UNL     1       3.460  -2.322  -1.134  1.00  0.00     0.249 C 
ATOM     11  N   UNL     1       3.847  -3.255   0.930  1.00  0.00    -0.306 N 
ATOM     12  O   UNL     1       3.412  -1.570  -2.094  1.00  0.00    -0.272 OA
ATOM     13  N   UNL     1       3.309  -3.669  -1.204  1.00  0.00    -0.301 N 
ATOM     14  C   UNL     1       3.557  -4.261  -0.005  1.00  0.00     0.180 C 
ATOM     15  H   UNL     1       3.054  -4.156  -2.021  1.00  0.00     0.172 HD
ATOM     16  S   UNL     1       3.440  -5.908   0.177  1.00  0.00    -0.040 S 
BRANCH  11  17
ATOM     17  C   UNL     1       4.370  -3.454   2.235  1.00  0.00     0.044 A 
ATOM     18  C   UNL     1       5.438  -4.337   2.444  1.00  0.00     0.026 A 
ATOM     19  C   UNL     1       3.819  -2.805   3.344  1.00  0.00     0.026 A 
ATOM     20  C   UNL     1       5.922  -4.585   3.732  1.00  0.00     0.002 A 
ATOM     21  C   UNL     1       4.290  -3.066   4.635  1.00  0.00     0.002 A 
ATOM     22  C   UNL     1       5.340  -3.958   4.830  1.00  0.00     0.000 A 
ENDBRANCH  11  17
ENDBRANCH   8   9
ENDBRANCH   6   8
ENDBRANCH   3   4
ENDBRANCH   2   3
ENDBRANCH   1   2
BRANCH   1  23
ATOM     23  C   UNL     1       4.590   2.990  -3.034  1.00  0.00     0.002 C 
BRANCH  23  24
ATOM     24  C   UNL     1       3.900   3.798  -4.135  1.00  0.00     0.021 C 
BRANCH  24  25
ATOM     25  C   UNL     1       4.034   5.312  -4.000  1.00  0.00     0.116 C 
BRANCH  25  26
ATOM     26  N   UNL     1       5.415   5.761  -4.096  1.00  0.00    -0.352 N 
ATOM     27  C   UNL     1       5.972   6.701  -4.928  1.00  0.00     0.251 C 
ATOM     28  H   UNL     1       6.042   5.326  -3.474  1.00  0.00     0.163 HD
ATOM     29  O   UNL     1       7.190   6.831  -4.989  1.00  0.00    -0.269 OA
BRANCH  27  30
ATOM     30  C   UNL     1       5.099   7.539  -5.778  1.00  0.00     0.039 A 
ATOM     31  C   UNL     1       5.426   7.701  -7.127  1.00  0.00     0.014 A 
ATOM     32  C   UNL     1       3.956   8.148  -5.252  1.00  0.00     0.014 A 
ATOM     33  C   UNL     1       4.561   8.406  -7.967  1.00  0.00     0.010 A 
ATOM     34  C   UNL     1       3.060   8.786  -6.105  1.00  0.00     0.010 A 
ATOM     35  C   UNL     1       3.348   8.912  -7.473  1.00  0.00    -0.014 A 
BRANCH  35  36
ATOM     36  C   UNL     1       2.349   9.533  -8.379  1.00  0.00     0.031 A 
ATOM     37  C   UNL     1       1.960  10.975  -8.217  1.00  0.00     0.074 A 
ATOM     38  C   UNL     1       1.732   8.771  -9.303  1.00  0.00     0.049 A 
ATOM     39  N   UNL     1       1.061  11.666  -8.871  1.00  0.00    -0.248 NA
ATOM     40  C   UNL     1       2.655  11.733  -7.166  1.00  0.00     0.031 C 
ATOM     41  C   UNL     1       1.984   7.347  -9.531  1.00  0.00     0.029 A 
ATOM     42  N   UNL     1       0.753   9.085 -10.213  1.00  0.00    -0.354 N 
ATOM     43  C   UNL     1       1.077  12.935  -8.308  1.00  0.00     0.074 A 
ATOM     44  C   UNL     1       2.033  12.901  -7.222  1.00  0.00     0.031 C 
ATOM     45  C   UNL     1       1.195   6.916 -10.527  1.00  0.00     0.029 A 
ATOM     46  C   UNL     1       0.348   8.017 -10.975  1.00  0.00     0.049 A 
ATOM     47  H   UNL     1       0.377   9.990 -10.310  1.00  0.00     0.167 HD
ATOM     48  C   UNL     1       0.373  14.034  -8.671  1.00  0.00     0.031 A 
ATOM     49  C   UNL     1      -0.610   7.923 -11.916  1.00  0.00     0.031 A 
ATOM     50  C   UNL     1      -0.592  14.061  -9.740  1.00  0.00     0.049 A 
ATOM     51  C   UNL     1      -1.407   9.143 -12.278  1.00  0.00     0.074 A 
ATOM     52  C   UNL     1      -1.322  15.136 -10.216  1.00  0.00     0.029 A 
ATOM     53  N   UNL     1      -0.973  12.957 -10.489  1.00  0.00    -0.354 N 
ATOM     54  N   UNL     1      -1.325  10.357 -11.789  1.00  0.00    -0.248 NA
ATOM     55  C   UNL     1      -2.424   8.983 -13.327  1.00  0.00     0.031 C 
ATOM     56  C   UNL     1      -2.192  14.670 -11.208  1.00  0.00     0.029 A 
ATOM     57  C   UNL     1      -1.955  13.318 -11.398  1.00  0.00     0.049 A 
ATOM     58  H   UNL     1      -0.601  12.051 -10.389  1.00  0.00     0.167 HD
ATOM     59  C   UNL     1      -2.264  11.110 -12.481  1.00  0.00     0.074 A 
ATOM     60  C   UNL     1      -2.889  10.220 -13.440  1.00  0.00     0.031 C 
ATOM     61  C   UNL     1      -2.581  12.420 -12.335  1.00  0.00     0.031 A 
BRANCH  48  62
ATOM     62  C   UNL     1       0.612  15.295  -7.884  1.00  0.00    -0.014 A 
ATOM     63  C   UNL     1       1.842  15.971  -7.946  1.00  0.00     0.009 A 
ATOM     64  C   UNL     1      -0.409  15.822  -7.079  1.00  0.00     0.009 A 
ATOM     65  C   UNL     1       2.061  17.118  -7.179  1.00  0.00     0.001 A 
ATOM     66  C   UNL     1      -0.200  16.988  -6.340  1.00  0.00     0.001 A 
ATOM     67  C   UNL     1       1.039  17.627  -6.379  1.00  0.00     0.000 A 
ENDBRANCH  48  62
BRANCH  49  68
ATOM     68  C   UNL     1      -0.869   6.615 -12.573  1.00  0.00    -0.014 A 
ATOM     69  C   UNL     1      -0.524   6.406 -13.917  1.00  0.00     0.009 A 
ATOM     70  C   UNL     1      -1.444   5.558 -11.849  1.00  0.00     0.009 A 
ATOM     71  C   UNL     1      -0.768   5.173 -14.526  1.00  0.00     0.001 A 
ATOM     72  C   UNL     1      -1.657   4.317 -12.451  1.00  0.00     0.001 A 
ATOM     73  C   UNL     1      -1.327   4.128 -13.791  1.00  0.00     0.000 A 
ENDBRANCH  49  68
BRANCH  61  74
ATOM     74  C   UNL     1      -3.642  12.977 -13.245  1.00  0.00    -0.014 A 
ATOM     75  C   UNL     1      -4.993  12.628 -13.089  1.00  0.00     0.009 A 
ATOM     76  C   UNL     1      -3.289  13.900 -14.242  1.00  0.00     0.009 A 
ATOM     77  C   UNL     1      -5.964  13.169 -13.935  1.00  0.00     0.001 A 
ATOM     78  C   UNL     1      -4.266  14.462 -15.066  1.00  0.00     0.001 A 
ATOM     79  C   UNL     1      -5.601  14.090 -14.918  1.00  0.00     0.000 A 
ENDBRANCH  61  74
ENDBRANCH  35  36
ENDBRANCH  27  30
ENDBRANCH  25  26
ENDBRANCH  24  25
ENDBRANCH  23  24
ENDBRANCH   1  23
TORSDOF 15
