REMARK SMILES Cc1cc([N+](=O)[O-])ccc1NC(=O)[C@@H]1[C@@H](C(=O)NCCCCCCNC(=O)c2ccc(-c3c4nc(c(-c5ccccc5)c5ccc([nH]5)c(-c5ccccc5)c5nc(c(-c6ccccc6)c6ccc3[nH]6)C=C5)C=C4)cc2)[C@H]2C=C[C@@H]1C2
REMARK SMILES IDX 21 1 20 2 19 3 18 4 16 5 17 6 15 8 14 9 79 10 76 11 78 12
REMARK SMILES IDX 80 13 77 14 12 15 11 16 13 18 10 19 1 20 2 21 3 22 4 23 9 24
REMARK SMILES IDX 8 25 5 26 6 27 7 28 22 29 23 30 24 31 25 32 26 33 27 35
REMARK SMILES IDX 28 36 29 37 75 38 30 39 74 40 31 41 32 42 33 43 68 44 34 45
REMARK SMILES IDX 73 46 67 47 69 48 35 49 72 50 66 51 65 52 36 54 58 55 43 56
REMARK SMILES IDX 57 57 44 58 47 59 56 60 70 61 45 62 46 63 55 65 71 66 48 67
REMARK SMILES IDX 37 68 38 69 42 70 39 71 41 72 40 73 59 74 60 75 64 76 61 77
REMARK SMILES IDX 63 78 62 79 49 80 50 81 54 82 51 83 53 84 52 85
REMARK H PARENT 18 7 11 17 25 34 69 53 47 64
REMARK Flexibility Score: inf
ROOT
ATOM      1  C   UNL     1      -4.981   9.394  -1.065  1.00  0.00     0.002 C 
ENDROOT
BRANCH   1   2
ATOM      2  C   UNL     1      -3.823   9.160  -0.085  1.00  0.00     0.021 C 
BRANCH   2   3
ATOM      3  C   UNL     1      -3.539   7.719   0.337  1.00  0.00     0.116 C 
BRANCH   3   4
ATOM      4  N   UNL     1      -3.317   6.823  -0.773  1.00  0.00    -0.356 N 
ATOM      5  C   UNL     1      -2.647   5.639  -0.810  1.00  0.00     0.224 C 
ATOM      6  O   UNL     1      -2.659   5.032  -1.884  1.00  0.00    -0.275 OA
ATOM      7  H   UNL     1      -3.708   7.111  -1.629  1.00  0.00     0.163 HD
BRANCH   5   8
ATOM      8  C   UNL     1      -1.843   5.147   0.393  1.00  0.00     0.098 C 
ATOM      9  C   UNL     1      -1.364   3.654   0.180  1.00  0.00     0.099 C 
ATOM     10  C   UNL     1      -1.803   2.968   1.500  1.00  0.00     0.025 C 
ATOM     11  C   UNL     1      -2.614   5.035   1.735  1.00  0.00     0.025 C 
ATOM     12  C   UNL     1      -3.310   2.860   1.457  1.00  0.00    -0.027 C 
ATOM     13  C   UNL     1      -1.680   4.104   2.514  1.00  0.00     0.017 C 
ATOM     14  C   UNL     1      -3.796   4.103   1.585  1.00  0.00    -0.027 C 
BRANCH   9  15
ATOM     15  C   UNL     1       0.120   3.481  -0.083  1.00  0.00     0.228 C 
ATOM     16  N   UNL     1       0.681   2.247  -0.300  1.00  0.00    -0.326 N 
ATOM     17  H   UNL     1       1.655   2.284  -0.441  1.00  0.00     0.169 HD
ATOM     18  O   UNL     1       0.889   4.448  -0.060  1.00  0.00    -0.274 OA
BRANCH  16  19
ATOM     19  C   UNL     1       0.161   0.934  -0.365  1.00  0.00     0.044 A 
ATOM     20  C   UNL     1       2.494  -0.057   0.151  1.00  0.00     0.047 C 
ATOM     21  C   UNL     1       1.006  -0.161  -0.070  1.00  0.00    -0.021 A 
ATOM     22  C   UNL     1       0.456  -1.462   0.012  1.00  0.00     0.091 A 
ATOM     23  C   UNL     1      -0.907  -1.675  -0.209  1.00  0.00     0.269 A 
ATOM     24  C   UNL     1      -1.175   0.665  -0.696  1.00  0.00     0.033 A 
ATOM     25  C   UNL     1      -1.721  -0.617  -0.596  1.00  0.00     0.088 A 
BRANCH  23  26
ATOM     26  N   UNL     1      -1.486  -3.011  -0.038  1.00  0.00     0.062 N 
ATOM     27  O   UNL     1      -0.706  -3.961   0.115  1.00  0.00    -0.258 OA
ATOM     28  O   UNL     1      -2.722  -3.106  -0.041  1.00  0.00    -0.258 OA
ENDBRANCH  23  26
ENDBRANCH  16  19
ENDBRANCH   9  15
ENDBRANCH   5   8
ENDBRANCH   3   4
ENDBRANCH   2   3
ENDBRANCH   1   2
BRANCH   1  29
ATOM     29  C   UNL     1      -6.349   8.786  -0.725  1.00  0.00     0.002 C 
BRANCH  29  30
ATOM     30  C   UNL     1      -6.884   9.008   0.690  1.00  0.00     0.021 C 
BRANCH  30  31
ATOM     31  C   UNL     1      -6.987  10.459   1.133  1.00  0.00     0.116 C 
BRANCH  31  32
ATOM     32  N   UNL     1      -8.231  11.134   0.795  1.00  0.00    -0.352 N 
ATOM     33  C   UNL     1      -8.549  12.483   0.917  1.00  0.00     0.251 C 
ATOM     34  H   UNL     1      -8.943  10.560   0.432  1.00  0.00     0.163 HD
ATOM     35  O   UNL     1      -9.652  12.886   0.622  1.00  0.00    -0.269 OA
BRANCH  33  36
ATOM     36  C   UNL     1      -7.475  13.447   1.290  1.00  0.00     0.039 A 
ATOM     37  C   UNL     1      -7.350  14.611   0.523  1.00  0.00     0.014 A 
ATOM     38  C   UNL     1      -6.499  13.125   2.229  1.00  0.00     0.014 A 
ATOM     39  C   UNL     1      -6.137  15.297   0.516  1.00  0.00     0.010 A 
ATOM     40  C   UNL     1      -5.263  13.736   2.149  1.00  0.00     0.010 A 
ATOM     41  C   UNL     1      -5.063  14.778   1.242  1.00  0.00    -0.014 A 
BRANCH  41  42
ATOM     42  C   UNL     1      -3.684  15.188   1.012  1.00  0.00     0.031 A 
ATOM     43  C   UNL     1      -3.027  16.149   1.915  1.00  0.00     0.074 A 
ATOM     44  C   UNL     1      -2.998  14.722  -0.056  1.00  0.00     0.049 A 
ATOM     45  N   UNL     1      -2.202  17.058   1.512  1.00  0.00    -0.248 NA
ATOM     46  C   UNL     1      -3.283  16.184   3.349  1.00  0.00     0.031 C 
ATOM     47  C   UNL     1      -1.576  14.908  -0.333  1.00  0.00     0.029 A 
ATOM     48  N   UNL     1      -3.504  14.177  -1.236  1.00  0.00    -0.354 N 
ATOM     49  C   UNL     1      -1.610  17.588   2.633  1.00  0.00     0.074 A 
ATOM     50  C   UNL     1      -2.382  17.088   3.749  1.00  0.00     0.031 C 
ATOM     51  C   UNL     1      -1.381  14.796  -1.657  1.00  0.00     0.029 A 
ATOM     52  C   UNL     1      -2.687  14.644  -2.277  1.00  0.00     0.049 A 
ATOM     53  H   UNL     1      -4.282  13.580  -1.322  1.00  0.00     0.167 HD
ATOM     54  C   UNL     1      -0.429  18.259   2.533  1.00  0.00     0.031 A 
ATOM     55  C   UNL     1      -3.142  15.337  -3.358  1.00  0.00     0.031 A 
ATOM     56  C   UNL     1       0.083  18.280   1.168  1.00  0.00     0.049 A 
ATOM     57  C   UNL     1      -2.449  16.666  -3.549  1.00  0.00     0.074 A 
ATOM     58  C   UNL     1       1.048  17.517   0.529  1.00  0.00     0.029 A 
ATOM     59  N   UNL     1      -0.591  18.980   0.178  1.00  0.00    -0.354 N 
ATOM     60  N   UNL     1      -1.764  17.262  -2.614  1.00  0.00    -0.248 NA
ATOM     61  C   UNL     1      -2.533  17.463  -4.769  1.00  0.00     0.031 C 
ATOM     62  C   UNL     1       0.946  17.754  -0.862  1.00  0.00     0.029 A 
ATOM     63  C   UNL     1      -0.072  18.669  -1.063  1.00  0.00     0.049 A 
ATOM     64  H   UNL     1      -1.332  19.608   0.338  1.00  0.00     0.167 HD
ATOM     65  C   UNL     1      -1.322  18.478  -3.070  1.00  0.00     0.074 A 
ATOM     66  C   UNL     1      -1.829  18.557  -4.427  1.00  0.00     0.031 C 
ATOM     67  C   UNL     1      -0.589  19.305  -2.267  1.00  0.00     0.031 A 
BRANCH  54  68
ATOM     68  C   UNL     1       0.416  18.611   3.731  1.00  0.00    -0.014 A 
ATOM     69  C   UNL     1       1.819  18.622   3.616  1.00  0.00     0.009 A 
ATOM     70  C   UNL     1      -0.106  18.914   4.999  1.00  0.00     0.009 A 
ATOM     71  C   UNL     1       2.653  18.810   4.723  1.00  0.00     0.001 A 
ATOM     72  C   UNL     1       0.722  19.065   6.120  1.00  0.00     0.001 A 
ATOM     73  C   UNL     1       2.103  18.999   5.984  1.00  0.00     0.000 A 
ENDBRANCH  54  68
BRANCH  55  74
ATOM     74  C   UNL     1      -4.567  15.088  -3.694  1.00  0.00    -0.014 A 
ATOM     75  C   UNL     1      -4.922  13.828  -4.211  1.00  0.00     0.009 A 
ATOM     76  C   UNL     1      -5.574  15.907  -3.163  1.00  0.00     0.009 A 
ATOM     77  C   UNL     1      -6.232  13.355  -4.098  1.00  0.00     0.001 A 
ATOM     78  C   UNL     1      -6.885  15.430  -3.057  1.00  0.00     0.001 A 
ATOM     79  C   UNL     1      -7.206  14.145  -3.493  1.00  0.00     0.000 A 
ENDBRANCH  55  74
BRANCH  67  80
ATOM     80  C   UNL     1      -0.197  20.744  -2.525  1.00  0.00    -0.014 A 
ATOM     81  C   UNL     1      -0.732  21.560  -3.527  1.00  0.00     0.009 A 
ATOM     82  C   UNL     1       0.706  21.370  -1.630  1.00  0.00     0.009 A 
ATOM     83  C   UNL     1      -0.367  22.911  -3.646  1.00  0.00     0.001 A 
ATOM     84  C   UNL     1       1.042  22.723  -1.717  1.00  0.00     0.001 A 
ATOM     85  C   UNL     1       0.509  23.495  -2.735  1.00  0.00     0.000 A 
ENDBRANCH  67  80
ENDBRANCH  41  42
ENDBRANCH  33  36
ENDBRANCH  31  32
ENDBRANCH  30  31
ENDBRANCH  29  30
ENDBRANCH   1  29
TORSDOF 16
