REMARK SMILES O=C(NCCCCCCNC(=O)[C@@H]1CC=CC[C@H]1C(=O)N1CC[NH+](Cc2ccc3c(c2)OCO3)CC1)c1ccc(-c2c3nc(c(-c4ccccc4)c4ccc([nH]4)c(-c4ccccc4)c4nc(c(-c5ccccc5)c5ccc2[nH]5)C=C4)C=C3)cc1
REMARK SMILES IDX 7 1 6 2 5 3 4 4 3 5 1 6 2 7 37 9 38 10 84 11 39 12 83 13
REMARK SMILES IDX 40 14 41 15 42 16 77 17 43 18 82 19 76 20 78 21 44 22 81 23
REMARK SMILES IDX 75 24 74 25 45 27 67 28 52 29 66 30 53 31 56 32 65 33 79 34
REMARK SMILES IDX 54 35 55 36 64 38 80 39 57 40 46 41 47 42 51 43 48 44 50 45
REMARK SMILES IDX 49 46 68 47 69 48 73 49 70 50 72 51 71 52 58 53 59 54 63 55
REMARK SMILES IDX 60 56 62 57 61 58 8 59 9 60 10 61 11 62 12 64 13 65 14 66
REMARK SMILES IDX 18 67 15 68 17 69 16 70 19 71 20 72 21 73 22 74 36 75 23 76
REMARK SMILES IDX 35 77 24 78 25 80 26 81 27 82 31 83 28 84 30 85 29 86 32 87
REMARK SMILES IDX 34 88 33 89
REMARK H PARENT 3 8 78 26 56 37 10 63 24 79
REMARK Flexibility Score: inf
ROOT
ATOM      1  C   UNL     1      13.580  -3.670  -3.215  1.00  0.00     0.002 C 
ENDROOT
BRANCH   1   2
ATOM      2  C   UNL     1      13.744  -3.068  -1.815  1.00  0.00     0.002 C 
BRANCH   2   3
ATOM      3  C   UNL     1      14.566  -3.893  -0.825  1.00  0.00     0.021 C 
BRANCH   3   4
ATOM      4  C   UNL     1      15.947  -4.308  -1.310  1.00  0.00     0.116 C 
BRANCH   4   5
ATOM      5  N   UNL     1      16.834  -3.180  -1.535  1.00  0.00    -0.352 N 
ATOM      6  O   UNL     1      18.663  -1.888  -1.239  1.00  0.00    -0.269 OA
ATOM      7  C   UNL     1      18.100  -2.962  -1.048  1.00  0.00     0.251 C 
ATOM      8  H   UNL     1      16.477  -2.472  -2.119  1.00  0.00     0.163 HD
BRANCH   7   9
ATOM      9  C   UNL     1      18.770  -4.016  -0.254  1.00  0.00     0.039 A 
ATOM     10  C   UNL     1      18.748  -5.348  -0.672  1.00  0.00     0.014 A 
ATOM     11  C   UNL     1      19.406  -3.665   0.940  1.00  0.00     0.014 A 
ATOM     12  C   UNL     1      19.208  -6.344   0.182  1.00  0.00     0.010 A 
ATOM     13  C   UNL     1      19.953  -4.662   1.753  1.00  0.00     0.010 A 
ATOM     14  C   UNL     1      19.817  -6.014   1.404  1.00  0.00    -0.014 A 
BRANCH  14  15
ATOM     15  C   UNL     1      20.324  -7.101   2.280  1.00  0.00     0.031 A 
ATOM     16  C   UNL     1      19.735  -7.341   3.645  1.00  0.00     0.074 A 
ATOM     17  C   UNL     1      21.299  -7.908   1.818  1.00  0.00     0.049 A 
ATOM     18  N   UNL     1      20.023  -8.281   4.511  1.00  0.00    -0.248 NA
ATOM     19  C   UNL     1      18.696  -6.406   4.102  1.00  0.00     0.031 C 
ATOM     20  C   UNL     1      21.956  -7.777   0.515  1.00  0.00     0.029 A 
ATOM     21  N   UNL     1      21.887  -9.013   2.377  1.00  0.00    -0.354 N 
ATOM     22  C   UNL     1      19.225  -8.034   5.622  1.00  0.00     0.074 A 
ATOM     23  C   UNL     1      18.456  -6.844   5.330  1.00  0.00     0.031 C 
ATOM     24  C   UNL     1      22.809  -8.798   0.348  1.00  0.00     0.029 A 
ATOM     25  C   UNL     1      22.806  -9.618   1.554  1.00  0.00     0.049 A 
ATOM     26  H   UNL     1      21.672  -9.341   3.280  1.00  0.00     0.167 HD
ATOM     27  C   UNL     1      19.139  -8.736   6.779  1.00  0.00     0.031 A 
ATOM     28  C   UNL     1      23.567 -10.710   1.746  1.00  0.00     0.031 A 
ATOM     29  C   UNL     1      19.896  -9.927   7.066  1.00  0.00     0.049 A 
ATOM     30  C   UNL     1      23.459 -11.460   3.040  1.00  0.00     0.074 A 
ATOM     31  C   UNL     1      19.848 -10.729   8.194  1.00  0.00     0.029 A 
ATOM     32  N   UNL     1      20.841 -10.486   6.220  1.00  0.00    -0.354 N 
ATOM     33  N   UNL     1      22.671 -11.233   4.062  1.00  0.00    -0.248 NA
ATOM     34  C   UNL     1      24.344 -12.621   3.203  1.00  0.00     0.031 C 
ATOM     35  C   UNL     1      20.798 -11.745   8.051  1.00  0.00     0.029 A 
ATOM     36  C   UNL     1      21.398 -11.609   6.809  1.00  0.00     0.049 A 
ATOM     37  H   UNL     1      21.081 -10.136   5.331  1.00  0.00     0.167 HD
ATOM     38  C   UNL     1      22.947 -12.238   4.980  1.00  0.00     0.074 A 
ATOM     39  C   UNL     1      23.961 -13.084   4.384  1.00  0.00     0.031 C 
ATOM     40  C   UNL     1      22.406 -12.441   6.206  1.00  0.00     0.031 A 
BRANCH  27  41
ATOM     41  C   UNL     1      18.208  -8.216   7.840  1.00  0.00    -0.014 A 
ATOM     42  C   UNL     1      16.814  -8.304   7.702  1.00  0.00     0.009 A 
ATOM     43  C   UNL     1      18.738  -7.666   9.018  1.00  0.00     0.009 A 
ATOM     44  C   UNL     1      15.971  -7.821   8.706  1.00  0.00     0.001 A 
ATOM     45  C   UNL     1      17.894  -7.209  10.032  1.00  0.00     0.001 A 
ATOM     46  C   UNL     1      16.512  -7.278   9.871  1.00  0.00     0.000 A 
ENDBRANCH  27  41
BRANCH  28  47
ATOM     47  C   UNL     1      24.495 -11.162   0.677  1.00  0.00    -0.014 A 
ATOM     48  C   UNL     1      24.241 -12.344  -0.033  1.00  0.00     0.009 A 
ATOM     49  C   UNL     1      25.634 -10.407   0.357  1.00  0.00     0.009 A 
ATOM     50  C   UNL     1      25.122 -12.774  -1.028  1.00  0.00     0.001 A 
ATOM     51  C   UNL     1      26.497 -10.823  -0.658  1.00  0.00     0.001 A 
ATOM     52  C   UNL     1      26.246 -12.010  -1.343  1.00  0.00     0.000 A 
ENDBRANCH  28  47
BRANCH  40  53
ATOM     53  C   UNL     1      22.874 -13.652   6.963  1.00  0.00    -0.014 A 
ATOM     54  C   UNL     1      24.157 -13.711   7.527  1.00  0.00     0.009 A 
ATOM     55  C   UNL     1      22.007 -14.744   7.124  1.00  0.00     0.009 A 
ATOM     56  C   UNL     1      24.577 -14.858   8.203  1.00  0.00     0.001 A 
ATOM     57  C   UNL     1      22.419 -15.877   7.825  1.00  0.00     0.001 A 
ATOM     58  C   UNL     1      23.707 -15.938   8.354  1.00  0.00     0.000 A 
ENDBRANCH  40  53
ENDBRANCH  14  15
ENDBRANCH   7   9
ENDBRANCH   4   5
ENDBRANCH   3   4
ENDBRANCH   2   3
ENDBRANCH   1   2
BRANCH   1  59
ATOM     59  C   UNL     1      13.099  -5.123  -3.274  1.00  0.00     0.021 C 
BRANCH  59  60
ATOM     60  C   UNL     1      11.855  -5.431  -2.450  1.00  0.00     0.116 C 
BRANCH  60  61
ATOM     61  N   UNL     1      10.681  -4.727  -2.926  1.00  0.00    -0.356 N 
ATOM     62  C   UNL     1       9.390  -5.139  -3.038  1.00  0.00     0.224 C 
ATOM     63  H   UNL     1      10.845  -3.801  -3.215  1.00  0.00     0.163 HD
ATOM     64  O   UNL     1       8.545  -4.282  -3.308  1.00  0.00    -0.275 OA
BRANCH  62  65
ATOM     65  C   UNL     1       8.986  -6.598  -2.853  1.00  0.00     0.095 C 
ATOM     66  C   UNL     1       9.235  -7.063  -1.408  1.00  0.00     0.041 C 
ATOM     67  C   UNL     1       9.588  -7.484  -3.953  1.00  0.00     0.095 C 
ATOM     68  C   UNL     1       9.406  -8.541  -1.248  1.00  0.00    -0.030 C 
ATOM     69  C   UNL     1       9.356  -8.986  -3.705  1.00  0.00     0.041 C 
ATOM     70  C   UNL     1       9.458  -9.400  -2.272  1.00  0.00    -0.030 C 
BRANCH  67  71
ATOM     71  C   UNL     1       9.126  -7.178  -5.383  1.00  0.00     0.227 C 
ATOM     72  O   UNL     1       9.956  -7.020  -6.280  1.00  0.00    -0.275 OA
ATOM     73  N   UNL     1       7.783  -7.377  -5.653  1.00  0.00    -0.331 N 
ATOM     74  C   UNL     1       7.447  -8.167  -6.831  1.00  0.00     0.181 C 
ATOM     75  C   UNL     1       6.800  -6.337  -5.371  1.00  0.00     0.181 C 
ATOM     76  C   UNL     1       6.007  -8.722  -6.760  1.00  0.00     0.284 C 
ATOM     77  C   UNL     1       5.391  -6.935  -5.215  1.00  0.00     0.284 C 
ATOM     78  N   UNL     1       4.949  -7.792  -6.328  1.00  0.00    -0.328 N 
ATOM     79  H   UNL     1       4.212  -8.386  -5.951  1.00  0.00     0.348 HD
BRANCH  78  80
ATOM     80  C   UNL     1       4.222  -7.101  -7.400  1.00  0.00     0.299 C 
BRANCH  80  81
ATOM     81  C   UNL     1       4.965  -6.000  -8.122  1.00  0.00     0.010 A 
ATOM     82  C   UNL     1       5.828  -6.306  -9.198  1.00  0.00     0.013 A 
ATOM     83  C   UNL     1       4.870  -4.671  -7.670  1.00  0.00     0.060 A 
ATOM     84  C   UNL     1       6.662  -5.332  -9.753  1.00  0.00     0.051 A 
ATOM     85  C   UNL     1       5.710  -3.734  -8.231  1.00  0.00     0.166 A 
ATOM     86  C   UNL     1       6.594  -4.059  -9.231  1.00  0.00     0.165 A 
ATOM     87  O   UNL     1       5.815  -2.433  -7.847  1.00  0.00    -0.454 OA
ATOM     88  O   UNL     1       7.371  -3.006  -9.600  1.00  0.00    -0.454 OA
ATOM     89  C   UNL     1       6.921  -2.002  -8.667  1.00  0.00     0.468 C 
ENDBRANCH  80  81
ENDBRANCH  78  80
ENDBRANCH  67  71
ENDBRANCH  62  65
ENDBRANCH  60  61
ENDBRANCH  59  60
ENDBRANCH   1  59
TORSDOF 16
