REMARK SMILES CCN1C(=O)/C(=C/c2ccccc2O[C@H](C)C(=O)NCCCCCCNC(=O)c2ccc(-c3c4nc(c(-c5ccccc5)c5ccc([nH]5)c(-c5ccccc5)c5nc(c(-c6ccccc6)c6ccc3[nH]6)C=C5)C=C4)cc2)S/C1=[NH+]\c1ccc(C)cc1O
REMARK SMILES IDX 21 1 20 2 19 3 17 4 18 5 15 7 16 8 14 9 13 10 8 11 9 12
REMARK SMILES IDX 10 13 12 14 11 15 7 16 3 17 4 18 78 19 5 20 6 21 77 22 79 23
REMARK SMILES IDX 2 25 1 26 80 27 81 28 86 29 82 30 85 31 83 32 84 33 87 34
REMARK SMILES IDX 22 36 23 37 24 38 25 39 26 40 27 41 28 43 29 44 30 45 76 46
REMARK SMILES IDX 31 47 75 48 32 49 33 50 34 51 69 52 35 53 74 54 68 55 70 56
REMARK SMILES IDX 36 57 73 58 67 59 66 60 37 62 59 63 44 64 58 65 45 66 48 67
REMARK SMILES IDX 57 68 71 69 46 70 47 71 56 73 72 74 49 75 38 76 39 77 43 78
REMARK SMILES IDX 40 79 42 80 41 81 60 82 61 83 65 84 62 85 64 86 63 87 50 88
REMARK SMILES IDX 51 89 55 90 52 91 54 92 53 93
REMARK H PARENT 19 6 79 24 87 35 26 42 70 61 48 72
REMARK Flexibility Score: inf
ROOT
ATOM      1  C   UNL     1       3.985   2.120  -6.574  1.00  0.00     0.021 C 
ENDROOT
BRANCH   1   2
ATOM      2  C   UNL     1       3.295   1.845  -5.247  1.00  0.00     0.116 C 
BRANCH   2   3
ATOM      3  N   UNL     1       4.208   1.608  -4.162  1.00  0.00    -0.353 N 
ATOM      4  C   UNL     1       4.353   2.314  -3.004  1.00  0.00     0.260 C 
ATOM      5  O   UNL     1       5.143   1.861  -2.168  1.00  0.00    -0.271 OA
ATOM      6  H   UNL     1       4.807   0.834  -4.269  1.00  0.00     0.163 HD
BRANCH   4   7
ATOM      7  C   UNL     1       3.638   3.672  -2.759  1.00  0.00     0.258 C 
ATOM      8  C   UNL     1       4.407   4.820  -3.393  1.00  0.00     0.064 C 
BRANCH   7   9
ATOM      9  O   UNL     1       2.222   3.678  -2.810  1.00  0.00    -0.480 OA
BRANCH   9  10
ATOM     10  C   UNL     1       1.349   4.124  -3.755  1.00  0.00     0.127 A 
ATOM     11  C   UNL     1       0.002   3.766  -3.515  1.00  0.00     0.018 A 
ATOM     12  C   UNL     1      -0.964   3.961  -4.512  1.00  0.00     0.012 A 
ATOM     13  C   UNL     1      -0.617   4.572  -5.715  1.00  0.00     0.001 A 
ATOM     14  C   UNL     1       1.657   4.819  -4.924  1.00  0.00     0.047 A 
ATOM     15  C   UNL     1       0.683   5.026  -5.907  1.00  0.00     0.004 A 
BRANCH  11  16
ATOM     16  C   UNL     1      -0.436   3.211  -2.218  1.00  0.00     0.036 C 
ATOM     17  N   UNL     1      -0.521   4.214   1.264  1.00  0.00    -0.186 N 
ATOM     18  C   UNL     1      -0.729   3.288   0.257  1.00  0.00     0.348 C 
ATOM     19  C   UNL     1       0.053   5.408   0.880  1.00  0.00     0.324 C 
ATOM     20  O   UNL     1      -1.272   2.194   0.345  1.00  0.00    -0.240 OA
ATOM     21  C   UNL     1      -0.238   3.826  -1.041  1.00  0.00     0.110 C 
ATOM     22  S   UNL     1       0.527   5.342  -0.787  1.00  0.00     0.007 SA
ATOM     23  N   UNL     1       0.147   6.431   1.667  1.00  0.00    -0.231 N 
ATOM     24  H   UNL     1      -0.179   6.358   2.593  1.00  0.00     0.313 HD
BRANCH  17  25
ATOM     25  C   UNL     1      -0.891   4.019   2.665  1.00  0.00     0.244 C 
ATOM     26  C   UNL     1      -1.613   2.739   3.045  1.00  0.00     0.055 C 
ENDBRANCH  17  25
BRANCH  23  27
ATOM     27  C   UNL     1       0.710   7.651   1.225  1.00  0.00     0.167 A 
ATOM     28  C   UNL     1       1.883   8.113   1.826  1.00  0.00     0.056 A 
ATOM     29  C   UNL     1       0.099   8.474   0.262  1.00  0.00     0.162 A 
ATOM     30  C   UNL     1       2.444   9.344   1.457  1.00  0.00     0.008 A 
ATOM     31  C   UNL     1       0.664   9.684  -0.133  1.00  0.00     0.054 A 
ATOM     32  C   UNL     1       1.843  10.133   0.467  1.00  0.00    -0.047 A 
ATOM     33  C   UNL     1       2.422  11.468   0.102  1.00  0.00     0.044 C 
BRANCH  29  34
ATOM     34  O   UNL     1      -1.089   8.133  -0.330  1.00  0.00    -0.504 OA
ATOM     35  H   UNL     1      -1.513   7.330  -0.101  1.00  0.00     0.293 HD
ENDBRANCH  29  34
ENDBRANCH  23  27
ENDBRANCH  11  16
ENDBRANCH   9  10
ENDBRANCH   7   9
ENDBRANCH   4   7
ENDBRANCH   2   3
ENDBRANCH   1   2
BRANCH   1  36
ATOM     36  C   UNL     1       4.230   0.859  -7.398  1.00  0.00     0.002 C 
BRANCH  36  37
ATOM     37  C   UNL     1       2.966   0.057  -7.736  1.00  0.00     0.002 C 
BRANCH  37  38
ATOM     38  C   UNL     1       1.854   0.846  -8.437  1.00  0.00     0.021 C 
BRANCH  38  39
ATOM     39  C   UNL     1       2.273   1.501  -9.750  1.00  0.00     0.116 C 
BRANCH  39  40
ATOM     40  N   UNL     1       2.810   0.530 -10.691  1.00  0.00    -0.352 N 
ATOM     41  C   UNL     1       2.377   0.185 -11.944  1.00  0.00     0.251 C 
ATOM     42  H   UNL     1       3.609   0.047 -10.379  1.00  0.00     0.163 HD
ATOM     43  O   UNL     1       2.813  -0.824 -12.491  1.00  0.00    -0.269 OA
BRANCH  41  44
ATOM     44  C   UNL     1       1.376   1.021 -12.635  1.00  0.00     0.039 A 
ATOM     45  C   UNL     1       0.325   0.397 -13.309  1.00  0.00     0.014 A 
ATOM     46  C   UNL     1       1.486   2.415 -12.636  1.00  0.00     0.014 A 
ATOM     47  C   UNL     1      -0.656   1.173 -13.927  1.00  0.00     0.010 A 
ATOM     48  C   UNL     1       0.471   3.188 -13.192  1.00  0.00     0.010 A 
ATOM     49  C   UNL     1      -0.613   2.575 -13.838  1.00  0.00    -0.014 A 
BRANCH  49  50
ATOM     50  C   UNL     1      -1.712   3.409 -14.383  1.00  0.00     0.031 A 
ATOM     51  C   UNL     1      -1.456   4.372 -15.509  1.00  0.00     0.074 A 
ATOM     52  C   UNL     1      -2.931   3.344 -13.812  1.00  0.00     0.049 A 
ATOM     53  N   UNL     1      -2.282   5.217 -16.072  1.00  0.00    -0.248 NA
ATOM     54  C   UNL     1      -0.092   4.407 -16.060  1.00  0.00     0.031 C 
ATOM     55  C   UNL     1      -3.295   2.479 -12.686  1.00  0.00     0.029 A 
ATOM     56  N   UNL     1      -4.090   4.023 -14.094  1.00  0.00    -0.354 N 
ATOM     57  C   UNL     1      -1.538   5.891 -17.032  1.00  0.00     0.074 A 
ATOM     58  C   UNL     1      -0.183   5.389 -16.945  1.00  0.00     0.031 C 
ATOM     59  C   UNL     1      -4.591   2.663 -12.390  1.00  0.00     0.029 A 
ATOM     60  C   UNL     1      -5.138   3.690 -13.271  1.00  0.00     0.049 A 
ATOM     61  H   UNL     1      -4.163   4.687 -14.818  1.00  0.00     0.167 HD
ATOM     62  C   UNL     1      -1.949   6.832 -17.915  1.00  0.00     0.031 A 
ATOM     63  C   UNL     1      -6.396   4.167 -13.218  1.00  0.00     0.031 A 
ATOM     64  C   UNL     1      -3.298   7.325 -18.002  1.00  0.00     0.049 A 
ATOM     65  C   UNL     1      -6.816   5.231 -14.194  1.00  0.00     0.074 A 
ATOM     66  C   UNL     1      -3.825   8.231 -18.906  1.00  0.00     0.029 A 
ATOM     67  N   UNL     1      -4.330   6.962 -17.151  1.00  0.00    -0.354 N 
ATOM     68  N   UNL     1      -6.120   5.797 -15.150  1.00  0.00    -0.248 NA
ATOM     69  C   UNL     1      -8.200   5.714 -14.089  1.00  0.00     0.031 C 
ATOM     70  C   UNL     1      -5.160   8.466 -18.561  1.00  0.00     0.029 A 
ATOM     71  C   UNL     1      -5.482   7.655 -17.485  1.00  0.00     0.049 A 
ATOM     72  H   UNL     1      -4.255   6.308 -16.419  1.00  0.00     0.167 HD
ATOM     73  C   UNL     1      -6.987   6.684 -15.774  1.00  0.00     0.074 A 
ATOM     74  C   UNL     1      -8.265   6.562 -15.105  1.00  0.00     0.031 C 
ATOM     75  C   UNL     1      -6.746   7.527 -16.808  1.00  0.00     0.031 A 
BRANCH  62  76
ATOM     76  C   UNL     1      -0.925   7.404 -18.856  1.00  0.00    -0.014 A 
ATOM     77  C   UNL     1      -0.388   6.639 -19.903  1.00  0.00     0.009 A 
ATOM     78  C   UNL     1      -0.543   8.750 -18.735  1.00  0.00     0.009 A 
ATOM     79  C   UNL     1       0.532   7.201 -20.791  1.00  0.00     0.001 A 
ATOM     80  C   UNL     1       0.353   9.318 -19.642  1.00  0.00     0.001 A 
ATOM     81  C   UNL     1       0.895   8.541 -20.665  1.00  0.00     0.000 A 
ENDBRANCH  62  76
BRANCH  63  82
ATOM     82  C   UNL     1      -7.350   3.655 -12.199  1.00  0.00    -0.014 A 
ATOM     83  C   UNL     1      -8.470   2.900 -12.581  1.00  0.00     0.009 A 
ATOM     84  C   UNL     1      -7.158   3.939 -10.838  1.00  0.00     0.009 A 
ATOM     85  C   UNL     1      -9.395   2.473 -11.626  1.00  0.00     0.001 A 
ATOM     86  C   UNL     1      -8.066   3.481  -9.881  1.00  0.00     0.001 A 
ATOM     87  C   UNL     1      -9.191   2.760 -10.277  1.00  0.00     0.000 A 
ENDBRANCH  63  82
BRANCH  75  88
ATOM     88  C   UNL     1      -7.896   8.362 -17.297  1.00  0.00    -0.014 A 
ATOM     89  C   UNL     1      -8.401   9.426 -16.533  1.00  0.00     0.009 A 
ATOM     90  C   UNL     1      -8.455   8.105 -18.558  1.00  0.00     0.009 A 
ATOM     91  C   UNL     1      -9.468  10.191 -17.009  1.00  0.00     0.001 A 
ATOM     92  C   UNL     1      -9.499   8.893 -19.045  1.00  0.00     0.001 A 
ATOM     93  C   UNL     1     -10.011   9.928 -18.266  1.00  0.00     0.000 A 
ENDBRANCH  75  88
ENDBRANCH  49  50
ENDBRANCH  41  44
ENDBRANCH  39  40
ENDBRANCH  38  39
ENDBRANCH  37  38
ENDBRANCH  36  37
ENDBRANCH   1  36
TORSDOF 19
