REMARK SMILES C[C@@]12CC[C@@H]3c4ccc(O)cc4/C(=N\OCC(=O)NCCCCCCNC(=O)c4ccc(-c5c6nc(c(-c7ccccc7)c7ccc([nH]7)c(-c7ccccc7)c7nc(c(-c8ccccc8)c8ccc5[nH]8)C=C7)C=C6)cc4)C[C@H]3[C@@H]1C[C@@H](O)[C@@H]2O
REMARK SMILES IDX 22 1 21 2 20 3 19 4 17 5 18 6 16 8 15 9 14 10 1 11 2 12 3 13
REMARK SMILES IDX 79 14 83 15 4 16 78 17 80 18 81 19 5 20 77 21 6 22 13 23
REMARK SMILES IDX 7 24 12 25 8 26 11 27 9 28 84 29 82 31 10 33 23 35 24 36
REMARK SMILES IDX 25 37 26 38 27 39 28 41 29 42 30 43 76 44 31 45 75 46 32 47
REMARK SMILES IDX 33 48 34 49 69 50 35 51 74 52 68 53 70 54 36 55 73 56 67 57
REMARK SMILES IDX 66 58 37 60 59 61 44 62 58 63 45 64 48 65 57 66 71 67 46 68
REMARK SMILES IDX 47 69 56 71 72 72 49 73 38 74 39 75 43 76 40 77 42 78 41 79
REMARK SMILES IDX 60 80 61 81 65 82 62 83 64 84 63 85 50 86 51 87 55 88 52 89
REMARK SMILES IDX 54 90 53 91
REMARK H PARENT 19 7 84 30 82 32 10 34 26 40 70 59 48 70
REMARK Flexibility Score: inf
ROOT
ATOM      1  C   UNL     1       3.046   8.681   4.188  1.00  0.00     0.002 C 
ENDROOT
BRANCH   1   2
ATOM      2  C   UNL     1       2.272   8.729   2.866  1.00  0.00     0.021 C 
BRANCH   2   3
ATOM      3  C   UNL     1       2.765   9.752   1.846  1.00  0.00     0.116 C 
BRANCH   3   4
ATOM      4  N   UNL     1       4.034   9.361   1.264  1.00  0.00    -0.353 N 
ATOM      5  C   UNL     1       4.298   8.825   0.032  1.00  0.00     0.260 C 
ATOM      6  O   UNL     1       5.472   8.557  -0.238  1.00  0.00    -0.271 OA
ATOM      7  H   UNL     1       4.821   9.500   1.839  1.00  0.00     0.163 HD
BRANCH   5   8
ATOM      8  C   UNL     1       3.183   8.664  -1.002  1.00  0.00     0.363 C 
BRANCH   8   9
ATOM      9  O   UNL     1       2.105   7.873  -0.536  1.00  0.00    -0.385 OA
BRANCH   9  10
ATOM     10  N   UNL     1       2.110   6.585  -1.106  1.00  0.00    -0.090 NA
ATOM     11  C   UNL     1       0.991  -0.428   1.046  1.00  0.00     0.014 C 
ATOM     12  C   UNL     1       0.370   0.990   1.186  1.00  0.00    -0.001 C 
ATOM     13  C   UNL     1       0.951   1.555   2.482  1.00  0.00     0.010 C 
ATOM     14  C   UNL     1       0.701   1.859  -0.055  1.00  0.00     0.004 C 
ATOM     15  C   UNL     1      -1.184   0.903   1.122  1.00  0.00     0.149 C 
ATOM     16  C   UNL     1       0.580   2.986   2.758  1.00  0.00     0.009 C 
ATOM     17  C   UNL     1       0.539   3.401   0.179  1.00  0.00     0.006 C 
ATOM     18  C   UNL     1      -0.298   1.292  -1.121  1.00  0.00     0.039 C 
ATOM     19  C   UNL     1      -1.463   0.609  -0.359  1.00  0.00     0.144 C 
ATOM     20  C   UNL     1       0.939   3.912   1.599  1.00  0.00     0.024 C 
ATOM     21  C   UNL     1       1.338   4.275  -0.831  1.00  0.00     0.065 C 
ATOM     22  C   UNL     1       0.323   5.298   1.748  1.00  0.00    -0.035 A 
ATOM     23  C   UNL     1       1.299   5.778  -0.474  1.00  0.00     0.088 C 
ATOM     24  C   UNL     1      -0.360   5.724   2.899  1.00  0.00     0.008 A 
ATOM     25  C   UNL     1       0.407   6.178   0.658  1.00  0.00     0.006 A 
ATOM     26  C   UNL     1      -0.995   6.963   2.935  1.00  0.00     0.046 A 
ATOM     27  C   UNL     1      -0.279   7.400   0.672  1.00  0.00     0.056 A 
ATOM     28  C   UNL     1      -0.960   7.786   1.821  1.00  0.00     0.116 A 
BRANCH  15  29
ATOM     29  O   UNL     1      -1.853   2.107   1.493  1.00  0.00    -0.390 OA
ATOM     30  H   UNL     1      -1.573   2.827   0.906  1.00  0.00     0.211 HD
ENDBRANCH  15  29
BRANCH  19  31
ATOM     31  O   UNL     1      -1.478  -0.795  -0.603  1.00  0.00    -0.390 OA
ATOM     32  H   UNL     1      -0.628  -1.179  -0.334  1.00  0.00     0.211 HD
ENDBRANCH  19  31
BRANCH  28  33
ATOM     33  O   UNL     1      -1.561   9.005   1.921  1.00  0.00    -0.508 OA
ATOM     34  H   UNL     1      -2.014   9.241   2.706  1.00  0.00     0.293 HD
ENDBRANCH  28  33
ENDBRANCH   9  10
ENDBRANCH   8   9
ENDBRANCH   5   8
ENDBRANCH   3   4
ENDBRANCH   2   3
ENDBRANCH   1   2
BRANCH   1  35
ATOM     35  C   UNL     1       2.936   9.932   5.068  1.00  0.00     0.002 C 
BRANCH  35  36
ATOM     36  C   UNL     1       1.515  10.401   5.388  1.00  0.00     0.021 C 
BRANCH  36  37
ATOM     37  C   UNL     1       0.615   9.355   6.042  1.00  0.00     0.116 C 
BRANCH  37  38
ATOM     38  N   UNL     1       1.036   9.008   7.393  1.00  0.00    -0.352 N 
ATOM     39  C   UNL     1       0.376   9.163   8.589  1.00  0.00     0.251 C 
ATOM     40  H   UNL     1       1.930   8.599   7.459  1.00  0.00     0.163 HD
ATOM     41  O   UNL     1       0.951   8.941   9.652  1.00  0.00    -0.269 OA
BRANCH  39  42
ATOM     42  C   UNL     1      -1.024   9.640   8.600  1.00  0.00     0.039 A 
ATOM     43  C   UNL     1      -1.968   9.092   7.731  1.00  0.00     0.014 A 
ATOM     44  C   UNL     1      -1.385  10.679   9.463  1.00  0.00     0.014 A 
ATOM     45  C   UNL     1      -3.205   9.711   7.582  1.00  0.00     0.010 A 
ATOM     46  C   UNL     1      -2.662  11.241   9.376  1.00  0.00     0.010 A 
ATOM     47  C   UNL     1      -3.561  10.804   8.390  1.00  0.00    -0.014 A 
BRANCH  47  48
ATOM     48  C   UNL     1      -4.862  11.488   8.168  1.00  0.00     0.031 A 
ATOM     49  C   UNL     1      -4.910  12.919   7.700  1.00  0.00     0.074 A 
ATOM     50  C   UNL     1      -6.009  10.799   8.331  1.00  0.00     0.049 A 
ATOM     51  N   UNL     1      -5.955  13.660   7.424  1.00  0.00    -0.248 NA
ATOM     52  C   UNL     1      -3.624  13.613   7.517  1.00  0.00     0.031 C 
ATOM     53  C   UNL     1      -6.095   9.400   8.754  1.00  0.00     0.029 A 
ATOM     54  N   UNL     1      -7.316  11.168   8.133  1.00  0.00    -0.354 N 
ATOM     55  C   UNL     1      -5.455  14.903   7.053  1.00  0.00     0.074 A 
ATOM     56  C   UNL     1      -4.016  14.831   7.170  1.00  0.00     0.031 C 
ATOM     57  C   UNL     1      -7.378   9.014   8.731  1.00  0.00     0.029 A 
ATOM     58  C   UNL     1      -8.213  10.153   8.361  1.00  0.00     0.049 A 
ATOM     59  H   UNL     1      -7.584  12.073   7.854  1.00  0.00     0.167 HD
ATOM     60  C   UNL     1      -6.134  15.999   6.639  1.00  0.00     0.031 A 
ATOM     61  C   UNL     1      -9.558  10.136   8.296  1.00  0.00     0.031 A 
ATOM     62  C   UNL     1      -7.567  16.063   6.510  1.00  0.00     0.049 A 
ATOM     63  C   UNL     1     -10.291  11.382   7.890  1.00  0.00     0.074 A 
ATOM     64  C   UNL     1      -8.339  17.125   6.071  1.00  0.00     0.029 A 
ATOM     65  N   UNL     1      -8.440  15.032   6.817  1.00  0.00    -0.354 N 
ATOM     66  N   UNL     1      -9.801  12.541   7.524  1.00  0.00    -0.248 NA
ATOM     67  C   UNL     1     -11.760  11.321   7.885  1.00  0.00     0.031 C 
ATOM     68  C   UNL     1      -9.682  16.762   6.181  1.00  0.00     0.029 A 
ATOM     69  C   UNL     1      -9.745  15.446   6.610  1.00  0.00     0.049 A 
ATOM     70  H   UNL     1      -8.173  14.139   7.135  1.00  0.00     0.167 HD
ATOM     71  C   UNL     1     -10.897  13.341   7.229  1.00  0.00     0.074 A 
ATOM     72  C   UNL     1     -12.078  12.529   7.438  1.00  0.00     0.031 C 
ATOM     73  C   UNL     1     -10.917  14.634   6.822  1.00  0.00     0.031 A 
BRANCH  60  74
ATOM     74  C   UNL     1      -5.350  17.238   6.296  1.00  0.00    -0.014 A 
ATOM     75  C   UNL     1      -5.494  18.392   7.085  1.00  0.00     0.009 A 
ATOM     76  C   UNL     1      -4.563  17.306   5.136  1.00  0.00     0.009 A 
ATOM     77  C   UNL     1      -4.884  19.591   6.711  1.00  0.00     0.001 A 
ATOM     78  C   UNL     1      -3.928  18.499   4.781  1.00  0.00     0.001 A 
ATOM     79  C   UNL     1      -4.098  19.642   5.561  1.00  0.00     0.000 A 
ENDBRANCH  60  74
BRANCH  61  80
ATOM     80  C   UNL     1     -10.283   8.878   8.621  1.00  0.00    -0.014 A 
ATOM     81  C   UNL     1     -10.256   8.356   9.926  1.00  0.00     0.009 A 
ATOM     82  C   UNL     1     -10.947   8.156   7.619  1.00  0.00     0.009 A 
ATOM     83  C   UNL     1     -10.844   7.122  10.211  1.00  0.00     0.001 A 
ATOM     84  C   UNL     1     -11.565   6.938   7.915  1.00  0.00     0.001 A 
ATOM     85  C   UNL     1     -11.501   6.416   9.207  1.00  0.00     0.000 A 
ENDBRANCH  61  80
BRANCH  73  86
ATOM     86  C   UNL     1     -12.253  15.273   6.556  1.00  0.00    -0.014 A 
ATOM     87  C   UNL     1     -12.598  15.647   5.247  1.00  0.00     0.009 A 
ATOM     88  C   UNL     1     -13.116  15.613   7.609  1.00  0.00     0.009 A 
ATOM     89  C   UNL     1     -13.765  16.369   4.998  1.00  0.00     0.001 A 
ATOM     90  C   UNL     1     -14.301  16.308   7.353  1.00  0.00     0.001 A 
ATOM     91  C   UNL     1     -14.618  16.696   6.051  1.00  0.00     0.000 A 
ENDBRANCH  73  86
ENDBRANCH  47  48
ENDBRANCH  39  42
ENDBRANCH  37  38
ENDBRANCH  36  37
ENDBRANCH  35  36
ENDBRANCH   1  35
TORSDOF 18
