REMARK SMILES CC1=C(CC(=O)NCCCCCCNC(=O)c2ccc(-c3c4nc(c(-c5ccccc5)c5ccc([nH]5)c(-c5ccccc5)c5nc(c(-c6ccccc6)c6ccc3[nH]6)C=C5)C=C4)cc2)c2cc(F)ccc2/C1=C\c1ccc([S@@+](C)[O-])cc1
REMARK SMILES IDX 10 1 9 2 8 3 7 4 5 5 6 6 4 8 3 9 1 10 2 11 72 12 65 13 71 14
REMARK SMILES IDX 73 15 66 16 70 17 67 18 69 19 68 20 74 21 75 22 82 23 76 24
REMARK SMILES IDX 81 25 77 26 78 27 79 28 80 29 11 30 12 31 13 32 14 33 15 34
REMARK SMILES IDX 16 36 17 37 18 38 64 39 19 40 63 41 20 42 21 43 22 44 57 45
REMARK SMILES IDX 23 46 62 47 56 48 58 49 24 50 61 51 55 52 54 53 25 55 47 56
REMARK SMILES IDX 32 57 46 58 33 59 36 60 45 61 59 62 34 63 35 64 44 66 60 67
REMARK SMILES IDX 37 68 26 69 27 70 31 71 28 72 30 73 29 74 48 75 49 76 53 77
REMARK SMILES IDX 50 78 52 79 51 80 38 81 39 82 43 83 40 84 42 85 41 86
REMARK H PARENT 7 7 14 35 58 54 36 65
REMARK Flexibility Score: inf
ROOT
ATOM      1  C   UNL     1       4.856  -1.321   3.761  1.00  0.00     0.002 C 
ENDROOT
BRANCH   1   2
ATOM      2  C   UNL     1       3.712  -0.902   2.828  1.00  0.00     0.021 C 
BRANCH   2   3
ATOM      3  C   UNL     1       3.344  -1.956   1.782  1.00  0.00     0.116 C 
BRANCH   3   4
ATOM      4  N   UNL     1       2.683  -3.091   2.389  1.00  0.00    -0.356 N 
ATOM      5  C   UNL     1       1.355  -3.397   2.413  1.00  0.00     0.224 C 
ATOM      6  O   UNL     1       0.993  -4.372   3.075  1.00  0.00    -0.275 OA
ATOM      7  H   UNL     1       3.274  -3.731   2.848  1.00  0.00     0.163 HD
BRANCH   5   8
ATOM      8  C   UNL     1       0.356  -2.582   1.595  1.00  0.00     0.136 C 
BRANCH   8   9
ATOM      9  C   UNL     1       0.149  -1.183   2.083  1.00  0.00    -0.027 C 
ATOM     10  C   UNL     1       0.720   0.186  -0.004  1.00  0.00     0.045 C 
ATOM     11  C   UNL     1       0.315  -0.013   1.421  1.00  0.00    -0.039 C 
ATOM     12  C   UNL     1       0.002   1.114   2.317  1.00  0.00    -0.014 C 
ATOM     13  C   UNL     1      -0.358  -0.867   3.429  1.00  0.00    -0.011 A 
ATOM     14  C   UNL     1      -0.504   0.526   3.571  1.00  0.00    -0.010 A 
ATOM     15  C   UNL     1       0.207   2.408   1.998  1.00  0.00     0.017 C 
ATOM     16  C   UNL     1      -0.709  -1.726   4.464  1.00  0.00     0.048 A 
ATOM     17  C   UNL     1      -1.062   1.062   4.725  1.00  0.00     0.012 A 
ATOM     18  C   UNL     1      -1.214  -1.173   5.636  1.00  0.00     0.123 A 
ATOM     19  C   UNL     1      -1.403   0.203   5.771  1.00  0.00     0.040 A 
ATOM     20  F   UNL     1      -1.545  -1.978   6.654  1.00  0.00    -0.207 F 
BRANCH  15  21
ATOM     21  C   UNL     1      -0.070   3.571   2.844  1.00  0.00    -0.025 A 
ATOM     22  C   UNL     1       0.629   3.798   4.034  1.00  0.00     0.013 A 
ATOM     23  C   UNL     1      -1.098   4.443   2.477  1.00  0.00     0.013 A 
ATOM     24  C   UNL     1       0.223   4.814   4.907  1.00  0.00     0.061 A 
ATOM     25  C   UNL     1      -1.485   5.474   3.336  1.00  0.00     0.061 A 
ATOM     26  C   UNL     1      -0.850   5.647   4.572  1.00  0.00     0.152 A 
BRANCH  26  27
ATOM     27  S   UNL     1      -1.529   6.829   5.765  1.00  0.00    -0.018 S 
ATOM     28  C   UNL     1      -0.021   7.715   6.203  1.00  0.00     0.346 C 
ATOM     29  O   UNL     1      -2.448   7.816   4.960  1.00  0.00    -0.612 OA
ENDBRANCH  26  27
ENDBRANCH  15  21
ENDBRANCH   8   9
ENDBRANCH   5   8
ENDBRANCH   3   4
ENDBRANCH   2   3
ENDBRANCH   1   2
BRANCH   1  30
ATOM     30  C   UNL     1       6.185  -1.645   3.069  1.00  0.00     0.002 C 
BRANCH  30  31
ATOM     31  C   UNL     1       6.717  -0.556   2.136  1.00  0.00     0.021 C 
BRANCH  31  32
ATOM     32  C   UNL     1       6.973   0.788   2.808  1.00  0.00     0.116 C 
BRANCH  32  33
ATOM     33  N   UNL     1       8.080   0.738   3.753  1.00  0.00    -0.352 N 
ATOM     34  C   UNL     1       9.220   1.507   3.798  1.00  0.00     0.251 C 
ATOM     35  H   UNL     1       8.002   0.057   4.460  1.00  0.00     0.163 HD
ATOM     36  O   UNL     1      10.131   1.227   4.571  1.00  0.00    -0.269 OA
BRANCH  34  37
ATOM     37  C   UNL     1       9.357   2.657   2.881  1.00  0.00     0.039 A 
ATOM     38  C   UNL     1       8.310   3.568   2.724  1.00  0.00     0.014 A 
ATOM     39  C   UNL     1      10.535   2.804   2.142  1.00  0.00     0.014 A 
ATOM     40  C   UNL     1       8.372   4.518   1.710  1.00  0.00     0.010 A 
ATOM     41  C   UNL     1      10.626   3.811   1.177  1.00  0.00     0.010 A 
ATOM     42  C   UNL     1       9.525   4.641   0.916  1.00  0.00    -0.014 A 
BRANCH  42  43
ATOM     43  C   UNL     1       9.547   5.630  -0.193  1.00  0.00     0.031 A 
ATOM     44  C   UNL     1       9.615   5.175  -1.627  1.00  0.00     0.074 A 
ATOM     45  C   UNL     1       9.443   6.943   0.091  1.00  0.00     0.049 A 
ATOM     46  N   UNL     1       9.606   5.897  -2.719  1.00  0.00    -0.248 NA
ATOM     47  C   UNL     1       9.699   3.725  -1.872  1.00  0.00     0.031 C 
ATOM     48  C   UNL     1       9.339   7.508   1.438  1.00  0.00     0.029 A 
ATOM     49  N   UNL     1       9.373   8.037  -0.734  1.00  0.00    -0.354 N 
ATOM     50  C   UNL     1       9.706   4.997  -3.773  1.00  0.00     0.074 A 
ATOM     51  C   UNL     1       9.794   3.675  -3.194  1.00  0.00     0.031 C 
ATOM     52  C   UNL     1       9.155   8.833   1.345  1.00  0.00     0.029 A 
ATOM     53  C   UNL     1       9.195   9.222  -0.061  1.00  0.00     0.049 A 
ATOM     54  H   UNL     1       9.443   7.979  -1.715  1.00  0.00     0.167 HD
ATOM     55  C   UNL     1       9.713   5.250  -5.103  1.00  0.00     0.031 A 
ATOM     56  C   UNL     1       9.084  10.483  -0.520  1.00  0.00     0.031 A 
ATOM     57  C   UNL     1       9.603   6.562  -5.681  1.00  0.00     0.049 A 
ATOM     58  C   UNL     1       9.153  10.738  -1.998  1.00  0.00     0.074 A 
ATOM     59  C   UNL     1       9.571   6.908  -7.021  1.00  0.00     0.029 A 
ATOM     60  N   UNL     1       9.505   7.741  -4.960  1.00  0.00    -0.354 N 
ATOM     61  N   UNL     1       9.238   9.872  -2.978  1.00  0.00    -0.248 NA
ATOM     62  C   UNL     1       9.120  12.141  -2.433  1.00  0.00     0.031 C 
ATOM     63  C   UNL     1       9.509   8.300  -7.111  1.00  0.00     0.029 A 
ATOM     64  C   UNL     1       9.441   8.817  -5.828  1.00  0.00     0.049 A 
ATOM     65  H   UNL     1       9.484   7.803  -3.977  1.00  0.00     0.167 HD
ATOM     66  C   UNL     1       9.249  10.624  -4.146  1.00  0.00     0.074 A 
ATOM     67  C   UNL     1       9.148  12.014  -3.753  1.00  0.00     0.031 C 
ATOM     68  C   UNL     1       9.338  10.195  -5.427  1.00  0.00     0.031 A 
BRANCH  55  69
ATOM     69  C   UNL     1       9.856   4.090  -6.048  1.00  0.00    -0.014 A 
ATOM     70  C   UNL     1      11.043   3.937  -6.783  1.00  0.00     0.009 A 
ATOM     71  C   UNL     1       8.783   3.223  -6.302  1.00  0.00     0.009 A 
ATOM     72  C   UNL     1      11.147   2.951  -7.765  1.00  0.00     0.001 A 
ATOM     73  C   UNL     1       8.898   2.222  -7.269  1.00  0.00     0.001 A 
ATOM     74  C   UNL     1      10.075   2.093  -8.006  1.00  0.00     0.000 A 
ENDBRANCH  55  69
BRANCH  56  75
ATOM     75  C   UNL     1       8.886  11.599   0.441  1.00  0.00    -0.014 A 
ATOM     76  C   UNL     1       9.909  11.970   1.329  1.00  0.00     0.009 A 
ATOM     77  C   UNL     1       7.660  12.278   0.499  1.00  0.00     0.009 A 
ATOM     78  C   UNL     1       9.701  12.980   2.270  1.00  0.00     0.001 A 
ATOM     79  C   UNL     1       7.465  13.309   1.421  1.00  0.00     0.001 A 
ATOM     80  C   UNL     1       8.481  13.653   2.311  1.00  0.00     0.000 A 
ENDBRANCH  56  75
BRANCH  68  81
ATOM     81  C   UNL     1       9.312  11.229  -6.517  1.00  0.00    -0.014 A 
ATOM     82  C   UNL     1       8.192  11.323  -7.359  1.00  0.00     0.009 A 
ATOM     83  C   UNL     1      10.430  12.035  -6.776  1.00  0.00     0.009 A 
ATOM     84  C   UNL     1       8.198  12.192  -8.450  1.00  0.00     0.001 A 
ATOM     85  C   UNL     1      10.423  12.924  -7.852  1.00  0.00     0.001 A 
ATOM     86  C   UNL     1       9.312  12.994  -8.694  1.00  0.00     0.000 A 
ENDBRANCH  68  81
ENDBRANCH  42  43
ENDBRANCH  34  37
ENDBRANCH  32  33
ENDBRANCH  31  32
ENDBRANCH  30  31
ENDBRANCH   1  30
TORSDOF 16
