REMARK SMILES NC(=O)c1c(-c2ccc(Cl)cc2)csc1NC(=O)[C@H]1[C@@H](C(=O)NCCCCCCNC(=O)c2ccc(-c3c4nc(c(-c5ccccc5)c5ccc([nH]5)c(-c5ccccc5)c5nc(c(-c6ccccc6)c6ccc3[nH]6)C=C5)C=C4)cc2)[C@@H]2CC[C@H]1O2
REMARK SMILES IDX 26 1 25 2 24 3 23 4 21 5 22 6 20 8 19 9 84 10 81 11 83 12
REMARK SMILES IDX 85 13 82 14 17 15 16 16 18 18 15 19 4 20 5 21 13 22 14 23
REMARK SMILES IDX 2 24 1 25 3 28 6 29 7 30 12 31 8 32 11 33 9 34 10 35 27 36
REMARK SMILES IDX 28 37 29 38 30 39 31 40 32 42 33 43 34 44 80 45 35 46 79 47
REMARK SMILES IDX 36 48 37 49 38 50 73 51 39 52 78 53 72 54 74 55 40 56 77 57
REMARK SMILES IDX 71 58 70 59 41 61 63 62 48 63 62 64 49 65 52 66 61 67 75 68
REMARK SMILES IDX 50 69 51 70 60 72 76 73 53 74 42 75 43 76 47 77 44 78 46 79
REMARK SMILES IDX 45 80 64 81 65 82 69 83 66 84 68 85 67 86 54 87 55 88 59 89
REMARK SMILES IDX 56 90 58 91 57 92
REMARK H PARENT 23 7 16 17 1 26 1 27 30 41 74 60 52 71
REMARK Flexibility Score: inf
ROOT
ATOM      1  C   UNL     1       2.339  -6.356  -2.201  1.00  0.00     0.002 C 
ENDROOT
BRANCH   1   2
ATOM      2  C   UNL     1       0.981  -5.711  -2.518  1.00  0.00     0.021 C 
BRANCH   2   3
ATOM      3  C   UNL     1       1.065  -4.435  -3.359  1.00  0.00     0.116 C 
BRANCH   3   4
ATOM      4  N   UNL     1       1.601  -4.696  -4.678  1.00  0.00    -0.356 N 
ATOM      5  C   UNL     1       1.916  -3.821  -5.676  1.00  0.00     0.226 C 
ATOM      6  O   UNL     1       2.476  -4.272  -6.674  1.00  0.00    -0.275 OA
ATOM      7  H   UNL     1       1.761  -5.645  -4.885  1.00  0.00     0.163 HD
BRANCH   5   8
ATOM      8  C   UNL     1       1.641  -2.340  -5.468  1.00  0.00     0.122 C 
ATOM      9  C   UNL     1       0.291  -1.747  -5.940  1.00  0.00     0.123 C 
ATOM     10  C   UNL     1       0.746  -0.780  -7.054  1.00  0.00     0.132 C 
ATOM     11  C   UNL     1       2.639  -1.511  -6.289  1.00  0.00     0.132 C 
ATOM     12  C   UNL     1       1.361   0.490  -6.467  1.00  0.00     0.035 C 
ATOM     13  O   UNL     1       1.952  -1.397  -7.553  1.00  0.00    -0.373 OA
ATOM     14  C   UNL     1       2.635  -0.051  -5.818  1.00  0.00     0.035 C 
BRANCH   9  15
ATOM     15  C   UNL     1      -0.813  -2.659  -6.461  1.00  0.00     0.231 C 
ATOM     16  N   UNL     1      -2.116  -2.257  -6.605  1.00  0.00    -0.317 N 
ATOM     17  H   UNL     1      -2.675  -2.955  -7.016  1.00  0.00     0.170 HD
ATOM     18  O   UNL     1      -0.586  -3.835  -6.758  1.00  0.00    -0.274 OA
BRANCH  16  19
ATOM     19  C   UNL     1      -2.845  -1.108  -6.315  1.00  0.00     0.108 A 
ATOM     20  C   UNL     1      -4.224  -0.942  -6.486  1.00  0.00     0.082 A 
ATOM     21  C   UNL     1      -4.655   0.356  -5.990  1.00  0.00     0.007 A 
ATOM     22  C   UNL     1      -3.588   1.110  -5.547  1.00  0.00     0.076 A 
ATOM     23  S   UNL     1      -2.122   0.286  -5.693  1.00  0.00    -0.125 S 
BRANCH  20  24
ATOM     24  C   UNL     1      -5.055  -2.000  -7.062  1.00  0.00     0.252 C 
ATOM     25  N   UNL     1      -6.228  -1.629  -7.644  1.00  0.00    -0.365 N 
ATOM     26  H   UNL     1      -6.817  -2.310  -8.043  1.00  0.00     0.159 HD
ATOM     27  H   UNL     1      -6.489  -0.680  -7.666  1.00  0.00     0.159 HD
ATOM     28  O   UNL     1      -4.709  -3.183  -7.078  1.00  0.00    -0.269 OA
ENDBRANCH  20  24
BRANCH  21  29
ATOM     29  C   UNL     1      -5.997   0.906  -5.828  1.00  0.00    -0.017 A 
ATOM     30  C   UNL     1      -6.335   2.130  -6.423  1.00  0.00     0.010 A 
ATOM     31  C   UNL     1      -6.937   0.245  -5.027  1.00  0.00     0.010 A 
ATOM     32  C   UNL     1      -7.597   2.691  -6.212  1.00  0.00     0.021 A 
ATOM     33  C   UNL     1      -8.201   0.806  -4.821  1.00  0.00     0.021 A 
ATOM     34  C   UNL     1      -8.524   2.027  -5.410  1.00  0.00     0.041 A 
ATOM     35  Cl  UNL     1     -10.072   2.726  -5.140  1.00  0.00    -0.084 Cl
ENDBRANCH  21  29
ENDBRANCH  16  19
ENDBRANCH   9  15
ENDBRANCH   5   8
ENDBRANCH   3   4
ENDBRANCH   2   3
ENDBRANCH   1   2
BRANCH   1  36
ATOM     36  C   UNL     1       3.261  -5.544  -1.286  1.00  0.00     0.002 C 
BRANCH  36  37
ATOM     37  C   UNL     1       2.707  -5.238   0.108  1.00  0.00     0.021 C 
BRANCH  37  38
ATOM     38  C   UNL     1       2.282  -6.454   0.927  1.00  0.00     0.116 C 
BRANCH  38  39
ATOM     39  N   UNL     1       3.386  -7.352   1.229  1.00  0.00    -0.352 N 
ATOM     40  C   UNL     1       3.695  -7.976   2.414  1.00  0.00     0.251 C 
ATOM     41  H   UNL     1       3.997  -7.540   0.480  1.00  0.00     0.163 HD
ATOM     42  O   UNL     1       4.741  -8.607   2.531  1.00  0.00    -0.269 OA
BRANCH  40  43
ATOM     43  C   UNL     1       2.776  -7.860   3.567  1.00  0.00     0.039 A 
ATOM     44  C   UNL     1       3.302  -7.529   4.820  1.00  0.00     0.014 A 
ATOM     45  C   UNL     1       1.403  -8.067   3.414  1.00  0.00     0.014 A 
ATOM     46  C   UNL     1       2.442  -7.337   5.904  1.00  0.00     0.010 A 
ATOM     47  C   UNL     1       0.542  -7.814   4.479  1.00  0.00     0.010 A 
ATOM     48  C   UNL     1       1.052  -7.442   5.733  1.00  0.00    -0.014 A 
BRANCH  48  49
ATOM     49  C   UNL     1       0.112  -7.159   6.846  1.00  0.00     0.031 A 
ATOM     50  C   UNL     1      -0.757  -8.254   7.399  1.00  0.00     0.074 A 
ATOM     51  C   UNL     1      -0.016  -5.899   7.308  1.00  0.00     0.049 A 
ATOM     52  N   UNL     1      -1.701  -8.181   8.304  1.00  0.00    -0.248 NA
ATOM     53  C   UNL     1      -0.556  -9.601   6.844  1.00  0.00     0.031 C 
ATOM     54  C   UNL     1       0.742  -4.739   6.835  1.00  0.00     0.029 A 
ATOM     55  N   UNL     1      -0.845  -5.383   8.273  1.00  0.00    -0.354 N 
ATOM     56  C   UNL     1      -2.219  -9.465   8.410  1.00  0.00     0.074 A 
ATOM     57  C   UNL     1      -1.515 -10.287   7.450  1.00  0.00     0.031 C 
ATOM     58  C   UNL     1       0.358  -3.653   7.524  1.00  0.00     0.029 A 
ATOM     59  C   UNL     1      -0.699  -4.030   8.457  1.00  0.00     0.049 A 
ATOM     60  H   UNL     1      -1.483  -5.931   8.785  1.00  0.00     0.167 HD
ATOM     61  C   UNL     1      -3.184  -9.924   9.242  1.00  0.00     0.031 A 
ATOM     62  C   UNL     1      -1.350  -3.184   9.278  1.00  0.00     0.031 A 
ATOM     63  C   UNL     1      -3.876  -9.113  10.208  1.00  0.00     0.049 A 
ATOM     64  C   UNL     1      -2.422  -3.716  10.186  1.00  0.00     0.074 A 
ATOM     65  C   UNL     1      -4.830  -9.500  11.133  1.00  0.00     0.029 A 
ATOM     66  N   UNL     1      -3.687  -7.750  10.373  1.00  0.00    -0.354 N 
ATOM     67  N   UNL     1      -2.861  -4.944  10.314  1.00  0.00    -0.248 NA
ATOM     68  C   UNL     1      -3.082  -2.744  11.071  1.00  0.00     0.031 C 
ATOM     69  C   UNL     1      -5.250  -8.362  11.830  1.00  0.00     0.029 A 
ATOM     70  C   UNL     1      -4.520  -7.277  11.372  1.00  0.00     0.049 A 
ATOM     71  H   UNL     1      -3.054  -7.201   9.857  1.00  0.00     0.167 HD
ATOM     72  C   UNL     1      -3.826  -4.899  11.312  1.00  0.00     0.074 A 
ATOM     73  C   UNL     1      -3.900  -3.525  11.763  1.00  0.00     0.031 C 
ATOM     74  C   UNL     1      -4.581  -5.907  11.812  1.00  0.00     0.031 A 
BRANCH  61  75
ATOM     75  C   UNL     1      -3.554 -11.377   9.136  1.00  0.00    -0.014 A 
ATOM     76  C   UNL     1      -2.680 -12.384   9.576  1.00  0.00     0.009 A 
ATOM     77  C   UNL     1      -4.806 -11.743   8.617  1.00  0.00     0.009 A 
ATOM     78  C   UNL     1      -3.037 -13.729   9.464  1.00  0.00     0.001 A 
ATOM     79  C   UNL     1      -5.171 -13.088   8.532  1.00  0.00     0.001 A 
ATOM     80  C   UNL     1      -4.283 -14.080   8.946  1.00  0.00     0.000 A 
ENDBRANCH  61  75
BRANCH  62  81
ATOM     81  C   UNL     1      -0.995  -1.741   9.292  1.00  0.00    -0.014 A 
ATOM     82  C   UNL     1      -0.308  -1.190  10.384  1.00  0.00     0.009 A 
ATOM     83  C   UNL     1      -1.344  -0.908   8.218  1.00  0.00     0.009 A 
ATOM     84  C   UNL     1      -0.000   0.172  10.413  1.00  0.00     0.001 A 
ATOM     85  C   UNL     1      -1.012   0.449   8.238  1.00  0.00     0.001 A 
ATOM     86  C   UNL     1      -0.348   0.989   9.338  1.00  0.00     0.000 A 
ENDBRANCH  62  81
BRANCH  74  87
ATOM     87  C   UNL     1      -5.524  -5.570  12.930  1.00  0.00    -0.014 A 
ATOM     88  C   UNL     1      -6.709  -4.855  12.695  1.00  0.00     0.009 A 
ATOM     89  C   UNL     1      -5.242  -6.013  14.232  1.00  0.00     0.009 A 
ATOM     90  C   UNL     1      -7.578  -4.565  13.749  1.00  0.00     0.001 A 
ATOM     91  C   UNL     1      -6.125  -5.744  15.278  1.00  0.00     0.001 A 
ATOM     92  C   UNL     1      -7.288  -5.014  15.037  1.00  0.00     0.000 A 
ENDBRANCH  74  87
ENDBRANCH  48  49
ENDBRANCH  40  43
ENDBRANCH  38  39
ENDBRANCH  37  38
ENDBRANCH  36  37
ENDBRANCH   1  36
TORSDOF 17
