REMARK SMILES CC(C)=CC[C@@]1(C(=O)NCCCCCCNC(=O)c2ccc(-c3c4nc(c(-c5ccccc5)c5ccc([nH]5)c(-c5ccccc5)c5nc(c(-c6ccccc6)c6ccc3[nH]6)C=C5)C=C4)cc2)CCC[C@H](C)C1
REMARK SMILES IDX 12 1 11 2 10 3 9 4 7 5 8 6 6 8 67 9 72 10 68 11 70 12 69 13
REMARK SMILES IDX 71 14 5 15 4 16 1 17 2 18 3 19 13 20 14 21 15 22 16 23 17 24
REMARK SMILES IDX 18 26 19 27 20 28 66 29 21 30 65 31 22 32 23 33 24 34 59 35
REMARK SMILES IDX 25 36 64 37 58 38 60 39 26 40 63 41 57 42 56 43 27 45 49 46
REMARK SMILES IDX 34 47 48 48 35 49 38 50 47 51 61 52 36 53 37 54 46 56 62 57
REMARK SMILES IDX 39 58 28 59 29 60 33 61 30 62 32 63 31 64 50 65 51 66 55 67
REMARK SMILES IDX 52 68 54 69 53 70 40 71 41 72 45 73 42 74 44 75 43 76
REMARK H PARENT 9 7 16 25 60 44 38 55
REMARK Flexibility Score: inf
ROOT
ATOM      1  C   UNL     1      -0.843   0.399   0.872  1.00  0.00     0.002 C 
ENDROOT
BRANCH   1   2
ATOM      2  C   UNL     1       0.496   0.120   0.175  1.00  0.00     0.021 C 
BRANCH   2   3
ATOM      3  C   UNL     1       0.582  -1.182  -0.646  1.00  0.00     0.116 C 
BRANCH   3   4
ATOM      4  N   UNL     1       0.954  -0.881  -2.017  1.00  0.00    -0.356 N 
ATOM      5  C   UNL     1       2.054  -0.928  -2.791  1.00  0.00     0.226 C 
ATOM      6  O   UNL     1       1.860  -0.350  -3.876  1.00  0.00    -0.274 OA
ATOM      7  H   UNL     1       0.180  -0.548  -2.526  1.00  0.00     0.163 HD
BRANCH   5   8
ATOM      8  C   UNL     1       3.394  -1.697  -2.555  1.00  0.00     0.053 C 
ATOM      9  C   UNL     1       4.335  -1.195  -3.728  1.00  0.00     0.017 C 
ATOM     10  C   UNL     1       3.154  -3.221  -2.823  1.00  0.00     0.020 C 
ATOM     11  C   UNL     1       5.631  -1.979  -3.898  1.00  0.00     0.001 C 
ATOM     12  C   UNL     1       4.445  -4.051  -3.073  1.00  0.00    -0.013 C 
ATOM     13  C   UNL     1       5.329  -3.442  -4.168  1.00  0.00     0.003 C 
ATOM     14  C   UNL     1       4.128  -5.504  -3.431  1.00  0.00     0.007 C 
BRANCH   8  15
ATOM     15  C   UNL     1       4.210  -1.487  -1.238  1.00  0.00     0.044 C 
BRANCH  15  16
ATOM     16  C   UNL     1       3.709  -0.920   0.055  1.00  0.00    -0.027 C 
ATOM     17  C   UNL     1       3.402  -3.098   1.306  1.00  0.00     0.039 C 
ATOM     18  C   UNL     1       3.502  -1.601   1.202  1.00  0.00    -0.080 C 
ATOM     19  C   UNL     1       3.388  -0.863   2.510  1.00  0.00     0.039 C 
ENDBRANCH  15  16
ENDBRANCH   8  15
ENDBRANCH   5   8
ENDBRANCH   3   4
ENDBRANCH   2   3
ENDBRANCH   1   2
BRANCH   1  20
ATOM     20  C   UNL     1      -1.365  -0.664   1.842  1.00  0.00     0.002 C 
BRANCH  20  21
ATOM     21  C   UNL     1      -0.519  -0.952   3.085  1.00  0.00     0.021 C 
BRANCH  21  22
ATOM     22  C   UNL     1      -0.177   0.249   3.969  1.00  0.00     0.116 C 
BRANCH  22  23
ATOM     23  N   UNL     1      -1.360   0.864   4.550  1.00  0.00    -0.352 N 
ATOM     24  C   UNL     1      -1.686   1.083   5.863  1.00  0.00     0.251 C 
ATOM     25  H   UNL     1      -2.032   1.171   3.898  1.00  0.00     0.163 HD
ATOM     26  O   UNL     1      -2.829   1.443   6.156  1.00  0.00    -0.269 OA
BRANCH  24  27
ATOM     27  C   UNL     1      -0.692   0.895   6.942  1.00  0.00     0.039 A 
ATOM     28  C   UNL     1      -1.088   0.256   8.122  1.00  0.00     0.014 A 
ATOM     29  C   UNL     1       0.603   1.409   6.832  1.00  0.00     0.014 A 
ATOM     30  C   UNL     1      -0.179   0.096   9.173  1.00  0.00     0.010 A 
ATOM     31  C   UNL     1       1.524   1.207   7.862  1.00  0.00     0.010 A 
ATOM     32  C   UNL     1       1.140   0.558   9.047  1.00  0.00    -0.014 A 
BRANCH  32  33
ATOM     33  C   UNL     1       2.122   0.394  10.151  1.00  0.00     0.031 A 
ATOM     34  C   UNL     1       2.649   1.600  10.882  1.00  0.00     0.074 A 
ATOM     35  C   UNL     1       2.584  -0.831  10.466  1.00  0.00     0.049 A 
ATOM     36  N   UNL     1       3.559   1.666  11.822  1.00  0.00    -0.248 NA
ATOM     37  C   UNL     1       2.095   2.905  10.489  1.00  0.00     0.031 C 
ATOM     38  C   UNL     1       2.176  -2.082   9.826  1.00  0.00     0.029 A 
ATOM     39  N   UNL     1       3.509  -1.223  11.403  1.00  0.00    -0.354 N 
ATOM     40  C   UNL     1       3.701   3.017  12.116  1.00  0.00     0.074 A 
ATOM     41  C   UNL     1       2.812   3.737  11.230  1.00  0.00     0.031 C 
ATOM     42  C   UNL     1       2.835  -3.103  10.399  1.00  0.00     0.029 A 
ATOM     43  C   UNL     1       3.736  -2.577  11.421  1.00  0.00     0.049 A 
ATOM     44  H   UNL     1       3.967  -0.592  12.005  1.00  0.00     0.167 HD
ATOM     45  C   UNL     1       4.488   3.606  13.049  1.00  0.00     0.031 A 
ATOM     46  C   UNL     1       4.578  -3.314  12.169  1.00  0.00     0.031 A 
ATOM     47  C   UNL     1       5.361   2.894  13.944  1.00  0.00     0.049 A 
ATOM     48  C   UNL     1       5.449  -2.637  13.191  1.00  0.00     0.074 A 
ATOM     49  C   UNL     1       6.157   3.402  14.957  1.00  0.00     0.029 A 
ATOM     50  N   UNL     1       5.552   1.522  13.935  1.00  0.00    -0.354 N 
ATOM     51  N   UNL     1       5.532  -1.364  13.492  1.00  0.00    -0.248 NA
ATOM     52  C   UNL     1       6.335  -3.503  13.983  1.00  0.00     0.031 C 
ATOM     53  C   UNL     1       6.862   2.340  15.534  1.00  0.00     0.029 A 
ATOM     54  C   UNL     1       6.467   1.167  14.911  1.00  0.00     0.049 A 
ATOM     55  H   UNL     1       5.103   0.893  13.325  1.00  0.00     0.167 HD
ATOM     56  C   UNL     1       6.455  -1.280  14.526  1.00  0.00     0.074 A 
ATOM     57  C   UNL     1       6.897  -2.630  14.808  1.00  0.00     0.031 C 
ATOM     58  C   UNL     1       6.895  -0.180  15.184  1.00  0.00     0.031 A 
BRANCH  45  59
ATOM     59  C   UNL     1       4.445   5.106  13.142  1.00  0.00    -0.014 A 
ATOM     60  C   UNL     1       3.324   5.770  13.664  1.00  0.00     0.009 A 
ATOM     61  C   UNL     1       5.554   5.863  12.732  1.00  0.00     0.009 A 
ATOM     62  C   UNL     1       3.300   7.164  13.738  1.00  0.00     0.001 A 
ATOM     63  C   UNL     1       5.537   7.255  12.833  1.00  0.00     0.001 A 
ATOM     64  C   UNL     1       4.407   7.905  13.327  1.00  0.00     0.000 A 
ENDBRANCH  45  59
BRANCH  46  65
ATOM     65  C   UNL     1       4.632  -4.789  11.992  1.00  0.00    -0.014 A 
ATOM     66  C   UNL     1       4.100  -5.641  12.972  1.00  0.00     0.009 A 
ATOM     67  C   UNL     1       5.220  -5.351  10.849  1.00  0.00     0.009 A 
ATOM     68  C   UNL     1       4.178  -7.027  12.822  1.00  0.00     0.001 A 
ATOM     69  C   UNL     1       5.273  -6.737  10.689  1.00  0.00     0.001 A 
ATOM     70  C   UNL     1       4.760  -7.574  11.679  1.00  0.00     0.000 A 
ENDBRANCH  46  65
BRANCH  58  71
ATOM     71  C   UNL     1       7.878  -0.393  16.300  1.00  0.00    -0.014 A 
ATOM     72  C   UNL     1       9.218  -0.717  16.040  1.00  0.00     0.009 A 
ATOM     73  C   UNL     1       7.463  -0.224  17.631  1.00  0.00     0.009 A 
ATOM     74  C   UNL     1      10.117  -0.895  17.093  1.00  0.00     0.001 A 
ATOM     75  C   UNL     1       8.370  -0.377  18.680  1.00  0.00     0.001 A 
ATOM     76  C   UNL     1       9.694  -0.720  18.411  1.00  0.00     0.000 A 
ENDBRANCH  58  71
ENDBRANCH  32  33
ENDBRANCH  24  27
ENDBRANCH  22  23
ENDBRANCH  21  22
ENDBRANCH  20  21
ENDBRANCH   1  20
TORSDOF 15
