REMARK SMILES COc1ccc(/N=C/c2ccc(-c3ccc(C)c(C(=O)NCCCCCCNC(=O)c4ccc(-c5c6nc(c(-c7ccccc7)c7ccc([nH]7)c(-c7ccccc7)c7nc(c(-c8ccccc8)c8ccc5[nH]8)C=C7)C=C6)cc4)c3)o2)cc1
REMARK SMILES IDX 23 1 22 2 21 3 19 4 20 5 18 7 13 8 14 9 79 10 15 11 16 12
REMARK SMILES IDX 17 13 12 14 9 15 10 16 80 17 11 18 8 19 7 20 6 21 3 22 4 23
REMARK SMILES IDX 82 24 5 25 81 26 2 27 1 28 24 29 25 30 26 31 27 32 28 33
REMARK SMILES IDX 29 34 30 36 31 37 32 38 78 39 33 40 77 41 34 42 35 43 36 44
REMARK SMILES IDX 71 45 37 46 76 47 70 48 72 49 38 50 75 51 69 52 68 53 39 55
REMARK SMILES IDX 61 56 46 57 60 58 47 59 50 60 59 61 73 62 48 63 49 64 58 66
REMARK SMILES IDX 74 67 51 68 40 69 41 70 45 71 42 72 44 73 43 74 62 75 63 76
REMARK SMILES IDX 67 77 64 78 66 79 65 80 52 81 53 82 57 83 54 84 56 85 55 86
REMARK H PARENT 21 6 28 35 72 54 50 65
REMARK Flexibility Score: inf
ROOT
ATOM      1  C   UNL     1       7.642 -11.346   3.945  1.00  0.00     0.021 C 
ENDROOT
BRANCH   1   2
ATOM      2  C   UNL     1       6.875 -11.193   5.252  1.00  0.00     0.116 C 
BRANCH   2   3
ATOM      3  N   UNL     1       7.561 -11.700   6.431  1.00  0.00    -0.352 N 
ATOM      4  C   UNL     1       7.628 -11.248   7.737  1.00  0.00     0.251 C 
ATOM      5  O   UNL     1       8.210 -11.968   8.545  1.00  0.00    -0.269 OA
ATOM      6  H   UNL     1       8.077 -12.523   6.268  1.00  0.00     0.163 HD
BRANCH   4   7
ATOM      7  C   UNL     1       7.048  -9.928   8.160  1.00  0.00     0.043 A 
ATOM      8  C   UNL     1       5.419  -8.164   7.645  1.00  0.00     0.018 A 
ATOM      9  C   UNL     1       6.062  -7.312   8.536  1.00  0.00     0.012 A 
ATOM     10  C   UNL     1       5.870  -9.487   7.543  1.00  0.00     0.026 A 
ATOM     11  C   UNL     1       7.123  -7.791   9.309  1.00  0.00     0.005 A 
ATOM     12  C   UNL     1       7.638  -9.095   9.134  1.00  0.00    -0.038 A 
ATOM     13  C   UNL     1       8.762  -9.487  10.056  1.00  0.00     0.045 C 
BRANCH   8  14
ATOM     14  C   UNL     1       4.327  -7.730   6.786  1.00  0.00     0.134 A 
ATOM     15  C   UNL     1       3.346  -6.323   5.404  1.00  0.00     0.145 A 
ATOM     16  C   UNL     1       2.589  -7.478   5.402  1.00  0.00     0.052 A 
ATOM     17  O   UNL     1       4.414  -6.472   6.248  1.00  0.00    -0.455 OA
ATOM     18  C   UNL     1       3.215  -8.377   6.288  1.00  0.00     0.051 A 
BRANCH  15  19
ATOM     19  C   UNL     1       3.146  -5.081   4.704  1.00  0.00     0.158 C 
ATOM     20  N   UNL     1       2.062  -4.941   4.013  1.00  0.00    -0.253 NA
BRANCH  20  21
ATOM     21  C   UNL     1       1.772  -3.736   3.365  1.00  0.00     0.063 A 
ATOM     22  C   UNL     1       0.943  -1.458   1.930  1.00  0.00     0.119 A 
ATOM     23  C   UNL     1       0.074  -2.082   2.823  1.00  0.00     0.048 A 
ATOM     24  C   UNL     1       2.239  -1.954   1.777  1.00  0.00     0.048 A 
ATOM     25  C   UNL     1       0.484  -3.217   3.524  1.00  0.00     0.032 A 
ATOM     26  C   UNL     1       2.648  -3.093   2.488  1.00  0.00     0.032 A 
BRANCH  22  27
ATOM     27  O   UNL     1       0.432  -0.363   1.290  1.00  0.00    -0.497 OA
ATOM     28  C   UNL     1       0.971  -0.095   0.000  1.00  0.00     0.278 C 
ENDBRANCH  22  27
ENDBRANCH  20  21
ENDBRANCH  15  19
ENDBRANCH   8  14
ENDBRANCH   4   7
ENDBRANCH   2   3
ENDBRANCH   1   2
BRANCH   1  29
ATOM     29  C   UNL     1       7.978 -12.770   3.505  1.00  0.00     0.002 C 
BRANCH  29  30
ATOM     30  C   UNL     1       6.810 -13.756   3.418  1.00  0.00     0.002 C 
BRANCH  30  31
ATOM     31  C   UNL     1       5.598 -13.304   2.601  1.00  0.00     0.021 C 
BRANCH  31  32
ATOM     32  C   UNL     1       5.894 -12.843   1.179  1.00  0.00     0.116 C 
BRANCH  32  33
ATOM     33  N   UNL     1       6.480 -13.888   0.357  1.00  0.00    -0.352 N 
ATOM     34  C   UNL     1       6.087 -14.357  -0.873  1.00  0.00     0.251 C 
ATOM     35  H   UNL     1       7.276 -14.324   0.738  1.00  0.00     0.163 HD
ATOM     36  O   UNL     1       6.612 -15.357  -1.348  1.00  0.00    -0.269 OA
BRANCH  34  37
ATOM     37  C   UNL     1       5.009 -13.668  -1.617  1.00  0.00     0.039 A 
ATOM     38  C   UNL     1       4.016 -14.438  -2.230  1.00  0.00     0.014 A 
ATOM     39  C   UNL     1       4.981 -12.275  -1.721  1.00  0.00     0.014 A 
ATOM     40  C   UNL     1       2.963 -13.807  -2.895  1.00  0.00     0.010 A 
ATOM     41  C   UNL     1       3.889 -11.647  -2.314  1.00  0.00     0.010 A 
ATOM     42  C   UNL     1       2.874 -12.405  -2.915  1.00  0.00    -0.014 A 
BRANCH  42  43
ATOM     43  C   UNL     1       1.727 -11.718  -3.559  1.00  0.00     0.031 A 
ATOM     44  C   UNL     1       1.946 -10.834  -4.756  1.00  0.00     0.074 A 
ATOM     45  C   UNL     1       0.493 -11.845  -3.034  1.00  0.00     0.049 A 
ATOM     46  N   UNL     1       1.074 -10.135  -5.438  1.00  0.00    -0.248 NA
ATOM     47  C   UNL     1       3.330 -10.698  -5.232  1.00  0.00     0.031 C 
ATOM     48  C   UNL     1       0.150 -12.649  -1.859  1.00  0.00     0.029 A 
ATOM     49  N   UNL     1      -0.704 -11.301  -3.426  1.00  0.00    -0.354 N 
ATOM     50  C   UNL     1       1.806  -9.466  -6.411  1.00  0.00     0.074 A 
ATOM     51  C   UNL     1       3.197  -9.796  -6.192  1.00  0.00     0.031 C 
ATOM     52  C   UNL     1      -1.175 -12.583  -1.655  1.00  0.00     0.029 A 
ATOM     53  C   UNL     1      -1.767 -11.697  -2.652  1.00  0.00     0.049 A 
ATOM     54  H   UNL     1      -0.793 -10.685  -4.189  1.00  0.00     0.167 HD
ATOM     55  C   UNL     1       1.362  -8.665  -7.410  1.00  0.00     0.031 A 
ATOM     56  C   UNL     1      -3.074 -11.386  -2.738  1.00  0.00     0.031 A 
ATOM     57  C   UNL     1      -0.022  -8.331  -7.622  1.00  0.00     0.049 A 
ATOM     58  C   UNL     1      -3.539 -10.458  -3.825  1.00  0.00     0.074 A 
ATOM     59  C   UNL     1      -0.583  -7.573  -8.635  1.00  0.00     0.029 A 
ATOM     60  N   UNL     1      -1.064  -8.727  -6.796  1.00  0.00    -0.354 N 
ATOM     61  N   UNL     1      -2.845  -9.891  -4.782  1.00  0.00    -0.248 NA
ATOM     62  C   UNL     1      -4.972 -10.136  -3.845  1.00  0.00     0.031 C 
ATOM     63  C   UNL     1      -1.955  -7.455  -8.384  1.00  0.00     0.029 A 
ATOM     64  C   UNL     1      -2.260  -8.198  -7.255  1.00  0.00     0.049 A 
ATOM     65  H   UNL     1      -0.968  -9.299  -6.001  1.00  0.00     0.167 HD
ATOM     66  C   UNL     1      -3.761  -9.171  -5.538  1.00  0.00     0.074 A 
ATOM     67  C   UNL     1      -5.061  -9.385  -4.933  1.00  0.00     0.031 C 
ATOM     68  C   UNL     1      -3.546  -8.408  -6.638  1.00  0.00     0.031 A 
BRANCH  55  69
ATOM     69  C   UNL     1       2.400  -8.075  -8.328  1.00  0.00    -0.014 A 
ATOM     70  C   UNL     1       3.158  -8.882  -9.194  1.00  0.00     0.009 A 
ATOM     71  C   UNL     1       2.632  -6.691  -8.321  1.00  0.00     0.009 A 
ATOM     72  C   UNL     1       4.165  -8.324  -9.985  1.00  0.00     0.001 A 
ATOM     73  C   UNL     1       3.614  -6.131  -9.140  1.00  0.00     0.001 A 
ATOM     74  C   UNL     1       4.390  -6.949  -9.959  1.00  0.00     0.000 A 
ENDBRANCH  55  69
BRANCH  56  75
ATOM     75  C   UNL     1      -4.043 -11.993  -1.788  1.00  0.00    -0.014 A 
ATOM     76  C   UNL     1      -4.952 -12.964  -2.236  1.00  0.00     0.009 A 
ATOM     77  C   UNL     1      -4.056 -11.623  -0.435  1.00  0.00     0.009 A 
ATOM     78  C   UNL     1      -5.867 -13.539  -1.351  1.00  0.00     0.001 A 
ATOM     79  C   UNL     1      -4.954 -12.220   0.453  1.00  0.00     0.001 A 
ATOM     80  C   UNL     1      -5.863 -13.171  -0.006  1.00  0.00     0.000 A 
ENDBRANCH  56  75
BRANCH  68  81
ATOM     81  C   UNL     1      -4.749  -7.774  -7.280  1.00  0.00    -0.014 A 
ATOM     82  C   UNL     1      -5.438  -6.716  -6.665  1.00  0.00     0.009 A 
ATOM     83  C   UNL     1      -5.179  -8.223  -8.539  1.00  0.00     0.009 A 
ATOM     84  C   UNL     1      -6.555  -6.148  -7.282  1.00  0.00     0.001 A 
ATOM     85  C   UNL     1      -6.275  -7.631  -9.168  1.00  0.00     0.001 A 
ATOM     86  C   UNL     1      -6.968  -6.601  -8.534  1.00  0.00     0.000 A 
ENDBRANCH  68  81
ENDBRANCH  42  43
ENDBRANCH  34  37
ENDBRANCH  32  33
ENDBRANCH  31  32
ENDBRANCH  30  31
ENDBRANCH  29  30
ENDBRANCH   1  29
TORSDOF 17
