REMARK SMILES C[C@@H](C(=O)NCCCCCCNC(=O)c1ccc(-c2c3nc(c(-c4ccccc4)c4ccc([nH]4)c(-c4ccccc4)c4nc(c(-c5ccccc5)c5ccc2[nH]5)C=C4)C=C3)cc1)c1ccc(NC2CCCC2)cc1F
REMARK SMILES IDX 8 1 7 2 6 3 5 4 3 5 4 6 2 8 1 9 63 10 64 11 74 12 65 13
REMARK SMILES IDX 73 14 75 15 66 16 67 17 68 19 69 20 72 21 70 22 71 23 9 24
REMARK SMILES IDX 10 25 11 26 12 27 13 28 14 30 15 31 16 32 62 33 17 34 61 35
REMARK SMILES IDX 18 36 19 37 20 38 55 39 21 40 60 41 54 42 56 43 22 44 59 45
REMARK SMILES IDX 53 46 52 47 23 49 45 50 30 51 44 52 31 53 34 54 43 55 57 56
REMARK SMILES IDX 32 57 33 58 42 60 58 61 35 62 24 63 25 64 29 65 26 66 28 67
REMARK SMILES IDX 27 68 46 69 47 70 51 71 48 72 50 73 49 74 36 75 37 76 41 77
REMARK SMILES IDX 38 78 40 79 39 80
REMARK H PARENT 5 7 67 18 12 29 56 48 34 59
REMARK Flexibility Score: inf
ROOT
ATOM      1  C   UNL     1       4.937  -2.674   1.022  1.00  0.00     0.002 C 
ENDROOT
BRANCH   1   2
ATOM      2  C   UNL     1       4.192  -1.466   0.445  1.00  0.00     0.021 C 
BRANCH   2   3
ATOM      3  C   UNL     1       3.355  -1.797  -0.799  1.00  0.00     0.116 C 
BRANCH   3   4
ATOM      4  N   UNL     1       2.274  -2.689  -0.431  1.00  0.00    -0.356 N 
ATOM      5  C   UNL     1       1.016  -2.334  -0.023  1.00  0.00     0.227 C 
ATOM      6  O   UNL     1       0.459  -3.060   0.799  1.00  0.00    -0.274 OA
ATOM      7  H   UNL     1       2.465  -3.654  -0.480  1.00  0.00     0.163 HD
BRANCH   5   8
ATOM      8  C   UNL     1       0.407  -1.044  -0.588  1.00  0.00     0.108 C 
ATOM      9  C   UNL     1       0.888   0.125   0.293  1.00  0.00     0.023 C 
BRANCH   8  10
ATOM     10  C   UNL     1      -1.112  -1.048  -0.715  1.00  0.00     0.000 A 
ATOM     11  C   UNL     1      -1.814   0.162  -0.716  1.00  0.00     0.009 A 
ATOM     12  C   UNL     1      -1.875  -2.208  -0.873  1.00  0.00     0.129 A 
ATOM     13  C   UNL     1      -3.207   0.191  -0.714  1.00  0.00     0.026 A 
ATOM     14  C   UNL     1      -3.274  -2.179  -0.836  1.00  0.00     0.065 A 
ATOM     15  F   UNL     1      -1.285  -3.393  -1.089  1.00  0.00    -0.207 F 
ATOM     16  C   UNL     1      -3.971  -0.974  -0.706  1.00  0.00     0.037 A 
BRANCH  16  17
ATOM     17  N   UNL     1      -5.349  -0.986  -0.642  1.00  0.00    -0.382 N 
ATOM     18  H   UNL     1      -5.770  -1.874  -0.582  1.00  0.00     0.160 HD
BRANCH  17  19
ATOM     19  C   UNL     1      -6.258   0.150  -0.653  1.00  0.00     0.079 C 
ATOM     20  C   UNL     1      -6.103   1.099   0.533  1.00  0.00     0.025 C 
ATOM     21  C   UNL     1      -6.146   1.000  -1.919  1.00  0.00     0.025 C 
ATOM     22  C   UNL     1      -6.629   2.430   0.018  1.00  0.00     0.002 C 
ATOM     23  C   UNL     1      -6.363   2.445  -1.483  1.00  0.00     0.002 C 
ENDBRANCH  17  19
ENDBRANCH  16  17
ENDBRANCH   8  10
ENDBRANCH   5   8
ENDBRANCH   3   4
ENDBRANCH   2   3
ENDBRANCH   1   2
BRANCH   1  24
ATOM     24  C   UNL     1       5.895  -3.350   0.040  1.00  0.00     0.002 C 
BRANCH  24  25
ATOM     25  C   UNL     1       6.926  -2.405  -0.578  1.00  0.00     0.021 C 
BRANCH  25  26
ATOM     26  C   UNL     1       7.816  -1.713   0.445  1.00  0.00     0.116 C 
BRANCH  26  27
ATOM     27  N   UNL     1       8.656  -2.663   1.157  1.00  0.00    -0.352 N 
ATOM     28  C   UNL     1      10.020  -2.664   1.291  1.00  0.00     0.251 C 
ATOM     29  H   UNL     1       8.182  -3.404   1.602  1.00  0.00     0.163 HD
ATOM     30  O   UNL     1      10.610  -3.647   1.729  1.00  0.00    -0.269 OA
BRANCH  28  31
ATOM     31  C   UNL     1      10.777  -1.464   0.884  1.00  0.00     0.039 A 
ATOM     32  C   UNL     1      11.913  -1.610   0.086  1.00  0.00     0.014 A 
ATOM     33  C   UNL     1      10.342  -0.196   1.278  1.00  0.00     0.014 A 
ATOM     34  C   UNL     1      12.588  -0.473  -0.361  1.00  0.00     0.010 A 
ATOM     35  C   UNL     1      10.965   0.933   0.765  1.00  0.00     0.010 A 
ATOM     36  C   UNL     1      12.102   0.806  -0.047  1.00  0.00    -0.014 A 
BRANCH  36  37
ATOM     37  C   UNL     1      12.780   2.036  -0.523  1.00  0.00     0.031 A 
ATOM     38  C   UNL     1      13.365   2.995   0.477  1.00  0.00     0.074 A 
ATOM     39  C   UNL     1      12.798   2.332  -1.836  1.00  0.00     0.049 A 
ATOM     40  N   UNL     1      13.894   4.176   0.280  1.00  0.00    -0.248 NA
ATOM     41  C   UNL     1      13.317   2.585   1.890  1.00  0.00     0.031 C 
ATOM     42  C   UNL     1      12.242   1.498  -2.903  1.00  0.00     0.029 A 
ATOM     43  N   UNL     1      13.293   3.430  -2.494  1.00  0.00    -0.354 N 
ATOM     44  C   UNL     1      14.215   4.657   1.542  1.00  0.00     0.074 A 
ATOM     45  C   UNL     1      13.772   3.668   2.499  1.00  0.00     0.031 C 
ATOM     46  C   UNL     1      12.444   2.105  -4.084  1.00  0.00     0.029 A 
ATOM     47  C   UNL     1      13.099   3.390  -3.853  1.00  0.00     0.049 A 
ATOM     48  H   UNL     1      13.744   4.175  -2.036  1.00  0.00     0.167 HD
ATOM     49  C   UNL     1      14.840   5.811   1.876  1.00  0.00     0.031 A 
ATOM     50  C   UNL     1      13.400   4.293  -4.805  1.00  0.00     0.031 A 
ATOM     51  C   UNL     1      15.285   6.789   0.921  1.00  0.00     0.049 A 
ATOM     52  C   UNL     1      14.071   5.580  -4.411  1.00  0.00     0.074 A 
ATOM     53  C   UNL     1      15.975   7.967   1.151  1.00  0.00     0.029 A 
ATOM     54  N   UNL     1      15.079   6.705  -0.448  1.00  0.00    -0.354 N 
ATOM     55  N   UNL     1      14.421   5.997  -3.219  1.00  0.00    -0.248 NA
ATOM     56  C   UNL     1      14.398   6.514  -5.497  1.00  0.00     0.031 C 
ATOM     57  C   UNL     1      16.132   8.625  -0.073  1.00  0.00     0.029 A 
ATOM     58  C   UNL     1      15.604   7.823  -1.073  1.00  0.00     0.049 A 
ATOM     59  H   UNL     1      14.627   5.961  -0.906  1.00  0.00     0.167 HD
ATOM     60  C   UNL     1      15.041   7.225  -3.414  1.00  0.00     0.074 A 
ATOM     61  C   UNL     1      15.025   7.480  -4.840  1.00  0.00     0.031 C 
ATOM     62  C   UNL     1      15.582   8.062  -2.494  1.00  0.00     0.031 A 
BRANCH  49  63
ATOM     63  C   UNL     1      15.055   6.079   3.341  1.00  0.00    -0.014 A 
ATOM     64  C   UNL     1      15.931   5.295   4.110  1.00  0.00     0.009 A 
ATOM     65  C   UNL     1      14.374   7.138   3.962  1.00  0.00     0.009 A 
ATOM     66  C   UNL     1      16.079   5.533   5.479  1.00  0.00     0.001 A 
ATOM     67  C   UNL     1      14.553   7.397   5.322  1.00  0.00     0.001 A 
ATOM     68  C   UNL     1      15.393   6.585   6.082  1.00  0.00     0.000 A 
ENDBRANCH  49  63
BRANCH  50  69
ATOM     69  C   UNL     1      13.080   4.002  -6.228  1.00  0.00    -0.014 A 
ATOM     70  C   UNL     1      14.106   3.737  -7.148  1.00  0.00     0.009 A 
ATOM     71  C   UNL     1      11.748   3.976  -6.671  1.00  0.00     0.009 A 
ATOM     72  C   UNL     1      13.805   3.474  -8.487  1.00  0.00     0.001 A 
ATOM     73  C   UNL     1      11.449   3.683  -8.003  1.00  0.00     0.001 A 
ATOM     74  C   UNL     1      12.478   3.441  -8.912  1.00  0.00     0.000 A 
ENDBRANCH  50  69
BRANCH  62  75
ATOM     75  C   UNL     1      16.250   9.311  -3.000  1.00  0.00    -0.014 A 
ATOM     76  C   UNL     1      15.509  10.383  -3.520  1.00  0.00     0.009 A 
ATOM     77  C   UNL     1      17.645   9.436  -2.897  1.00  0.00     0.009 A 
ATOM     78  C   UNL     1      16.155  11.543  -3.953  1.00  0.00     0.001 A 
ATOM     79  C   UNL     1      18.285  10.608  -3.300  1.00  0.00     0.001 A 
ATOM     80  C   UNL     1      17.541  11.657  -3.836  1.00  0.00     0.000 A 
ENDBRANCH  62  75
ENDBRANCH  36  37
ENDBRANCH  28  31
ENDBRANCH  26  27
ENDBRANCH  25  26
ENDBRANCH  24  25
ENDBRANCH   1  24
TORSDOF 16
