REMARK SMILES C[N@H+]1CCO[C@H](c2noc(-c3ccccc3C(=O)NCCCCCCNC(=O)c3ccc(-c4c5nc(c(-c6ccccc6)c6ccc([nH]6)c(-c6ccccc6)c6nc(c(-c7ccccc7)c7ccc4[nH]7)C=C6)C=C5)cc3)n2)C1
REMARK SMILES IDX 22 1 21 2 20 3 19 4 17 5 18 6 16 8 11 9 12 10 13 11 15 12
REMARK SMILES IDX 14 13 10 14 7 15 8 16 77 17 9 18 6 19 1 20 2 21 3 22 78 23
REMARK SMILES IDX 4 25 5 26 23 27 24 28 25 29 26 30 27 31 28 33 29 34 30 35
REMARK SMILES IDX 76 36 31 37 75 38 32 39 33 40 34 41 69 42 35 43 74 44 68 45
REMARK SMILES IDX 70 46 36 47 73 48 67 49 66 50 37 52 59 53 44 54 58 55 45 56
REMARK SMILES IDX 48 57 57 58 71 59 46 60 47 61 56 63 72 64 49 65 38 66 39 67
REMARK SMILES IDX 43 68 40 69 42 70 41 71 60 72 61 73 65 74 62 75 64 76 63 77
REMARK SMILES IDX 50 78 51 79 55 80 52 81 54 82 53 83
REMARK H PARENT 19 7 2 24 26 32 70 51 48 62
REMARK Flexibility Score: inf
ROOT
ATOM      1  C   UNL     1      -3.512  -3.359  -3.138  1.00  0.00     0.002 C 
ENDROOT
BRANCH   1   2
ATOM      2  C   UNL     1      -2.765  -4.538  -3.770  1.00  0.00     0.021 C 
BRANCH   2   3
ATOM      3  C   UNL     1      -1.499  -5.002  -3.062  1.00  0.00     0.116 C 
BRANCH   3   4
ATOM      4  N   UNL     1      -1.696  -5.915  -1.957  1.00  0.00    -0.352 N 
ATOM      5  C   UNL     1      -0.904  -6.975  -1.570  1.00  0.00     0.252 C 
ATOM      6  O   UNL     1      -1.173  -7.591  -0.540  1.00  0.00    -0.269 OA
ATOM      7  H   UNL     1      -2.501  -5.760  -1.411  1.00  0.00     0.163 HD
BRANCH   5   8
ATOM      8  C   UNL     1       0.173  -7.498  -2.452  1.00  0.00     0.052 A 
ATOM      9  C   UNL     1       1.259  -6.758  -2.957  1.00  0.00     0.053 A 
ATOM     10  C   UNL     1       2.105  -7.388  -3.898  1.00  0.00     0.015 A 
ATOM     11  C   UNL     1       1.912  -8.717  -4.287  1.00  0.00     0.001 A 
ATOM     12  C   UNL     1       0.017  -8.853  -2.815  1.00  0.00     0.014 A 
ATOM     13  C   UNL     1       0.880  -9.457  -3.729  1.00  0.00     0.001 A 
BRANCH   9  14
ATOM     14  C   UNL     1       1.535  -5.370  -2.596  1.00  0.00     0.258 A 
ATOM     15  C   UNL     1       1.643  -3.393  -1.874  1.00  0.00     0.206 A 
ATOM     16  N   UNL     1       2.057  -3.281  -3.147  1.00  0.00    -0.059 NA
ATOM     17  N   UNL     1       1.325  -4.684  -1.494  1.00  0.00    -0.189 NA
ATOM     18  O   UNL     1       1.989  -4.585  -3.625  1.00  0.00    -0.334 OA
BRANCH  15  19
ATOM     19  C   UNL     1       1.405  -2.172  -1.025  1.00  0.00     0.245 C 
ATOM     20  C   UNL     1       2.289  -0.187   1.201  1.00  0.00     0.332 C 
ATOM     21  N   UNL     1       1.323  -1.275   1.359  1.00  0.00    -0.333 N 
ATOM     22  C   UNL     1      -0.048  -0.818   1.045  1.00  0.00     0.290 C 
ATOM     23  C   UNL     1       1.641  -2.433   0.479  1.00  0.00     0.303 C 
ATOM     24  H   UNL     1       1.381  -1.568   2.334  1.00  0.00     0.348 HD
ATOM     25  C   UNL     1      -0.256  -0.537  -0.446  1.00  0.00     0.222 C 
ATOM     26  O   UNL     1       0.062  -1.690  -1.226  1.00  0.00    -0.358 OA
ENDBRANCH  15  19
ENDBRANCH   9  14
ENDBRANCH   5   8
ENDBRANCH   3   4
ENDBRANCH   2   3
ENDBRANCH   1   2
BRANCH   1  27
ATOM     27  C   UNL     1      -2.669  -2.169  -2.680  1.00  0.00     0.002 C 
BRANCH  27  28
ATOM     28  C   UNL     1      -1.736  -1.573  -3.740  1.00  0.00     0.021 C 
BRANCH  28  29
ATOM     29  C   UNL     1      -2.069  -0.167  -4.232  1.00  0.00     0.116 C 
BRANCH  29  30
ATOM     30  N   UNL     1      -2.379   0.799  -3.191  1.00  0.00    -0.352 N 
ATOM     31  C   UNL     1      -1.986   2.090  -2.942  1.00  0.00     0.251 C 
ATOM     32  H   UNL     1      -3.009   0.452  -2.518  1.00  0.00     0.163 HD
ATOM     33  O   UNL     1      -2.409   2.623  -1.920  1.00  0.00    -0.269 OA
BRANCH  31  34
ATOM     34  C   UNL     1      -1.057   2.850  -3.821  1.00  0.00     0.039 A 
ATOM     35  C   UNL     1      -0.398   3.958  -3.270  1.00  0.00     0.014 A 
ATOM     36  C   UNL     1      -0.838   2.548  -5.162  1.00  0.00     0.014 A 
ATOM     37  C   UNL     1       0.489   4.714  -4.043  1.00  0.00     0.010 A 
ATOM     38  C   UNL     1       0.155   3.204  -5.885  1.00  0.00     0.010 A 
ATOM     39  C   UNL     1       0.806   4.319  -5.351  1.00  0.00    -0.014 A 
BRANCH  39  40
ATOM     40  C   UNL     1       1.769   5.086  -6.185  1.00  0.00     0.031 A 
ATOM     41  C   UNL     1       1.337   5.659  -7.514  1.00  0.00     0.074 A 
ATOM     42  C   UNL     1       3.040   5.237  -5.764  1.00  0.00     0.049 A 
ATOM     43  N   UNL     1       2.042   6.325  -8.395  1.00  0.00    -0.248 NA
ATOM     44  C   UNL     1      -0.058   5.425  -7.929  1.00  0.00     0.031 C 
ATOM     45  C   UNL     1       3.600   4.681  -4.528  1.00  0.00     0.029 A 
ATOM     46  N   UNL     1       4.093   5.914  -6.325  1.00  0.00    -0.354 N 
ATOM     47  C   UNL     1       1.183   6.570  -9.462  1.00  0.00     0.074 A 
ATOM     48  C   UNL     1      -0.068   5.917  -9.158  1.00  0.00     0.031 C 
ATOM     49  C   UNL     1       4.873   5.087  -4.398  1.00  0.00     0.029 A 
ATOM     50  C   UNL     1       5.236   5.888  -5.560  1.00  0.00     0.049 A 
ATOM     51  H   UNL     1       4.037   6.375  -7.193  1.00  0.00     0.167 HD
ATOM     52  C   UNL     1       1.399   7.306 -10.578  1.00  0.00     0.031 A 
ATOM     53  C   UNL     1       6.439   6.452  -5.772  1.00  0.00     0.031 A 
ATOM     54  C   UNL     1       2.634   7.981 -10.868  1.00  0.00     0.049 A 
ATOM     55  C   UNL     1       6.647   7.267  -7.019  1.00  0.00     0.074 A 
ATOM     56  C   UNL     1       2.946   8.786 -11.950  1.00  0.00     0.029 A 
ATOM     57  N   UNL     1       3.760   7.939 -10.060  1.00  0.00    -0.354 N 
ATOM     58  N   UNL     1       5.801   7.537  -7.984  1.00  0.00    -0.248 NA
ATOM     59  C   UNL     1       7.974   7.873  -7.192  1.00  0.00     0.031 C 
ATOM     60  C   UNL     1       4.276   9.197 -11.818  1.00  0.00     0.029 A 
ATOM     61  C   UNL     1       4.771   8.697 -10.625  1.00  0.00     0.049 A 
ATOM     62  H   UNL     1       3.829   7.445  -9.212  1.00  0.00     0.167 HD
ATOM     63  C   UNL     1       6.485   8.366  -8.863  1.00  0.00     0.074 A 
ATOM     64  C   UNL     1       7.800   8.583  -8.296  1.00  0.00     0.031 C 
ATOM     65  C   UNL     1       6.071   8.897 -10.040  1.00  0.00     0.031 A 
BRANCH  52  66
ATOM     66  C   UNL     1       0.262   7.442 -11.555  1.00  0.00    -0.014 A 
ATOM     67  C   UNL     1      -0.883   8.189 -11.232  1.00  0.00     0.009 A 
ATOM     68  C   UNL     1       0.356   6.867 -12.832  1.00  0.00     0.009 A 
ATOM     69  C   UNL     1      -1.921   8.333 -12.155  1.00  0.00     0.001 A 
ATOM     70  C   UNL     1      -0.670   7.039 -13.764  1.00  0.00     0.001 A 
ATOM     71  C   UNL     1      -1.810   7.765 -13.423  1.00  0.00     0.000 A 
ENDBRANCH  52  66
BRANCH  53  72
ATOM     72  C   UNL     1       7.540   6.287  -4.785  1.00  0.00    -0.014 A 
ATOM     73  C   UNL     1       8.029   7.391  -4.067  1.00  0.00     0.009 A 
ATOM     74  C   UNL     1       8.142   5.035  -4.587  1.00  0.00     0.009 A 
ATOM     75  C   UNL     1       9.127   7.255  -3.215  1.00  0.00     0.001 A 
ATOM     76  C   UNL     1       9.216   4.894  -3.704  1.00  0.00     0.001 A 
ATOM     77  C   UNL     1       9.718   6.007  -3.033  1.00  0.00     0.000 A 
ENDBRANCH  53  72
BRANCH  65  78
ATOM     78  C   UNL     1       7.042   9.791 -10.758  1.00  0.00    -0.014 A 
ATOM     79  C   UNL     1       8.212   9.280 -11.341  1.00  0.00     0.009 A 
ATOM     80  C   UNL     1       6.782  11.168 -10.846  1.00  0.00     0.009 A 
ATOM     81  C   UNL     1       9.132  10.139 -11.945  1.00  0.00     0.001 A 
ATOM     82  C   UNL     1       7.684  12.018 -11.484  1.00  0.00     0.001 A 
ATOM     83  C   UNL     1       8.866  11.506 -12.018  1.00  0.00     0.000 A 
ENDBRANCH  65  78
ENDBRANCH  39  40
ENDBRANCH  31  34
ENDBRANCH  29  30
ENDBRANCH  28  29
ENDBRANCH  27  28
ENDBRANCH   1  27
TORSDOF 15
