REMARK SMILES CCCc1nsc(N2CCO[C@H](CC(=O)NCCCCCCNC(=O)c3ccc(-c4c5nc(c(-c6ccccc6)c6ccc([nH]6)c(-c6ccccc6)c6nc(c(-c7ccccc7)c7ccc4[nH]7)C=C6)C=C5)cc3)C2)n1
REMARK SMILES IDX 18 1 17 2 16 3 14 4 15 5 13 7 12 8 8 9 9 10 74 11 10 12
REMARK SMILES IDX 11 13 7 14 4 15 5 16 75 17 6 18 3 19 2 20 1 21 19 22 20 23
REMARK SMILES IDX 21 24 22 25 23 26 24 27 25 29 26 30 27 31 73 32 28 33 72 34
REMARK SMILES IDX 29 35 30 36 31 37 66 38 32 39 71 40 65 41 67 42 33 43 70 44
REMARK SMILES IDX 64 45 63 46 34 48 56 49 41 50 55 51 42 52 45 53 54 54 68 55
REMARK SMILES IDX 43 56 44 57 53 59 69 60 46 61 35 62 36 63 40 64 37 65 39 66
REMARK SMILES IDX 38 67 57 68 58 69 62 70 59 71 61 72 60 73 47 74 48 75 52 76
REMARK SMILES IDX 49 77 51 78 50 79
REMARK H PARENT 16 6 23 28 67 47 45 58
REMARK Flexibility Score: inf
ROOT
ATOM      1  C   UNL     1      -6.820   2.345  -0.912  1.00  0.00     0.021 C 
ENDROOT
BRANCH   1   2
ATOM      2  C   UNL     1      -5.514   1.561  -1.061  1.00  0.00     0.116 C 
BRANCH   2   3
ATOM      3  N   UNL     1      -4.768   1.993  -2.226  1.00  0.00    -0.356 N 
ATOM      4  C   UNL     1      -3.583   2.661  -2.289  1.00  0.00     0.222 C 
ATOM      5  O   UNL     1      -3.154   3.001  -3.393  1.00  0.00    -0.275 OA
ATOM      6  H   UNL     1      -5.176   1.773  -3.095  1.00  0.00     0.163 HD
BRANCH   4   7
ATOM      7  C   UNL     1      -2.811   2.985  -1.026  1.00  0.00     0.133 C 
BRANCH   7   8
ATOM      8  C   UNL     1      -3.284   4.319  -0.434  1.00  0.00     0.147 C 
ATOM      9  N   UNL     1      -1.872   4.525   1.606  1.00  0.00    -0.342 N 
ATOM     10  C   UNL     1      -3.050   4.349   2.452  1.00  0.00     0.147 C 
ATOM     11  C   UNL     1      -2.151   5.098   0.287  1.00  0.00     0.151 C 
ATOM     12  C   UNL     1      -4.125   3.568   1.700  1.00  0.00     0.182 C 
ATOM     13  O   UNL     1      -4.436   4.159   0.427  1.00  0.00    -0.374 OA
BRANCH   9  14
ATOM     14  C   UNL     1      -0.782   3.740   1.795  1.00  0.00     0.205 A 
ATOM     15  C   UNL     1       0.504   2.009   2.239  1.00  0.00     0.144 A 
ATOM     16  N   UNL     1       1.520   2.827   1.961  1.00  0.00    -0.174 NA
ATOM     17  N   UNL     1      -0.802   2.490   2.208  1.00  0.00    -0.203 NA
ATOM     18  S   UNL     1       0.845   4.292   1.552  1.00  0.00     0.004 S 
BRANCH  15  19
ATOM     19  C   UNL     1       0.768   0.565   2.503  1.00  0.00     0.078 C 
BRANCH  19  20
ATOM     20  C   UNL     1       0.309  -0.346   1.360  1.00  0.00     0.005 C 
ATOM     21  C   UNL     1       0.967  -0.025   0.023  1.00  0.00     0.004 C 
ENDBRANCH  19  20
ENDBRANCH  15  19
ENDBRANCH   9  14
ENDBRANCH   7   8
ENDBRANCH   4   7
ENDBRANCH   2   3
ENDBRANCH   1   2
BRANCH   1  22
ATOM     22  C   UNL     1      -8.029   1.632  -1.529  1.00  0.00     0.002 C 
BRANCH  22  23
ATOM     23  C   UNL     1      -8.414   0.311  -0.849  1.00  0.00     0.002 C 
BRANCH  23  24
ATOM     24  C   UNL     1      -8.733   0.408   0.646  1.00  0.00     0.021 C 
BRANCH  24  25
ATOM     25  C   UNL     1      -9.888   1.343   0.997  1.00  0.00     0.116 C 
BRANCH  25  26
ATOM     26  N   UNL     1     -11.136   0.922   0.381  1.00  0.00    -0.352 N 
ATOM     27  C   UNL     1     -12.351   0.639   0.952  1.00  0.00     0.251 C 
ATOM     28  H   UNL     1     -11.104   0.824  -0.598  1.00  0.00     0.163 HD
ATOM     29  O   UNL     1     -13.228   0.096   0.289  1.00  0.00    -0.269 OA
BRANCH  27  30
ATOM     30  C   UNL     1     -12.609   0.977   2.368  1.00  0.00     0.039 A 
ATOM     31  C   UNL     1     -13.303   0.060   3.163  1.00  0.00     0.014 A 
ATOM     32  C   UNL     1     -12.217   2.209   2.900  1.00  0.00     0.014 A 
ATOM     33  C   UNL     1     -13.563   0.358   4.502  1.00  0.00     0.010 A 
ATOM     34  C   UNL     1     -12.421   2.479   4.251  1.00  0.00     0.010 A 
ATOM     35  C   UNL     1     -13.104   1.560   5.062  1.00  0.00    -0.014 A 
BRANCH  35  36
ATOM     36  C   UNL     1     -13.341   1.876   6.492  1.00  0.00     0.031 A 
ATOM     37  C   UNL     1     -14.240   3.018   6.878  1.00  0.00     0.074 A 
ATOM     38  C   UNL     1     -12.710   1.163   7.445  1.00  0.00     0.049 A 
ATOM     39  N   UNL     1     -14.541   3.465   8.072  1.00  0.00    -0.248 NA
ATOM     40  C   UNL     1     -14.866   3.770   5.779  1.00  0.00     0.031 C 
ATOM     41  C   UNL     1     -11.789   0.051   7.201  1.00  0.00     0.029 A 
ATOM     42  N   UNL     1     -12.750   1.270   8.812  1.00  0.00    -0.354 N 
ATOM     43  C   UNL     1     -15.377   4.555   7.866  1.00  0.00     0.074 A 
ATOM     44  C   UNL     1     -15.496   4.732   6.435  1.00  0.00     0.031 C 
ATOM     45  C   UNL     1     -11.377  -0.442   8.380  1.00  0.00     0.029 A 
ATOM     46  C   UNL     1     -11.975   0.339   9.458  1.00  0.00     0.049 A 
ATOM     47  H   UNL     1     -13.284   1.949   9.284  1.00  0.00     0.167 HD
ATOM     48  C   UNL     1     -16.005   5.329   8.784  1.00  0.00     0.031 A 
ATOM     49  C   UNL     1     -11.771   0.135  10.772  1.00  0.00     0.031 A 
ATOM     50  C   UNL     1     -15.894   5.150  10.207  1.00  0.00     0.049 A 
ATOM     51  C   UNL     1     -12.468   1.015  11.771  1.00  0.00     0.074 A 
ATOM     52  C   UNL     1     -16.526   5.853  11.218  1.00  0.00     0.029 A 
ATOM     53  N   UNL     1     -15.097   4.197  10.821  1.00  0.00    -0.354 N 
ATOM     54  N   UNL     1     -13.298   2.007  11.560  1.00  0.00    -0.248 NA
ATOM     55  C   UNL     1     -12.207   0.735  13.190  1.00  0.00     0.031 C 
ATOM     56  C   UNL     1     -16.079   5.352  12.445  1.00  0.00     0.029 A 
ATOM     57  C   UNL     1     -15.207   4.304  12.197  1.00  0.00     0.049 A 
ATOM     58  H   UNL     1     -14.536   3.540  10.348  1.00  0.00     0.167 HD
ATOM     59  C   UNL     1     -13.681   2.452  12.818  1.00  0.00     0.074 A 
ATOM     60  C   UNL     1     -13.003   1.613  13.785  1.00  0.00     0.031 C 
ATOM     61  C   UNL     1     -14.522   3.464  13.144  1.00  0.00     0.031 A 
BRANCH  48  62
ATOM     62  C   UNL     1     -16.865   6.448   8.266  1.00  0.00    -0.014 A 
ATOM     63  C   UNL     1     -18.084   6.187   7.620  1.00  0.00     0.009 A 
ATOM     64  C   UNL     1     -16.462   7.780   8.441  1.00  0.00     0.009 A 
ATOM     65  C   UNL     1     -18.862   7.235   7.123  1.00  0.00     0.001 A 
ATOM     66  C   UNL     1     -17.255   8.828   7.968  1.00  0.00     0.001 A 
ATOM     67  C   UNL     1     -18.448   8.555   7.301  1.00  0.00     0.000 A 
ENDBRANCH  48  62
BRANCH  49  68
ATOM     68  C   UNL     1     -10.889  -0.971  11.225  1.00  0.00    -0.014 A 
ATOM     69  C   UNL     1     -11.440  -2.116  11.819  1.00  0.00     0.009 A 
ATOM     70  C   UNL     1      -9.497  -0.890  11.067  1.00  0.00     0.009 A 
ATOM     71  C   UNL     1     -10.613  -3.147  12.270  1.00  0.00     0.001 A 
ATOM     72  C   UNL     1      -8.675  -1.934  11.495  1.00  0.00     0.001 A 
ATOM     73  C   UNL     1      -9.232  -3.057  12.104  1.00  0.00     0.000 A 
ENDBRANCH  49  68
BRANCH  61  74
ATOM     74  C   UNL     1     -14.780   3.692  14.606  1.00  0.00    -0.014 A 
ATOM     75  C   UNL     1     -13.806   4.268  15.437  1.00  0.00     0.009 A 
ATOM     76  C   UNL     1     -16.025   3.347  15.154  1.00  0.00     0.009 A 
ATOM     77  C   UNL     1     -14.062   4.461  16.795  1.00  0.00     0.001 A 
ATOM     78  C   UNL     1     -16.288   3.566  16.506  1.00  0.00     0.001 A 
ATOM     79  C   UNL     1     -15.304   4.113  17.328  1.00  0.00     0.000 A 
ENDBRANCH  61  74
ENDBRANCH  35  36
ENDBRANCH  27  30
ENDBRANCH  25  26
ENDBRANCH  24  25
ENDBRANCH  23  24
ENDBRANCH  22  23
ENDBRANCH   1  22
TORSDOF 17
