REMARK SMILES C[NH+]1CCC([N@@H+](C)Cc2ccc(C(=O)NCCCCCCNC(=O)c3ccc(-c4c5nc(c(-c6ccccc6)c6ccc([nH]6)c(-c6ccccc6)c6nc(c(-c7ccccc7)c7ccc4[nH]7)C=C6)C=C5)cc3)cn2)CC1
REMARK SMILES IDX 18 1 17 2 16 3 15 4 13 5 14 6 12 8 9 9 10 10 74 11 11 12
REMARK SMILES IDX 73 13 8 14 6 15 7 16 5 18 1 19 2 20 3 21 76 22 4 24 75 25
REMARK SMILES IDX 19 26 20 27 21 28 22 29 23 30 24 32 25 33 26 34 72 35 27 36
REMARK SMILES IDX 71 37 28 38 29 39 30 40 65 41 31 42 70 43 64 44 66 45 32 46
REMARK SMILES IDX 69 47 63 48 62 49 33 51 55 52 40 53 54 54 41 55 44 56 53 57
REMARK SMILES IDX 67 58 42 59 43 60 52 62 68 63 45 64 34 65 35 66 39 67 36 68
REMARK SMILES IDX 38 69 37 70 56 71 57 72 61 73 58 74 60 75 59 76 46 77 47 78
REMARK SMILES IDX 51 79 48 80 50 81 49 82
REMARK H PARENT 15 7 6 17 2 23 22 31 66 50 44 61
REMARK Flexibility Score: inf
ROOT
ATOM      1  C   UNL     1      -1.767   4.885   6.835  1.00  0.00     0.002 C 
ENDROOT
BRANCH   1   2
ATOM      2  C   UNL     1      -1.095   3.703   6.118  1.00  0.00     0.021 C 
BRANCH   2   3
ATOM      3  C   UNL     1      -1.117   3.834   4.594  1.00  0.00     0.116 C 
BRANCH   3   4
ATOM      4  N   UNL     1      -0.138   4.815   4.175  1.00  0.00    -0.352 N 
ATOM      5  C   UNL     1       1.157   4.720   3.744  1.00  0.00     0.252 C 
ATOM      6  O   UNL     1       1.756   5.777   3.542  1.00  0.00    -0.269 OA
ATOM      7  H   UNL     1      -0.473   5.740   4.208  1.00  0.00     0.163 HD
BRANCH   5   8
ATOM      8  C   UNL     1       1.839   3.441   3.428  1.00  0.00     0.058 A 
ATOM      9  C   UNL     1       3.078   1.217   2.336  1.00  0.00     0.095 A 
ATOM     10  C   UNL     1       2.131   1.045   3.343  1.00  0.00     0.030 A 
ATOM     11  N   UNL     1       3.518   2.447   1.978  1.00  0.00    -0.255 NA
ATOM     12  C   UNL     1       1.525   2.172   3.909  1.00  0.00     0.017 A 
ATOM     13  C   UNL     1       2.884   3.518   2.513  1.00  0.00     0.125 A 
BRANCH   9  14
ATOM     14  C   UNL     1       3.569   0.029   1.525  1.00  0.00     0.319 C 
BRANCH  14  15
ATOM     15  N   UNL     1       3.261   0.019   0.076  1.00  0.00    -0.330 N 
ATOM     16  C   UNL     1       4.048   1.009  -0.660  1.00  0.00     0.333 C 
ATOM     17  H   UNL     1       3.559  -0.916  -0.198  1.00  0.00     0.348 HD
BRANCH  15  18
ATOM     18  C   UNL     1       1.839  -0.003  -0.338  1.00  0.00     0.195 C 
ATOM     19  C   UNL     1      -2.478  -0.094  -0.236  1.00  0.00     0.332 C 
ATOM     20  N   UNL     1      -1.059  -0.012   0.104  1.00  0.00    -0.337 N 
ATOM     21  C   UNL     1      -0.432   1.130  -0.576  1.00  0.00     0.268 C 
ATOM     22  C   UNL     1      -0.363  -1.256  -0.247  1.00  0.00     0.268 C 
ATOM     23  H   UNL     1      -0.984   0.125   1.112  1.00  0.00     0.347 HD
ATOM     24  C   UNL     1       1.023   1.289  -0.132  1.00  0.00     0.126 C 
ATOM     25  C   UNL     1       1.085  -1.212   0.244  1.00  0.00     0.126 C 
ENDBRANCH  15  18
ENDBRANCH  14  15
ENDBRANCH   9  14
ENDBRANCH   5   8
ENDBRANCH   3   4
ENDBRANCH   2   3
ENDBRANCH   1   2
BRANCH   1  26
ATOM     26  C   UNL     1      -3.259   5.064   6.526  1.00  0.00     0.002 C 
BRANCH  26  27
ATOM     27  C   UNL     1      -4.115   3.814   6.741  1.00  0.00     0.021 C 
BRANCH  27  28
ATOM     28  C   UNL     1      -4.098   3.284   8.171  1.00  0.00     0.116 C 
BRANCH  28  29
ATOM     29  N   UNL     1      -4.714   4.219   9.098  1.00  0.00    -0.352 N 
ATOM     30  C   UNL     1      -5.754   4.017   9.969  1.00  0.00     0.251 C 
ATOM     31  H   UNL     1      -4.329   5.125   9.101  1.00  0.00     0.163 HD
ATOM     32  O   UNL     1      -6.300   4.971  10.514  1.00  0.00    -0.269 OA
BRANCH  30  33
ATOM     33  C   UNL     1      -6.224   2.643  10.244  1.00  0.00     0.039 A 
ATOM     34  C   UNL     1      -7.598   2.394  10.290  1.00  0.00     0.014 A 
ATOM     35  C   UNL     1      -5.312   1.611  10.482  1.00  0.00     0.014 A 
ATOM     36  C   UNL     1      -8.058   1.099  10.536  1.00  0.00     0.010 A 
ATOM     37  C   UNL     1      -5.770   0.309  10.655  1.00  0.00     0.010 A 
ATOM     38  C   UNL     1      -7.147   0.043  10.699  1.00  0.00    -0.014 A 
BRANCH  38  39
ATOM     39  C   UNL     1      -7.614  -1.344  10.945  1.00  0.00     0.031 A 
ATOM     40  C   UNL     1      -7.306  -2.020  12.252  1.00  0.00     0.074 A 
ATOM     41  C   UNL     1      -8.265  -2.013   9.974  1.00  0.00     0.049 A 
ATOM     42  N   UNL     1      -7.576  -3.243  12.634  1.00  0.00    -0.248 NA
ATOM     43  C   UNL     1      -6.574  -1.227  13.253  1.00  0.00     0.031 C 
ATOM     44  C   UNL     1      -8.594  -1.481   8.650  1.00  0.00     0.029 A 
ATOM     45  N   UNL     1      -8.761  -3.292   9.952  1.00  0.00    -0.354 N 
ATOM     46  C   UNL     1      -7.032  -3.369  13.906  1.00  0.00     0.074 A 
ATOM     47  C   UNL     1      -6.373  -2.119  14.211  1.00  0.00     0.031 C 
ATOM     48  C   UNL     1      -9.261  -2.417   7.955  1.00  0.00     0.029 A 
ATOM     49  C   UNL     1      -9.372  -3.624   8.767  1.00  0.00     0.049 A 
ATOM     50  H   UNL     1      -8.687  -3.912  10.712  1.00  0.00     0.167 HD
ATOM     51  C   UNL     1      -7.092  -4.423  14.754  1.00  0.00     0.031 A 
ATOM     52  C   UNL     1      -9.953  -4.774   8.378  1.00  0.00     0.031 A 
ATOM     53  C   UNL     1      -7.760  -5.662  14.456  1.00  0.00     0.049 A 
ATOM     54  C   UNL     1     -10.001  -5.933   9.334  1.00  0.00     0.074 A 
ATOM     55  C   UNL     1      -7.921  -6.772  15.267  1.00  0.00     0.029 A 
ATOM     56  N   UNL     1      -8.376  -5.954  13.249  1.00  0.00    -0.354 N 
ATOM     57  N   UNL     1      -9.535  -6.016  10.557  1.00  0.00    -0.248 NA
ATOM     58  C   UNL     1     -10.667  -7.154   8.859  1.00  0.00     0.031 C 
ATOM     59  C   UNL     1      -8.595  -7.754  14.533  1.00  0.00     0.029 A 
ATOM     60  C   UNL     1      -8.903  -7.234  13.286  1.00  0.00     0.049 A 
ATOM     61  H   UNL     1      -8.431  -5.342  12.480  1.00  0.00     0.167 HD
ATOM     62  C   UNL     1      -9.881  -7.282  11.009  1.00  0.00     0.074 A 
ATOM     63  C   UNL     1     -10.606  -7.928   9.934  1.00  0.00     0.031 C 
ATOM     64  C   UNL     1      -9.624  -7.859  12.208  1.00  0.00     0.031 A 
BRANCH  51  65
ATOM     65  C   UNL     1      -6.408  -4.280  16.086  1.00  0.00    -0.014 A 
ATOM     66  C   UNL     1      -6.908  -3.413  17.072  1.00  0.00     0.009 A 
ATOM     67  C   UNL     1      -5.263  -5.040  16.369  1.00  0.00     0.009 A 
ATOM     68  C   UNL     1      -6.252  -3.282  18.298  1.00  0.00     0.001 A 
ATOM     69  C   UNL     1      -4.627  -4.930  17.607  1.00  0.00     0.001 A 
ATOM     70  C   UNL     1      -5.115  -4.044  18.566  1.00  0.00     0.000 A 
ENDBRANCH  51  65
BRANCH  52  71
ATOM     71  C   UNL     1     -10.559  -4.882   7.025  1.00  0.00    -0.014 A 
ATOM     72  C   UNL     1     -11.952  -4.949   6.873  1.00  0.00     0.009 A 
ATOM     73  C   UNL     1      -9.748  -4.926   5.880  1.00  0.00     0.009 A 
ATOM     74  C   UNL     1     -12.520  -5.087   5.604  1.00  0.00     0.001 A 
ATOM     75  C   UNL     1     -10.320  -5.034   4.611  1.00  0.00     0.001 A 
ATOM     76  C   UNL     1     -11.704  -5.125   4.474  1.00  0.00     0.000 A 
ENDBRANCH  52  71
BRANCH  64  77
ATOM     77  C   UNL     1     -10.169  -9.241  12.437  1.00  0.00    -0.014 A 
ATOM     78  C   UNL     1      -9.619 -10.361  11.794  1.00  0.00     0.009 A 
ATOM     79  C   UNL     1     -11.227  -9.426  13.340  1.00  0.00     0.009 A 
ATOM     80  C   UNL     1     -10.142 -11.634  12.026  1.00  0.00     0.001 A 
ATOM     81  C   UNL     1     -11.728 -10.703  13.593  1.00  0.00     0.001 A 
ATOM     82  C   UNL     1     -11.192 -11.805  12.928  1.00  0.00     0.000 A 
ENDBRANCH  64  77
ENDBRANCH  38  39
ENDBRANCH  30  33
ENDBRANCH  28  29
ENDBRANCH  27  28
ENDBRANCH  26  27
ENDBRANCH   1  26
TORSDOF 16
