REMARK SMILES CC1(C)C(n2c(SCC(=O)NCCCCCCNC(=O)c3ccc(-c4c5nc(c(-c6ccccc6)c6ccc([nH]6)c(-c6ccccc6)c6nc(c(-c7ccccc7)c7ccc4[nH]7)C=C6)C=C5)cc3)nc3cnccc32)C1(C)C
REMARK SMILES IDX 14 1 13 2 12 3 11 4 9 5 10 6 8 8 7 9 6 10 5 11 75 12 69 13
REMARK SMILES IDX 70 14 74 15 71 16 73 17 72 18 4 19 1 20 2 21 3 22 76 23
REMARK SMILES IDX 77 24 78 25 15 26 16 27 17 28 18 29 19 30 20 32 21 33 22 34
REMARK SMILES IDX 68 35 23 36 67 37 24 38 25 39 26 40 61 41 27 42 66 43 60 44
REMARK SMILES IDX 62 45 28 46 65 47 59 48 58 49 29 51 51 52 36 53 50 54 37 55
REMARK SMILES IDX 40 56 49 57 63 58 38 59 39 60 48 62 64 63 41 64 30 65 31 66
REMARK SMILES IDX 35 67 32 68 34 69 33 70 52 71 53 72 57 73 54 74 56 75 55 76
REMARK SMILES IDX 42 77 43 78 47 79 44 80 46 81 45 82
REMARK H PARENT 11 7 18 31 62 50 40 61
REMARK Flexibility Score: inf
ROOT
ATOM      1  C   UNL     1       5.259   5.668  -3.612  1.00  0.00     0.002 C 
ENDROOT
BRANCH   1   2
ATOM      2  C   UNL     1       4.368   5.163  -4.758  1.00  0.00     0.021 C 
BRANCH   2   3
ATOM      3  C   UNL     1       4.729   3.765  -5.262  1.00  0.00     0.116 C 
BRANCH   3   4
ATOM      4  N   UNL     1       4.684   2.836  -4.161  1.00  0.00    -0.355 N 
ATOM      5  C   UNL     1       3.614   2.112  -3.743  1.00  0.00     0.230 C 
ATOM      6  O   UNL     1       3.607   1.773  -2.562  1.00  0.00    -0.274 OA
ATOM      7  H   UNL     1       5.521   2.712  -3.658  1.00  0.00     0.163 HD
BRANCH   5   8
ATOM      8  C   UNL     1       2.578   1.661  -4.745  1.00  0.00     0.178 C 
BRANCH   8   9
ATOM      9  S   UNL     1       1.271   2.799  -5.114  1.00  0.00    -0.078 SA
BRANCH   9  10
ATOM     10  C   UNL     1       0.243   3.118  -3.764  1.00  0.00     0.169 A 
ATOM     11  N   UNL     1      -0.001   2.440  -2.580  1.00  0.00    -0.315 N 
ATOM     12  C   UNL     1      -0.817   3.265  -1.811  1.00  0.00     0.072 A 
ATOM     13  N   UNL     1      -0.541   4.176  -3.866  1.00  0.00    -0.221 NA
ATOM     14  C   UNL     1      -1.178   4.300  -2.667  1.00  0.00     0.108 A 
ATOM     15  C   UNL     1      -1.263   3.244  -0.486  1.00  0.00     0.049 A 
ATOM     16  C   UNL     1      -2.047   5.299  -2.216  1.00  0.00     0.141 A 
ATOM     17  C   UNL     1      -2.115   4.281  -0.125  1.00  0.00     0.113 A 
ATOM     18  N   UNL     1      -2.517   5.278  -0.943  1.00  0.00    -0.262 NA
BRANCH  11  19
ATOM     19  C   UNL     1       0.712   1.323  -1.984  1.00  0.00     0.102 C 
ATOM     20  C   UNL     1       0.714  -0.042   0.210  1.00  0.00     0.014 C 
ATOM     21  C   UNL     1       0.073   0.226  -1.141  1.00  0.00    -0.007 C 
ATOM     22  C   UNL     1      -1.415  -0.042  -1.130  1.00  0.00     0.014 C 
ATOM     23  C   UNL     1       0.840  -0.131  -2.438  1.00  0.00    -0.007 C 
ATOM     24  C   UNL     1       2.164  -0.861  -2.261  1.00  0.00     0.014 C 
ATOM     25  C   UNL     1       0.060  -0.625  -3.644  1.00  0.00     0.014 C 
ENDBRANCH  11  19
ENDBRANCH   9  10
ENDBRANCH   8   9
ENDBRANCH   5   8
ENDBRANCH   3   4
ENDBRANCH   2   3
ENDBRANCH   1   2
BRANCH   1  26
ATOM     26  C   UNL     1       6.762   5.602  -3.884  1.00  0.00     0.002 C 
BRANCH  26  27
ATOM     27  C   UNL     1       7.200   6.235  -5.206  1.00  0.00     0.021 C 
BRANCH  27  28
ATOM     28  C   UNL     1       6.754   7.687  -5.378  1.00  0.00     0.116 C 
BRANCH  28  29
ATOM     29  N   UNL     1       7.301   8.570  -4.374  1.00  0.00    -0.352 N 
ATOM     30  C   UNL     1       8.520   9.158  -4.188  1.00  0.00     0.251 C 
ATOM     31  H   UNL     1       6.652   8.797  -3.668  1.00  0.00     0.163 HD
ATOM     32  O   UNL     1       8.622   9.909  -3.216  1.00  0.00    -0.269 OA
BRANCH  30  33
ATOM     33  C   UNL     1       9.720   8.926  -5.043  1.00  0.00     0.039 A 
ATOM     34  C   UNL     1       9.752   8.178  -6.219  1.00  0.00     0.014 A 
ATOM     35  C   UNL     1      10.919   9.514  -4.599  1.00  0.00     0.014 A 
ATOM     36  C   UNL     1      10.949   7.961  -6.891  1.00  0.00     0.010 A 
ATOM     37  C   UNL     1      12.117   9.333  -5.288  1.00  0.00     0.010 A 
ATOM     38  C   UNL     1      12.136   8.533  -6.425  1.00  0.00    -0.014 A 
BRANCH  38  39
ATOM     39  C   UNL     1      13.321   8.362  -7.261  1.00  0.00     0.031 A 
ATOM     40  C   UNL     1      13.190   8.873  -8.652  1.00  0.00     0.074 A 
ATOM     41  C   UNL     1      14.507   7.877  -6.847  1.00  0.00     0.049 A 
ATOM     42  N   UNL     1      13.259   8.200  -9.754  1.00  0.00    -0.248 NA
ATOM     43  C   UNL     1      12.862  10.296  -8.832  1.00  0.00     0.031 C 
ATOM     44  C   UNL     1      14.935   7.615  -5.473  1.00  0.00     0.029 A 
ATOM     45  N   UNL     1      15.626   7.610  -7.587  1.00  0.00    -0.354 N 
ATOM     46  C   UNL     1      13.144   9.134 -10.780  1.00  0.00     0.074 A 
ATOM     47  C   UNL     1      12.790  10.386 -10.160  1.00  0.00     0.031 C 
ATOM     48  C   UNL     1      16.277   7.452  -5.454  1.00  0.00     0.029 A 
ATOM     49  C   UNL     1      16.768   7.437  -6.823  1.00  0.00     0.049 A 
ATOM     50  H   UNL     1      15.620   7.546  -8.569  1.00  0.00     0.167 HD
ATOM     51  C   UNL     1      13.552   8.858 -12.048  1.00  0.00     0.031 A 
ATOM     52  C   UNL     1      18.038   7.329  -7.274  1.00  0.00     0.031 A 
ATOM     53  C   UNL     1      13.755   7.452 -12.260  1.00  0.00     0.049 A 
ATOM     54  C   UNL     1      18.012   6.869  -8.677  1.00  0.00     0.074 A 
ATOM     55  C   UNL     1      12.958   6.340 -12.413  1.00  0.00     0.029 A 
ATOM     56  N   UNL     1      15.030   7.013 -12.024  1.00  0.00    -0.354 N 
ATOM     57  N   UNL     1      17.616   5.683  -9.040  1.00  0.00    -0.248 NA
ATOM     58  C   UNL     1      18.210   7.818  -9.765  1.00  0.00     0.031 C 
ATOM     59  C   UNL     1      13.752   5.232 -11.998  1.00  0.00     0.029 A 
ATOM     60  C   UNL     1      15.010   5.704 -11.619  1.00  0.00     0.049 A 
ATOM     61  H   UNL     1      15.843   7.558 -12.131  1.00  0.00     0.167 HD
ATOM     62  C   UNL     1      17.108   5.864 -10.311  1.00  0.00     0.074 A 
ATOM     63  C   UNL     1      17.678   7.120 -10.772  1.00  0.00     0.031 C 
ATOM     64  C   UNL     1      16.024   5.156 -10.739  1.00  0.00     0.031 A 
BRANCH  51  65
ATOM     65  C   UNL     1      14.178   9.877 -12.972  1.00  0.00    -0.014 A 
ATOM     66  C   UNL     1      14.695  11.107 -12.524  1.00  0.00     0.009 A 
ATOM     67  C   UNL     1      14.533   9.482 -14.276  1.00  0.00     0.009 A 
ATOM     68  C   UNL     1      15.527  11.896 -13.323  1.00  0.00     0.001 A 
ATOM     69  C   UNL     1      15.398  10.251 -15.065  1.00  0.00     0.001 A 
ATOM     70  C   UNL     1      15.898  11.457 -14.586  1.00  0.00     0.000 A 
ENDBRANCH  51  65
BRANCH  52  71
ATOM     71  C   UNL     1      19.285   7.791  -6.635  1.00  0.00    -0.014 A 
ATOM     72  C   UNL     1      19.273   8.931  -5.812  1.00  0.00     0.009 A 
ATOM     73  C   UNL     1      20.529   7.297  -7.058  1.00  0.00     0.009 A 
ATOM     74  C   UNL     1      20.459   9.586  -5.468  1.00  0.00     0.001 A 
ATOM     75  C   UNL     1      21.715   7.957  -6.719  1.00  0.00     0.001 A 
ATOM     76  C   UNL     1      21.678   9.111  -5.940  1.00  0.00     0.000 A 
ENDBRANCH  52  71
BRANCH  64  77
ATOM     77  C   UNL     1      15.721   3.846 -10.060  1.00  0.00    -0.014 A 
ATOM     78  C   UNL     1      15.603   2.699 -10.862  1.00  0.00     0.009 A 
ATOM     79  C   UNL     1      15.451   3.728  -8.687  1.00  0.00     0.009 A 
ATOM     80  C   UNL     1      15.222   1.474 -10.312  1.00  0.00     0.001 A 
ATOM     81  C   UNL     1      15.101   2.494  -8.130  1.00  0.00     0.001 A 
ATOM     82  C   UNL     1      14.978   1.370  -8.945  1.00  0.00     0.000 A 
ENDBRANCH  64  77
ENDBRANCH  38  39
ENDBRANCH  30  33
ENDBRANCH  28  29
ENDBRANCH  27  28
ENDBRANCH  26  27
ENDBRANCH   1  26
TORSDOF 16
