REMARK SMILES CC(C)(C)OC(=O)N[C@@H](C(=O)NCCCCCCNC(=O)c1ccc(-c2c3nc(c(-c4ccccc4)c4ccc([nH]4)c(-c4ccccc4)c4nc(c(-c5ccccc5)c5ccc2[nH]5)C=C4)C=C3)cc1)[C@H](O)c1ccccc1F
REMARK SMILES IDX 15 1 14 2 13 3 12 4 10 5 11 6 9 8 8 9 6 10 7 11 5 13 2 14
REMARK SMILES IDX 1 15 3 16 4 17 70 18 72 19 73 20 77 21 74 22 76 23 78 24
REMARK SMILES IDX 75 25 71 26 16 28 17 29 18 30 19 31 20 32 21 34 22 35 23 36
REMARK SMILES IDX 69 37 24 38 68 39 25 40 26 41 27 42 62 43 28 44 67 45 61 46
REMARK SMILES IDX 63 47 29 48 66 49 60 50 59 51 30 53 52 54 37 55 51 56 38 57
REMARK SMILES IDX 41 58 50 59 64 60 39 61 40 62 49 64 65 65 42 66 31 67 32 68
REMARK SMILES IDX 36 69 33 70 35 71 34 72 53 73 54 74 58 75 55 76 57 77 56 78
REMARK SMILES IDX 43 79 44 80 48 81 45 82 47 83 46 84
REMARK H PARENT 12 7 8 12 71 27 19 33 63 52 41 63
REMARK Flexibility Score: inf
ROOT
ATOM      1  C   UNL     1      -4.004   0.767   2.822  1.00  0.00     0.002 C 
ENDROOT
BRANCH   1   2
ATOM      2  C   UNL     1      -3.592   2.241   2.953  1.00  0.00     0.021 C 
BRANCH   2   3
ATOM      3  C   UNL     1      -2.798   2.527   4.230  1.00  0.00     0.116 C 
BRANCH   3   4
ATOM      4  N   UNL     1      -1.491   1.916   4.135  1.00  0.00    -0.354 N 
ATOM      5  C   UNL     1      -0.335   2.496   3.688  1.00  0.00     0.245 C 
ATOM      6  O   UNL     1       0.485   1.740   3.166  1.00  0.00    -0.273 OA
ATOM      7  H   UNL     1      -1.426   0.978   4.425  1.00  0.00     0.163 HD
BRANCH   5   8
ATOM      8  C   UNL     1      -0.159   4.025   3.816  1.00  0.00     0.208 C 
BRANCH   8   9
ATOM      9  N   UNL     1      -0.868   4.659   2.694  1.00  0.00    -0.307 N 
ATOM     10  C   UNL     1      -1.862   5.584   2.760  1.00  0.00     0.408 C 
ATOM     11  O   UNL     1      -2.395   6.017   1.746  1.00  0.00    -0.225 OA
ATOM     12  H   UNL     1      -0.591   4.381   1.791  1.00  0.00     0.168 HD
BRANCH  10  13
ATOM     13  O   UNL     1      -2.199   5.912   4.030  1.00  0.00    -0.444 OA
BRANCH  13  14
ATOM     14  C   UNL     1      -3.329   6.782   4.307  1.00  0.00     0.106 C 
ATOM     15  C   UNL     1      -3.425   6.840   5.841  1.00  0.00     0.056 C 
ATOM     16  C   UNL     1      -4.642   6.192   3.773  1.00  0.00     0.056 C 
ATOM     17  C   UNL     1      -3.079   8.197   3.779  1.00  0.00     0.056 C 
ENDBRANCH  13  14
ENDBRANCH  10  13
ENDBRANCH   8   9
BRANCH   8  18
ATOM     18  C   UNL     1       1.324   4.490   3.830  1.00  0.00     0.179 C 
BRANCH  18  19
ATOM     19  C   UNL     1       2.116   4.110   5.066  1.00  0.00     0.019 A 
ATOM     20  C   UNL     1       2.411   2.780   5.405  1.00  0.00     0.009 A 
ATOM     21  C   UNL     1       2.577   5.112   5.928  1.00  0.00     0.129 A 
ATOM     22  C   UNL     1       3.083   2.470   6.593  1.00  0.00     0.001 A 
ATOM     23  C   UNL     1       3.271   4.814   7.099  1.00  0.00     0.039 A 
ATOM     24  F   UNL     1       2.356   6.401   5.633  1.00  0.00    -0.207 F 
ATOM     25  C   UNL     1       3.511   3.487   7.442  1.00  0.00     0.003 A 
ENDBRANCH  18  19
BRANCH  18  26
ATOM     26  O   UNL     1       2.013   4.124   2.630  1.00  0.00    -0.386 OA
ATOM     27  H   UNL     1       2.079   3.158   2.578  1.00  0.00     0.211 HD
ENDBRANCH  18  26
ENDBRANCH   8  18
ENDBRANCH   5   8
ENDBRANCH   3   4
ENDBRANCH   2   3
ENDBRANCH   1   2
BRANCH   1  28
ATOM     28  C   UNL     1      -4.843   0.237   3.990  1.00  0.00     0.002 C 
BRANCH  28  29
ATOM     29  C   UNL     1      -6.102   1.055   4.282  1.00  0.00     0.021 C 
BRANCH  29  30
ATOM     30  C   UNL     1      -7.082   1.099   3.118  1.00  0.00     0.116 C 
BRANCH  30  31
ATOM     31  N   UNL     1      -7.656  -0.211   2.848  1.00  0.00    -0.352 N 
ATOM     32  C   UNL     1      -8.981  -0.564   2.785  1.00  0.00     0.251 C 
ATOM     33  H   UNL     1      -7.011  -0.938   2.690  1.00  0.00     0.163 HD
ATOM     34  O   UNL     1      -9.322  -1.741   2.761  1.00  0.00    -0.269 OA
BRANCH  32  35
ATOM     35  C   UNL     1      -9.996   0.507   2.768  1.00  0.00     0.039 A 
ATOM     36  C   UNL     1     -11.071   0.449   3.656  1.00  0.00     0.014 A 
ATOM     37  C   UNL     1      -9.843   1.593   1.902  1.00  0.00     0.014 A 
ATOM     38  C   UNL     1     -11.964   1.520   3.721  1.00  0.00     0.010 A 
ATOM     39  C   UNL     1     -10.684   2.690   2.026  1.00  0.00     0.010 A 
ATOM     40  C   UNL     1     -11.756   2.663   2.933  1.00  0.00    -0.014 A 
BRANCH  40  41
ATOM     41  C   UNL     1     -12.654   3.842   3.004  1.00  0.00     0.031 A 
ATOM     42  C   UNL     1     -13.422   4.256   1.778  1.00  0.00     0.074 A 
ATOM     43  C   UNL     1     -12.713   4.585   4.126  1.00  0.00     0.049 A 
ATOM     44  N   UNL     1     -14.127   5.338   1.571  1.00  0.00    -0.248 NA
ATOM     45  C   UNL     1     -13.364   3.345   0.623  1.00  0.00     0.031 C 
ATOM     46  C   UNL     1     -12.006   4.301   5.376  1.00  0.00     0.029 A 
ATOM     47  N   UNL     1     -13.390   5.752   4.387  1.00  0.00    -0.354 N 
ATOM     48  C   UNL     1     -14.582   5.243   0.262  1.00  0.00     0.074 A 
ATOM     49  C   UNL     1     -14.026   4.031  -0.296  1.00  0.00     0.031 C 
ATOM     50  C   UNL     1     -12.292   5.261   6.272  1.00  0.00     0.029 A 
ATOM     51  C   UNL     1     -13.158   6.255   5.645  1.00  0.00     0.049 A 
ATOM     52  H   UNL     1     -13.985   6.187   3.734  1.00  0.00     0.167 HD
ATOM     53  C   UNL     1     -15.410   6.076  -0.409  1.00  0.00     0.031 A 
ATOM     54  C   UNL     1     -13.574   7.401   6.218  1.00  0.00     0.031 A 
ATOM     55  C   UNL     1     -15.966   7.279   0.146  1.00  0.00     0.049 A 
ATOM     56  C   UNL     1     -14.450   8.339   5.429  1.00  0.00     0.074 A 
ATOM     57  C   UNL     1     -16.830   8.182  -0.447  1.00  0.00     0.029 A 
ATOM     58  N   UNL     1     -15.718   7.742   1.429  1.00  0.00    -0.354 N 
ATOM     59  N   UNL     1     -14.902   8.216   4.204  1.00  0.00    -0.248 NA
ATOM     60  C   UNL     1     -14.881   9.572   6.105  1.00  0.00     0.031 C 
ATOM     61  C   UNL     1     -17.067   9.218   0.460  1.00  0.00     0.029 A 
ATOM     62  C   UNL     1     -16.404   8.924   1.641  1.00  0.00     0.049 A 
ATOM     63  H   UNL     1     -15.140   7.296   2.089  1.00  0.00     0.167 HD
ATOM     64  C   UNL     1     -15.704   9.329   3.982  1.00  0.00     0.074 A 
ATOM     65  C   UNL     1     -15.685  10.111   5.200  1.00  0.00     0.031 C 
ATOM     66  C   UNL     1     -16.397   9.672   2.870  1.00  0.00     0.031 A 
BRANCH  53  67
ATOM     67  C   UNL     1     -15.771   5.709  -1.821  1.00  0.00    -0.014 A 
ATOM     68  C   UNL     1     -16.599   4.607  -2.091  1.00  0.00     0.009 A 
ATOM     69  C   UNL     1     -15.323   6.500  -2.890  1.00  0.00     0.009 A 
ATOM     70  C   UNL     1     -16.945   4.287  -3.405  1.00  0.00     0.001 A 
ATOM     71  C   UNL     1     -15.698   6.197  -4.200  1.00  0.00     0.001 A 
ATOM     72  C   UNL     1     -16.501   5.086  -4.457  1.00  0.00     0.000 A 
ENDBRANCH  53  67
BRANCH  54  73
ATOM     73  C   UNL     1     -13.159   7.750   7.604  1.00  0.00    -0.014 A 
ATOM     74  C   UNL     1     -14.105   7.825   8.638  1.00  0.00     0.009 A 
ATOM     75  C   UNL     1     -11.820   8.063   7.891  1.00  0.00     0.009 A 
ATOM     76  C   UNL     1     -13.730   8.253   9.915  1.00  0.00     0.001 A 
ATOM     77  C   UNL     1     -11.441   8.454   9.177  1.00  0.00     0.001 A 
ATOM     78  C   UNL     1     -12.399   8.565  10.183  1.00  0.00     0.000 A 
ENDBRANCH  54  73
BRANCH  66  79
ATOM     79  C   UNL     1     -17.255  10.905   2.934  1.00  0.00    -0.014 A 
ATOM     80  C   UNL     1     -16.696  12.191   2.946  1.00  0.00     0.009 A 
ATOM     81  C   UNL     1     -18.653  10.769   2.908  1.00  0.00     0.009 A 
ATOM     82  C   UNL     1     -17.522  13.317   2.954  1.00  0.00     0.001 A 
ATOM     83  C   UNL     1     -19.475  11.896   2.884  1.00  0.00     0.001 A 
ATOM     84  C   UNL     1     -18.909  13.169   2.915  1.00  0.00     0.000 A 
ENDBRANCH  66  79
ENDBRANCH  40  41
ENDBRANCH  32  35
ENDBRANCH  30  31
ENDBRANCH  29  30
ENDBRANCH  28  29
ENDBRANCH   1  28
TORSDOF 19
