REMARK SMILES O=C(NCCCCCCNC(=O)c1cc(-c2ccc(C(F)(F)F)cc2)cc([N+](=O)[O-])c1)c1ccc(-c2c3nc(c(-c4ccccc4)c4ccc([nH]4)c(-c4ccccc4)c4nc(c(-c5ccccc5)c5ccc2[nH]5)C=C4)C=C3)cc1
REMARK SMILES IDX 6 1 5 2 4 3 3 4 1 5 2 6 32 8 33 9 79 10 34 11 78 12 35 13
REMARK SMILES IDX 36 14 37 15 72 16 38 17 77 18 71 19 73 20 39 21 76 22 70 23
REMARK SMILES IDX 69 24 40 26 62 27 47 28 61 29 48 30 51 31 60 32 74 33 49 34
REMARK SMILES IDX 50 35 59 37 75 38 52 39 41 40 42 41 46 42 43 43 45 44 44 45
REMARK SMILES IDX 63 46 64 47 68 48 65 49 67 50 66 51 53 52 54 53 58 54 55 55
REMARK SMILES IDX 57 56 56 57 7 58 8 59 9 60 10 61 11 62 12 64 13 65 14 66
REMARK SMILES IDX 31 67 15 68 27 69 26 70 16 71 17 72 25 73 18 74 24 75 19 76
REMARK SMILES IDX 20 77 21 78 22 79 23 80 28 81 29 82 30 83
REMARK H PARENT 3 7 73 25 51 36 10 63
REMARK Flexibility Score: inf
ROOT
ATOM      1  C   UNL     1       4.120  -0.063   3.949  1.00  0.00     0.002 C 
ENDROOT
BRANCH   1   2
ATOM      2  C   UNL     1       4.590   0.648   2.680  1.00  0.00     0.021 C 
BRANCH   2   3
ATOM      3  C   UNL     1       4.350  -0.113   1.382  1.00  0.00     0.116 C 
BRANCH   3   4
ATOM      4  N   UNL     1       2.939  -0.330   1.115  1.00  0.00    -0.352 N 
ATOM      5  O   UNL     1       0.996  -0.159  -0.019  1.00  0.00    -0.269 OA
ATOM      6  C   UNL     1       2.220  -0.047  -0.018  1.00  0.00     0.251 C 
ATOM      7  H   UNL     1       2.427  -0.737   1.851  1.00  0.00     0.163 HD
BRANCH   6   8
ATOM      8  C   UNL     1       2.915   0.415  -1.238  1.00  0.00     0.039 A 
ATOM      9  C   UNL     1       4.063  -0.235  -1.702  1.00  0.00     0.014 A 
ATOM     10  C   UNL     1       2.390   1.502  -1.942  1.00  0.00     0.014 A 
ATOM     11  C   UNL     1       4.744   0.265  -2.808  1.00  0.00     0.010 A 
ATOM     12  C   UNL     1       3.038   1.963  -3.089  1.00  0.00     0.010 A 
ATOM     13  C   UNL     1       4.230   1.360  -3.519  1.00  0.00    -0.014 A 
BRANCH  13  14
ATOM     14  C   UNL     1       4.904   1.819  -4.758  1.00  0.00     0.031 A 
ATOM     15  C   UNL     1       5.557   3.167  -4.832  1.00  0.00     0.074 A 
ATOM     16  C   UNL     1       4.901   1.008  -5.832  1.00  0.00     0.049 A 
ATOM     17  N   UNL     1       6.162   3.732  -5.847  1.00  0.00    -0.248 NA
ATOM     18  C   UNL     1       5.521   3.994  -3.616  1.00  0.00     0.031 C 
ATOM     19  C   UNL     1       4.282  -0.319  -5.886  1.00  0.00     0.029 A 
ATOM     20  N   UNL     1       5.430   1.180  -7.085  1.00  0.00    -0.354 N 
ATOM     21  C   UNL     1       6.558   4.986  -5.402  1.00  0.00     0.074 A 
ATOM     22  C   UNL     1       6.110   5.107  -4.031  1.00  0.00     0.031 C 
ATOM     23  C   UNL     1       4.481  -0.846  -7.102  1.00  0.00     0.029 A 
ATOM     24  C   UNL     1       5.194   0.122  -7.927  1.00  0.00     0.049 A 
ATOM     25  H   UNL     1       5.931   1.984  -7.354  1.00  0.00     0.167 HD
ATOM     26  C   UNL     1       7.234   5.948  -6.076  1.00  0.00     0.031 A 
ATOM     27  C   UNL     1       5.493  -0.045  -9.227  1.00  0.00     0.031 A 
ATOM     28  C   UNL     1       7.676   5.825  -7.441  1.00  0.00     0.049 A 
ATOM     29  C   UNL     1       6.221   1.042  -9.958  1.00  0.00     0.074 A 
ATOM     30  C   UNL     1       8.415   6.723  -8.192  1.00  0.00     0.029 A 
ATOM     31  N   UNL     1       7.410   4.740  -8.262  1.00  0.00    -0.354 N 
ATOM     32  N   UNL     1       6.638   2.200  -9.506  1.00  0.00    -0.248 NA
ATOM     33  C   UNL     1       6.522   0.800 -11.375  1.00  0.00     0.031 C 
ATOM     34  C   UNL     1       8.552   6.203  -9.485  1.00  0.00     0.029 A 
ATOM     35  C   UNL     1       7.941   4.960  -9.523  1.00  0.00     0.049 A 
ATOM     36  H   UNL     1       6.915   3.934  -7.990  1.00  0.00     0.167 HD
ATOM     37  C   UNL     1       7.259   2.822 -10.579  1.00  0.00     0.074 A 
ATOM     38  C   UNL     1       7.180   1.905 -11.699  1.00  0.00     0.031 C 
ATOM     39  C   UNL     1       7.843   4.044 -10.630  1.00  0.00     0.031 A 
BRANCH  26  40
ATOM     40  C   UNL     1       7.508   7.236  -5.352  1.00  0.00    -0.014 A 
ATOM     41  C   UNL     1       8.465   7.311  -4.329  1.00  0.00     0.009 A 
ATOM     42  C   UNL     1       6.816   8.401  -5.722  1.00  0.00     0.009 A 
ATOM     43  C   UNL     1       8.698   8.519  -3.666  1.00  0.00     0.001 A 
ATOM     44  C   UNL     1       7.068   9.611  -5.074  1.00  0.00     0.001 A 
ATOM     45  C   UNL     1       8.002   9.668  -4.041  1.00  0.00     0.000 A 
ENDBRANCH  26  40
BRANCH  27  46
ATOM     46  C   UNL     1       5.075  -1.293  -9.912  1.00  0.00    -0.014 A 
ATOM     47  C   UNL     1       6.015  -2.281 -10.236  1.00  0.00     0.009 A 
ATOM     48  C   UNL     1       3.718  -1.523 -10.194  1.00  0.00     0.009 A 
ATOM     49  C   UNL     1       5.604  -3.473 -10.837  1.00  0.00     0.001 A 
ATOM     50  C   UNL     1       3.309  -2.725 -10.771  1.00  0.00     0.001 A 
ATOM     51  C   UNL     1       4.252  -3.697 -11.097  1.00  0.00     0.000 A 
ENDBRANCH  27  46
BRANCH  39  52
ATOM     52  C   UNL     1       8.455   4.453 -11.938  1.00  0.00    -0.014 A 
ATOM     53  C   UNL     1       7.653   4.859 -13.015  1.00  0.00     0.009 A 
ATOM     54  C   UNL     1       9.851   4.473 -12.078  1.00  0.00     0.009 A 
ATOM     55  C   UNL     1       8.240   5.255 -14.219  1.00  0.00     0.001 A 
ATOM     56  C   UNL     1      10.434   4.890 -13.274  1.00  0.00     0.001 A 
ATOM     57  C   UNL     1       9.629   5.274 -14.345  1.00  0.00     0.000 A 
ENDBRANCH  39  52
ENDBRANCH  13  14
ENDBRANCH   6   8
ENDBRANCH   3   4
ENDBRANCH   2   3
ENDBRANCH   1   2
BRANCH   1  58
ATOM     58  C   UNL     1       4.654  -1.484   4.151  1.00  0.00     0.002 C 
BRANCH  58  59
ATOM     59  C   UNL     1       6.175  -1.643   4.072  1.00  0.00     0.021 C 
BRANCH  59  60
ATOM     60  C   UNL     1       6.979  -0.732   4.996  1.00  0.00     0.116 C 
BRANCH  60  61
ATOM     61  N   UNL     1       6.674  -0.965   6.395  1.00  0.00    -0.352 N 
ATOM     62  C   UNL     1       7.520  -1.183   7.448  1.00  0.00     0.251 C 
ATOM     63  H   UNL     1       5.716  -0.965   6.621  1.00  0.00     0.163 HD
ATOM     64  O   UNL     1       7.072  -1.524   8.540  1.00  0.00    -0.269 OA
BRANCH  62  65
ATOM     65  C   UNL     1       8.979  -1.023   7.285  1.00  0.00     0.047 A 
ATOM     66  C   UNL     1       9.818  -2.003   7.829  1.00  0.00     0.023 A 
ATOM     67  C   UNL     1       9.522   0.115   6.686  1.00  0.00     0.099 A 
ATOM     68  C   UNL     1      11.216  -1.881   7.757  1.00  0.00    -0.011 A 
ATOM     69  C   UNL     1      10.911   0.225   6.574  1.00  0.00     0.270 A 
ATOM     70  C   UNL     1      11.756  -0.764   7.100  1.00  0.00     0.094 A 
BRANCH  68  71
ATOM     71  C   UNL     1      12.080  -2.864   8.426  1.00  0.00    -0.018 A 
ATOM     72  C   UNL     1      12.007  -4.233   8.127  1.00  0.00     0.009 A 
ATOM     73  C   UNL     1      12.963  -2.452   9.436  1.00  0.00     0.009 A 
ATOM     74  C   UNL     1      12.777  -5.163   8.834  1.00  0.00     0.014 A 
ATOM     75  C   UNL     1      13.730  -3.378  10.147  1.00  0.00     0.014 A 
ATOM     76  C   UNL     1      13.636  -4.746   9.861  1.00  0.00     0.056 A 
BRANCH  76  77
ATOM     77  C   UNL     1      14.423  -5.761  10.653  1.00  0.00     0.416 C 
ATOM     78  F   UNL     1      13.620  -6.653  11.296  1.00  0.00    -0.166 F 
ATOM     79  F   UNL     1      15.254  -6.503   9.870  1.00  0.00    -0.166 F 
ATOM     80  F   UNL     1      15.212  -5.209  11.617  1.00  0.00    -0.166 F 
ENDBRANCH  76  77
ENDBRANCH  68  71
BRANCH  69  81
ATOM     81  N   UNL     1      11.488   1.397   5.906  1.00  0.00     0.062 N 
ATOM     82  O   UNL     1      12.721   1.514   5.907  1.00  0.00    -0.258 OA
ATOM     83  O   UNL     1      10.704   2.194   5.370  1.00  0.00    -0.258 OA
ENDBRANCH  69  81
ENDBRANCH  62  65
ENDBRANCH  60  61
ENDBRANCH  59  60
ENDBRANCH  58  59
ENDBRANCH   1  58
TORSDOF 16
