REMARK SMILES Cc1nc(=O)[nH]c(C)c1CC(=O)Nc1sccc1C(=O)NCCCCCCNC(=O)c1ccc(-c2c3nc(c(-c4ccccc4)c4ccc([nH]4)c(-c4ccccc4)c4nc(c(-c5ccccc5)c5ccc2[nH]5)C=C4)C=C3)cc1
REMARK SMILES IDX 24 1 23 2 22 3 21 4 19 5 20 6 18 8 14 9 15 10 16 11 17 12
REMARK SMILES IDX 13 13 11 14 12 15 10 17 9 18 1 19 2 20 3 21 4 22 7 23 5 24
REMARK SMILES IDX 6 25 8 26 25 28 26 29 27 30 28 31 29 32 30 34 31 35 32 36
REMARK SMILES IDX 78 37 33 38 77 39 34 40 35 41 36 42 71 43 37 44 76 45 70 46
REMARK SMILES IDX 72 47 38 48 75 49 69 50 68 51 39 53 61 54 46 55 60 56 47 57
REMARK SMILES IDX 50 58 59 59 73 60 48 61 49 62 58 64 74 65 51 66 40 67 41 68
REMARK SMILES IDX 45 69 42 70 44 71 43 72 62 73 63 74 67 75 64 76 66 77 65 78
REMARK SMILES IDX 52 79 53 80 57 81 54 82 56 83 55 84
REMARK H PARENT 21 7 13 16 6 27 28 33 72 52 50 63
REMARK Flexibility Score: inf
ROOT
ATOM      1  C   UNL     1      -4.579   1.082   1.583  1.00  0.00     0.002 C 
ENDROOT
BRANCH   1   2
ATOM      2  C   UNL     1      -3.998   0.489   2.876  1.00  0.00     0.021 C 
BRANCH   2   3
ATOM      3  C   UNL     1      -2.795  -0.427   2.669  1.00  0.00     0.116 C 
BRANCH   3   4
ATOM      4  N   UNL     1      -1.612   0.285   2.251  1.00  0.00    -0.352 N 
ATOM      5  C   UNL     1      -0.292  -0.078   2.257  1.00  0.00     0.254 C 
ATOM      6  O   UNL     1       0.512   0.834   2.060  1.00  0.00    -0.269 OA
ATOM      7  H   UNL     1      -1.784   1.189   1.901  1.00  0.00     0.163 HD
BRANCH   5   8
ATOM      8  C   UNL     1       0.177  -1.431   2.573  1.00  0.00     0.074 A 
ATOM      9  C   UNL     1      -0.418  -2.674   2.446  1.00  0.00     0.108 A 
ATOM     10  S   UNL     1       0.413  -3.894   3.319  1.00  0.00    -0.126 S 
ATOM     11  C   UNL     1       1.772  -2.897   3.539  1.00  0.00     0.068 A 
ATOM     12  C   UNL     1       1.513  -1.615   3.119  1.00  0.00     0.028 A 
BRANCH   9  13
ATOM     13  N   UNL     1      -1.553  -3.201   1.889  1.00  0.00    -0.317 N 
ATOM     14  C   UNL     1      -2.154  -3.006   0.686  1.00  0.00     0.229 C 
ATOM     15  O   UNL     1      -3.346  -3.342   0.612  1.00  0.00    -0.274 OA
ATOM     16  H   UNL     1      -2.021  -3.842   2.470  1.00  0.00     0.170 HD
BRANCH  14  17
ATOM     17  C   UNL     1      -1.412  -2.664  -0.611  1.00  0.00     0.139 C 
BRANCH  17  18
ATOM     18  C   UNL     1      -0.534  -1.459  -0.724  1.00  0.00     0.002 A 
ATOM     19  C   UNL     1       1.583  -2.959  -0.401  1.00  0.00     0.067 C 
ATOM     20  C   UNL     1       0.958  -1.590  -0.579  1.00  0.00     0.049 A 
ATOM     21  N   UNL     1       1.801  -0.612  -0.667  1.00  0.00    -0.198 NA
ATOM     22  C   UNL     1       1.336   0.646  -0.916  1.00  0.00     0.345 A 
ATOM     23  C   UNL     1      -0.922  -0.230  -1.122  1.00  0.00     0.022 A 
ATOM     24  O   UNL     1       2.061   1.635  -0.979  1.00  0.00    -0.246 OA
ATOM     25  N   UNL     1      -0.000   0.782  -1.175  1.00  0.00    -0.310 N 
ATOM     26  C   UNL     1      -2.300   0.189  -1.541  1.00  0.00     0.065 C 
ATOM     27  H   UNL     1      -0.325   1.679  -1.420  1.00  0.00     0.171 HD
ENDBRANCH  17  18
ENDBRANCH  14  17
ENDBRANCH   9  13
ENDBRANCH   5   8
ENDBRANCH   3   4
ENDBRANCH   2   3
ENDBRANCH   1   2
BRANCH   1  28
ATOM     28  C   UNL     1      -5.061   0.071   0.535  1.00  0.00     0.002 C 
BRANCH  28  29
ATOM     29  C   UNL     1      -6.103  -0.946   0.983  1.00  0.00     0.021 C 
BRANCH  29  30
ATOM     30  C   UNL     1      -7.317  -0.355   1.670  1.00  0.00     0.116 C 
BRANCH  30  31
ATOM     31  N   UNL     1      -8.033   0.619   0.863  1.00  0.00    -0.352 N 
ATOM     32  C   UNL     1      -9.381   0.885   0.858  1.00  0.00     0.251 C 
ATOM     33  H   UNL     1      -7.485   1.153   0.244  1.00  0.00     0.163 HD
ATOM     34  O   UNL     1      -9.860   1.683   0.061  1.00  0.00    -0.269 OA
BRANCH  32  35
ATOM     35  C   UNL     1     -10.256   0.162   1.806  1.00  0.00     0.039 A 
ATOM     36  C   UNL     1     -11.438  -0.410   1.333  1.00  0.00     0.014 A 
ATOM     37  C   UNL     1      -9.885   0.014   3.145  1.00  0.00     0.014 A 
ATOM     38  C   UNL     1     -12.227  -1.169   2.198  1.00  0.00     0.010 A 
ATOM     39  C   UNL     1     -10.614  -0.828   3.973  1.00  0.00     0.010 A 
ATOM     40  C   UNL     1     -11.809  -1.402   3.518  1.00  0.00    -0.014 A 
BRANCH  40  41
ATOM     41  C   UNL     1     -12.639  -2.185   4.463  1.00  0.00     0.031 A 
ATOM     42  C   UNL     1     -13.200  -1.515   5.689  1.00  0.00     0.074 A 
ATOM     43  C   UNL     1     -12.848  -3.498   4.249  1.00  0.00     0.049 A 
ATOM     44  N   UNL     1     -13.931  -2.023   6.648  1.00  0.00    -0.248 NA
ATOM     45  C   UNL     1     -12.865  -0.093   5.882  1.00  0.00     0.031 C 
ATOM     46  C   UNL     1     -12.317  -4.272   3.124  1.00  0.00     0.029 A 
ATOM     47  N   UNL     1     -13.572  -4.413   4.970  1.00  0.00    -0.354 N 
ATOM     48  C   UNL     1     -14.113  -0.995   7.565  1.00  0.00     0.074 A 
ATOM     49  C   UNL     1     -13.366   0.144   7.083  1.00  0.00     0.031 C 
ATOM     50  C   UNL     1     -12.775  -5.532   3.204  1.00  0.00     0.029 A 
ATOM     51  C   UNL     1     -13.600  -5.663   4.401  1.00  0.00     0.049 A 
ATOM     52  H   UNL     1     -14.028  -4.194   5.814  1.00  0.00     0.167 HD
ATOM     53  C   UNL     1     -14.858  -0.987   8.695  1.00  0.00     0.031 A 
ATOM     54  C   UNL     1     -14.235  -6.782   4.795  1.00  0.00     0.031 A 
ATOM     55  C   UNL     1     -15.628  -2.110   9.153  1.00  0.00     0.049 A 
ATOM     56  C   UNL     1     -15.073  -6.745   6.043  1.00  0.00     0.074 A 
ATOM     57  C   UNL     1     -16.479  -2.188  10.240  1.00  0.00     0.029 A 
ATOM     58  N   UNL     1     -15.640  -3.354   8.541  1.00  0.00    -0.354 N 
ATOM     59  N   UNL     1     -15.302  -5.742   6.857  1.00  0.00    -0.248 NA
ATOM     60  C   UNL     1     -15.756  -7.992   6.414  1.00  0.00     0.031 C 
ATOM     61  C   UNL     1     -16.968  -3.496  10.315  1.00  0.00     0.029 A 
ATOM     62  C   UNL     1     -16.468  -4.214   9.240  1.00  0.00     0.049 A 
ATOM     63  H   UNL     1     -15.135  -3.590   7.729  1.00  0.00     0.167 HD
ATOM     64  C   UNL     1     -16.185  -6.226   7.814  1.00  0.00     0.074 A 
ATOM     65  C   UNL     1     -16.456  -7.607   7.472  1.00  0.00     0.031 C 
ATOM     66  C   UNL     1     -16.727  -5.584   8.878  1.00  0.00     0.031 A 
BRANCH  53  67
ATOM     67  C   UNL     1     -14.862   0.278   9.509  1.00  0.00    -0.014 A 
ATOM     68  C   UNL     1     -15.461   1.456   9.033  1.00  0.00     0.009 A 
ATOM     69  C   UNL     1     -14.258   0.291  10.776  1.00  0.00     0.009 A 
ATOM     70  C   UNL     1     -15.410   2.632   9.784  1.00  0.00     0.001 A 
ATOM     71  C   UNL     1     -14.239   1.460  11.540  1.00  0.00     0.001 A 
ATOM     72  C   UNL     1     -14.802   2.632  11.039  1.00  0.00     0.000 A 
ENDBRANCH  53  67
BRANCH  54  73
ATOM     73  C   UNL     1     -14.151  -8.018   3.974  1.00  0.00    -0.014 A 
ATOM     74  C   UNL     1     -15.271  -8.466   3.255  1.00  0.00     0.009 A 
ATOM     75  C   UNL     1     -12.961  -8.758   3.905  1.00  0.00     0.009 A 
ATOM     76  C   UNL     1     -15.210  -9.645   2.508  1.00  0.00     0.001 A 
ATOM     77  C   UNL     1     -12.895  -9.922   3.134  1.00  0.00     0.001 A 
ATOM     78  C   UNL     1     -14.021 -10.370   2.445  1.00  0.00     0.000 A 
ENDBRANCH  54  73
BRANCH  66  79
ATOM     79  C   UNL     1     -17.707  -6.355   9.717  1.00  0.00    -0.014 A 
ATOM     80  C   UNL     1     -17.290  -7.394  10.562  1.00  0.00     0.009 A 
ATOM     81  C   UNL     1     -19.066  -6.006   9.684  1.00  0.00     0.009 A 
ATOM     82  C   UNL     1     -18.223  -8.096  11.328  1.00  0.00     0.001 A 
ATOM     83  C   UNL     1     -19.991  -6.688  10.475  1.00  0.00     0.001 A 
ATOM     84  C   UNL     1     -19.570  -7.739  11.287  1.00  0.00     0.000 A 
ENDBRANCH  66  79
ENDBRANCH  40  41
ENDBRANCH  32  35
ENDBRANCH  30  31
ENDBRANCH  29  30
ENDBRANCH  28  29
ENDBRANCH   1  28
TORSDOF 16
