REMARK SMILES Cc1nc([C@H](C)[NH2+]CC(=O)NCCCCCCNC(=O)c2ccc(-c3c4nc(c(-c5ccccc5)c5ccc([nH]5)c(-c5ccccc5)c5nc(c(-c6ccccc6)c6ccc3[nH]6)C=C5)C=C4)cc2)cs1
REMARK SMILES IDX 14 1 13 2 12 3 11 4 9 5 10 6 8 8 7 9 5 12 6 13 4 14 1 15
REMARK SMILES IDX 2 16 3 17 70 18 69 19 15 20 16 21 17 22 18 23 19 24 20 26
REMARK SMILES IDX 21 27 22 28 68 29 23 30 67 31 24 32 25 33 26 34 61 35 27 36
REMARK SMILES IDX 66 37 60 38 62 39 28 40 65 41 59 42 58 43 29 45 51 46 36 47
REMARK SMILES IDX 50 48 37 49 40 50 49 51 63 52 38 53 39 54 48 56 64 57 41 58
REMARK SMILES IDX 30 59 31 60 35 61 32 62 34 63 33 64 52 65 53 66 57 67 54 68
REMARK SMILES IDX 56 69 55 70 42 71 43 72 47 73 44 74 46 75 45 76
REMARK H PARENT 11 7 7 10 7 11 18 25 62 44 40 55
REMARK Flexibility Score: inf
ROOT
ATOM      1  C   UNL     1       2.371  -3.466  -3.520  1.00  0.00     0.002 C 
ENDROOT
BRANCH   1   2
ATOM      2  C   UNL     1       1.461  -3.684  -2.307  1.00  0.00     0.021 C 
BRANCH   2   3
ATOM      3  C   UNL     1       1.899  -4.758  -1.297  1.00  0.00     0.116 C 
BRANCH   3   4
ATOM      4  N   UNL     1       3.308  -4.773  -0.932  1.00  0.00    -0.351 N 
ATOM      5  C   UNL     1       3.951  -4.452   0.230  1.00  0.00     0.275 C 
ATOM      6  O   UNL     1       5.135  -4.785   0.340  1.00  0.00    -0.269 OA
ATOM      7  H   UNL     1       3.908  -5.068  -1.655  1.00  0.00     0.163 HD
BRANCH   5   8
ATOM      8  C   UNL     1       3.280  -3.609   1.322  1.00  0.00     0.362 C 
BRANCH   8   9
ATOM      9  N   UNL     1       3.666  -2.177   1.227  1.00  0.00    -0.331 N 
ATOM     10  H   UNL     1       3.332  -1.688   2.058  1.00  0.00     0.347 HD
ATOM     11  H   UNL     1       4.682  -2.124   1.159  1.00  0.00     0.347 HD
BRANCH   9  12
ATOM     12  C   UNL     1       3.089  -1.542   0.035  1.00  0.00     0.230 C 
ATOM     13  C   UNL     1       2.188  -0.370   0.419  1.00  0.00     0.082 C 
BRANCH  12  14
ATOM     14  C   UNL     1       4.107  -1.212  -1.041  1.00  0.00     0.108 A 
ATOM     15  C   UNL     1       4.778   0.933  -3.939  1.00  0.00     0.079 C 
ATOM     16  C   UNL     1       4.766  -0.075  -2.846  1.00  0.00     0.090 A 
ATOM     17  N   UNL     1       3.820  -0.180  -1.936  1.00  0.00    -0.240 NA
ATOM     18  S   UNL     1       6.028  -1.228  -2.734  1.00  0.00    -0.127 S 
ATOM     19  C   UNL     1       5.283  -1.881  -1.341  1.00  0.00     0.096 A 
ENDBRANCH  12  14
ENDBRANCH   9  12
ENDBRANCH   8   9
ENDBRANCH   5   8
ENDBRANCH   3   4
ENDBRANCH   2   3
ENDBRANCH   1   2
BRANCH   1  20
ATOM     20  C   UNL     1       2.103  -4.397  -4.703  1.00  0.00     0.002 C 
BRANCH  20  21
ATOM     21  C   UNL     1       0.658  -4.415  -5.210  1.00  0.00     0.021 C 
BRANCH  21  22
ATOM     22  C   UNL     1       0.084  -3.048  -5.573  1.00  0.00     0.116 C 
BRANCH  22  23
ATOM     23  N   UNL     1       0.618  -2.545  -6.829  1.00  0.00    -0.352 N 
ATOM     24  C   UNL     1      -0.065  -2.236  -7.984  1.00  0.00     0.251 C 
ATOM     25  H   UNL     1       1.592  -2.407  -6.857  1.00  0.00     0.163 HD
ATOM     26  O   UNL     1       0.525  -2.007  -9.028  1.00  0.00    -0.269 OA
BRANCH  24  27
ATOM     27  C   UNL     1      -1.543  -2.210  -7.945  1.00  0.00     0.039 A 
ATOM     28  C   UNL     1      -2.265  -2.987  -8.852  1.00  0.00     0.014 A 
ATOM     29  C   UNL     1      -2.202  -1.455  -6.971  1.00  0.00     0.014 A 
ATOM     30  C   UNL     1      -3.656  -3.059  -8.739  1.00  0.00     0.010 A 
ATOM     31  C   UNL     1      -3.579  -1.584  -6.817  1.00  0.00     0.010 A 
ATOM     32  C   UNL     1      -4.320  -2.387  -7.699  1.00  0.00    -0.014 A 
BRANCH  32  33
ATOM     33  C   UNL     1      -5.789  -2.507  -7.518  1.00  0.00     0.031 A 
ATOM     34  C   UNL     1      -6.668  -1.296  -7.670  1.00  0.00     0.074 A 
ATOM     35  C   UNL     1      -6.327  -3.688  -7.155  1.00  0.00     0.049 A 
ATOM     36  N   UNL     1      -7.961  -1.185  -7.498  1.00  0.00    -0.248 NA
ATOM     37  C   UNL     1      -6.001  -0.036  -8.039  1.00  0.00     0.031 C 
ATOM     38  C   UNL     1      -5.581  -4.928  -6.930  1.00  0.00     0.029 A 
ATOM     39  N   UNL     1      -7.631  -4.036  -6.904  1.00  0.00    -0.354 N 
ATOM     40  C   UNL     1      -8.257   0.153  -7.724  1.00  0.00     0.074 A 
ATOM     41  C   UNL     1      -7.005   0.826  -7.988  1.00  0.00     0.031 C 
ATOM     42  C   UNL     1      -6.442  -5.905  -6.600  1.00  0.00     0.029 A 
ATOM     43  C   UNL     1      -7.793  -5.355  -6.553  1.00  0.00     0.049 A 
ATOM     44  H   UNL     1      -8.380  -3.401  -6.968  1.00  0.00     0.167 HD
ATOM     45  C   UNL     1      -9.466   0.764  -7.737  1.00  0.00     0.031 A 
ATOM     46  C   UNL     1      -8.904  -6.043  -6.227  1.00  0.00     0.031 A 
ATOM     47  C   UNL     1     -10.713   0.096  -7.481  1.00  0.00     0.049 A 
ATOM     48  C   UNL     1     -10.233  -5.339  -6.236  1.00  0.00     0.074 A 
ATOM     49  C   UNL     1     -11.994   0.618  -7.515  1.00  0.00     0.029 A 
ATOM     50  N   UNL     1     -10.834  -1.243  -7.144  1.00  0.00    -0.354 N 
ATOM     51  N   UNL     1     -10.503  -4.087  -6.519  1.00  0.00    -0.248 NA
ATOM     52  C   UNL     1     -11.412  -6.147  -5.893  1.00  0.00     0.031 C 
ATOM     53  C   UNL     1     -12.887  -0.396  -7.153  1.00  0.00     0.029 A 
ATOM     54  C   UNL     1     -12.167  -1.562  -6.949  1.00  0.00     0.049 A 
ATOM     55  H   UNL     1     -10.083  -1.874  -7.057  1.00  0.00     0.167 HD
ATOM     56  C   UNL     1     -11.883  -3.966  -6.417  1.00  0.00     0.074 A 
ATOM     57  C   UNL     1     -12.395  -5.274  -6.063  1.00  0.00     0.031 C 
ATOM     58  C   UNL     1     -12.658  -2.869  -6.599  1.00  0.00     0.031 A 
BRANCH  45  59
ATOM     59  C   UNL     1      -9.489   2.237  -8.040  1.00  0.00    -0.014 A 
ATOM     60  C   UNL     1      -9.183   2.719  -9.323  1.00  0.00     0.009 A 
ATOM     61  C   UNL     1      -9.843   3.155  -7.038  1.00  0.00     0.009 A 
ATOM     62  C   UNL     1      -9.191   4.090  -9.587  1.00  0.00     0.001 A 
ATOM     63  C   UNL     1      -9.880   4.523  -7.313  1.00  0.00     0.001 A 
ATOM     64  C   UNL     1      -9.544   4.990  -8.583  1.00  0.00     0.000 A 
ENDBRANCH  45  59
BRANCH  46  65
ATOM     65  C   UNL     1      -8.815  -7.486  -5.878  1.00  0.00    -0.014 A 
ATOM     66  C   UNL     1      -9.334  -8.462  -6.742  1.00  0.00     0.009 A 
ATOM     67  C   UNL     1      -8.225  -7.894  -4.672  1.00  0.00     0.009 A 
ATOM     68  C   UNL     1      -9.293  -9.814  -6.392  1.00  0.00     0.001 A 
ATOM     69  C   UNL     1      -8.158  -9.249  -4.338  1.00  0.00     0.001 A 
ATOM     70  C   UNL     1      -8.701 -10.206  -5.192  1.00  0.00     0.000 A 
ENDBRANCH  46  65
BRANCH  58  71
ATOM     71  C   UNL     1     -14.143  -3.045  -6.456  1.00  0.00    -0.014 A 
ATOM     72  C   UNL     1     -14.738  -3.238  -5.200  1.00  0.00     0.009 A 
ATOM     73  C   UNL     1     -14.962  -2.973  -7.594  1.00  0.00     0.009 A 
ATOM     74  C   UNL     1     -16.122  -3.389  -5.091  1.00  0.00     0.001 A 
ATOM     75  C   UNL     1     -16.348  -3.095  -7.479  1.00  0.00     0.001 A 
ATOM     76  C   UNL     1     -16.925  -3.312  -6.229  1.00  0.00     0.000 A 
ENDBRANCH  58  71
ENDBRANCH  32  33
ENDBRANCH  24  27
ENDBRANCH  22  23
ENDBRANCH  21  22
ENDBRANCH  20  21
ENDBRANCH   1  20
TORSDOF 16
