REMARK SMILES [NH3+][C@](CCC[P@TB4](=O)([O-])[O-])(Cc1ccccc1)C(=O)NCCCCCCNC(=O)c1ccc(-c2c3nc(c(-c4ccccc4)c4ccc([nH]4)c(-c4ccccc4)c4nc(c(-c5ccccc5)c5ccc2[nH]5)C=C4)C=C3)cc1
REMARK SMILES IDX 21 1 20 2 19 3 17 4 18 5 2 7 1 8 10 12 11 13 12 14 16 15
REMARK SMILES IDX 13 16 15 17 14 18 3 19 4 20 5 21 6 22 7 23 8 24 9 25 22 26
REMARK SMILES IDX 23 27 24 28 25 29 26 30 27 31 28 33 29 34 30 35 76 36 31 37
REMARK SMILES IDX 75 38 32 39 33 40 34 41 69 42 35 43 74 44 68 45 70 46 36 47
REMARK SMILES IDX 73 48 67 49 66 50 37 52 59 53 44 54 58 55 45 56 48 57 57 58
REMARK SMILES IDX 71 59 46 60 47 61 56 63 72 64 49 65 38 66 39 67 43 68 40 69
REMARK SMILES IDX 42 70 41 71 60 72 61 73 65 74 62 75 64 76 63 77 50 78 51 79
REMARK SMILES IDX 55 80 52 81 54 82 53 83
REMARK H PARENT 19 6 1 9 1 10 1 11 26 32 70 51 48 62
REMARK Flexibility Score: inf
ROOT
ATOM      1  C   UNL     1      -1.673  -4.761  -1.848  1.00  0.00       nan C 
ENDROOT
BRANCH   1   2
ATOM      2  C   UNL     1      -0.659  -4.345  -0.793  1.00  0.00       nan C 
BRANCH   2   3
ATOM      3  N   UNL     1       0.167  -3.304  -1.341  1.00  0.00       nan N 
ATOM      4  C   UNL     1       0.100  -1.966  -1.164  1.00  0.00       nan C 
ATOM      5  O   UNL     1       0.665  -1.312  -2.048  1.00  0.00       nan OA
ATOM      6  H   UNL     1       0.889  -3.612  -1.935  1.00  0.00       nan HD
BRANCH   4   7
ATOM      7  C   UNL     1      -0.487  -1.288   0.110  1.00  0.00       nan C 
BRANCH   7   8
ATOM      8  N   UNL     1      -0.596  -2.196   1.292  1.00  0.00       nan N 
ATOM      9  H   UNL     1      -1.239  -2.958   1.077  1.00  0.00       nan HD
ATOM     10  H   UNL     1      -0.947  -1.670   2.092  1.00  0.00       nan HD
ATOM     11  H   UNL     1       0.323  -2.578   1.513  1.00  0.00       nan HD
ENDBRANCH   7   8
BRANCH   7  12
ATOM     12  C   UNL     1      -1.927  -0.789  -0.170  1.00  0.00       nan C 
BRANCH  12  13
ATOM     13  C   UNL     1      -2.148  -0.001  -1.437  1.00  0.00       nan A 
ATOM     14  C   UNL     1      -1.744   1.335  -1.539  1.00  0.00       nan A 
ATOM     15  C   UNL     1      -2.754  -0.612  -2.544  1.00  0.00       nan A 
ATOM     16  C   UNL     1      -1.916   2.036  -2.733  1.00  0.00       nan A 
ATOM     17  C   UNL     1      -2.933   0.091  -3.734  1.00  0.00       nan A 
ATOM     18  C   UNL     1      -2.509   1.414  -3.830  1.00  0.00       nan A 
ENDBRANCH  12  13
ENDBRANCH   7  12
BRANCH   7  19
ATOM     19  C   UNL     1       0.500  -0.151   0.491  1.00  0.00       nan C 
BRANCH  19  20
ATOM     20  C   UNL     1       1.842  -0.615   1.089  1.00  0.00       nan C 
BRANCH  20  21
ATOM     21  C   UNL     1       2.576  -1.765   0.388  1.00  0.00       nan C 
BRANCH  21  22
ATOM     22  P   UNL     1       3.324  -1.542  -1.267  1.00  0.00       nan P 
ATOM     23  O   UNL     1       3.417  -0.022  -1.088  1.00  0.00       nan OA
ATOM     24  O   UNL     1       4.790  -2.032  -0.724  1.00  0.00       nan OA
ATOM     25  O   UNL     1       4.030  -1.330  -2.832  1.00  0.00       nan OA
ENDBRANCH  21  22
ENDBRANCH  20  21
ENDBRANCH  19  20
ENDBRANCH   7  19
ENDBRANCH   4   7
ENDBRANCH   2   3
ENDBRANCH   1   2
BRANCH   1  26
ATOM     26  C   UNL     1      -1.046  -5.430  -3.078  1.00  0.00       nan C 
BRANCH  26  27
ATOM     27  C   UNL     1      -0.175  -6.653  -2.777  1.00  0.00       nan C 
BRANCH  27  28
ATOM     28  C   UNL     1      -0.810  -7.673  -1.832  1.00  0.00       nan C 
BRANCH  28  29
ATOM     29  C   UNL     1      -2.199  -8.131  -2.251  1.00  0.00       inf C 
BRANCH  29  30
ATOM     30  N   UNL     1      -2.177  -8.858  -3.505  1.00  0.00    -0.352 N 
ATOM     31  C   UNL     1      -2.760 -10.062  -3.794  1.00  0.00     0.251 C 
ATOM     32  H   UNL     1      -1.679  -8.433  -4.240  1.00  0.00     0.163 HD
ATOM     33  O   UNL     1      -2.497 -10.647  -4.844  1.00  0.00    -0.269 OA
BRANCH  31  34
ATOM     34  C   UNL     1      -3.694 -10.666  -2.823  1.00  0.00     0.039 A 
ATOM     35  C   UNL     1      -3.567 -12.023  -2.525  1.00  0.00     0.014 A 
ATOM     36  C   UNL     1      -4.687  -9.896  -2.208  1.00  0.00     0.014 A 
ATOM     37  C   UNL     1      -4.420 -12.604  -1.586  1.00  0.00     0.010 A 
ATOM     38  C   UNL     1      -5.479 -10.457  -1.211  1.00  0.00     0.010 A 
ATOM     39  C   UNL     1      -5.370 -11.822  -0.908  1.00  0.00    -0.014 A 
BRANCH  39  40
ATOM     40  C   UNL     1      -6.284 -12.430   0.090  1.00  0.00     0.031 A 
ATOM     41  C   UNL     1      -7.767 -12.454  -0.166  1.00  0.00     0.074 A 
ATOM     42  C   UNL     1      -5.786 -12.932   1.236  1.00  0.00     0.049 A 
ATOM     43  N   UNL     1      -8.727 -12.927   0.587  1.00  0.00    -0.248 NA
ATOM     44  C   UNL     1      -8.236 -11.846  -1.423  1.00  0.00     0.031 C 
ATOM     45  C   UNL     1      -4.372 -12.937   1.618  1.00  0.00     0.029 A 
ATOM     46  N   UNL     1      -6.417 -13.541   2.291  1.00  0.00    -0.354 N 
ATOM     47  C   UNL     1      -9.907 -12.662  -0.096  1.00  0.00     0.074 A 
ATOM     48  C   UNL     1      -9.551 -11.934  -1.293  1.00  0.00     0.031 C 
ATOM     49  C   UNL     1      -4.240 -13.553   2.803  1.00  0.00     0.029 A 
ATOM     50  C   UNL     1      -5.560 -13.950   3.283  1.00  0.00     0.049 A 
ATOM     51  H   UNL     1      -7.392 -13.673   2.332  1.00  0.00     0.167 HD
ATOM     52  C   UNL     1     -11.174 -13.014   0.229  1.00  0.00     0.031 A 
ATOM     53  C   UNL     1      -5.810 -14.575   4.449  1.00  0.00     0.031 A 
ATOM     54  C   UNL     1     -11.528 -13.746   1.415  1.00  0.00     0.049 A 
ATOM     55  C   UNL     1      -7.228 -14.940   4.795  1.00  0.00     0.074 A 
ATOM     56  C   UNL     1     -12.776 -14.190   1.814  1.00  0.00     0.029 A 
ATOM     57  N   UNL     1     -10.630 -14.140   2.395  1.00  0.00    -0.354 N 
ATOM     58  N   UNL     1      -8.326 -14.738   4.107  1.00  0.00    -0.248 NA
ATOM     59  C   UNL     1      -7.436 -15.635   6.072  1.00  0.00     0.031 C 
ATOM     60  C   UNL     1     -12.642 -14.806   3.062  1.00  0.00     0.029 A 
ATOM     61  C   UNL     1     -11.300 -14.805   3.408  1.00  0.00     0.049 A 
ATOM     62  H   UNL     1      -9.660 -13.973   2.374  1.00  0.00     0.167 HD
ATOM     63  C   UNL     1      -9.349 -15.315   4.849  1.00  0.00     0.074 A 
ATOM     64  C   UNL     1      -8.737 -15.886   6.031  1.00  0.00     0.031 C 
ATOM     65  C   UNL     1     -10.675 -15.371   4.576  1.00  0.00     0.031 A 
BRANCH  52  66
ATOM     66  C   UNL     1     -12.271 -12.604  -0.715  1.00  0.00    -0.014 A 
ATOM     67  C   UNL     1     -12.388 -13.177  -1.992  1.00  0.00     0.009 A 
ATOM     68  C   UNL     1     -13.221 -11.653  -0.311  1.00  0.00     0.009 A 
ATOM     69  C   UNL     1     -13.409 -12.779  -2.857  1.00  0.00     0.001 A 
ATOM     70  C   UNL     1     -14.261 -11.281  -1.166  1.00  0.00     0.001 A 
ATOM     71  C   UNL     1     -14.347 -11.836  -2.442  1.00  0.00     0.000 A 
ENDBRANCH  52  66
BRANCH  53  72
ATOM     72  C   UNL     1      -4.694 -14.918   5.370  1.00  0.00    -0.014 A 
ATOM     73  C   UNL     1      -4.331 -16.256   5.584  1.00  0.00     0.009 A 
ATOM     74  C   UNL     1      -3.998 -13.909   6.054  1.00  0.00     0.009 A 
ATOM     75  C   UNL     1      -3.319 -16.580   6.492  1.00  0.00     0.001 A 
ATOM     76  C   UNL     1      -2.965 -14.233   6.936  1.00  0.00     0.001 A 
ATOM     77  C   UNL     1      -2.635 -15.568   7.163  1.00  0.00     0.000 A 
ENDBRANCH  53  72
BRANCH  65  78
ATOM     78  C   UNL     1     -11.546 -16.121   5.546  1.00  0.00    -0.014 A 
ATOM     79  C   UNL     1     -11.815 -15.624   6.830  1.00  0.00     0.009 A 
ATOM     80  C   UNL     1     -12.131 -17.335   5.150  1.00  0.00     0.009 A 
ATOM     81  C   UNL     1     -12.617 -16.350   7.714  1.00  0.00     0.001 A 
ATOM     82  C   UNL     1     -12.960 -18.041   6.023  1.00  0.00     0.001 A 
ATOM     83  C   UNL     1     -13.192 -17.554   7.308  1.00  0.00     0.000 A 
ENDBRANCH  65  78
ENDBRANCH  39  40
ENDBRANCH  31  34
ENDBRANCH  29  30
ENDBRANCH  28  29
ENDBRANCH  27  28
ENDBRANCH  26  27
ENDBRANCH   1  26
TORSDOF 20
