REMARK SMILES Nc1oc2ccc(F)cc2c(=O)c1[C@@H]1[NH2+][C@H](C(=O)NCCCCCCNC(=O)c2ccc(-c3c4nc(c(-c5ccccc5)c5ccc([nH]5)c(-c5ccccc5)c5nc(c(-c6ccccc6)c6ccc3[nH]6)C=C5)C=C4)cc2)CS1
REMARK SMILES IDX 22 1 21 2 20 3 19 4 17 5 18 6 16 8 14 9 15 10 78 11 77 14
REMARK SMILES IDX 13 15 2 16 3 17 4 18 11 19 5 20 10 21 12 22 6 23 9 24 7 25
REMARK SMILES IDX 8 26 1 27 23 30 24 31 25 32 26 33 27 34 28 36 29 37 30 38
REMARK SMILES IDX 76 39 31 40 75 41 32 42 33 43 34 44 69 45 35 46 74 47 68 48
REMARK SMILES IDX 70 49 36 50 73 51 67 52 66 53 37 55 59 56 44 57 58 58 45 59
REMARK SMILES IDX 48 60 57 61 71 62 46 63 47 64 56 66 72 67 49 68 38 69 39 70
REMARK SMILES IDX 43 71 40 72 42 73 41 74 60 75 61 76 65 77 62 78 64 79 63 80
REMARK SMILES IDX 50 81 51 82 55 83 52 84 54 85 53 86
REMARK H PARENT 19 7 15 12 15 13 1 28 1 29 26 35 70 54 48 65
REMARK Flexibility Score: inf
ROOT
ATOM      1  C   UNL     1      -3.105   0.789   0.600  1.00  0.00     0.002 C 
ENDROOT
BRANCH   1   2
ATOM      2  C   UNL     1      -2.009   0.603  -0.479  1.00  0.00     0.021 C 
BRANCH   2   3
ATOM      3  C   UNL     1      -0.689  -0.110  -0.136  1.00  0.00     0.116 C 
BRANCH   3   4
ATOM      4  N   UNL     1      -0.550  -1.462  -0.664  1.00  0.00    -0.351 N 
ATOM      5  C   UNL     1       0.448  -2.049  -1.398  1.00  0.00     0.279 C 
ATOM      6  O   UNL     1       0.393  -3.282  -1.506  1.00  0.00    -0.268 OA
ATOM      7  H   UNL     1      -1.306  -2.059  -0.456  1.00  0.00     0.163 HD
BRANCH   5   8
ATOM      8  C   UNL     1       1.659  -1.304  -2.022  1.00  0.00     0.283 C 
ATOM      9  C   UNL     1       2.375   0.970  -2.536  1.00  0.00     0.283 C 
ATOM     10  N   UNL     1       1.286  -0.022  -2.651  1.00  0.00    -0.320 N 
ATOM     11  S   UNL     1       3.756   0.243  -1.621  1.00  0.00    -0.087 SA
ATOM     12  H   UNL     1       1.086  -0.183  -3.639  1.00  0.00     0.348 HD
ATOM     13  H   UNL     1       0.464   0.345  -2.171  1.00  0.00     0.348 HD
ATOM     14  C   UNL     1       2.779  -1.146  -1.008  1.00  0.00     0.151 C 
BRANCH   9  15
ATOM     15  C   UNL     1       1.778   2.214  -1.924  1.00  0.00     0.128 A 
ATOM     16  C   UNL     1       1.553   2.488  -0.617  1.00  0.00     0.205 A 
ATOM     17  O   UNL     1       0.656   3.457  -0.200  1.00  0.00    -0.440 OA
ATOM     18  C   UNL     1      -0.175   4.011  -1.130  1.00  0.00     0.140 A 
ATOM     19  C   UNL     1       1.218   3.167  -2.927  1.00  0.00     0.205 A 
ATOM     20  C   UNL     1      -1.352   4.589  -0.682  1.00  0.00     0.051 A 
ATOM     21  C   UNL     1       0.121   4.022  -2.480  1.00  0.00     0.068 A 
ATOM     22  O   UNL     1       1.586   3.192  -4.099  1.00  0.00    -0.288 OA
ATOM     23  C   UNL     1      -2.219   5.199  -1.581  1.00  0.00     0.043 A 
ATOM     24  C   UNL     1      -0.674   4.741  -3.376  1.00  0.00     0.055 A 
ATOM     25  C   UNL     1      -1.843   5.325  -2.910  1.00  0.00     0.124 A 
ATOM     26  F   UNL     1      -2.637   6.001  -3.748  1.00  0.00    -0.207 F 
BRANCH  16  27
ATOM     27  N   UNL     1       2.063   1.790   0.439  1.00  0.00    -0.369 N 
ATOM     28  H   UNL     1       1.845   2.063   1.360  1.00  0.00     0.159 HD
ATOM     29  H   UNL     1       2.648   1.015   0.281  1.00  0.00     0.159 HD
ENDBRANCH  16  27
ENDBRANCH   9  15
ENDBRANCH   5   8
ENDBRANCH   3   4
ENDBRANCH   2   3
ENDBRANCH   1   2
BRANCH   1  30
ATOM     30  C   UNL     1      -2.782   1.191   2.051  1.00  0.00     0.002 C 
BRANCH  30  31
ATOM     31  C   UNL     1      -2.478   2.652   2.434  1.00  0.00     0.021 C 
BRANCH  31  32
ATOM     32  C   UNL     1      -3.386   3.795   1.954  1.00  0.00     0.116 C 
BRANCH  32  33
ATOM     33  N   UNL     1      -4.609   4.069   2.681  1.00  0.00    -0.352 N 
ATOM     34  C   UNL     1      -5.221   5.303   2.859  1.00  0.00     0.251 C 
ATOM     35  H   UNL     1      -5.055   3.295   3.094  1.00  0.00     0.163 HD
ATOM     36  O   UNL     1      -6.325   5.375   3.395  1.00  0.00    -0.269 OA
BRANCH  34  37
ATOM     37  C   UNL     1      -4.530   6.565   2.465  1.00  0.00     0.039 A 
ATOM     38  C   UNL     1      -4.144   6.821   1.149  1.00  0.00     0.014 A 
ATOM     39  C   UNL     1      -4.273   7.532   3.439  1.00  0.00     0.014 A 
ATOM     40  C   UNL     1      -3.359   7.949   0.841  1.00  0.00     0.010 A 
ATOM     41  C   UNL     1      -3.553   8.695   3.115  1.00  0.00     0.010 A 
ATOM     42  C   UNL     1      -3.028   8.897   1.825  1.00  0.00    -0.014 A 
BRANCH  42  43
ATOM     43  C   UNL     1      -2.115  10.064   1.552  1.00  0.00     0.031 A 
ATOM     44  C   UNL     1      -0.856  10.264   2.375  1.00  0.00     0.074 A 
ATOM     45  C   UNL     1      -2.380  10.972   0.587  1.00  0.00     0.049 A 
ATOM     46  N   UNL     1      -0.017  11.274   2.388  1.00  0.00    -0.248 NA
ATOM     47  C   UNL     1      -0.498   9.188   3.313  1.00  0.00     0.031 C 
ATOM     48  C   UNL     1      -3.513  10.925  -0.334  1.00  0.00     0.029 A 
ATOM     49  N   UNL     1      -1.705  12.119   0.221  1.00  0.00    -0.354 N 
ATOM     50  C   UNL     1       0.936  10.973   3.357  1.00  0.00     0.074 A 
ATOM     51  C   UNL     1       0.555   9.702   3.933  1.00  0.00     0.031 C 
ATOM     52  C   UNL     1      -3.437  11.966  -1.179  1.00  0.00     0.029 A 
ATOM     53  C   UNL     1      -2.297  12.806  -0.814  1.00  0.00     0.049 A 
ATOM     54  H   UNL     1      -0.877  12.418   0.660  1.00  0.00     0.167 HD
ATOM     55  C   UNL     1       2.037  11.672   3.729  1.00  0.00     0.031 A 
ATOM     56  C   UNL     1      -1.994  13.987  -1.396  1.00  0.00     0.031 A 
ATOM     57  C   UNL     1       2.455  12.923   3.147  1.00  0.00     0.049 A 
ATOM     58  C   UNL     1      -0.813  14.791  -0.918  1.00  0.00     0.074 A 
ATOM     59  C   UNL     1       3.578  13.676   3.454  1.00  0.00     0.029 A 
ATOM     60  N   UNL     1       1.785  13.601   2.143  1.00  0.00    -0.354 N 
ATOM     61  N   UNL     1       0.065  14.495   0.008  1.00  0.00    -0.248 NA
ATOM     62  C   UNL     1      -0.584  16.096  -1.563  1.00  0.00     0.031 C 
ATOM     63  C   UNL     1       3.546  14.845   2.692  1.00  0.00     0.029 A 
ATOM     64  C   UNL     1       2.453  14.779   1.844  1.00  0.00     0.049 A 
ATOM     65  H   UNL     1       0.958  13.293   1.706  1.00  0.00     0.167 HD
ATOM     66  C   UNL     1       0.961  15.559   0.040  1.00  0.00     0.074 A 
ATOM     67  C   UNL     1       0.532  16.503  -0.970  1.00  0.00     0.031 C 
ATOM     68  C   UNL     1       2.041  15.728   0.841  1.00  0.00     0.031 A 
BRANCH  55  69
ATOM     69  C   UNL     1       2.893  11.114   4.840  1.00  0.00    -0.014 A 
ATOM     70  C   UNL     1       3.006  11.817   6.052  1.00  0.00     0.009 A 
ATOM     71  C   UNL     1       3.668   9.959   4.656  1.00  0.00     0.009 A 
ATOM     72  C   UNL     1       3.885  11.385   7.048  1.00  0.00     0.001 A 
ATOM     73  C   UNL     1       4.518   9.507   5.670  1.00  0.00     0.001 A 
ATOM     74  C   UNL     1       4.634  10.226   6.859  1.00  0.00     0.000 A 
ENDBRANCH  55  69
BRANCH  56  75
ATOM     75  C   UNL     1      -2.841  14.483  -2.518  1.00  0.00    -0.014 A 
ATOM     76  C   UNL     1      -4.178  14.856  -2.301  1.00  0.00     0.009 A 
ATOM     77  C   UNL     1      -2.331  14.534  -3.825  1.00  0.00     0.009 A 
ATOM     78  C   UNL     1      -4.998  15.221  -3.370  1.00  0.00     0.001 A 
ATOM     79  C   UNL     1      -3.144  14.936  -4.888  1.00  0.00     0.001 A 
ATOM     80  C   UNL     1      -4.480  15.263  -4.663  1.00  0.00     0.000 A 
ENDBRANCH  56  75
BRANCH  68  81
ATOM     81  C   UNL     1       2.882  16.968   0.671  1.00  0.00    -0.014 A 
ATOM     82  C   UNL     1       4.210  16.854   0.225  1.00  0.00     0.009 A 
ATOM     83  C   UNL     1       2.413  18.229   1.070  1.00  0.00     0.009 A 
ATOM     84  C   UNL     1       5.056  17.965   0.207  1.00  0.00     0.001 A 
ATOM     85  C   UNL     1       3.251  19.346   1.019  1.00  0.00     0.001 A 
ATOM     86  C   UNL     1       4.575  19.211   0.602  1.00  0.00     0.000 A 
ENDBRANCH  68  81
ENDBRANCH  42  43
ENDBRANCH  34  37
ENDBRANCH  32  33
ENDBRANCH  31  32
ENDBRANCH  30  31
ENDBRANCH   1  30
TORSDOF 15
