REMARK SMILES O=Cc1ccc2c(c1)C=C(C(=O)NCCCCCCNC(=O)c1ccc(-c3c4nc(c(-c5ccccc5)c5ccc([nH]5)c(-c5ccccc5)c5nc(c(-c6ccccc6)c6ccc3[nH]6)C=C5)C=C4)cc1)[C@H](C(F)(F)F)O2
REMARK SMILES IDX 17 1 16 2 15 3 14 4 13 5 11 6 12 7 10 9 3 10 4 11 8 12 5 13
REMARK SMILES IDX 7 14 6 15 9 16 76 17 71 18 2 19 1 20 72 21 73 22 74 23 75 24
REMARK SMILES IDX 18 25 19 26 20 27 21 28 22 30 23 31 24 32 70 33 25 34 69 35
REMARK SMILES IDX 26 36 27 37 28 38 63 39 29 40 68 41 62 42 64 43 30 44 67 45
REMARK SMILES IDX 61 46 60 47 31 49 53 50 38 51 52 52 39 53 42 54 51 55 65 56
REMARK SMILES IDX 40 57 41 58 50 60 66 61 43 62 32 63 33 64 37 65 34 66 36 67
REMARK SMILES IDX 35 68 54 69 55 70 59 71 56 72 58 73 57 74 44 75 45 76 49 77
REMARK SMILES IDX 46 78 48 79 47 80
REMARK H PARENT 13 8 20 29 64 48 42 59
REMARK Flexibility Score: inf
ROOT
ATOM      1  C   UNL     1       9.627  -4.274   3.852  1.00  0.00     0.002 C 
ENDROOT
BRANCH   1   2
ATOM      2  C   UNL     1       8.393  -5.074   3.420  1.00  0.00     0.002 C 
BRANCH   2   3
ATOM      3  C   UNL     1       7.410  -4.306   2.524  1.00  0.00     0.021 C 
BRANCH   3   4
ATOM      4  C   UNL     1       7.976  -3.991   1.133  1.00  0.00     0.116 C 
BRANCH   4   5
ATOM      5  N   UNL     1       7.894  -5.175   0.295  1.00  0.00    -0.352 N 
ATOM      6  C   UNL     1       6.971  -5.609  -0.601  1.00  0.00     0.251 C 
ATOM      7  O   UNL     1       7.064  -6.760  -1.018  1.00  0.00    -0.270 OA
ATOM      8  H   UNL     1       8.661  -5.784   0.397  1.00  0.00     0.163 HD
BRANCH   6   9
ATOM      9  C   UNL     1       5.910  -4.727  -1.156  1.00  0.00     0.067 C 
ATOM     10  C   UNL     1       2.682  -1.141  -0.957  1.00  0.00     0.015 A 
ATOM     11  C   UNL     1       2.467  -1.248  -2.333  1.00  0.00     0.015 A 
ATOM     12  C   UNL     1       3.569  -2.006  -0.308  1.00  0.00     0.023 A 
ATOM     13  C   UNL     1       3.161  -2.211  -3.065  1.00  0.00     0.048 A 
ATOM     14  C   UNL     1       4.257  -2.977  -1.046  1.00  0.00     0.018 A 
ATOM     15  C   UNL     1       4.055  -3.068  -2.423  1.00  0.00     0.128 A 
ATOM     16  C   UNL     1       5.242  -3.837  -0.408  1.00  0.00     0.025 C 
ATOM     17  O   UNL     1       4.746  -3.927  -3.224  1.00  0.00    -0.475 OA
ATOM     18  C   UNL     1       5.503  -5.005  -2.602  1.00  0.00     0.314 C 
BRANCH  10  19
ATOM     19  C   UNL     1       1.993  -0.093  -0.177  1.00  0.00     0.260 C 
ATOM     20  O   UNL     1       1.165   0.654  -0.681  1.00  0.00    -0.298 OA
ENDBRANCH  10  19
BRANCH  18  21
ATOM     21  C   UNL     1       6.646  -5.375  -3.577  1.00  0.00     0.429 C 
ATOM     22  F   UNL     1       6.964  -6.687  -3.541  1.00  0.00    -0.167 F 
ATOM     23  F   UNL     1       6.287  -5.124  -4.865  1.00  0.00    -0.167 F 
ATOM     24  F   UNL     1       7.772  -4.661  -3.342  1.00  0.00    -0.167 F 
ENDBRANCH  18  21
ENDBRANCH   6   9
ENDBRANCH   4   5
ENDBRANCH   3   4
ENDBRANCH   2   3
ENDBRANCH   1   2
BRANCH   1  25
ATOM     25  C   UNL     1       9.329  -2.969   4.597  1.00  0.00     0.021 C 
BRANCH  25  26
ATOM     26  C   UNL     1       8.544  -3.138   5.895  1.00  0.00     0.116 C 
BRANCH  26  27
ATOM     27  N   UNL     1       9.293  -3.893   6.887  1.00  0.00    -0.352 N 
ATOM     28  C   UNL     1       9.627  -3.561   8.175  1.00  0.00     0.251 C 
ATOM     29  H   UNL     1       9.608  -4.777   6.588  1.00  0.00     0.163 HD
ATOM     30  O   UNL     1      10.449  -4.236   8.786  1.00  0.00    -0.269 OA
BRANCH  28  31
ATOM     31  C   UNL     1       9.013  -2.386   8.829  1.00  0.00     0.039 A 
ATOM     32  C   UNL     1       9.824  -1.550   9.602  1.00  0.00     0.014 A 
ATOM     33  C   UNL     1       7.643  -2.127   8.721  1.00  0.00     0.014 A 
ATOM     34  C   UNL     1       9.272  -0.429  10.225  1.00  0.00     0.010 A 
ATOM     35  C   UNL     1       7.105  -0.974   9.291  1.00  0.00     0.010 A 
ATOM     36  C   UNL     1       7.913  -0.117  10.052  1.00  0.00    -0.014 A 
BRANCH  36  37
ATOM     37  C   UNL     1       7.345   1.119  10.645  1.00  0.00     0.031 A 
ATOM     38  C   UNL     1       6.319   1.050  11.740  1.00  0.00     0.074 A 
ATOM     39  C   UNL     1       7.728   2.315  10.159  1.00  0.00     0.049 A 
ATOM     40  N   UNL     1       5.747   2.030  12.395  1.00  0.00    -0.248 NA
ATOM     41  C   UNL     1       5.854  -0.288  12.134  1.00  0.00     0.031 C 
ATOM     42  C   UNL     1       8.664   2.517   9.051  1.00  0.00     0.029 A 
ATOM     43  N   UNL     1       7.377   3.586  10.535  1.00  0.00    -0.354 N 
ATOM     44  C   UNL     1       4.847   1.429  13.265  1.00  0.00     0.074 A 
ATOM     45  C   UNL     1       4.915   0.004  13.023  1.00  0.00     0.031 C 
ATOM     46  C   UNL     1       8.837   3.834   8.858  1.00  0.00     0.029 A 
ATOM     47  C   UNL     1       8.010   4.566   9.811  1.00  0.00     0.049 A 
ATOM     48  H   UNL     1       6.733   3.778  11.255  1.00  0.00     0.167 HD
ATOM     49  C   UNL     1       4.047   2.008  14.193  1.00  0.00     0.031 A 
ATOM     50  C   UNL     1       7.943   5.907   9.909  1.00  0.00     0.031 A 
ATOM     51  C   UNL     1       3.984   3.425  14.441  1.00  0.00     0.049 A 
ATOM     52  C   UNL     1       7.082   6.525  10.971  1.00  0.00     0.074 A 
ATOM     53  C   UNL     1       3.267   4.101  15.413  1.00  0.00     0.029 A 
ATOM     54  N   UNL     1       4.659   4.385  13.703  1.00  0.00    -0.354 N 
ATOM     55  N   UNL     1       6.312   5.937  11.854  1.00  0.00    -0.248 NA
ATOM     56  C   UNL     1       7.099   7.991  11.062  1.00  0.00     0.031 C 
ATOM     57  C   UNL     1       3.470   5.474  15.231  1.00  0.00     0.029 A 
ATOM     58  C   UNL     1       4.354   5.649  14.178  1.00  0.00     0.049 A 
ATOM     59  H   UNL     1       5.266   4.196  12.951  1.00  0.00     0.167 HD
ATOM     60  C   UNL     1       5.763   6.960  12.616  1.00  0.00     0.074 A 
ATOM     61  C   UNL     1       6.308   8.202  12.106  1.00  0.00     0.031 C 
ATOM     62  C   UNL     1       4.884   6.878  13.645  1.00  0.00     0.031 A 
BRANCH  49  63
ATOM     63  C   UNL     1       3.163   1.099  15.003  1.00  0.00    -0.014 A 
ATOM     64  C   UNL     1       3.699   0.230  15.968  1.00  0.00     0.009 A 
ATOM     65  C   UNL     1       1.773   1.125  14.812  1.00  0.00     0.009 A 
ATOM     66  C   UNL     1       2.865  -0.624  16.692  1.00  0.00     0.001 A 
ATOM     67  C   UNL     1       0.939   0.290  15.557  1.00  0.00     0.001 A 
ATOM     68  C   UNL     1       1.486  -0.592  16.488  1.00  0.00     0.000 A 
ENDBRANCH  49  63
BRANCH  50  69
ATOM     69  C   UNL     1       8.750   6.749   8.991  1.00  0.00    -0.014 A 
ATOM     70  C   UNL     1       9.899   7.407   9.455  1.00  0.00     0.009 A 
ATOM     71  C   UNL     1       8.390   6.876   7.641  1.00  0.00     0.009 A 
ATOM     72  C   UNL     1      10.662   8.191   8.587  1.00  0.00     0.001 A 
ATOM     73  C   UNL     1       9.169   7.640   6.770  1.00  0.00     0.001 A 
ATOM     74  C   UNL     1      10.301   8.301   7.245  1.00  0.00     0.000 A 
ENDBRANCH  50  69
BRANCH  62  75
ATOM     75  C   UNL     1       4.467   8.171  14.285  1.00  0.00    -0.014 A 
ATOM     76  C   UNL     1       3.611   9.066  13.623  1.00  0.00     0.009 A 
ATOM     77  C   UNL     1       4.928   8.496  15.570  1.00  0.00     0.009 A 
ATOM     78  C   UNL     1       3.260  10.279  14.218  1.00  0.00     0.001 A 
ATOM     79  C   UNL     1       4.552   9.696  16.175  1.00  0.00     0.001 A 
ATOM     80  C   UNL     1       3.728  10.591  15.494  1.00  0.00     0.000 A 
ENDBRANCH  62  75
ENDBRANCH  36  37
ENDBRANCH  28  31
ENDBRANCH  26  27
ENDBRANCH  25  26
ENDBRANCH   1  25
TORSDOF 15
