REMARK SMILES O=C(NCCCCCCNC(=O)[C@H](CO)NC(=O)[C@H](Cc1c[nH]c2ccccc12)NC(=O)[C@H](Cc1ccc(O)cc1)NC(=O)c1ccc(F)cc1)c1ccc(-c2c3nc(c(-c4ccccc4)c4ccc([nH]4)c(-c4ccccc4)c4nc(c(-c5ccccc5)c5ccc2[nH]5)C=C4)C=C3)cc1
REMARK SMILES IDX 9 1 8 2 7 3 6 4 5 5 4 6 3 7 1 8 2 9 52 11 53 12 99 13 54 14
REMARK SMILES IDX 98 15 55 16 56 17 57 18 92 19 58 20 97 21 91 22 93 23 59 24
REMARK SMILES IDX 96 25 90 26 89 27 60 29 82 30 67 31 81 32 68 33 71 34 80 35
REMARK SMILES IDX 94 36 69 37 70 38 79 40 95 41 72 42 61 43 62 44 66 45 63 46
REMARK SMILES IDX 65 47 64 48 83 49 84 50 88 51 85 52 87 53 86 54 73 55 74 56
REMARK SMILES IDX 78 57 75 58 77 59 76 60 10 61 11 62 12 64 13 65 16 66 17 67
REMARK SMILES IDX 18 69 19 70 30 71 31 72 32 74 33 75 42 76 43 77 44 79 45 80
REMARK SMILES IDX 46 81 51 82 47 83 50 84 48 85 49 86 34 87 35 88 36 89 41 90
REMARK SMILES IDX 37 91 40 92 38 93 39 94 20 96 21 97 22 98 29 99 23 100
REMARK SMILES IDX 24 101 28 102 25 104 27 105 26 106 14 107 15 108
REMARK H PARENT 3 10 93 28 71 39 10 63 16 68 30 73 42 78 39 95 23 103 15 109
REMARK Flexibility Score: inf
ROOT
ATOM      1  C   UNL     1      19.099  -5.441  -7.786  1.00  0.00     0.116 C 
ENDROOT
BRANCH   1   2
ATOM      2  C   UNL     1      19.990  -4.426  -7.075  1.00  0.00     0.021 C 
BRANCH   2   3
ATOM      3  C   UNL     1      21.241  -5.027  -6.438  1.00  0.00     0.002 C 
BRANCH   3   4
ATOM      4  C   UNL     1      22.152  -5.788  -7.406  1.00  0.00     0.002 C 
BRANCH   4   5
ATOM      5  C   UNL     1      22.558  -5.012  -8.659  1.00  0.00     0.021 C 
BRANCH   5   6
ATOM      6  C   UNL     1      23.225  -3.673  -8.379  1.00  0.00     0.116 C 
BRANCH   6   7
ATOM      7  N   UNL     1      24.451  -3.823  -7.610  1.00  0.00    -0.352 N 
ATOM      8  O   UNL     1      26.686  -3.867  -7.277  1.00  0.00    -0.269 OA
ATOM      9  C   UNL     1      25.734  -3.482  -7.954  1.00  0.00     0.251 C 
ATOM     10  H   UNL     1      24.345  -4.225  -6.718  1.00  0.00     0.163 HD
BRANCH   9  11
ATOM     11  C   UNL     1      25.963  -2.655  -9.154  1.00  0.00     0.039 A 
ATOM     12  C   UNL     1      25.160  -1.538  -9.394  1.00  0.00     0.014 A 
ATOM     13  C   UNL     1      26.982  -2.999 -10.046  1.00  0.00     0.014 A 
ATOM     14  C   UNL     1      25.275  -0.856 -10.595  1.00  0.00     0.010 A 
ATOM     15  C   UNL     1      27.165  -2.244 -11.207  1.00  0.00     0.010 A 
ATOM     16  C   UNL     1      26.298  -1.181 -11.502  1.00  0.00    -0.014 A 
BRANCH  16  17
ATOM     17  C   UNL     1      26.483  -0.331 -12.703  1.00  0.00     0.031 A 
ATOM     18  C   UNL     1      26.311  -0.882 -14.090  1.00  0.00     0.074 A 
ATOM     19  C   UNL     1      26.771   0.973 -12.521  1.00  0.00     0.049 A 
ATOM     20  N   UNL     1      26.407  -0.258 -15.237  1.00  0.00    -0.248 NA
ATOM     21  C   UNL     1      25.998  -2.315 -14.210  1.00  0.00     0.031 C 
ATOM     22  C   UNL     1      26.965   1.620 -11.218  1.00  0.00     0.029 A 
ATOM     23  N   UNL     1      26.924   1.994 -13.421  1.00  0.00    -0.354 N 
ATOM     24  C   UNL     1      26.173  -1.218 -16.214  1.00  0.00     0.074 A 
ATOM     25  C   UNL     1      25.968  -2.476 -15.526  1.00  0.00     0.031 C 
ATOM     26  C   UNL     1      27.156   2.933 -11.402  1.00  0.00     0.029 A 
ATOM     27  C   UNL     1      27.176   3.209 -12.832  1.00  0.00     0.049 A 
ATOM     28  H   UNL     1      26.860   1.869 -14.396  1.00  0.00     0.167 HD
ATOM     29  C   UNL     1      26.124  -1.062 -17.559  1.00  0.00     0.031 A 
ATOM     30  C   UNL     1      27.421   4.412 -13.380  1.00  0.00     0.031 A 
ATOM     31  C   UNL     1      26.347   0.190 -18.238  1.00  0.00     0.049 A 
ATOM     32  C   UNL     1      27.419   4.540 -14.874  1.00  0.00     0.074 A 
ATOM     33  C   UNL     1      26.316   0.452 -19.597  1.00  0.00     0.029 A 
ATOM     34  N   UNL     1      26.645   1.389 -17.608  1.00  0.00    -0.354 N 
ATOM     35  N   UNL     1      27.169   3.626 -15.781  1.00  0.00    -0.248 NA
ATOM     36  C   UNL     1      27.731   5.866 -15.421  1.00  0.00     0.031 C 
ATOM     37  C   UNL     1      26.651   1.796 -19.792  1.00  0.00     0.029 A 
ATOM     38  C   UNL     1      26.823   2.388 -18.552  1.00  0.00     0.049 A 
ATOM     39  H   UNL     1      26.720   1.512 -16.634  1.00  0.00     0.167 HD
ATOM     40  C   UNL     1      27.270   4.273 -17.004  1.00  0.00     0.074 A 
ATOM     41  C   UNL     1      27.575   5.661 -16.720  1.00  0.00     0.031 C 
ATOM     42  C   UNL     1      27.128   3.763 -18.252  1.00  0.00     0.031 A 
BRANCH  29  43
ATOM     43  C   UNL     1      25.835  -2.281 -18.393  1.00  0.00    -0.014 A 
ATOM     44  C   UNL     1      24.562  -2.873 -18.400  1.00  0.00     0.009 A 
ATOM     45  C   UNL     1      26.833  -2.814 -19.225  1.00  0.00     0.009 A 
ATOM     46  C   UNL     1      24.303  -3.990 -19.199  1.00  0.00     0.001 A 
ATOM     47  C   UNL     1      26.564  -3.912 -20.045  1.00  0.00     0.001 A 
ATOM     48  C   UNL     1      25.302  -4.504 -20.025  1.00  0.00     0.000 A 
ENDBRANCH  29  43
BRANCH  30  49
ATOM     49  C   UNL     1      27.723   5.580 -12.511  1.00  0.00    -0.014 A 
ATOM     50  C   UNL     1      26.851   6.677 -12.448  1.00  0.00     0.009 A 
ATOM     51  C   UNL     1      28.901   5.607 -11.746  1.00  0.00     0.009 A 
ATOM     52  C   UNL     1      27.171   7.790 -11.669  1.00  0.00     0.001 A 
ATOM     53  C   UNL     1      29.199   6.704 -10.938  1.00  0.00     0.001 A 
ATOM     54  C   UNL     1      28.342   7.801 -10.911  1.00  0.00     0.000 A 
ENDBRANCH  30  49
BRANCH  42  55
ATOM     55  C   UNL     1      27.262   4.728 -19.397  1.00  0.00    -0.014 A 
ATOM     56  C   UNL     1      28.501   5.296 -19.736  1.00  0.00     0.009 A 
ATOM     57  C   UNL     1      26.130   5.064 -20.155  1.00  0.00     0.009 A 
ATOM     58  C   UNL     1      28.592   6.216 -20.782  1.00  0.00     0.001 A 
ATOM     59  C   UNL     1      26.231   5.958 -21.222  1.00  0.00     0.001 A 
ATOM     60  C   UNL     1      27.459   6.543 -21.526  1.00  0.00     0.000 A 
ENDBRANCH  42  55
ENDBRANCH  16  17
ENDBRANCH   9  11
ENDBRANCH   6   7
ENDBRANCH   5   6
ENDBRANCH   4   5
ENDBRANCH   3   4
ENDBRANCH   2   3
ENDBRANCH   1   2
BRANCH   1  61
ATOM     61  N   UNL     1      18.300  -6.221  -6.860  1.00  0.00    -0.354 N 
ATOM     62  C   UNL     1      16.967  -6.469  -6.724  1.00  0.00     0.244 C 
ATOM     63  H   UNL     1      18.844  -6.674  -6.175  1.00  0.00     0.163 HD
ATOM     64  O   UNL     1      16.658  -7.173  -5.756  1.00  0.00    -0.273 OA
BRANCH  62  65
ATOM     65  C   UNL     1      15.857  -5.786  -7.570  1.00  0.00     0.197 C 
BRANCH  65  66
ATOM     66  N   UNL     1      16.247  -5.261  -8.872  1.00  0.00    -0.340 N 
ATOM     67  C   UNL     1      16.493  -3.974  -9.246  1.00  0.00     0.243 C 
ATOM     68  H   UNL     1      16.346  -5.933  -9.585  1.00  0.00     0.164 HD
ATOM     69  O   UNL     1      17.218  -3.842 -10.238  1.00  0.00    -0.273 OA
BRANCH  67  70
ATOM     70  C   UNL     1      16.072  -2.744  -8.403  1.00  0.00     0.175 C 
BRANCH  70  71
ATOM     71  N   UNL     1      14.626  -2.786  -8.149  1.00  0.00    -0.342 N 
ATOM     72  C   UNL     1      13.606  -2.110  -8.759  1.00  0.00     0.243 C 
ATOM     73  H   UNL     1      14.348  -3.396  -7.427  1.00  0.00     0.164 HD
ATOM     74  O   UNL     1      12.461  -2.537  -8.585  1.00  0.00    -0.273 OA
BRANCH  72  75
ATOM     75  C   UNL     1      13.867  -0.862  -9.629  1.00  0.00     0.176 C 
BRANCH  75  76
ATOM     76  N   UNL     1      13.363  -1.105 -10.992  1.00  0.00    -0.340 N 
ATOM     77  C   UNL     1      13.945  -0.805 -12.204  1.00  0.00     0.251 C 
ATOM     78  H   UNL     1      12.483  -1.544 -11.045  1.00  0.00     0.164 HD
ATOM     79  O   UNL     1      13.298  -0.852 -13.244  1.00  0.00    -0.269 OA
BRANCH  77  80
ATOM     80  C   UNL     1      15.381  -0.450 -12.257  1.00  0.00     0.040 A 
ATOM     81  C   UNL     1      16.312  -1.325 -11.701  1.00  0.00     0.017 A 
ATOM     82  C   UNL     1      15.822   0.713 -12.888  1.00  0.00     0.017 A 
ATOM     83  C   UNL     1      17.660  -0.980 -11.620  1.00  0.00     0.040 A 
ATOM     84  C   UNL     1      17.183   1.044 -12.850  1.00  0.00     0.040 A 
ATOM     85  C   UNL     1      18.082   0.213 -12.186  1.00  0.00     0.123 A 
ATOM     86  F   UNL     1      19.373   0.558 -12.100  1.00  0.00    -0.207 F 
ENDBRANCH  77  80
ENDBRANCH  75  76
BRANCH  75  87
ATOM     87  C   UNL     1      13.149   0.347  -8.971  1.00  0.00     0.070 C 
BRANCH  87  88
ATOM     88  C   UNL     1      13.977   1.608  -8.788  1.00  0.00    -0.045 A 
ATOM     89  C   UNL     1      15.341   1.568  -8.469  1.00  0.00     0.007 A 
ATOM     90  C   UNL     1      13.347   2.861  -8.818  1.00  0.00     0.007 A 
ATOM     91  C   UNL     1      16.064   2.732  -8.203  1.00  0.00     0.046 A 
ATOM     92  C   UNL     1      14.066   4.031  -8.551  1.00  0.00     0.046 A 
ATOM     93  C   UNL     1      15.417   3.957  -8.243  1.00  0.00     0.115 A 
BRANCH  93  94
ATOM     94  O   UNL     1      16.080   5.115  -7.969  1.00  0.00    -0.508 OA
ATOM     95  H   UNL     1      16.993   5.094  -7.758  1.00  0.00     0.293 HD
ENDBRANCH  93  94
ENDBRANCH  87  88
ENDBRANCH  75  87
ENDBRANCH  72  75
ENDBRANCH  70  71
BRANCH  70  96
ATOM     96  C   UNL     1      16.984  -2.589  -7.168  1.00  0.00     0.072 C 
BRANCH  96  97
ATOM     97  C   UNL     1      16.498  -1.594  -6.170  1.00  0.00    -0.020 A 
ATOM     98  C   UNL     1      16.848  -0.263  -6.073  1.00  0.00     0.087 A 
ATOM     99  C   UNL     1      15.574  -1.856  -5.112  1.00  0.00     0.003 A 
ATOM    100  N   UNL     1      16.035   0.322  -5.136  1.00  0.00    -0.361 N 
ATOM    101  C   UNL     1      15.242  -0.630  -4.540  1.00  0.00     0.046 A 
ATOM    102  C   UNL     1      14.961  -3.022  -4.613  1.00  0.00     0.010 A 
ATOM    103  H   UNL     1      16.022   1.282  -4.921  1.00  0.00     0.166 HD
ATOM    104  C   UNL     1      14.267  -0.504  -3.545  1.00  0.00     0.026 A 
ATOM    105  C   UNL     1      14.000  -2.919  -3.606  1.00  0.00     0.001 A 
ATOM    106  C   UNL     1      13.646  -1.674  -3.095  1.00  0.00     0.002 A 
ENDBRANCH  96  97
ENDBRANCH  70  96
ENDBRANCH  67  70
ENDBRANCH  65  66
BRANCH  65 107
ATOM    107  C   UNL     1      14.620  -6.696  -7.711  1.00  0.00     0.191 C 
BRANCH 107 108
ATOM    108  O   UNL     1      14.889  -7.987  -8.252  1.00  0.00    -0.394 OA
ATOM    109  H   UNL     1      15.231  -7.895  -9.155  1.00  0.00     0.210 HD
ENDBRANCH 107 108
ENDBRANCH  65 107
ENDBRANCH  62  65
ENDBRANCH   1  61
TORSDOF 26
