REMARK SMILES N#C/C(=C\c1cn(CC(=O)NCCCCCCNC(=O)c2ccc(-c3c4nc(c(-c5ccccc5)c5ccc([nH]5)c(-c5ccccc5)c5nc(c(-c6ccccc6)c6ccc3[nH]6)C=C5)C=C4)cc2)c2ccccc12)C(=O)N1CCCC[C@@H]1C#N
REMARK SMILES IDX 13 1 12 2 11 3 9 4 10 5 8 7 7 8 5 9 6 10 74 11 69 12 73 13
REMARK SMILES IDX 70 14 72 15 71 16 4 17 3 18 2 19 1 20 75 21 76 22 77 23
REMARK SMILES IDX 78 24 82 25 79 26 81 27 80 28 83 29 84 30 14 31 15 32 16 33
REMARK SMILES IDX 17 34 18 35 19 36 20 38 21 39 22 40 68 41 23 42 67 43 24 44
REMARK SMILES IDX 25 45 26 46 61 47 27 48 66 49 60 50 62 51 28 52 65 53 59 54
REMARK SMILES IDX 58 55 29 57 51 58 36 59 50 60 37 61 40 62 49 63 63 64 38 65
REMARK SMILES IDX 39 66 48 68 64 69 41 70 30 71 31 72 35 73 32 74 34 75 33 76
REMARK SMILES IDX 52 77 53 78 57 79 54 80 56 81 55 82 42 83 43 84 47 85 44 86
REMARK SMILES IDX 46 87 45 88
REMARK H PARENT 11 6 18 37 62 56 40 67
REMARK Flexibility Score: inf
ROOT
ATOM      1  C   UNL     1       1.359   0.079  -4.302  1.00  0.00     0.021 C 
ENDROOT
BRANCH   1   2
ATOM      2  C   UNL     1       2.207   0.772  -5.367  1.00  0.00     0.116 C 
BRANCH   2   3
ATOM      3  N   UNL     1       1.553   1.974  -5.845  1.00  0.00    -0.355 N 
ATOM      4  C   UNL     1       1.844   3.278  -5.575  1.00  0.00     0.239 C 
ATOM      5  O   UNL     1       1.092   4.146  -6.023  1.00  0.00    -0.273 OA
ATOM      6  H   UNL     1       0.791   1.827  -6.450  1.00  0.00     0.163 HD
BRANCH   4   7
ATOM      7  C   UNL     1       3.108   3.647  -4.826  1.00  0.00     0.222 C 
BRANCH   7   8
ATOM      8  N   UNL     1       3.127   3.203  -3.438  1.00  0.00    -0.337 N 
ATOM      9  C   UNL     1       3.667   2.010  -1.641  1.00  0.00     0.002 A 
ATOM     10  C   UNL     1       4.055   2.328  -2.923  1.00  0.00     0.095 A 
ATOM     11  C   UNL     1       2.605   2.901  -1.288  1.00  0.00     0.007 A 
ATOM     12  C   UNL     1       2.238   3.582  -2.456  1.00  0.00     0.049 A 
ATOM     13  C   UNL     1       1.879   3.171  -0.105  1.00  0.00     0.011 A 
ATOM     14  C   UNL     1       1.128   4.442  -2.499  1.00  0.00     0.027 A 
ATOM     15  C   UNL     1       0.762   4.011  -0.145  1.00  0.00     0.001 A 
ATOM     16  C   UNL     1       0.385   4.624  -1.331  1.00  0.00     0.002 A 
BRANCH   9  17
ATOM     17  C   UNL     1       4.299   0.959  -0.896  1.00  0.00     0.035 C 
ATOM     18  C   UNL     1       3.730   0.076  -0.041  1.00  0.00     0.118 C 
BRANCH  18  19
ATOM     19  C   UNL     1       2.210   0.076  -0.041  1.00  0.00     0.105 C 
ATOM     20  N   UNL     1       0.949   0.076  -0.041  1.00  0.00    -0.192 NA
ENDBRANCH  18  19
BRANCH  18  21
ATOM     21  C   UNL     1       4.505  -1.010   0.628  1.00  0.00     0.265 C 
ATOM     22  O   UNL     1       3.895  -2.025   0.965  1.00  0.00    -0.268 OA
BRANCH  21  23
ATOM     23  N   UNL     1       5.892  -0.918   0.770  1.00  0.00    -0.322 N 
ATOM     24  C   UNL     1       6.648  -2.172   0.825  1.00  0.00     0.121 C 
ATOM     25  C   UNL     1       6.728   0.306   0.925  1.00  0.00     0.189 C 
ATOM     26  C   UNL     1       7.678  -2.194  -0.304  1.00  0.00     0.022 C 
ATOM     27  C   UNL     1       7.821   0.331  -0.169  1.00  0.00     0.041 C 
ATOM     28  C   UNL     1       8.608  -0.982  -0.247  1.00  0.00     0.005 C 
BRANCH  25  29
ATOM     29  C   UNL     1       7.363   0.398   2.262  1.00  0.00     0.087 C 
ATOM     30  N   UNL     1       7.902   0.479   3.295  1.00  0.00    -0.196 NA
ENDBRANCH  25  29
ENDBRANCH  21  23
ENDBRANCH  18  21
ENDBRANCH   9  17
ENDBRANCH   7   8
ENDBRANCH   4   7
ENDBRANCH   2   3
ENDBRANCH   1   2
BRANCH   1  31
ATOM     31  C   UNL     1       0.089  -0.559  -4.880  1.00  0.00     0.002 C 
BRANCH  31  32
ATOM     32  C   UNL     1       0.352  -1.662  -5.914  1.00  0.00     0.002 C 
BRANCH  32  33
ATOM     33  C   UNL     1       1.230  -2.810  -5.401  1.00  0.00     0.021 C 
BRANCH  33  34
ATOM     34  C   UNL     1       0.710  -3.421  -4.099  1.00  0.00     0.116 C 
BRANCH  34  35
ATOM     35  N   UNL     1      -0.613  -3.995  -4.226  1.00  0.00    -0.352 N 
ATOM     36  C   UNL     1      -1.087  -5.233  -4.550  1.00  0.00     0.251 C 
ATOM     37  H   UNL     1      -1.331  -3.349  -4.037  1.00  0.00     0.163 HD
ATOM     38  O   UNL     1      -2.303  -5.410  -4.456  1.00  0.00    -0.269 OA
BRANCH  36  39
ATOM     39  C   UNL     1      -0.254  -6.306  -5.145  1.00  0.00     0.039 A 
ATOM     40  C   UNL     1       1.138  -6.296  -5.230  1.00  0.00     0.014 A 
ATOM     41  C   UNL     1      -0.969  -7.324  -5.797  1.00  0.00     0.014 A 
ATOM     42  C   UNL     1       1.772  -7.076  -6.178  1.00  0.00     0.010 A 
ATOM     43  C   UNL     1      -0.332  -8.165  -6.683  1.00  0.00     0.010 A 
ATOM     44  C   UNL     1       1.008  -7.937  -6.963  1.00  0.00    -0.014 A 
BRANCH  44  45
ATOM     45  C   UNL     1       1.668  -8.720  -7.989  1.00  0.00     0.031 A 
ATOM     46  C   UNL     1       2.642  -9.685  -7.411  1.00  0.00     0.074 A 
ATOM     47  C   UNL     1       1.303  -8.626  -9.287  1.00  0.00     0.049 A 
ATOM     48  N   UNL     1       3.919  -9.717  -7.590  1.00  0.00    -0.248 NA
ATOM     49  C   UNL     1       2.170 -10.585  -6.338  1.00  0.00     0.031 C 
ATOM     50  C   UNL     1       0.204  -7.849  -9.875  1.00  0.00     0.029 A 
ATOM     51  N   UNL     1       1.780  -9.296 -10.367  1.00  0.00    -0.354 N 
ATOM     52  C   UNL     1       4.382 -10.784  -6.824  1.00  0.00     0.074 A 
ATOM     53  C   UNL     1       3.311 -11.143  -5.936  1.00  0.00     0.031 C 
ATOM     54  C   UNL     1      -0.064  -8.311 -11.121  1.00  0.00     0.029 A 
ATOM     55  C   UNL     1       0.934  -9.303 -11.475  1.00  0.00     0.049 A 
ATOM     56  H   UNL     1       2.657  -9.742 -10.368  1.00  0.00     0.167 HD
ATOM     57  C   UNL     1       5.511 -11.458  -7.174  1.00  0.00     0.031 A 
ATOM     58  C   UNL     1       1.029 -10.123 -12.559  1.00  0.00     0.031 A 
ATOM     59  C   UNL     1       6.311 -10.685  -8.085  1.00  0.00     0.049 A 
ATOM     60  C   UNL     1       2.413 -10.662 -12.566  1.00  0.00     0.074 A 
ATOM     61  C   UNL     1       6.992  -9.490  -7.990  1.00  0.00     0.029 A 
ATOM     62  N   UNL     1       6.123 -10.924  -9.425  1.00  0.00    -0.354 N 
ATOM     63  N   UNL     1       3.462  -9.911 -12.758  1.00  0.00    -0.248 NA
ATOM     64  C   UNL     1       2.642 -11.897 -11.829  1.00  0.00     0.031 C 
ATOM     65  C   UNL     1       6.753  -8.841  -9.233  1.00  0.00     0.029 A 
ATOM     66  C   UNL     1       6.049  -9.715 -10.065  1.00  0.00     0.049 A 
ATOM     67  H   UNL     1       6.053 -11.809  -9.851  1.00  0.00     0.167 HD
ATOM     68  C   UNL     1       4.373 -10.338 -11.803  1.00  0.00     0.074 A 
ATOM     69  C   UNL     1       3.823 -11.593 -11.283  1.00  0.00     0.031 C 
ATOM     70  C   UNL     1       5.312  -9.491 -11.290  1.00  0.00     0.031 A 
BRANCH  57  71
ATOM     71  C   UNL     1       5.654 -12.955  -7.050  1.00  0.00    -0.014 A 
ATOM     72  C   UNL     1       4.592 -13.822  -6.729  1.00  0.00     0.009 A 
ATOM     73  C   UNL     1       6.827 -13.556  -7.544  1.00  0.00     0.009 A 
ATOM     74  C   UNL     1       4.676 -15.203  -6.922  1.00  0.00     0.001 A 
ATOM     75  C   UNL     1       6.902 -14.934  -7.772  1.00  0.00     0.001 A 
ATOM     76  C   UNL     1       5.823 -15.757  -7.467  1.00  0.00     0.000 A 
ENDBRANCH  57  71
BRANCH  58  77
ATOM     77  C   UNL     1      -0.076 -10.847 -13.248  1.00  0.00    -0.014 A 
ATOM     78  C   UNL     1      -1.243 -11.186 -12.538  1.00  0.00     0.009 A 
ATOM     79  C   UNL     1       0.128 -11.481 -14.488  1.00  0.00     0.009 A 
ATOM     80  C   UNL     1      -2.143 -12.148 -13.018  1.00  0.00     0.001 A 
ATOM     81  C   UNL     1      -0.777 -12.441 -14.973  1.00  0.00     0.001 A 
ATOM     82  C   UNL     1      -1.903 -12.787 -14.229  1.00  0.00     0.000 A 
ENDBRANCH  58  77
BRANCH  70  83
ATOM     83  C   UNL     1       5.475  -8.115 -11.897  1.00  0.00    -0.014 A 
ATOM     84  C   UNL     1       6.769  -7.748 -12.295  1.00  0.00     0.009 A 
ATOM     85  C   UNL     1       4.486  -7.114 -11.845  1.00  0.00     0.009 A 
ATOM     86  C   UNL     1       7.088  -6.421 -12.582  1.00  0.00     0.001 A 
ATOM     87  C   UNL     1       4.801  -5.784 -12.164  1.00  0.00     0.001 A 
ATOM     88  C   UNL     1       6.105  -5.438 -12.513  1.00  0.00     0.000 A 
ENDBRANCH  70  83
ENDBRANCH  44  45
ENDBRANCH  36  39
ENDBRANCH  34  35
ENDBRANCH  33  34
ENDBRANCH  32  33
ENDBRANCH  31  32
ENDBRANCH   1  31
TORSDOF 19
