REMARK SMILES CC(C)(C[NH2+][C@H]1CC[C@H](C)CC1)C(=O)NCCCCCCNC(=O)c1ccc(-c2c3nc(c(-c4ccccc4)c4ccc([nH]4)c(-c4ccccc4)c4nc(c(-c5ccccc5)c5ccc2[nH]5)C=C4)C=C3)cc1
REMARK SMILES IDX 18 1 17 2 16 3 15 4 13 5 14 6 2 8 1 9 3 10 4 11 5 12 6 15
REMARK SMILES IDX 10 16 9 17 8 18 11 19 7 20 12 21 19 22 20 23 21 24 22 25
REMARK SMILES IDX 23 26 24 28 25 29 26 30 72 31 27 32 71 33 28 34 29 35 30 36
REMARK SMILES IDX 65 37 31 38 70 39 64 40 66 41 32 42 69 43 63 44 62 45 33 47
REMARK SMILES IDX 55 48 40 49 54 50 41 51 44 52 53 53 67 54 42 55 43 56 52 58
REMARK SMILES IDX 68 59 45 60 34 61 35 62 39 63 36 64 38 65 37 66 56 67 57 68
REMARK SMILES IDX 61 69 58 70 60 71 59 72 46 73 47 74 51 75 48 76 50 77 49 78
REMARK H PARENT 15 7 5 13 5 14 22 27 66 46 44 57
REMARK Flexibility Score: inf
ROOT
ATOM      1  C   UNL     1       0.320  -6.322  -0.297  1.00  0.00     0.002 C 
ENDROOT
BRANCH   1   2
ATOM      2  C   UNL     1      -1.198  -6.297  -0.069  1.00  0.00     0.021 C 
BRANCH   2   3
ATOM      3  C   UNL     1      -1.725  -5.011   0.559  1.00  0.00     0.116 C 
BRANCH   3   4
ATOM      4  N   UNL     1      -1.569  -3.920  -0.370  1.00  0.00    -0.355 N 
ATOM      5  C   UNL     1      -2.382  -2.907  -0.737  1.00  0.00     0.231 C 
ATOM      6  O   UNL     1      -2.076  -2.384  -1.815  1.00  0.00    -0.274 OA
ATOM      7  H   UNL     1      -0.697  -3.912  -0.828  1.00  0.00     0.163 HD
BRANCH   5   8
ATOM      8  C   UNL     1      -3.635  -2.466   0.047  1.00  0.00     0.092 C 
ATOM      9  C   UNL     1      -3.660  -2.620   1.580  1.00  0.00     0.027 C 
ATOM     10  C   UNL     1      -4.774  -3.336  -0.529  1.00  0.00     0.027 C 
BRANCH   8  11
ATOM     11  C   UNL     1      -3.898  -0.954  -0.298  1.00  0.00     0.277 C 
BRANCH  11  12
ATOM     12  N   UNL     1      -3.085   0.099   0.358  1.00  0.00    -0.343 N 
ATOM     13  H   UNL     1      -3.481   1.004   0.105  1.00  0.00     0.346 HD
ATOM     14  H   UNL     1      -3.121  -0.102   1.357  1.00  0.00     0.346 HD
BRANCH  12  15
ATOM     15  C   UNL     1      -1.659   0.115   0.002  1.00  0.00     0.182 C 
ATOM     16  C   UNL     1       2.663   0.445  -0.221  1.00  0.00     0.007 C 
ATOM     17  C   UNL     1       1.271   0.530   0.403  1.00  0.00    -0.014 C 
ATOM     18  C   UNL     1       0.616  -0.849   0.384  1.00  0.00     0.009 C 
ATOM     19  C   UNL     1       0.397   1.583  -0.307  1.00  0.00     0.009 C 
ATOM     20  C   UNL     1      -0.800  -0.760   0.928  1.00  0.00     0.065 C 
ATOM     21  C   UNL     1      -1.087   1.543   0.103  1.00  0.00     0.065 C 
ENDBRANCH  12  15
ENDBRANCH  11  12
ENDBRANCH   8  11
ENDBRANCH   5   8
ENDBRANCH   3   4
ENDBRANCH   2   3
ENDBRANCH   1   2
BRANCH   1  22
ATOM     22  C   UNL     1       1.169  -6.208   0.972  1.00  0.00     0.002 C 
BRANCH  22  23
ATOM     23  C   UNL     1       0.823  -7.213   2.071  1.00  0.00     0.021 C 
BRANCH  23  24
ATOM     24  C   UNL     1       0.776  -8.664   1.612  1.00  0.00     0.116 C 
BRANCH  24  25
ATOM     25  N   UNL     1       2.054  -9.132   1.107  1.00  0.00    -0.352 N 
ATOM     26  C   UNL     1       2.671 -10.336   1.330  1.00  0.00     0.251 C 
ATOM     27  H   UNL     1       2.541  -8.502   0.528  1.00  0.00     0.163 HD
ATOM     28  O   UNL     1       3.823 -10.523   0.958  1.00  0.00    -0.269 OA
BRANCH  26  29
ATOM     29  C   UNL     1       1.941 -11.404   2.046  1.00  0.00     0.039 A 
ATOM     30  C   UNL     1       2.603 -12.114   3.050  1.00  0.00     0.014 A 
ATOM     31  C   UNL     1       0.617 -11.712   1.721  1.00  0.00     0.014 A 
ATOM     32  C   UNL     1       1.928 -13.118   3.744  1.00  0.00     0.010 A 
ATOM     33  C   UNL     1      -0.079 -12.655   2.469  1.00  0.00     0.010 A 
ATOM     34  C   UNL     1       0.578 -13.389   3.468  1.00  0.00    -0.014 A 
BRANCH  34  35
ATOM     35  C   UNL     1      -0.142 -14.479   4.170  1.00  0.00     0.031 A 
ATOM     36  C   UNL     1      -0.631 -15.673   3.392  1.00  0.00     0.074 A 
ATOM     37  C   UNL     1      -0.385 -14.386   5.492  1.00  0.00     0.049 A 
ATOM     38  N   UNL     1      -1.301 -16.716   3.813  1.00  0.00    -0.248 NA
ATOM     39  C   UNL     1      -0.354 -15.684   1.945  1.00  0.00     0.031 C 
ATOM     40  C   UNL     1       0.009 -13.268   6.353  1.00  0.00     0.029 A 
ATOM     41  N   UNL     1      -1.022 -15.252   6.345  1.00  0.00    -0.354 N 
ATOM     42  C   UNL     1      -1.542 -17.489   2.683  1.00  0.00     0.074 A 
ATOM     43  C   UNL     1      -0.996 -16.774   1.553  1.00  0.00     0.031 C 
ATOM     44  C   UNL     1      -0.363 -13.534   7.616  1.00  0.00     0.029 A 
ATOM     45  C   UNL     1      -1.054 -14.819   7.648  1.00  0.00     0.049 A 
ATOM     46  H   UNL     1      -1.418 -16.104   6.050  1.00  0.00     0.167 HD
ATOM     47  C   UNL     1      -2.144 -18.699   2.596  1.00  0.00     0.031 A 
ATOM     48  C   UNL     1      -1.580 -15.396   8.745  1.00  0.00     0.031 A 
ATOM     49  C   UNL     1      -2.663 -19.423   3.724  1.00  0.00     0.049 A 
ATOM     50  C   UNL     1      -2.247 -16.740   8.617  1.00  0.00     0.074 A 
ATOM     51  C   UNL     1      -3.237 -20.682   3.749  1.00  0.00     0.029 A 
ATOM     52  N   UNL     1      -2.667 -18.953   5.028  1.00  0.00    -0.354 N 
ATOM     53  N   UNL     1      -2.404 -17.489   7.553  1.00  0.00    -0.248 NA
ATOM     54  C   UNL     1      -2.792 -17.324   9.850  1.00  0.00     0.031 C 
ATOM     55  C   UNL     1      -3.637 -20.952   5.062  1.00  0.00     0.029 A 
ATOM     56  C   UNL     1      -3.251 -19.890   5.863  1.00  0.00     0.049 A 
ATOM     57  H   UNL     1      -2.307 -18.084   5.317  1.00  0.00     0.167 HD
ATOM     58  C   UNL     1      -3.022 -18.652   7.997  1.00  0.00     0.074 A 
ATOM     59  C   UNL     1      -3.200 -18.512   9.427  1.00  0.00     0.031 C 
ATOM     60  C   UNL     1      -3.404 -19.741   7.286  1.00  0.00     0.031 A 
BRANCH  47  61
ATOM     61  C   UNL     1      -2.280 -19.314   1.230  1.00  0.00    -0.014 A 
ATOM     62  C   UNL     1      -1.161 -19.791   0.528  1.00  0.00     0.009 A 
ATOM     63  C   UNL     1      -3.553 -19.461   0.657  1.00  0.00     0.009 A 
ATOM     64  C   UNL     1      -1.312 -20.372  -0.733  1.00  0.00     0.001 A 
ATOM     65  C   UNL     1      -3.704 -20.070  -0.590  1.00  0.00     0.001 A 
ATOM     66  C   UNL     1      -2.583 -20.517  -1.287  1.00  0.00     0.000 A 
ENDBRANCH  47  61
BRANCH  48  67
ATOM     67  C   UNL     1      -1.484 -14.729  10.071  1.00  0.00    -0.014 A 
ATOM     68  C   UNL     1      -0.689 -15.280  11.089  1.00  0.00     0.009 A 
ATOM     69  C   UNL     1      -2.216 -13.563  10.340  1.00  0.00     0.009 A 
ATOM     70  C   UNL     1      -0.666 -14.704  12.361  1.00  0.00     0.001 A 
ATOM     71  C   UNL     1      -2.164 -12.969  11.604  1.00  0.00     0.001 A 
ATOM     72  C   UNL     1      -1.401 -13.548  12.617  1.00  0.00     0.000 A 
ENDBRANCH  48  67
BRANCH  60  73
ATOM     73  C   UNL     1      -3.986 -20.895   8.054  1.00  0.00    -0.014 A 
ATOM     74  C   UNL     1      -5.255 -20.823   8.647  1.00  0.00     0.009 A 
ATOM     75  C   UNL     1      -3.254 -22.090   8.157  1.00  0.00     0.009 A 
ATOM     76  C   UNL     1      -5.760 -21.908   9.366  1.00  0.00     0.001 A 
ATOM     77  C   UNL     1      -3.776 -23.184   8.846  1.00  0.00     0.001 A 
ATOM     78  C   UNL     1      -5.023 -23.088   9.461  1.00  0.00     0.000 A 
ENDBRANCH  60  73
ENDBRANCH  34  35
ENDBRANCH  26  29
ENDBRANCH  24  25
ENDBRANCH  23  24
ENDBRANCH  22  23
ENDBRANCH   1  22
TORSDOF 16
