REMARK SMILES O=C(NCCCCCCNC(=O)C1CC[NH+]([C@@H]2CCO[C@]3(CCOC3)C2)CC1)c1ccc(-c2c3nc(c(-c4ccccc4)c4ccc([nH]4)c(-c4ccccc4)c4nc(c(-c5ccccc5)c5ccc2[nH]5)C=C4)C=C3)cc1
REMARK SMILES IDX 6 1 5 2 4 3 3 4 1 5 2 6 29 8 30 9 76 10 31 11 75 12 32 13
REMARK SMILES IDX 33 14 34 15 69 16 35 17 74 18 68 19 70 20 36 21 73 22 67 23
REMARK SMILES IDX 66 24 37 26 59 27 44 28 58 29 45 30 48 31 57 32 71 33 46 34
REMARK SMILES IDX 47 35 56 37 72 38 49 39 38 40 39 41 43 42 40 43 42 44 41 45
REMARK SMILES IDX 60 46 61 47 65 48 62 49 64 50 63 51 50 52 51 53 55 54 52 55
REMARK SMILES IDX 54 56 53 57 7 58 8 59 9 60 10 61 11 62 12 64 13 65 14 66
REMARK SMILES IDX 28 67 15 68 27 69 16 70 17 72 18 73 26 74 19 75 21 76 20 77
REMARK SMILES IDX 22 78 25 79 23 80 24 81
REMARK H PARENT 3 7 70 25 48 36 10 63 16 71
REMARK Flexibility Score: inf
ROOT
ATOM      1  C   UNL     1       3.347  -0.534   4.083  1.00  0.00     0.002 C 
ENDROOT
BRANCH   1   2
ATOM      2  C   UNL     1       4.145   0.017   2.899  1.00  0.00     0.021 C 
BRANCH   2   3
ATOM      3  C   UNL     1       3.988  -0.715   1.564  1.00  0.00     0.116 C 
BRANCH   3   4
ATOM      4  N   UNL     1       2.623  -0.731   1.076  1.00  0.00    -0.352 N 
ATOM      5  O   UNL     1       0.829  -0.214  -0.160  1.00  0.00    -0.269 OA
ATOM      6  C   UNL     1       2.052  -0.172  -0.039  1.00  0.00     0.251 C 
ATOM      7  H   UNL     1       1.995  -1.231   1.646  1.00  0.00     0.163 HD
BRANCH   6   8
ATOM      8  C   UNL     1       2.852   0.492  -1.097  1.00  0.00     0.039 A 
ATOM      9  C   UNL     1       4.025  -0.062  -1.619  1.00  0.00     0.014 A 
ATOM     10  C   UNL     1       2.330   1.658  -1.673  1.00  0.00     0.014 A 
ATOM     11  C   UNL     1       4.706   0.581  -2.661  1.00  0.00     0.010 A 
ATOM     12  C   UNL     1       2.986   2.276  -2.743  1.00  0.00     0.010 A 
ATOM     13  C   UNL     1       4.186   1.749  -3.242  1.00  0.00    -0.014 A 
BRANCH  13  14
ATOM     14  C   UNL     1       4.839   2.384  -4.418  1.00  0.00     0.031 A 
ATOM     15  C   UNL     1       5.472   3.743  -4.311  1.00  0.00     0.074 A 
ATOM     16  C   UNL     1       4.798   1.764  -5.613  1.00  0.00     0.049 A 
ATOM     17  N   UNL     1       6.011   4.479  -5.252  1.00  0.00    -0.248 NA
ATOM     18  C   UNL     1       5.492   4.360  -2.977  1.00  0.00     0.031 C 
ATOM     19  C   UNL     1       4.191   0.457  -5.866  1.00  0.00     0.029 A 
ATOM     20  N   UNL     1       5.257   2.164  -6.845  1.00  0.00    -0.354 N 
ATOM     21  C   UNL     1       6.416   5.653  -4.630  1.00  0.00     0.074 A 
ATOM     22  C   UNL     1       6.043   5.538  -3.235  1.00  0.00     0.031 C 
ATOM     23  C   UNL     1       4.313   0.163  -7.170  1.00  0.00     0.029 A 
ATOM     24  C   UNL     1       4.967   1.276  -7.851  1.00  0.00     0.049 A 
ATOM     25  H   UNL     1       5.746   3.006  -6.992  1.00  0.00     0.167 HD
ATOM     26  C   UNL     1       7.042   6.728  -5.169  1.00  0.00     0.031 A 
ATOM     27  C   UNL     1       5.173   1.353  -9.180  1.00  0.00     0.031 A 
ATOM     28  C   UNL     1       7.410   6.850  -6.555  1.00  0.00     0.049 A 
ATOM     29  C   UNL     1       5.843   2.564  -9.760  1.00  0.00     0.074 A 
ATOM     30  C   UNL     1       8.101   7.878  -7.176  1.00  0.00     0.029 A 
ATOM     31  N   UNL     1       7.104   5.924  -7.539  1.00  0.00    -0.354 N 
ATOM     32  N   UNL     1       6.279   3.637  -9.147  1.00  0.00    -0.248 NA
ATOM     33  C   UNL     1       6.053   2.574 -11.216  1.00  0.00     0.031 C 
ATOM     34  C   UNL     1       8.171   7.595  -8.544  1.00  0.00     0.029 A 
ATOM     35  C   UNL     1       7.565   6.370  -8.767  1.00  0.00     0.049 A 
ATOM     36  H   UNL     1       6.630   5.074  -7.388  1.00  0.00     0.167 HD
ATOM     37  C   UNL     1       6.828   4.441 -10.136  1.00  0.00     0.074 A 
ATOM     38  C   UNL     1       6.680   3.730 -11.389  1.00  0.00     0.031 C 
ATOM     39  C   UNL     1       7.407   5.660 -10.010  1.00  0.00     0.031 A 
BRANCH  26  40
ATOM     40  C   UNL     1       7.344   7.880  -4.252  1.00  0.00    -0.014 A 
ATOM     41  C   UNL     1       8.365   7.799  -3.292  1.00  0.00     0.009 A 
ATOM     42  C   UNL     1       6.617   9.074  -4.373  1.00  0.00     0.009 A 
ATOM     43  C   UNL     1       8.626   8.880  -2.446  1.00  0.00     0.001 A 
ATOM     44  C   UNL     1       6.895  10.161  -3.542  1.00  0.00     0.001 A 
ATOM     45  C   UNL     1       7.892  10.059  -2.573  1.00  0.00     0.000 A 
ENDBRANCH  26  40
BRANCH  27  46
ATOM     46  C   UNL     1       4.716   0.242 -10.050  1.00  0.00    -0.014 A 
ATOM     47  C   UNL     1       5.636  -0.667 -10.591  1.00  0.00     0.009 A 
ATOM     48  C   UNL     1       3.347   0.060 -10.305  1.00  0.00     0.009 A 
ATOM     49  C   UNL     1       5.195  -1.735 -11.376  1.00  0.00     0.001 A 
ATOM     50  C   UNL     1       2.907  -1.021 -11.071  1.00  0.00     0.001 A 
ATOM     51  C   UNL     1       3.831  -1.915 -11.608  1.00  0.00     0.000 A 
ENDBRANCH  27  46
BRANCH  39  52
ATOM     52  C   UNL     1       7.946   6.299 -11.257  1.00  0.00    -0.014 A 
ATOM     53  C   UNL     1       7.090   6.898 -12.193  1.00  0.00     0.009 A 
ATOM     54  C   UNL     1       9.333   6.350 -11.470  1.00  0.00     0.009 A 
ATOM     55  C   UNL     1       7.613   7.521 -13.329  1.00  0.00     0.001 A 
ATOM     56  C   UNL     1       9.853   6.990 -12.595  1.00  0.00     0.001 A 
ATOM     57  C   UNL     1       8.993   7.571 -13.526  1.00  0.00     0.000 A 
ENDBRANCH  39  52
ENDBRANCH  13  14
ENDBRANCH   6   8
ENDBRANCH   3   4
ENDBRANCH   2   3
ENDBRANCH   1   2
BRANCH   1  58
ATOM     58  C   UNL     1       3.643  -1.972   4.519  1.00  0.00     0.002 C 
BRANCH  58  59
ATOM     59  C   UNL     1       5.048  -2.294   5.051  1.00  0.00     0.021 C 
BRANCH  59  60
ATOM     60  C   UNL     1       5.611  -1.349   6.127  1.00  0.00     0.116 C 
BRANCH  60  61
ATOM     61  N   UNL     1       6.144  -2.068   7.277  1.00  0.00    -0.356 N 
ATOM     62  C   UNL     1       7.346  -2.242   7.867  1.00  0.00     0.223 C 
ATOM     63  H   UNL     1       5.436  -2.562   7.751  1.00  0.00     0.163 HD
ATOM     64  O   UNL     1       7.297  -2.809   8.969  1.00  0.00    -0.275 OA
BRANCH  62  65
ATOM     65  C   UNL     1       8.725  -1.901   7.293  1.00  0.00     0.089 C 
ATOM     66  C   UNL     1       9.082  -0.437   7.038  1.00  0.00     0.075 C 
ATOM     67  C   UNL     1       9.127  -2.829   6.160  1.00  0.00     0.075 C 
ATOM     68  C   UNL     1       9.104   0.024   5.572  1.00  0.00     0.263 C 
ATOM     69  C   UNL     1       8.805  -2.222   4.812  1.00  0.00     0.263 C 
ATOM     70  N   UNL     1       9.556  -0.993   4.595  1.00  0.00    -0.332 N 
ATOM     71  H   UNL     1      10.536  -1.236   4.738  1.00  0.00     0.348 HD
BRANCH  70  72
ATOM     72  C   UNL     1       9.538  -0.449   3.204  1.00  0.00     0.189 C 
ATOM     73  C   UNL     1       8.157  -0.227   2.580  1.00  0.00     0.093 C 
ATOM     74  C   UNL     1      10.440  -1.162   2.160  1.00  0.00     0.103 C 
ATOM     75  C   UNL     1       7.596  -1.492   1.966  1.00  0.00     0.167 C 
ATOM     76  C   UNL     1       9.791  -2.293   1.324  1.00  0.00     0.099 C 
ATOM     77  O   UNL     1       8.438  -2.013   0.961  1.00  0.00    -0.372 OA
ATOM     78  C   UNL     1      10.012  -3.673   1.950  1.00  0.00     0.066 C 
ATOM     79  C   UNL     1      10.502  -2.484  -0.026  1.00  0.00     0.195 C 
ATOM     80  C   UNL     1      11.088  -4.353   1.117  1.00  0.00     0.163 C 
ATOM     81  O   UNL     1      11.585  -3.380   0.201  1.00  0.00    -0.378 OA
ENDBRANCH  70  72
ENDBRANCH  62  65
ENDBRANCH  60  61
ENDBRANCH  59  60
ENDBRANCH  58  59
ENDBRANCH   1  58
TORSDOF 14
