REMARK SMILES O=C(NCCCCCCNC(=O)c1ccc(-c2c3nc(c(-c4ccccc4)c4ccc([nH]4)c(-c4ccccc4)c4nc(c(-c5ccccc5)c5ccc2[nH]5)C=C4)C=C3)cc1)C1=Cc2cc(Cl)ccc2O[C@@H]1C(F)(F)F
REMARK SMILES IDX 7 1 6 2 5 3 4 4 3 5 1 6 2 7 61 9 62 10 71 11 63 12 70 13
REMARK SMILES IDX 64 14 69 15 65 16 68 17 66 18 67 19 72 20 73 21 74 22 75 23
REMARK SMILES IDX 8 24 9 25 10 26 11 27 12 29 13 30 14 31 60 32 15 33 59 34
REMARK SMILES IDX 16 35 17 36 18 37 53 38 19 39 58 40 52 41 54 42 20 43 57 44
REMARK SMILES IDX 51 45 50 46 21 48 43 49 28 50 42 51 29 52 32 53 41 54 55 55
REMARK SMILES IDX 30 56 31 57 40 59 56 60 33 61 22 62 23 63 27 64 24 65 26 66
REMARK SMILES IDX 25 67 44 68 45 69 49 70 46 71 48 72 47 73 34 74 35 75 39 76
REMARK SMILES IDX 36 77 38 78 37 79
REMARK H PARENT 3 8 10 28 54 47 32 58
REMARK Flexibility Score: inf
ROOT
ATOM      1  C   UNL     1       4.494   2.850  -3.809  1.00  0.00     0.002 C 
ENDROOT
BRANCH   1   2
ATOM      2  C   UNL     1       3.800   1.556  -4.251  1.00  0.00     0.002 C 
BRANCH   2   3
ATOM      3  C   UNL     1       4.125   0.296  -3.453  1.00  0.00     0.021 C 
BRANCH   3   4
ATOM      4  C   UNL     1       3.855   0.359  -1.954  1.00  0.00     0.116 C 
BRANCH   4   5
ATOM      5  N   UNL     1       2.560  -0.135  -1.526  1.00  0.00    -0.352 N 
ATOM      6  O   UNL     1       0.978  -0.837  -0.098  1.00  0.00    -0.270 OA
ATOM      7  C   UNL     1       2.170  -0.616  -0.306  1.00  0.00     0.251 C 
ATOM      8  H   UNL     1       1.857  -0.122  -2.216  1.00  0.00     0.163 HD
BRANCH   7   9
ATOM      9  C   UNL     1       3.125  -0.804   0.828  1.00  0.00     0.067 C 
ATOM     10  C   UNL     1       4.341  -1.359   0.670  1.00  0.00     0.025 C 
ATOM     11  C   UNL     1       2.929   0.212   1.933  1.00  0.00     0.314 C 
ATOM     12  C   UNL     1       5.405  -0.321   0.756  1.00  0.00     0.019 A 
ATOM     13  O   UNL     1       3.907   1.285   1.834  1.00  0.00    -0.475 OA
ATOM     14  C   UNL     1       6.613  -0.555   0.086  1.00  0.00     0.032 A 
ATOM     15  C   UNL     1       5.098   0.966   1.230  1.00  0.00     0.128 A 
ATOM     16  C   UNL     1       7.451   0.521  -0.199  1.00  0.00     0.041 A 
ATOM     17  C   UNL     1       5.965   2.026   0.974  1.00  0.00     0.048 A 
ATOM     18  Cl  UNL     1       8.828   0.280  -1.203  1.00  0.00    -0.084 Cl
ATOM     19  C   UNL     1       7.128   1.809   0.232  1.00  0.00     0.024 A 
BRANCH  11  20
ATOM     20  C   UNL     1       2.935  -0.421   3.334  1.00  0.00     0.429 C 
ATOM     21  F   UNL     1       2.605   0.485   4.284  1.00  0.00    -0.167 F 
ATOM     22  F   UNL     1       2.043  -1.436   3.429  1.00  0.00    -0.167 F 
ATOM     23  F   UNL     1       4.147  -0.927   3.667  1.00  0.00    -0.167 F 
ENDBRANCH  11  20
ENDBRANCH   7   9
ENDBRANCH   4   5
ENDBRANCH   3   4
ENDBRANCH   2   3
ENDBRANCH   1   2
BRANCH   1  24
ATOM     24  C   UNL     1       6.013   2.796  -3.625  1.00  0.00     0.021 C 
BRANCH  24  25
ATOM     25  C   UNL     1       6.822   2.304  -4.822  1.00  0.00     0.116 C 
BRANCH  25  26
ATOM     26  N   UNL     1       6.621   3.113  -6.012  1.00  0.00    -0.352 N 
ATOM     27  C   UNL     1       7.528   3.753  -6.821  1.00  0.00     0.251 C 
ATOM     28  H   UNL     1       5.681   3.220  -6.283  1.00  0.00     0.163 HD
ATOM     29  O   UNL     1       7.126   4.509  -7.700  1.00  0.00    -0.269 OA
BRANCH  27  30
ATOM     30  C   UNL     1       8.986   3.563  -6.634  1.00  0.00     0.039 A 
ATOM     31  C   UNL     1       9.825   4.674  -6.771  1.00  0.00     0.014 A 
ATOM     32  C   UNL     1       9.537   2.307  -6.372  1.00  0.00     0.014 A 
ATOM     33  C   UNL     1      11.204   4.535  -6.589  1.00  0.00     0.010 A 
ATOM     34  C   UNL     1      10.902   2.183  -6.114  1.00  0.00     0.010 A 
ATOM     35  C   UNL     1      11.752   3.294  -6.227  1.00  0.00    -0.014 A 
BRANCH  35  36
ATOM     36  C   UNL     1      13.210   3.144  -5.976  1.00  0.00     0.031 A 
ATOM     37  C   UNL     1      14.046   2.248  -6.851  1.00  0.00     0.074 A 
ATOM     38  C   UNL     1      13.777   3.780  -4.932  1.00  0.00     0.049 A 
ATOM     39  N   UNL     1      15.320   1.958  -6.758  1.00  0.00    -0.248 NA
ATOM     40  C   UNL     1      13.357   1.575  -7.963  1.00  0.00     0.031 C 
ATOM     41  C   UNL     1      13.075   4.649  -3.985  1.00  0.00     0.029 A 
ATOM     42  N   UNL     1      15.077   3.790  -4.488  1.00  0.00    -0.354 N 
ATOM     43  C   UNL     1      15.581   1.065  -7.790  1.00  0.00     0.074 A 
ATOM     44  C   UNL     1      14.323   0.817  -8.461  1.00  0.00     0.031 C 
ATOM     45  C   UNL     1      13.954   5.125  -3.089  1.00  0.00     0.029 A 
ATOM     46  C   UNL     1      15.272   4.564  -3.369  1.00  0.00     0.049 A 
ATOM     47  H   UNL     1      15.801   3.290  -4.930  1.00  0.00     0.167 HD
ATOM     48  C   UNL     1      16.763   0.519  -8.164  1.00  0.00     0.031 A 
ATOM     49  C   UNL     1      16.383   4.788  -2.642  1.00  0.00     0.031 A 
ATOM     50  C   UNL     1      18.015   0.764  -7.500  1.00  0.00     0.049 A 
ATOM     51  C   UNL     1      17.677   4.146  -3.060  1.00  0.00     0.074 A 
ATOM     52  C   UNL     1      19.272   0.285  -7.825  1.00  0.00     0.029 A 
ATOM     53  N   UNL     1      18.168   1.556  -6.372  1.00  0.00    -0.354 N 
ATOM     54  N   UNL     1      17.916   3.352  -4.075  1.00  0.00    -0.248 NA
ATOM     55  C   UNL     1      18.859   4.444  -2.237  1.00  0.00     0.031 C 
ATOM     56  C   UNL     1      20.177   0.744  -6.863  1.00  0.00     0.029 A 
ATOM     57  C   UNL     1      19.495   1.562  -5.977  1.00  0.00     0.049 A 
ATOM     58  H   UNL     1      17.442   2.043  -5.920  1.00  0.00     0.167 HD
ATOM     59  C   UNL     1      19.277   3.078  -4.030  1.00  0.00     0.074 A 
ATOM     60  C   UNL     1      19.814   3.808  -2.900  1.00  0.00     0.031 C 
ATOM     61  C   UNL     1      20.016   2.292  -4.851  1.00  0.00     0.031 A 
BRANCH  48  62
ATOM     62  C   UNL     1      16.755  -0.403  -9.353  1.00  0.00    -0.014 A 
ATOM     63  C   UNL     1      16.523   0.086 -10.650  1.00  0.00     0.009 A 
ATOM     64  C   UNL     1      17.023  -1.770  -9.184  1.00  0.00     0.009 A 
ATOM     65  C   UNL     1      16.524  -0.780 -11.745  1.00  0.00     0.001 A 
ATOM     66  C   UNL     1      17.054  -2.629 -10.284  1.00  0.00     0.001 A 
ATOM     67  C   UNL     1      16.795  -2.136 -11.562  1.00  0.00     0.000 A 
ENDBRANCH  48  62
BRANCH  49  68
ATOM     68  C   UNL     1      16.324   5.660  -1.438  1.00  0.00    -0.014 A 
ATOM     69  C   UNL     1      16.968   6.906  -1.422  1.00  0.00     0.009 A 
ATOM     70  C   UNL     1      15.634   5.240  -0.289  1.00  0.00     0.009 A 
ATOM     71  C   UNL     1      16.952   7.697  -0.270  1.00  0.00     0.001 A 
ATOM     72  C   UNL     1      15.591   6.048   0.849  1.00  0.00     0.001 A 
ATOM     73  C   UNL     1      16.260   7.270   0.862  1.00  0.00     0.000 A 
ENDBRANCH  49  68
BRANCH  61  74
ATOM     74  C   UNL     1      21.493   2.211  -4.581  1.00  0.00    -0.014 A 
ATOM     75  C   UNL     1      21.997   1.527  -3.464  1.00  0.00     0.009 A 
ATOM     76  C   UNL     1      22.396   2.797  -5.483  1.00  0.00     0.009 A 
ATOM     77  C   UNL     1      23.374   1.462  -3.238  1.00  0.00     0.001 A 
ATOM     78  C   UNL     1      23.772   2.702  -5.272  1.00  0.00     0.001 A 
ATOM     79  C   UNL     1      24.259   2.045  -4.144  1.00  0.00     0.000 A 
ENDBRANCH  61  74
ENDBRANCH  35  36
ENDBRANCH  27  30
ENDBRANCH  25  26
ENDBRANCH  24  25
ENDBRANCH   1  24
TORSDOF 14
