REMARK SMILES CNC(=O)NC1=[NH+]N=CN[C@@H]1C(=O)NCCCCCCNC(=O)c1ccc(-c2c3nc(c(-c4ccccc4)c4ccc([nH]4)c(-c4ccccc4)c4nc(c(-c5ccccc5)c5ccc2[nH]5)C=C4)C=C3)cc1
REMARK SMILES IDX 18 1 17 2 16 3 15 4 14 5 12 6 13 7 11 9 1 10 2 11 3 12 4 14
REMARK SMILES IDX 5 15 6 16 7 18 8 19 10 21 9 22 19 24 20 25 21 26 22 27 23 29
REMARK SMILES IDX 24 30 25 31 71 32 26 33 70 34 27 35 28 36 29 37 64 38 30 39
REMARK SMILES IDX 69 40 63 41 65 42 31 43 68 44 62 45 61 46 32 48 54 49 39 50
REMARK SMILES IDX 53 51 40 52 43 53 52 54 66 55 41 56 42 57 51 59 67 60 44 61
REMARK SMILES IDX 33 62 34 63 38 64 35 65 37 66 36 67 55 68 56 69 60 70 57 71
REMARK SMILES IDX 59 72 58 73 45 74 46 75 50 76 47 77 49 78 48 79
REMARK H PARENT 14 8 2 13 5 17 7 20 10 23 21 28 65 47 43 58
REMARK Flexibility Score: inf
ROOT
ATOM      1  C   UNL     1      -4.283  -6.101  -0.482  1.00  0.00     0.002 C 
ENDROOT
BRANCH   1   2
ATOM      2  C   UNL     1      -3.579  -5.547   0.761  1.00  0.00     0.002 C 
BRANCH   2   3
ATOM      3  C   UNL     1      -2.142  -5.070   0.525  1.00  0.00     0.021 C 
BRANCH   3   4
ATOM      4  C   UNL     1      -2.024  -4.022  -0.580  1.00  0.00     0.116 C 
BRANCH   4   5
ATOM      5  N   UNL     1      -2.570  -2.750  -0.155  1.00  0.00    -0.354 N 
ATOM      6  C   UNL     1      -1.939  -1.613   0.252  1.00  0.00     0.255 C 
ATOM      7  O   UNL     1      -2.659  -0.710   0.694  1.00  0.00    -0.272 OA
ATOM      8  H   UNL     1      -3.553  -2.699  -0.160  1.00  0.00     0.163 HD
BRANCH   6   9
ATOM      9  C   UNL     1      -0.411  -1.438   0.218  1.00  0.00     0.287 C 
ATOM     10  C   UNL     1       1.808   0.970  -0.281  1.00  0.00     0.147 C 
ATOM     11  N   UNL     1       0.567   1.445  -0.868  1.00  0.00    -0.321 N 
ATOM     12  C   UNL     1      -0.222   0.850  -1.805  1.00  0.00     0.406 C 
ATOM     13  H   UNL     1       0.252   2.320  -0.543  1.00  0.00     0.167 HD
ATOM     14  O   UNL     1      -1.049   1.510  -2.425  1.00  0.00    -0.221 OA
ATOM     15  N   UNL     1      -0.017  -0.473  -2.067  1.00  0.00    -0.191 N 
ATOM     16  C   UNL     1       0.182  -1.505  -1.188  1.00  0.00     0.309 C 
ATOM     17  H   UNL     1      -0.011  -0.720  -3.020  1.00  0.00     0.317 HD
ATOM     18  N   UNL     1       0.937  -2.467  -1.628  1.00  0.00    -0.148 N 
ATOM     19  N   UNL     1       1.416  -3.429  -0.714  1.00  0.00    -0.077 NA
ATOM     20  H   UNL     1       1.171  -2.522  -2.582  1.00  0.00     0.342 HD
ATOM     21  N   UNL     1       0.258  -2.396   1.083  1.00  0.00    -0.352 N 
ATOM     22  C   UNL     1       1.096  -3.309   0.533  1.00  0.00     0.241 C 
ATOM     23  H   UNL     1       0.105  -2.382   2.056  1.00  0.00     0.163 HD
ENDBRANCH   6   9
ENDBRANCH   4   5
ENDBRANCH   3   4
ENDBRANCH   2   3
ENDBRANCH   1   2
BRANCH   1  24
ATOM     24  C   UNL     1      -3.528  -7.221  -1.203  1.00  0.00     0.021 C 
BRANCH  24  25
ATOM     25  C   UNL     1      -3.249  -8.445  -0.337  1.00  0.00     0.116 C 
BRANCH  25  26
ATOM     26  N   UNL     1      -4.479  -9.061   0.136  1.00  0.00    -0.352 N 
ATOM     27  C   UNL     1      -4.924 -10.348  -0.026  1.00  0.00     0.251 C 
ATOM     28  H   UNL     1      -5.079  -8.469   0.645  1.00  0.00     0.163 HD
ATOM     29  O   UNL     1      -6.085 -10.641   0.233  1.00  0.00    -0.269 OA
BRANCH  27  30
ATOM     30  C   UNL     1      -3.995 -11.379  -0.528  1.00  0.00     0.039 A 
ATOM     31  C   UNL     1      -4.429 -12.253  -1.527  1.00  0.00     0.014 A 
ATOM     32  C   UNL     1      -2.700 -11.481  -0.011  1.00  0.00     0.014 A 
ATOM     33  C   UNL     1      -3.540 -13.191  -2.054  1.00  0.00     0.010 A 
ATOM     34  C   UNL     1      -1.796 -12.367  -0.585  1.00  0.00     0.010 A 
ATOM     35  C   UNL     1      -2.207 -13.229  -1.612  1.00  0.00    -0.014 A 
BRANCH  35  36
ATOM     36  C   UNL     1      -1.221 -14.147  -2.232  1.00  0.00     0.031 A 
ATOM     37  C   UNL     1      -0.591 -15.246  -1.425  1.00  0.00     0.074 A 
ATOM     38  C   UNL     1      -0.846 -13.944  -3.509  1.00  0.00     0.049 A 
ATOM     39  N   UNL     1       0.316 -16.118  -1.786  1.00  0.00    -0.248 NA
ATOM     40  C   UNL     1      -1.016 -15.367  -0.021  1.00  0.00     0.031 C 
ATOM     41  C   UNL     1      -1.357 -12.887  -4.385  1.00  0.00     0.029 A 
ATOM     42  N   UNL     1       0.057 -14.617  -4.293  1.00  0.00    -0.354 N 
ATOM     43  C   UNL     1       0.582 -16.877  -0.654  1.00  0.00     0.074 A 
ATOM     44  C   UNL     1      -0.224 -16.334   0.418  1.00  0.00     0.031 C 
ATOM     45  C   UNL     1      -0.788 -13.006  -5.595  1.00  0.00     0.029 A 
ATOM     46  C   UNL     1       0.159 -14.115  -5.567  1.00  0.00     0.049 A 
ATOM     47  H   UNL     1       0.581 -15.386  -3.973  1.00  0.00     0.167 HD
ATOM     48  C   UNL     1       1.412 -17.939  -0.522  1.00  0.00     0.031 A 
ATOM     49  C   UNL     1       0.934 -14.501  -6.598  1.00  0.00     0.031 A 
ATOM     50  C   UNL     1       2.209 -18.478  -1.592  1.00  0.00     0.049 A 
ATOM     51  C   UNL     1       1.869 -15.662  -6.417  1.00  0.00     0.074 A 
ATOM     52  C   UNL     1       3.026 -19.595  -1.580  1.00  0.00     0.029 A 
ATOM     53  N   UNL     1       2.301 -17.929  -2.862  1.00  0.00    -0.354 N 
ATOM     54  N   UNL     1       2.047 -16.424  -5.364  1.00  0.00    -0.248 NA
ATOM     55  C   UNL     1       2.708 -16.020  -7.569  1.00  0.00     0.031 C 
ATOM     56  C   UNL     1       3.662 -19.685  -2.822  1.00  0.00     0.029 A 
ATOM     57  C   UNL     1       3.193 -18.661  -3.629  1.00  0.00     0.049 A 
ATOM     58  H   UNL     1       1.805 -17.137  -3.173  1.00  0.00     0.167 HD
ATOM     59  C   UNL     1       3.000 -17.363  -5.734  1.00  0.00     0.074 A 
ATOM     60  C   UNL     1       3.347 -17.088  -7.113  1.00  0.00     0.031 C 
ATOM     61  C   UNL     1       3.538 -18.366  -4.997  1.00  0.00     0.031 A 
BRANCH  48  62
ATOM     62  C   UNL     1       1.514 -18.574   0.838  1.00  0.00    -0.014 A 
ATOM     63  C   UNL     1       0.443 -19.290   1.395  1.00  0.00     0.009 A 
ATOM     64  C   UNL     1       2.713 -18.477   1.561  1.00  0.00     0.009 A 
ATOM     65  C   UNL     1       0.556 -19.860   2.665  1.00  0.00     0.001 A 
ATOM     66  C   UNL     1       2.834 -19.074   2.818  1.00  0.00     0.001 A 
ATOM     67  C   UNL     1       1.752 -19.755   3.373  1.00  0.00     0.000 A 
ENDBRANCH  48  62
BRANCH  49  68
ATOM     68  C   UNL     1       0.843 -13.793  -7.901  1.00  0.00    -0.014 A 
ATOM     69  C   UNL     1       0.270 -14.428  -9.013  1.00  0.00     0.009 A 
ATOM     70  C   UNL     1       1.320 -12.480  -8.040  1.00  0.00     0.009 A 
ATOM     71  C   UNL     1       0.196 -13.770 -10.243  1.00  0.00     0.001 A 
ATOM     72  C   UNL     1       1.218 -11.815  -9.264  1.00  0.00     0.001 A 
ATOM     73  C   UNL     1       0.664 -12.463 -10.366  1.00  0.00     0.000 A 
ENDBRANCH  49  68
BRANCH  61  74
ATOM     74  C   UNL     1       4.547 -19.250  -5.675  1.00  0.00    -0.014 A 
ATOM     75  C   UNL     1       5.834 -18.783  -5.983  1.00  0.00     0.009 A 
ATOM     76  C   UNL     1       4.215 -20.580  -5.976  1.00  0.00     0.009 A 
ATOM     77  C   UNL     1       6.758 -19.622  -6.608  1.00  0.00     0.001 A 
ATOM     78  C   UNL     1       5.151 -21.426  -6.573  1.00  0.00     0.001 A 
ATOM     79  C   UNL     1       6.418 -20.944  -6.897  1.00  0.00     0.000 A 
ENDBRANCH  61  74
ENDBRANCH  35  36
ENDBRANCH  27  30
ENDBRANCH  25  26
ENDBRANCH  24  25
ENDBRANCH   1  24
TORSDOF 13
