REMARK SMILES COC(=O)C[C@H](c1ccc(C(=O)NCCCCCCNC(=O)c2ccc(-c3c4nc(c(-c5ccccc5)c5ccc([nH]5)c(-c5ccccc5)c5nc(c(-c6ccccc6)c6ccc3[nH]6)C=C5)C=C4)cc2)cc1)c1c(O)n[nH]c1C
REMARK SMILES IDX 15 1 14 2 13 3 11 4 12 5 10 7 7 8 8 9 72 10 9 11 71 12 6 13
REMARK SMILES IDX 5 14 3 15 4 16 2 17 1 18 73 19 74 20 78 21 76 22 77 23 79 24
REMARK SMILES IDX 75 26 16 28 17 29 18 30 19 31 20 32 21 33 22 35 23 36 24 37
REMARK SMILES IDX 70 38 25 39 69 40 26 41 27 42 28 43 63 44 29 45 68 46 62 47
REMARK SMILES IDX 64 48 30 49 67 50 61 51 60 52 31 54 53 55 38 56 52 57 39 58
REMARK SMILES IDX 42 59 51 60 65 61 40 62 41 63 50 65 66 66 43 67 32 68 33 69
REMARK SMILES IDX 37 70 34 71 36 72 35 73 54 74 55 75 59 76 56 77 58 78 57 79
REMARK SMILES IDX 44 80 45 81 49 82 46 83 48 84 47 85
REMARK H PARENT 13 6 77 25 75 27 20 34 64 53 42 64
REMARK Flexibility Score: inf
ROOT
ATOM      1  C   UNL     1       2.031  -0.458   6.213  1.00  0.00     0.021 C 
ENDROOT
BRANCH   1   2
ATOM      2  C   UNL     1       1.181  -0.756   4.978  1.00  0.00     0.116 C 
BRANCH   2   3
ATOM      3  N   UNL     1      -0.217  -0.496   5.263  1.00  0.00    -0.352 N 
ATOM      4  C   UNL     1      -1.054   0.500   4.835  1.00  0.00     0.251 C 
ATOM      5  O   UNL     1      -2.225   0.489   5.209  1.00  0.00    -0.269 OA
ATOM      6  H   UNL     1      -0.636  -1.148   5.870  1.00  0.00     0.163 HD
BRANCH   4   7
ATOM      7  C   UNL     1      -0.604   1.533   3.873  1.00  0.00     0.039 A 
ATOM      8  C   UNL     1       0.154   3.391   1.891  1.00  0.00    -0.040 A 
ATOM      9  C   UNL     1      -1.105   2.768   1.853  1.00  0.00     0.005 A 
ATOM     10  C   UNL     1       1.000   3.112   2.978  1.00  0.00     0.005 A 
ATOM     11  C   UNL     1      -1.479   1.850   2.833  1.00  0.00     0.014 A 
ATOM     12  C   UNL     1       0.617   2.205   3.971  1.00  0.00     0.014 A 
BRANCH   8  13
ATOM     13  C   UNL     1       0.630   4.318   0.780  1.00  0.00     0.068 C 
BRANCH  13  14
ATOM     14  C   UNL     1       0.151   3.948  -0.629  1.00  0.00     0.136 C 
BRANCH  14  15
ATOM     15  C   UNL     1       0.534   2.535  -0.996  1.00  0.00     0.306 C 
ATOM     16  O   UNL     1      -0.255   1.706  -1.429  1.00  0.00    -0.252 OA
BRANCH  15  17
ATOM     17  O   UNL     1       1.869   2.327  -0.825  1.00  0.00    -0.469 OA
ATOM     18  C   UNL     1       2.286   0.985  -1.082  1.00  0.00     0.282 C 
ENDBRANCH  15  17
ENDBRANCH  14  15
ENDBRANCH  13  14
BRANCH  13  19
ATOM     19  C   UNL     1       0.273   5.732   1.157  1.00  0.00     0.044 A 
ATOM     20  C   UNL     1      -0.811   6.264   1.880  1.00  0.00     0.234 A 
ATOM     21  C   UNL     1       0.979   6.880   0.805  1.00  0.00     0.040 A 
ATOM     22  N   UNL     1      -0.804   7.580   2.021  1.00  0.00    -0.137 NA
ATOM     23  N   UNL     1       0.304   7.939   1.357  1.00  0.00    -0.279 N 
ATOM     24  C   UNL     1       2.208   7.074  -0.001  1.00  0.00     0.066 C 
ATOM     25  H   UNL     1       0.604   8.873   1.273  1.00  0.00     0.190 HD
BRANCH  20  26
ATOM     26  O   UNL     1      -1.853   5.665   2.446  1.00  0.00    -0.492 OA
ATOM     27  H   UNL     1      -1.941   4.733   2.397  1.00  0.00     0.295 HD
ENDBRANCH  20  26
ENDBRANCH  13  19
ENDBRANCH   8  13
ENDBRANCH   4   7
ENDBRANCH   2   3
ENDBRANCH   1   2
BRANCH   1  28
ATOM     28  C   UNL     1       1.889  -1.515   7.317  1.00  0.00     0.002 C 
BRANCH  28  29
ATOM     29  C   UNL     1       2.398  -2.910   6.939  1.00  0.00     0.002 C 
BRANCH  29  30
ATOM     30  C   UNL     1       3.860  -2.965   6.483  1.00  0.00     0.021 C 
BRANCH  30  31
ATOM     31  C   UNL     1       4.867  -2.445   7.505  1.00  0.00     0.116 C 
BRANCH  31  32
ATOM     32  N   UNL     1       4.855  -3.232   8.726  1.00  0.00    -0.352 N 
ATOM     33  C   UNL     1       5.892  -3.824   9.398  1.00  0.00     0.251 C 
ATOM     34  H   UNL     1       3.967  -3.360   9.132  1.00  0.00     0.163 HD
ATOM     35  O   UNL     1       5.657  -4.627  10.297  1.00  0.00    -0.269 OA
BRANCH  33  36
ATOM     36  C   UNL     1       7.293  -3.511   9.044  1.00  0.00     0.039 A 
ATOM     37  C   UNL     1       8.222  -4.555   9.024  1.00  0.00     0.014 A 
ATOM     38  C   UNL     1       7.708  -2.200   8.789  1.00  0.00     0.014 A 
ATOM     39  C   UNL     1       9.556  -4.290   8.714  1.00  0.00     0.010 A 
ATOM     40  C   UNL     1       9.028  -1.945   8.419  1.00  0.00     0.010 A 
ATOM     41  C   UNL     1       9.967  -2.986   8.392  1.00  0.00    -0.014 A 
BRANCH  41  42
ATOM     42  C   UNL     1      11.380  -2.718   8.027  1.00  0.00     0.031 A 
ATOM     43  C   UNL     1      12.264  -1.898   8.924  1.00  0.00     0.074 A 
ATOM     44  C   UNL     1      11.865  -3.209   6.870  1.00  0.00     0.049 A 
ATOM     45  N   UNL     1      13.539  -1.625   8.797  1.00  0.00    -0.248 NA
ATOM     46  C   UNL     1      11.634  -1.287  10.105  1.00  0.00     0.031 C 
ATOM     47  C   UNL     1      11.094  -3.972   5.885  1.00  0.00     0.029 A 
ATOM     48  N   UNL     1      13.126  -3.152   6.335  1.00  0.00    -0.354 N 
ATOM     49  C   UNL     1      13.860  -0.808   9.874  1.00  0.00     0.074 A 
ATOM     50  C   UNL     1      12.637  -0.588  10.616  1.00  0.00     0.031 C 
ATOM     51  C   UNL     1      11.910  -4.348   4.887  1.00  0.00     0.029 A 
ATOM     52  C   UNL     1      13.251  -3.837   5.151  1.00  0.00     0.049 A 
ATOM     53  H   UNL     1      13.871  -2.666   6.759  1.00  0.00     0.167 HD
ATOM     54  C   UNL     1      15.066  -0.303  10.227  1.00  0.00     0.031 A 
ATOM     55  C   UNL     1      14.329  -4.046   4.374  1.00  0.00     0.031 A 
ATOM     56  C   UNL     1      16.285  -0.527   9.496  1.00  0.00     0.049 A 
ATOM     57  C   UNL     1      15.661  -3.501   4.802  1.00  0.00     0.074 A 
ATOM     58  C   UNL     1      17.568  -0.107   9.804  1.00  0.00     0.029 A 
ATOM     59  N   UNL     1      16.371  -1.233   8.306  1.00  0.00    -0.354 N 
ATOM     60  N   UNL     1      15.963  -2.800   5.867  1.00  0.00    -0.248 NA
ATOM     61  C   UNL     1      16.804  -3.797   3.927  1.00  0.00     0.031 C 
ATOM     62  C   UNL     1      18.424  -0.524   8.778  1.00  0.00     0.029 A 
ATOM     63  C   UNL     1      17.681  -1.244   7.856  1.00  0.00     0.049 A 
ATOM     64  H   UNL     1      15.613  -1.663   7.848  1.00  0.00     0.167 HD
ATOM     65  C   UNL     1      17.333  -2.586   5.802  1.00  0.00     0.074 A 
ATOM     66  C   UNL     1      17.805  -3.253   4.605  1.00  0.00     0.031 C 
ATOM     67  C   UNL     1      18.131  -1.898   6.655  1.00  0.00     0.031 A 
BRANCH  54  68
ATOM     68  C   UNL     1      15.121   0.548  11.465  1.00  0.00    -0.014 A 
ATOM     69  C   UNL     1      14.969  -0.017  12.742  1.00  0.00     0.009 A 
ATOM     70  C   UNL     1      15.357   1.928  11.357  1.00  0.00     0.009 A 
ATOM     71  C   UNL     1      15.014   0.788  13.883  1.00  0.00     0.001 A 
ATOM     72  C   UNL     1      15.428   2.726  12.501  1.00  0.00     0.001 A 
ATOM     73  C   UNL     1      15.247   2.157  13.761  1.00  0.00     0.000 A 
ENDBRANCH  54  68
BRANCH  55  74
ATOM     74  C   UNL     1      14.201  -4.849   3.131  1.00  0.00    -0.014 A 
ATOM     75  C   UNL     1      14.728  -6.148   3.068  1.00  0.00     0.009 A 
ATOM     76  C   UNL     1      13.550  -4.323   2.006  1.00  0.00     0.009 A 
ATOM     77  C   UNL     1      14.628  -6.895   1.892  1.00  0.00     0.001 A 
ATOM     78  C   UNL     1      13.429  -5.082   0.840  1.00  0.00     0.001 A 
ATOM     79  C   UNL     1      13.975  -6.363   0.781  1.00  0.00     0.000 A 
ENDBRANCH  55  74
BRANCH  67  80
ATOM     80  C   UNL     1      19.595  -1.849   6.323  1.00  0.00    -0.014 A 
ATOM     81  C   UNL     1      20.070  -1.075   5.252  1.00  0.00     0.009 A 
ATOM     82  C   UNL     1      20.510  -2.580   7.094  1.00  0.00     0.009 A 
ATOM     83  C   UNL     1      21.430  -1.072   4.934  1.00  0.00     0.001 A 
ATOM     84  C   UNL     1      21.872  -2.553   6.791  1.00  0.00     0.001 A 
ATOM     85  C   UNL     1      22.329  -1.808   5.704  1.00  0.00     0.000 A 
ENDBRANCH  67  80
ENDBRANCH  41  42
ENDBRANCH  33  36
ENDBRANCH  31  32
ENDBRANCH  30  31
ENDBRANCH  29  30
ENDBRANCH  28  29
ENDBRANCH   1  28
TORSDOF 19
