REMARK SMILES Cc1cc(C[N@H+]2CC[C@](C)(C(=O)NCCCCCCNC(=O)c3ccc(-c4c5nc(c(-c6ccccc6)c6ccc([nH]6)c(-c6ccccc6)c6nc(c(-c7ccccc7)c7ccc4[nH]7)C=C6)C=C5)cc3)C2)c2ccccc2n1
REMARK SMILES IDX 16 1 15 2 14 3 13 4 11 5 12 6 9 8 6 9 7 10 71 11 8 13 10 14
REMARK SMILES IDX 5 15 4 16 1 17 2 18 3 19 78 20 77 21 72 22 76 23 73 24 75 25
REMARK SMILES IDX 74 26 17 27 18 28 19 29 20 30 21 31 22 33 23 34 24 35 70 36
REMARK SMILES IDX 25 37 69 38 26 39 27 40 28 41 63 42 29 43 68 44 62 45 64 46
REMARK SMILES IDX 30 47 67 48 61 49 60 50 31 52 53 53 38 54 52 55 39 56 42 57
REMARK SMILES IDX 51 58 65 59 40 60 41 61 50 63 66 64 43 65 32 66 33 67 37 68
REMARK SMILES IDX 34 69 36 70 35 71 54 72 55 73 59 74 56 75 58 76 57 77 44 78
REMARK SMILES IDX 45 79 49 80 46 81 48 82 47 83
REMARK H PARENT 13 7 6 12 20 32 64 51 42 62
REMARK Flexibility Score: inf
ROOT
ATOM      1  C   UNL     1       6.803   3.267   0.829  1.00  0.00     0.002 C 
ENDROOT
BRANCH   1   2
ATOM      2  C   UNL     1       5.351   2.848   0.582  1.00  0.00     0.021 C 
BRANCH   2   3
ATOM      3  C   UNL     1       4.722   2.061   1.729  1.00  0.00     0.116 C 
BRANCH   3   4
ATOM      4  N   UNL     1       4.412   2.894   2.881  1.00  0.00    -0.355 N 
ATOM      5  C   UNL     1       3.223   3.186   3.494  1.00  0.00     0.231 C 
ATOM      6  O   UNL     1       3.271   3.869   4.519  1.00  0.00    -0.274 OA
ATOM      7  H   UNL     1       5.197   3.324   3.292  1.00  0.00     0.163 HD
BRANCH   5   8
ATOM      8  C   UNL     1       1.900   2.659   2.935  1.00  0.00     0.100 C 
ATOM      9  N   UNL     1       0.299   3.424   1.285  1.00  0.00    -0.330 N 
ATOM     10  C   UNL     1      -0.424   3.137   2.516  1.00  0.00     0.263 C 
ATOM     11  C   UNL     1       1.716   3.163   1.500  1.00  0.00     0.279 C 
ATOM     12  H   UNL     1       0.169   4.420   1.107  1.00  0.00     0.348 HD
ATOM     13  C   UNL     1       0.653   3.275   3.596  1.00  0.00     0.084 C 
ATOM     14  C   UNL     1       1.829   1.129   3.117  1.00  0.00     0.028 C 
BRANCH   9  15
ATOM     15  C   UNL     1      -0.272   3.002   0.004  1.00  0.00     0.299 C 
BRANCH  15  16
ATOM     16  C   UNL     1      -0.562   1.518  -0.155  1.00  0.00     0.017 A 
ATOM     17  C   UNL     1      -3.562  -0.769   0.214  1.00  0.00     0.067 C 
ATOM     18  C   UNL     1      -2.156  -0.270   0.088  1.00  0.00     0.038 A 
ATOM     19  C   UNL     1      -1.877   1.087   0.071  1.00  0.00     0.033 A 
ATOM     20  N   UNL     1      -1.188  -1.206  -0.004  1.00  0.00    -0.253 NA
ATOM     21  C   UNL     1       0.070  -0.811  -0.252  1.00  0.00     0.071 A 
ATOM     22  C   UNL     1       0.427   0.539  -0.445  1.00  0.00     0.009 A 
ATOM     23  C   UNL     1       1.061  -1.784  -0.315  1.00  0.00     0.029 A 
ATOM     24  C   UNL     1       1.740   0.817  -0.902  1.00  0.00     0.011 A 
ATOM     25  C   UNL     1       2.383  -1.478  -0.641  1.00  0.00     0.002 A 
ATOM     26  C   UNL     1       2.715  -0.176  -0.978  1.00  0.00     0.001 A 
ENDBRANCH  15  16
ENDBRANCH   9  15
ENDBRANCH   5   8
ENDBRANCH   3   4
ENDBRANCH   2   3
ENDBRANCH   1   2
BRANCH   1  27
ATOM     27  C   UNL     1       7.770   2.118   1.141  1.00  0.00     0.002 C 
BRANCH  27  28
ATOM     28  C   UNL     1       7.812   0.995   0.101  1.00  0.00     0.021 C 
BRANCH  28  29
ATOM     29  C   UNL     1       8.235   1.436  -1.297  1.00  0.00     0.116 C 
BRANCH  29  30
ATOM     30  N   UNL     1       9.592   1.959  -1.324  1.00  0.00    -0.352 N 
ATOM     31  C   UNL     1      10.652   1.588  -2.118  1.00  0.00     0.251 C 
ATOM     32  H   UNL     1       9.778   2.682  -0.683  1.00  0.00     0.163 HD
ATOM     33  O   UNL     1      11.777   2.007  -1.892  1.00  0.00    -0.269 OA
BRANCH  31  34
ATOM     34  C   UNL     1      10.421   0.656  -3.243  1.00  0.00     0.039 A 
ATOM     35  C   UNL     1      11.269  -0.444  -3.402  1.00  0.00     0.014 A 
ATOM     36  C   UNL     1       9.363   0.867  -4.128  1.00  0.00     0.014 A 
ATOM     37  C   UNL     1      11.010  -1.376  -4.410  1.00  0.00     0.010 A 
ATOM     38  C   UNL     1       9.068  -0.094  -5.089  1.00  0.00     0.010 A 
ATOM     39  C   UNL     1       9.886  -1.227  -5.237  1.00  0.00    -0.014 A 
BRANCH  39  40
ATOM     40  C   UNL     1       9.529  -2.228  -6.275  1.00  0.00     0.031 A 
ATOM     41  C   UNL     1       9.518  -1.821  -7.723  1.00  0.00     0.074 A 
ATOM     42  C   UNL     1       9.108  -3.455  -5.911  1.00  0.00     0.049 A 
ATOM     43  N   UNL     1       9.061  -2.475  -8.760  1.00  0.00    -0.248 NA
ATOM     44  C   UNL     1      10.066  -0.492  -8.042  1.00  0.00     0.031 C 
ATOM     45  C   UNL     1       9.060  -3.969  -4.540  1.00  0.00     0.029 A 
ATOM     46  N   UNL     1       8.613  -4.489  -6.669  1.00  0.00    -0.354 N 
ATOM     47  C   UNL     1       9.230  -1.623  -9.845  1.00  0.00     0.074 A 
ATOM     48  C   UNL     1       9.807  -0.397  -9.339  1.00  0.00     0.031 C 
ATOM     49  C   UNL     1       8.569  -5.220  -4.556  1.00  0.00     0.029 A 
ATOM     50  C   UNL     1       8.217  -5.577  -5.927  1.00  0.00     0.049 A 
ATOM     51  H   UNL     1       8.549  -4.454  -7.651  1.00  0.00     0.167 HD
ATOM     52  C   UNL     1       8.935  -1.846 -11.146  1.00  0.00     0.031 A 
ATOM     53  C   UNL     1       7.612  -6.720  -6.305  1.00  0.00     0.031 A 
ATOM     54  C   UNL     1       8.393  -3.078 -11.652  1.00  0.00     0.049 A 
ATOM     55  C   UNL     1       7.275  -6.928  -7.757  1.00  0.00     0.074 A 
ATOM     56  C   UNL     1       8.130  -3.424 -12.966  1.00  0.00     0.029 A 
ATOM     57  N   UNL     1       8.033  -4.162 -10.869  1.00  0.00    -0.354 N 
ATOM     58  N   UNL     1       7.500  -6.138  -8.779  1.00  0.00    -0.248 NA
ATOM     59  C   UNL     1       6.604  -8.189  -8.110  1.00  0.00     0.031 C 
ATOM     60  C   UNL     1       7.559  -4.698 -12.973  1.00  0.00     0.029 A 
ATOM     61  C   UNL     1       7.524  -5.168 -11.670  1.00  0.00     0.049 A 
ATOM     62  H   UNL     1       8.126  -4.209  -9.890  1.00  0.00     0.167 HD
ATOM     63  C   UNL     1       7.041  -6.826  -9.896  1.00  0.00     0.074 A 
ATOM     64  C   UNL     1       6.527  -8.095  -9.430  1.00  0.00     0.031 C 
ATOM     65  C   UNL     1       7.050  -6.439 -11.194  1.00  0.00     0.031 A 
BRANCH  52  66
ATOM     66  C   UNL     1       9.178  -0.734 -12.126  1.00  0.00    -0.014 A 
ATOM     67  C   UNL     1      10.477  -0.366 -12.507  1.00  0.00     0.009 A 
ATOM     68  C   UNL     1       8.084  -0.100 -12.738  1.00  0.00     0.009 A 
ATOM     69  C   UNL     1      10.675   0.630 -13.466  1.00  0.00     0.001 A 
ATOM     70  C   UNL     1       8.285   0.875 -13.715  1.00  0.00     0.001 A 
ATOM     71  C   UNL     1       9.580   1.243 -14.075  1.00  0.00     0.000 A 
ENDBRANCH  52  66
BRANCH  53  72
ATOM     72  C   UNL     1       7.266  -7.761  -5.300  1.00  0.00    -0.014 A 
ATOM     73  C   UNL     1       7.917  -9.005  -5.312  1.00  0.00     0.009 A 
ATOM     74  C   UNL     1       6.251  -7.539  -4.356  1.00  0.00     0.009 A 
ATOM     75  C   UNL     1       7.531 -10.017  -4.430  1.00  0.00     0.001 A 
ATOM     76  C   UNL     1       5.891  -8.541  -3.452  1.00  0.00     0.001 A 
ATOM     77  C   UNL     1       6.520  -9.783  -3.499  1.00  0.00     0.000 A 
ENDBRANCH  53  72
BRANCH  65  78
ATOM     78  C   UNL     1       6.562  -7.421 -12.220  1.00  0.00    -0.014 A 
ATOM     79  C   UNL     1       5.197  -7.694 -12.384  1.00  0.00     0.009 A 
ATOM     80  C   UNL     1       7.487  -8.011 -13.098  1.00  0.00     0.009 A 
ATOM     81  C   UNL     1       4.768  -8.554 -13.397  1.00  0.00     0.001 A 
ATOM     82  C   UNL     1       7.053  -8.847 -14.126  1.00  0.00     0.001 A 
ATOM     83  C   UNL     1       5.695  -9.121 -14.272  1.00  0.00     0.000 A 
ENDBRANCH  65  78
ENDBRANCH  39  40
ENDBRANCH  31  34
ENDBRANCH  29  30
ENDBRANCH  28  29
ENDBRANCH  27  28
ENDBRANCH   1  27
TORSDOF 15
