REMARK SMILES O=C(NCCCCCCNC(=O)[C@@H](CO)NC(=O)[C@H]1CCCc2ccccc21)c1ccc(-c2c3nc(c(-c4ccccc4)c4ccc([nH]4)c(-c4ccccc4)c4nc(c(-c5ccccc5)c5ccc2[nH]5)C=C4)C=C3)cc1
REMARK SMILES IDX 6 1 5 2 4 3 3 4 1 5 2 6 29 8 30 9 76 10 31 11 75 12 32 13
REMARK SMILES IDX 33 14 34 15 69 16 35 17 74 18 68 19 70 20 36 21 73 22 67 23
REMARK SMILES IDX 66 24 37 26 59 27 44 28 58 29 45 30 48 31 57 32 71 33 46 34
REMARK SMILES IDX 47 35 56 37 72 38 49 39 38 40 39 41 43 42 40 43 42 44 41 45
REMARK SMILES IDX 60 46 61 47 65 48 62 49 64 50 63 51 50 52 51 53 55 54 52 55
REMARK SMILES IDX 54 56 53 57 7 58 8 59 9 60 10 61 11 62 12 64 13 65 14 66
REMARK SMILES IDX 15 67 16 69 17 70 18 72 19 73 20 74 28 75 21 76 23 77 27 78
REMARK SMILES IDX 22 79 24 80 26 81 25 82
REMARK H PARENT 3 7 70 25 48 36 10 63 15 68 16 71
REMARK Flexibility Score: inf
ROOT
ATOM      1  C   UNL     1      13.045   0.184  -8.868  1.00  0.00     0.002 C 
ENDROOT
BRANCH   1   2
ATOM      2  C   UNL     1      11.972   0.422  -9.930  1.00  0.00     0.021 C 
BRANCH   2   3
ATOM      3  C   UNL     1      11.213   1.736  -9.795  1.00  0.00     0.116 C 
BRANCH   3   4
ATOM      4  N   UNL     1      12.054   2.901 -10.020  1.00  0.00    -0.352 N 
ATOM      5  O   UNL     1      12.726   4.801 -11.045  1.00  0.00    -0.269 OA
ATOM      6  C   UNL     1      11.849   3.960 -10.871  1.00  0.00     0.251 C 
ATOM      7  H   UNL     1      12.883   2.935  -9.490  1.00  0.00     0.163 HD
BRANCH   6   8
ATOM      8  C   UNL     1      10.570   4.063 -11.605  1.00  0.00     0.039 A 
ATOM      9  C   UNL     1       9.354   3.888 -10.940  1.00  0.00     0.014 A 
ATOM     10  C   UNL     1      10.591   4.316 -12.979  1.00  0.00     0.014 A 
ATOM     11  C   UNL     1       8.175   3.813 -11.671  1.00  0.00     0.010 A 
ATOM     12  C   UNL     1       9.393   4.326 -13.700  1.00  0.00     0.010 A 
ATOM     13  C   UNL     1       8.179   4.038 -13.058  1.00  0.00    -0.014 A 
BRANCH  13  14
ATOM     14  C   UNL     1       6.893   4.005 -13.800  1.00  0.00     0.031 A 
ATOM     15  C   UNL     1       6.617   2.954 -14.840  1.00  0.00     0.074 A 
ATOM     16  C   UNL     1       5.949   4.915 -13.495  1.00  0.00     0.049 A 
ATOM     17  N   UNL     1       5.522   2.751 -15.531  1.00  0.00    -0.248 NA
ATOM     18  C   UNL     1       7.705   2.015 -15.152  1.00  0.00     0.031 C 
ATOM     19  C   UNL     1       6.100   5.989 -12.508  1.00  0.00     0.029 A 
ATOM     20  N   UNL     1       4.667   5.066 -13.955  1.00  0.00    -0.354 N 
ATOM     21  C   UNL     1       5.798   1.683 -16.377  1.00  0.00     0.074 A 
ATOM     22  C   UNL     1       7.168   1.291 -16.125  1.00  0.00     0.031 C 
ATOM     23  C   UNL     1       4.936   6.643 -12.390  1.00  0.00     0.029 A 
ATOM     24  C   UNL     1       3.978   6.078 -13.332  1.00  0.00     0.049 A 
ATOM     25  H   UNL     1       4.277   4.504 -14.664  1.00  0.00     0.167 HD
ATOM     26  C   UNL     1       4.983   1.083 -17.278  1.00  0.00     0.031 A 
ATOM     27  C   UNL     1       2.715   6.508 -13.500  1.00  0.00     0.031 A 
ATOM     28  C   UNL     1       3.615   1.465 -17.520  1.00  0.00     0.049 A 
ATOM     29  C   UNL     1       1.840   5.833 -14.512  1.00  0.00     0.074 A 
ATOM     30  C   UNL     1       2.698   0.889 -18.383  1.00  0.00     0.029 A 
ATOM     31  N   UNL     1       2.970   2.523 -16.900  1.00  0.00    -0.354 N 
ATOM     32  N   UNL     1       2.106   4.801 -15.275  1.00  0.00    -0.248 NA
ATOM     33  C   UNL     1       0.489   6.383 -14.685  1.00  0.00     0.031 C 
ATOM     34  C   UNL     1       1.512   1.628 -18.318  1.00  0.00     0.029 A 
ATOM     35  C   UNL     1       1.674   2.632 -17.378  1.00  0.00     0.049 A 
ATOM     36  H   UNL     1       3.372   3.110 -16.220  1.00  0.00     0.167 HD
ATOM     37  C   UNL     1       0.952   4.567 -16.008  1.00  0.00     0.074 A 
ATOM     38  C   UNL     1      -0.023   5.552 -15.582  1.00  0.00     0.031 C 
ATOM     39  C   UNL     1       0.720   3.622 -16.950  1.00  0.00     0.031 A 
BRANCH  26  40
ATOM     40  C   UNL     1       5.561  -0.036 -18.100  1.00  0.00    -0.014 A 
ATOM     41  C   UNL     1       5.819  -1.298 -17.542  1.00  0.00     0.009 A 
ATOM     42  C   UNL     1       5.811   0.166 -19.467  1.00  0.00     0.009 A 
ATOM     43  C   UNL     1       6.346  -2.325 -18.330  1.00  0.00     0.001 A 
ATOM     44  C   UNL     1       6.315  -0.870 -20.257  1.00  0.00     0.001 A 
ATOM     45  C   UNL     1       6.590  -2.111 -19.686  1.00  0.00     0.000 A 
ENDBRANCH  26  40
BRANCH  27  46
ATOM     46  C   UNL     1       2.205   7.636 -12.679  1.00  0.00    -0.014 A 
ATOM     47  C   UNL     1       1.251   7.410 -11.676  1.00  0.00     0.009 A 
ATOM     48  C   UNL     1       2.683   8.939 -12.883  1.00  0.00     0.009 A 
ATOM     49  C   UNL     1       0.772   8.471 -10.905  1.00  0.00     0.001 A 
ATOM     50  C   UNL     1       2.223   9.993 -12.092  1.00  0.00     0.001 A 
ATOM     51  C   UNL     1       1.263   9.760 -11.110  1.00  0.00     0.000 A 
ENDBRANCH  27  46
BRANCH  39  52
ATOM     52  C   UNL     1      -0.652   3.595 -17.559  1.00  0.00    -0.014 A 
ATOM     53  C   UNL     1      -1.060   4.577 -18.476  1.00  0.00     0.009 A 
ATOM     54  C   UNL     1      -1.544   2.566 -17.220  1.00  0.00     0.009 A 
ATOM     55  C   UNL     1      -2.349   4.549 -19.012  1.00  0.00     0.001 A 
ATOM     56  C   UNL     1      -2.822   2.526 -17.777  1.00  0.00     0.001 A 
ATOM     57  C   UNL     1      -3.227   3.523 -18.664  1.00  0.00     0.000 A 
ENDBRANCH  39  52
ENDBRANCH  13  14
ENDBRANCH   6   8
ENDBRANCH   3   4
ENDBRANCH   2   3
ENDBRANCH   1   2
BRANCH   1  58
ATOM     58  C   UNL     1      12.569   0.303  -7.417  1.00  0.00     0.002 C 
BRANCH  58  59
ATOM     59  C   UNL     1      11.324  -0.523  -7.063  1.00  0.00     0.021 C 
BRANCH  59  60
ATOM     60  C   UNL     1      11.516  -2.035  -7.193  1.00  0.00     0.116 C 
BRANCH  60  61
ATOM     61  N   UNL     1      12.363  -2.521  -6.120  1.00  0.00    -0.354 N 
ATOM     62  C   UNL     1      12.061  -3.236  -5.003  1.00  0.00     0.244 C 
ATOM     63  H   UNL     1      13.317  -2.296  -6.217  1.00  0.00     0.163 HD
ATOM     64  O   UNL     1      12.823  -3.098  -4.039  1.00  0.00    -0.273 OA
BRANCH  62  65
ATOM     65  C   UNL     1      10.792  -4.104  -4.862  1.00  0.00     0.197 C 
BRANCH  65  66
ATOM     66  C   UNL     1       9.632  -3.279  -4.294  1.00  0.00     0.191 C 
BRANCH  66  67
ATOM     67  O   UNL     1       9.127  -2.332  -5.233  1.00  0.00    -0.394 OA
ATOM     68  H   UNL     1       9.828  -1.704  -5.468  1.00  0.00     0.210 HD
ENDBRANCH  66  67
ENDBRANCH  65  66
BRANCH  65  69
ATOM     69  N   UNL     1      10.428  -4.846  -6.075  1.00  0.00    -0.342 N 
ATOM     70  C   UNL     1      10.688  -6.141  -6.429  1.00  0.00     0.228 C 
ATOM     71  H   UNL     1       9.915  -4.329  -6.739  1.00  0.00     0.164 HD
ATOM     72  O   UNL     1      10.485  -6.460  -7.602  1.00  0.00    -0.274 OA
BRANCH  70  73
ATOM     73  C   UNL     1      11.147  -7.149  -5.371  1.00  0.00     0.109 C 
ATOM     74  C   UNL     1      10.451  -8.498  -5.633  1.00  0.00     0.018 C 
ATOM     75  C   UNL     1      12.654  -7.327  -5.217  1.00  0.00    -0.032 A 
ATOM     76  C   UNL     1      10.822  -9.494  -4.541  1.00  0.00     0.006 C 
ATOM     77  C   UNL     1      13.172  -8.533  -4.696  1.00  0.00    -0.044 A 
ATOM     78  C   UNL     1      13.549  -6.273  -5.455  1.00  0.00     0.005 A 
ATOM     79  C   UNL     1      12.320  -9.773  -4.557  1.00  0.00     0.036 C 
ATOM     80  C   UNL     1      14.538  -8.630  -4.378  1.00  0.00     0.004 A 
ATOM     81  C   UNL     1      14.900  -6.374  -5.119  1.00  0.00     0.000 A 
ATOM     82  C   UNL     1      15.392  -7.548  -4.566  1.00  0.00     0.000 A 
ENDBRANCH  70  73
ENDBRANCH  65  69
ENDBRANCH  62  65
ENDBRANCH  60  61
ENDBRANCH  59  60
ENDBRANCH  58  59
ENDBRANCH   1  58
TORSDOF 17
