REMARK SMILES COC(=O)c1ccc([C@H]2Nc3c(C(=O)NCCCCCCNC(=O)c4ccc(-c5c6nc(c(-c7ccccc7)c7ccc([nH]7)c(-c7ccccc7)c7nc(c(-c8ccccc8)c8ccc5[nH]8)C=C7)C=C6)cc4)cccc3[C@@H]3[C@@H]4CC[C@@H](C4)[C@@H]32)cc1
REMARK SMILES IDX 18 1 17 2 16 3 15 4 13 5 14 6 12 8 9 9 10 10 83 11 11 12
REMARK SMILES IDX 77 14 81 15 76 16 78 17 80 18 82 19 73 20 75 21 79 22 74 23
REMARK SMILES IDX 8 24 5 25 6 26 85 27 7 28 84 29 3 30 4 31 2 32 1 33 19 34
REMARK SMILES IDX 20 35 21 36 22 37 23 38 24 40 25 41 26 42 72 43 27 44 71 45
REMARK SMILES IDX 28 46 29 47 30 48 65 49 31 50 70 51 64 52 66 53 32 54 69 55
REMARK SMILES IDX 63 56 62 57 33 59 55 60 40 61 54 62 41 63 44 64 53 65 67 66
REMARK SMILES IDX 42 67 43 68 52 70 68 71 45 72 34 73 35 74 39 75 36 76 38 77
REMARK SMILES IDX 37 78 56 79 57 80 61 81 58 82 60 83 59 84 46 85 47 86 51 87
REMARK SMILES IDX 48 88 50 89 49 90
REMARK H PARENT 15 7 10 13 22 39 66 58 44 69
REMARK Flexibility Score: inf
ROOT
ATOM      1  C   UNL     1      -6.431   1.057  11.058  1.00  0.00     0.002 C 
ENDROOT
BRANCH   1   2
ATOM      2  C   UNL     1      -5.156   1.786  10.637  1.00  0.00     0.021 C 
BRANCH   2   3
ATOM      3  C   UNL     1      -4.504   1.323   9.339  1.00  0.00     0.116 C 
BRANCH   3   4
ATOM      4  N   UNL     1      -5.225   1.571   8.109  1.00  0.00    -0.352 N 
ATOM      5  C   UNL     1      -4.734   1.731   6.820  1.00  0.00     0.253 C 
ATOM      6  O   UNL     1      -5.553   1.860   5.907  1.00  0.00    -0.269 OA
ATOM      7  H   UNL     1      -6.203   1.635   8.199  1.00  0.00     0.163 HD
BRANCH   5   8
ATOM      8  C   UNL     1      -3.273   1.855   6.490  1.00  0.00     0.063 A 
ATOM      9  C   UNL     1      -1.695  -1.166   7.327  1.00  0.00     0.113 C 
ATOM     10  N   UNL     1      -2.489  -0.027   7.828  1.00  0.00    -0.377 N 
ATOM     11  C   UNL     1      -0.379  -0.926   8.095  1.00  0.00     0.027 C 
ATOM     12  C   UNL     1      -2.243   1.119   7.081  1.00  0.00     0.051 A 
ATOM     13  H   UNL     1      -3.110  -0.072   8.591  1.00  0.00     0.161 HD
ATOM     14  C   UNL     1       0.089   0.588   7.748  1.00  0.00     0.030 C 
ATOM     15  C   UNL     1       0.920  -1.711   7.821  1.00  0.00    -0.005 C 
ATOM     16  C   UNL     1      -0.871   1.374   6.852  1.00  0.00    -0.020 A 
ATOM     17  C   UNL     1       1.555   0.395   7.327  1.00  0.00    -0.003 C 
ATOM     18  C   UNL     1       1.271  -1.784   6.332  1.00  0.00     0.004 C 
ATOM     19  C   UNL     1       1.984  -0.705   8.308  1.00  0.00     0.008 C 
ATOM     20  C   UNL     1      -2.909   2.668   5.414  1.00  0.00     0.016 A 
ATOM     21  C   UNL     1      -0.537   2.258   5.834  1.00  0.00     0.006 A 
ATOM     22  C   UNL     1       1.671  -0.344   5.986  1.00  0.00     0.004 C 
ATOM     23  C   UNL     1      -1.558   2.845   5.073  1.00  0.00     0.001 A 
BRANCH   9  24
ATOM     24  C   UNL     1      -2.815  -2.208   7.291  1.00  0.00    -0.025 A 
ATOM     25  C   UNL     1      -5.619  -2.381   7.487  1.00  0.00     0.060 A 
ATOM     26  C   UNL     1      -5.035  -2.067   6.263  1.00  0.00     0.016 A 
ATOM     27  C   UNL     1      -4.800  -2.835   8.538  1.00  0.00     0.016 A 
ATOM     28  C   UNL     1      -3.648  -2.045   6.146  1.00  0.00     0.007 A 
ATOM     29  C   UNL     1      -3.393  -2.746   8.447  1.00  0.00     0.007 A 
BRANCH  25  30
ATOM     30  C   UNL     1      -7.053  -1.988   7.655  1.00  0.00     0.337 C 
ATOM     31  O   UNL     1      -7.657  -1.305   6.844  1.00  0.00    -0.246 OA
BRANCH  30  32
ATOM     32  O   UNL     1      -7.551  -2.375   8.858  1.00  0.00    -0.465 OA
ATOM     33  C   UNL     1      -8.792  -1.731   9.176  1.00  0.00     0.282 C 
ENDBRANCH  30  32
ENDBRANCH  25  30
ENDBRANCH   9  24
ENDBRANCH   5   8
ENDBRANCH   3   4
ENDBRANCH   2   3
ENDBRANCH   1   2
BRANCH   1  34
ATOM     34  C   UNL     1      -6.346  -0.465  11.165  1.00  0.00     0.002 C 
BRANCH  34  35
ATOM     35  C   UNL     1      -5.295  -1.071  12.088  1.00  0.00     0.021 C 
BRANCH  35  36
ATOM     36  C   UNL     1      -5.271  -0.525  13.505  1.00  0.00     0.116 C 
BRANCH  36  37
ATOM     37  N   UNL     1      -6.557  -0.601  14.181  1.00  0.00    -0.352 N 
ATOM     38  C   UNL     1      -6.857  -1.026  15.452  1.00  0.00     0.251 C 
ATOM     39  H   UNL     1      -7.328  -0.302  13.647  1.00  0.00     0.163 HD
ATOM     40  O   UNL     1      -8.025  -1.102  15.818  1.00  0.00    -0.269 OA
BRANCH  38  41
ATOM     41  C   UNL     1      -5.770  -1.436  16.366  1.00  0.00     0.039 A 
ATOM     42  C   UNL     1      -5.928  -2.602  17.119  1.00  0.00     0.014 A 
ATOM     43  C   UNL     1      -4.590  -0.694  16.462  1.00  0.00     0.014 A 
ATOM     44  C   UNL     1      -4.872  -3.063  17.907  1.00  0.00     0.010 A 
ATOM     45  C   UNL     1      -3.507  -1.207  17.166  1.00  0.00     0.010 A 
ATOM     46  C   UNL     1      -3.638  -2.393  17.902  1.00  0.00    -0.014 A 
BRANCH  46  47
ATOM     47  C   UNL     1      -2.476  -2.915  18.665  1.00  0.00     0.031 A 
ATOM     48  C   UNL     1      -1.867  -2.094  19.769  1.00  0.00     0.074 A 
ATOM     49  C   UNL     1      -1.934  -4.101  18.325  1.00  0.00     0.049 A 
ATOM     50  N   UNL     1      -0.830  -2.364  20.521  1.00  0.00    -0.248 NA
ATOM     51  C   UNL     1      -2.484  -0.786  20.045  1.00  0.00     0.031 C 
ATOM     52  C   UNL     1      -2.400  -4.969  17.240  1.00  0.00     0.029 A 
ATOM     53  N   UNL     1      -0.870  -4.783  18.859  1.00  0.00    -0.354 N 
ATOM     54  C   UNL     1      -0.664  -1.255  21.343  1.00  0.00     0.074 A 
ATOM     55  C   UNL     1      -1.663  -0.286  20.955  1.00  0.00     0.031 C 
ATOM     56  C   UNL     1      -1.653  -6.085  17.218  1.00  0.00     0.029 A 
ATOM     57  C   UNL     1      -0.629  -5.992  18.253  1.00  0.00     0.049 A 
ATOM     58  H   UNL     1      -0.329  -4.438  19.607  1.00  0.00     0.167 HD
ATOM     59  C   UNL     1       0.225  -1.070  22.348  1.00  0.00     0.031 A 
ATOM     60  C   UNL     1       0.310  -6.923  18.503  1.00  0.00     0.031 A 
ATOM     61  C   UNL     1       1.210  -2.040  22.740  1.00  0.00     0.049 A 
ATOM     62  C   UNL     1       1.292  -6.689  19.618  1.00  0.00     0.074 A 
ATOM     63  C   UNL     1       2.118  -1.974  23.783  1.00  0.00     0.029 A 
ATOM     64  N   UNL     1       1.419  -3.254  22.103  1.00  0.00    -0.354 N 
ATOM     65  N   UNL     1       1.387  -5.668  20.435  1.00  0.00    -0.248 NA
ATOM     66  C   UNL     1       2.287  -7.744  19.852  1.00  0.00     0.031 C 
ATOM     67  C   UNL     1       2.915  -3.123  23.740  1.00  0.00     0.029 A 
ATOM     68  C   UNL     1       2.460  -3.933  22.712  1.00  0.00     0.049 A 
ATOM     69  H   UNL     1       0.903  -3.583  21.332  1.00  0.00     0.167 HD
ATOM     70  C   UNL     1       2.433  -5.970  21.298  1.00  0.00     0.074 A 
ATOM     71  C   UNL     1       2.925  -7.278  20.917  1.00  0.00     0.031 C 
ATOM     72  C   UNL     1       2.941  -5.232  22.315  1.00  0.00     0.031 A 
BRANCH  59  73
ATOM     73  C   UNL     1       0.170   0.240  23.087  1.00  0.00    -0.014 A 
ATOM     74  C   UNL     1      -0.917   0.568  23.914  1.00  0.00     0.009 A 
ATOM     75  C   UNL     1       1.235   1.148  22.978  1.00  0.00     0.009 A 
ATOM     76  C   UNL     1      -0.956   1.794  24.581  1.00  0.00     0.001 A 
ATOM     77  C   UNL     1       1.209   2.359  23.673  1.00  0.00     0.001 A 
ATOM     78  C   UNL     1       0.109   2.685  24.465  1.00  0.00     0.000 A 
ENDBRANCH  59  73
BRANCH  60  79
ATOM     79  C   UNL     1       0.360  -8.172  17.696  1.00  0.00    -0.014 A 
ATOM     80  C   UNL     1       0.032  -9.408  18.274  1.00  0.00     0.009 A 
ATOM     81  C   UNL     1       0.745  -8.137  16.347  1.00  0.00     0.009 A 
ATOM     82  C   UNL     1       0.119 -10.586  17.528  1.00  0.00     0.001 A 
ATOM     83  C   UNL     1       0.799  -9.312  15.594  1.00  0.00     0.001 A 
ATOM     84  C   UNL     1       0.498 -10.536  16.187  1.00  0.00     0.000 A 
ENDBRANCH  60  79
BRANCH  72  85
ATOM     85  C   UNL     1       4.066  -5.838  23.106  1.00  0.00    -0.014 A 
ATOM     86  C   UNL     1       5.347  -5.995  22.555  1.00  0.00     0.009 A 
ATOM     87  C   UNL     1       3.845  -6.230  24.436  1.00  0.00     0.009 A 
ATOM     88  C   UNL     1       6.373  -6.570  23.308  1.00  0.00     0.001 A 
ATOM     89  C   UNL     1       4.881  -6.772  25.197  1.00  0.00     0.001 A 
ATOM     90  C   UNL     1       6.141  -6.953  24.629  1.00  0.00     0.000 A 
ENDBRANCH  72  85
ENDBRANCH  46  47
ENDBRANCH  38  41
ENDBRANCH  36  37
ENDBRANCH  35  36
ENDBRANCH  34  35
ENDBRANCH   1  34
TORSDOF 16
