REMARK SMILES O=C(CSc1nc2cccnc2n1C1CCCCCC1)NCCCCCCNC(=O)c1ccc(-c2c3nc(c(-c4ccccc4)c4ccc([nH]4)c(-c4ccccc4)c4nc(c(-c5ccccc5)c5ccc2[nH]5)C=C4)C=C3)cc1
REMARK SMILES IDX 22 1 21 2 1 3 2 4 3 6 4 7 5 8 6 9 13 10 7 11 12 12 8 13
REMARK SMILES IDX 11 14 9 15 10 16 14 17 15 18 16 19 17 20 18 21 20 23 19 24
REMARK SMILES IDX 23 26 24 27 25 28 26 29 27 30 28 31 29 32 30 34 31 35 32 36
REMARK SMILES IDX 78 37 33 38 77 39 34 40 35 41 36 42 71 43 37 44 76 45 70 46
REMARK SMILES IDX 72 47 38 48 75 49 69 50 68 51 39 53 61 54 46 55 60 56 47 57
REMARK SMILES IDX 50 58 59 59 73 60 48 61 49 62 58 64 74 65 51 66 40 67 41 68
REMARK SMILES IDX 45 69 42 70 44 71 43 72 62 73 63 74 67 75 64 76 66 77 65 78
REMARK SMILES IDX 52 79 53 80 57 81 54 82 56 83 55 84
REMARK H PARENT 21 5 28 33 72 52 50 63
REMARK Flexibility Score: 80.00
ROOT
ATOM      1  C   UNL     1       2.533   2.220  -0.861  1.00  0.00     0.116 C 
ENDROOT
BRANCH   1   2
ATOM      2  N   UNL     1       3.146   1.147  -0.110  1.00  0.00    -0.355 N 
ATOM      3  O   UNL     1       1.157   0.164   0.497  1.00  0.00    -0.274 OA
ATOM      4  C   UNL     1       2.379   0.103   0.386  1.00  0.00     0.230 C 
ATOM      5  H   UNL     1       4.118   1.157   0.050  1.00  0.00     0.163 HD
BRANCH   4   6
ATOM      6  C   UNL     1       3.158  -1.147   0.755  1.00  0.00     0.178 C 
BRANCH   6   7
ATOM      7  S   UNL     1       4.100  -1.729  -0.690  1.00  0.00    -0.078 SA
BRANCH   7   8
ATOM      8  C   UNL     1       2.943  -2.738  -1.508  1.00  0.00     0.171 A 
ATOM      9  N   UNL     1       2.983  -4.050  -1.412  1.00  0.00    -0.221 NA
ATOM     10  N   UNL     1       2.059  -2.309  -2.479  1.00  0.00    -0.301 N 
ATOM     11  C   UNL     1       2.148  -4.503  -2.399  1.00  0.00     0.109 A 
ATOM     12  C   UNL     1       1.527  -3.445  -3.047  1.00  0.00     0.160 A 
ATOM     13  C   UNL     1       1.886  -5.798  -2.863  1.00  0.00     0.034 A 
ATOM     14  N   UNL     1       0.658  -3.516  -4.075  1.00  0.00    -0.237 NA
ATOM     15  C   UNL     1       1.015  -5.926  -3.948  1.00  0.00     0.022 A 
ATOM     16  C   UNL     1       0.437  -4.784  -4.490  1.00  0.00     0.113 A 
BRANCH  10  17
ATOM     17  C   UNL     1       1.857  -0.954  -3.004  1.00  0.00     0.091 C 
BRANCH  17  18
ATOM     18  C   UNL     1       2.506  -0.791  -4.393  1.00  0.00     0.025 C 
BRANCH  18  19
ATOM     19  C   UNL     1       1.561  -0.713  -5.592  1.00  0.00     0.002 C 
BRANCH  19  20
ATOM     20  C   UNL     1       0.957   0.673  -5.793  1.00  0.00     0.000 C 
BRANCH  20  21
ATOM     21  C   UNL     1      -0.202   1.000  -4.859  1.00  0.00     0.000 CG0
ATOM     22  G   UNL     1       0.140   0.938  -3.376  1.00  0.00     0.000 G0
ENDBRANCH  20  21
ENDBRANCH  19  20
ENDBRANCH  18  19
ENDBRANCH  17  18
BRANCH  17  23
ATOM     23  C   UNL     1       0.400  -0.478  -2.856  1.00  0.00     0.025 C 
BRANCH  23  24
ATOM     24  C   UNL     1       0.140   0.938  -3.376  1.00  0.00     0.002 CG0
ATOM     25  G   UNL     1      -0.202   1.000  -4.859  1.00  0.00     0.000 G0
ENDBRANCH  23  24
ENDBRANCH  17  23
ENDBRANCH  10  17
ENDBRANCH   7   8
ENDBRANCH   6   7
ENDBRANCH   4   6
ENDBRANCH   1   2
BRANCH   1  26
ATOM     26  C   UNL     1       3.253   3.559  -0.796  1.00  0.00     0.021 C 
BRANCH  26  27
ATOM     27  C   UNL     1       4.668   3.575  -1.384  1.00  0.00     0.002 C 
BRANCH  27  28
ATOM     28  C   UNL     1       4.842   3.054  -2.818  1.00  0.00     0.002 C 
BRANCH  28  29
ATOM     29  C   UNL     1       4.008   3.720  -3.922  1.00  0.00     0.021 C 
BRANCH  29  30
ATOM     30  C   UNL     1       4.268   5.209  -4.134  1.00  0.00     0.116 C 
BRANCH  30  31
ATOM     31  N   UNL     1       5.657   5.498  -4.465  1.00  0.00    -0.352 N 
ATOM     32  C   UNL     1       6.323   6.704  -4.460  1.00  0.00     0.251 C 
ATOM     33  H   UNL     1       6.199   4.719  -4.729  1.00  0.00     0.163 HD
ATOM     34  O   UNL     1       7.384   6.828  -5.059  1.00  0.00    -0.269 OA
BRANCH  32  35
ATOM     35  C   UNL     1       5.751   7.858  -3.739  1.00  0.00     0.039 A 
ATOM     36  C   UNL     1       5.791   9.132  -4.316  1.00  0.00     0.014 A 
ATOM     37  C   UNL     1       5.198   7.678  -2.473  1.00  0.00     0.014 A 
ATOM     38  C   UNL     1       5.204  10.206  -3.648  1.00  0.00     0.010 A 
ATOM     39  C   UNL     1       4.544   8.722  -1.848  1.00  0.00     0.010 A 
ATOM     40  C   UNL     1       4.567   9.995  -2.418  1.00  0.00    -0.014 A 
BRANCH  40  41
ATOM     41  C   UNL     1       3.873  11.098  -1.752  1.00  0.00     0.031 A 
ATOM     42  C   UNL     1       2.686  11.671  -2.448  1.00  0.00     0.074 A 
ATOM     43  C   UNL     1       4.092  11.436  -0.465  1.00  0.00     0.049 A 
ATOM     44  N   UNL     1       2.475  12.898  -2.800  1.00  0.00    -0.248 NA
ATOM     45  C   UNL     1       1.592  10.750  -2.800  1.00  0.00     0.031 C 
ATOM     46  C   UNL     1       4.942  10.740   0.507  1.00  0.00     0.029 A 
ATOM     47  N   UNL     1       3.492  12.407   0.285  1.00  0.00    -0.354 N 
ATOM     48  C   UNL     1       1.173  12.941  -3.294  1.00  0.00     0.074 A 
ATOM     49  C   UNL     1       0.710  11.578  -3.363  1.00  0.00     0.031 C 
ATOM     50  C   UNL     1       4.628  11.158   1.753  1.00  0.00     0.029 A 
ATOM     51  C   UNL     1       3.696  12.266   1.649  1.00  0.00     0.049 A 
ATOM     52  H   UNL     1       2.963  13.140  -0.107  1.00  0.00     0.167 HD
ATOM     53  C   UNL     1       0.478  14.104  -3.429  1.00  0.00     0.031 A 
ATOM     54  C   UNL     1       3.131  12.995   2.637  1.00  0.00     0.031 A 
ATOM     55  C   UNL     1       1.301  15.267  -3.263  1.00  0.00     0.049 A 
ATOM     56  C   UNL     1       2.678  14.280   2.067  1.00  0.00     0.074 A 
ATOM     57  C   UNL     1       2.214  15.973  -4.014  1.00  0.00     0.029 A 
ATOM     58  N   UNL     1       1.416  15.698  -1.969  1.00  0.00    -0.354 N 
ATOM     59  N   UNL     1       3.487  15.175   1.578  1.00  0.00    -0.248 NA
ATOM     60  C   UNL     1       1.262  14.515   1.814  1.00  0.00     0.031 C 
ATOM     61  C   UNL     1       3.053  16.650  -3.078  1.00  0.00     0.029 A 
ATOM     62  C   UNL     1       2.621  16.328  -1.792  1.00  0.00     0.049 A 
ATOM     63  H   UNL     1       0.735  15.575  -1.270  1.00  0.00     0.167 HD
ATOM     64  C   UNL     1       2.735  15.837   0.630  1.00  0.00     0.074 A 
ATOM     65  C   UNL     1       1.351  15.534   0.955  1.00  0.00     0.031 C 
ATOM     66  C   UNL     1       3.305  16.297  -0.518  1.00  0.00     0.031 A 
BRANCH  53  67
ATOM     67  C   UNL     1      -1.021  14.211  -3.317  1.00  0.00    -0.014 A 
ATOM     68  C   UNL     1      -1.661  15.396  -3.725  1.00  0.00     0.009 A 
ATOM     69  C   UNL     1      -1.787  13.299  -2.567  1.00  0.00     0.009 A 
ATOM     70  C   UNL     1      -2.997  15.655  -3.389  1.00  0.00     0.001 A 
ATOM     71  C   UNL     1      -3.131  13.539  -2.261  1.00  0.00     0.001 A 
ATOM     72  C   UNL     1      -3.731  14.726  -2.659  1.00  0.00     0.000 A 
ENDBRANCH  53  67
BRANCH  54  73
ATOM     73  C   UNL     1       2.832  12.613   4.031  1.00  0.00    -0.014 A 
ATOM     74  C   UNL     1       2.573  13.604   4.992  1.00  0.00     0.009 A 
ATOM     75  C   UNL     1       2.534  11.280   4.363  1.00  0.00     0.009 A 
ATOM     76  C   UNL     1       1.977  13.280   6.215  1.00  0.00     0.001 A 
ATOM     77  C   UNL     1       1.950  10.955   5.591  1.00  0.00     0.001 A 
ATOM     78  C   UNL     1       1.651  11.958   6.507  1.00  0.00     0.000 A 
ENDBRANCH  54  73
BRANCH  66  79
ATOM     79  C   UNL     1       4.791  16.503  -0.518  1.00  0.00    -0.014 A 
ATOM     80  C   UNL     1       5.705  15.438  -0.468  1.00  0.00     0.009 A 
ATOM     81  C   UNL     1       5.284  17.807  -0.663  1.00  0.00     0.009 A 
ATOM     82  C   UNL     1       7.081  15.676  -0.540  1.00  0.00     0.001 A 
ATOM     83  C   UNL     1       6.657  18.043  -0.752  1.00  0.00     0.001 A 
ATOM     84  C   UNL     1       7.555  16.978  -0.687  1.00  0.00     0.000 A 
ENDBRANCH  66  79
ENDBRANCH  40  41
ENDBRANCH  32  35
ENDBRANCH  30  31
ENDBRANCH  29  30
ENDBRANCH  28  29
ENDBRANCH  27  28
ENDBRANCH  26  27
ENDBRANCH   1  26
TORSDOF 16
