REMARK SMILES CO[C@@H]1C[C@H](C(=O)NCCCCCCNC(=O)c2ccc(-c3c4nc(c(-c5ccccc5)c5ccc([nH]5)c(-c5ccccc5)c5nc(c(-c6ccccc6)c6ccc3[nH]6)C=C5)C=C4)cc2)N(C(=O)c2ncc(Cl)c(Cl)c2Cl)C1
REMARK SMILES IDX 11 1 10 2 9 3 8 4 6 5 7 6 5 8 3 9 4 10 78 11 66 12 2 13 1 14
REMARK SMILES IDX 67 15 68 16 69 17 70 18 76 19 71 20 74 21 77 22 72 23 75 24
REMARK SMILES IDX 73 25 12 26 13 27 14 28 15 29 16 30 17 32 18 33 19 34 65 35
REMARK SMILES IDX 20 36 64 37 21 38 22 39 23 40 58 41 24 42 63 43 57 44 59 45
REMARK SMILES IDX 25 46 62 47 56 48 55 49 26 51 48 52 33 53 47 54 34 55 37 56
REMARK SMILES IDX 46 57 60 58 35 59 36 60 45 62 61 63 38 64 27 65 28 66 32 67
REMARK SMILES IDX 29 68 31 69 30 70 49 71 50 72 54 73 51 74 53 75 52 76 39 77
REMARK SMILES IDX 40 78 44 79 41 80 43 81 42 82
REMARK H PARENT 8 7 15 31 59 50 37 61
REMARK Flexibility Score: inf
ROOT
ATOM      1  C   UNL     1      -1.706  -1.532   2.021  1.00  0.00     0.002 C 
ENDROOT
BRANCH   1   2
ATOM      2  C   UNL     1      -0.814  -1.385   0.784  1.00  0.00     0.021 C 
BRANCH   2   3
ATOM      3  C   UNL     1      -1.482  -1.776  -0.538  1.00  0.00     0.116 C 
BRANCH   3   4
ATOM      4  N   UNL     1      -2.144  -0.637  -1.140  1.00  0.00    -0.354 N 
ATOM      5  C   UNL     1      -1.877   0.093  -2.251  1.00  0.00     0.242 C 
ATOM      6  O   UNL     1      -2.556   1.121  -2.394  1.00  0.00    -0.273 OA
ATOM      7  H   UNL     1      -2.941  -0.334  -0.648  1.00  0.00     0.163 HD
BRANCH   5   8
ATOM      8  C   UNL     1      -0.721  -0.165  -3.249  1.00  0.00     0.177 C 
ATOM      9  C   UNL     1       1.503  -0.808  -2.469  1.00  0.00     0.139 C 
ATOM     10  C   UNL     1       0.625   0.400  -2.805  1.00  0.00     0.069 C 
ATOM     11  C   UNL     1       0.869  -1.983  -3.227  1.00  0.00     0.152 C 
ATOM     12  N   UNL     1      -0.429  -1.521  -3.699  1.00  0.00    -0.323 N 
BRANCH   9  13
ATOM     13  O   UNL     1       1.542  -1.077  -1.069  1.00  0.00    -0.380 OA
ATOM     14  C   UNL     1       2.293  -0.118  -0.331  1.00  0.00     0.195 C 
ENDBRANCH   9  13
BRANCH  12  15
ATOM     15  C   UNL     1      -1.046  -2.204  -4.742  1.00  0.00     0.274 C 
ATOM     16  O   UNL     1      -0.778  -3.368  -5.031  1.00  0.00    -0.267 OA
BRANCH  15  17
ATOM     17  C   UNL     1      -1.964  -1.446  -5.637  1.00  0.00     0.148 A 
ATOM     18  N   UNL     1      -3.290  -1.688  -5.463  1.00  0.00    -0.248 NA
ATOM     19  C   UNL     1      -1.444  -0.559  -6.584  1.00  0.00     0.092 A 
ATOM     20  C   UNL     1      -4.136  -1.007  -6.269  1.00  0.00     0.134 A 
ATOM     21  C   UNL     1      -2.359   0.158  -7.367  1.00  0.00     0.082 A 
ATOM     22  Cl  UNL     1       0.268  -0.337  -6.766  1.00  0.00    -0.080 Cl
ATOM     23  C   UNL     1      -3.730  -0.075  -7.215  1.00  0.00     0.079 A 
ATOM     24  Cl  UNL     1      -1.800   1.348  -8.505  1.00  0.00    -0.081 Cl
ATOM     25  Cl  UNL     1      -4.937   0.735  -8.143  1.00  0.00    -0.081 Cl
ENDBRANCH  15  17
ENDBRANCH  12  15
ENDBRANCH   5   8
ENDBRANCH   3   4
ENDBRANCH   2   3
ENDBRANCH   1   2
BRANCH   1  26
ATOM     26  C   UNL     1      -2.068  -2.974   2.397  1.00  0.00     0.002 C 
BRANCH  26  27
ATOM     27  C   UNL     1      -0.888  -3.940   2.555  1.00  0.00     0.021 C 
BRANCH  27  28
ATOM     28  C   UNL     1       0.194  -3.497   3.538  1.00  0.00     0.116 C 
BRANCH  28  29
ATOM     29  N   UNL     1      -0.319  -3.345   4.890  1.00  0.00    -0.352 N 
ATOM     30  C   UNL     1      -0.002  -4.025   6.037  1.00  0.00     0.251 C 
ATOM     31  H   UNL     1      -1.001  -2.643   4.999  1.00  0.00     0.163 HD
ATOM     32  O   UNL     1      -0.695  -3.884   7.045  1.00  0.00    -0.269 OA
BRANCH  30  33
ATOM     33  C   UNL     1       1.160  -4.938   6.076  1.00  0.00     0.039 A 
ATOM     34  C   UNL     1       1.021  -6.179   6.704  1.00  0.00     0.014 A 
ATOM     35  C   UNL     1       2.394  -4.558   5.542  1.00  0.00     0.014 A 
ATOM     36  C   UNL     1       2.103  -7.062   6.748  1.00  0.00     0.010 A 
ATOM     37  C   UNL     1       3.454  -5.463   5.531  1.00  0.00     0.010 A 
ATOM     38  C   UNL     1       3.321  -6.721   6.138  1.00  0.00    -0.014 A 
BRANCH  38  39
ATOM     39  C   UNL     1       4.463  -7.668   6.123  1.00  0.00     0.031 A 
ATOM     40  C   UNL     1       5.734  -7.341   6.856  1.00  0.00     0.074 A 
ATOM     41  C   UNL     1       4.386  -8.791   5.383  1.00  0.00     0.049 A 
ATOM     42  N   UNL     1       6.856  -8.014   6.907  1.00  0.00    -0.248 NA
ATOM     43  C   UNL     1       5.756  -6.077   7.609  1.00  0.00     0.031 C 
ATOM     44  C   UNL     1       3.231  -9.200   4.583  1.00  0.00     0.029 A 
ATOM     45  N   UNL     1       5.307  -9.786   5.173  1.00  0.00    -0.354 N 
ATOM     46  C   UNL     1       7.724  -7.245   7.671  1.00  0.00     0.074 A 
ATOM     47  C   UNL     1       7.012  -6.037   8.030  1.00  0.00     0.031 C 
ATOM     48  C   UNL     1       3.507 -10.366   3.978  1.00  0.00     0.029 A 
ATOM     49  C   UNL     1       4.867 -10.770   4.322  1.00  0.00     0.049 A 
ATOM     50  H   UNL     1       6.198  -9.794   5.592  1.00  0.00     0.167 HD
ATOM     51  C   UNL     1       8.994  -7.523   8.050  1.00  0.00     0.031 A 
ATOM     52  C   UNL     1       5.489 -11.871   3.860  1.00  0.00     0.031 A 
ATOM     53  C   UNL     1       9.697  -8.731   7.707  1.00  0.00     0.049 A 
ATOM     54  C   UNL     1       6.890 -12.170   4.310  1.00  0.00     0.074 A 
ATOM     55  C   UNL     1      10.955  -9.142   8.113  1.00  0.00     0.029 A 
ATOM     56  N   UNL     1       9.204  -9.719   6.869  1.00  0.00    -0.354 N 
ATOM     57  N   UNL     1       7.667 -11.475   5.104  1.00  0.00    -0.248 NA
ATOM     58  C   UNL     1       7.494 -13.414   3.811  1.00  0.00     0.031 C 
ATOM     59  C   UNL     1      11.243 -10.356   7.480  1.00  0.00     0.029 A 
ATOM     60  C   UNL     1      10.144 -10.725   6.721  1.00  0.00     0.049 A 
ATOM     61  H   UNL     1       8.317  -9.707   6.442  1.00  0.00     0.167 HD
ATOM     62  C   UNL     1       8.844 -12.204   5.216  1.00  0.00     0.074 A 
ATOM     63  C   UNL     1       8.671 -13.403   4.421  1.00  0.00     0.031 C 
ATOM     64  C   UNL     1       9.964 -11.907   5.918  1.00  0.00     0.031 A 
BRANCH  51  65
ATOM     65  C   UNL     1       9.712  -6.484   8.867  1.00  0.00    -0.014 A 
ATOM     66  C   UNL     1       9.344  -6.215  10.196  1.00  0.00     0.009 A 
ATOM     67  C   UNL     1      10.782  -5.773   8.303  1.00  0.00     0.009 A 
ATOM     68  C   UNL     1      10.003  -5.224  10.926  1.00  0.00     0.001 A 
ATOM     69  C   UNL     1      11.459  -4.803   9.045  1.00  0.00     0.001 A 
ATOM     70  C   UNL     1      11.061  -4.521  10.351  1.00  0.00     0.000 A 
ENDBRANCH  51  65
BRANCH  52  71
ATOM     71  C   UNL     1       4.774 -12.779   2.928  1.00  0.00    -0.014 A 
ATOM     72  C   UNL     1       4.289 -14.017   3.373  1.00  0.00     0.009 A 
ATOM     73  C   UNL     1       4.546 -12.396   1.597  1.00  0.00     0.009 A 
ATOM     74  C   UNL     1       3.601 -14.862   2.498  1.00  0.00     0.001 A 
ATOM     75  C   UNL     1       3.837 -13.232   0.732  1.00  0.00     0.001 A 
ATOM     76  C   UNL     1       3.370 -14.466   1.181  1.00  0.00     0.000 A 
ENDBRANCH  52  71
BRANCH  64  77
ATOM     77  C   UNL     1      11.087 -12.904   5.872  1.00  0.00    -0.014 A 
ATOM     78  C   UNL     1      11.883 -13.052   4.726  1.00  0.00     0.009 A 
ATOM     79  C   UNL     1      11.377 -13.677   7.007  1.00  0.00     0.009 A 
ATOM     80  C   UNL     1      12.930 -13.976   4.708  1.00  0.00     0.001 A 
ATOM     81  C   UNL     1      12.441 -14.581   6.995  1.00  0.00     0.001 A 
ATOM     82  C   UNL     1      13.211 -14.735   5.844  1.00  0.00     0.000 A 
ENDBRANCH  64  77
ENDBRANCH  38  39
ENDBRANCH  30  33
ENDBRANCH  28  29
ENDBRANCH  27  28
ENDBRANCH  26  27
ENDBRANCH   1  26
TORSDOF 16
