REMARK SMILES Nc1nc(N2CCOC[C@H]2C(=O)NCCCCCCNC(=O)c2ccc(-c3c4nc(c(-c5ccccc5)c5ccc([nH]5)c(-c5ccccc5)c5nc(c(-c6ccccc6)c6ccc3[nH]6)C=C5)C=C4)cc2)ccc1[N+](=O)[O-]
REMARK SMILES IDX 16 1 15 2 14 3 13 4 11 5 12 6 10 8 5 9 6 10 7 11 9 12 8 13
REMARK SMILES IDX 4 14 2 15 3 16 73 17 72 18 71 19 1 20 74 23 75 24 76 25
REMARK SMILES IDX 17 26 18 27 19 28 20 29 21 30 22 32 23 33 24 34 70 35 25 36
REMARK SMILES IDX 69 37 26 38 27 39 28 40 63 41 29 42 68 43 62 44 64 45 30 46
REMARK SMILES IDX 67 47 61 48 60 49 31 51 53 52 38 53 52 54 39 55 42 56 51 57
REMARK SMILES IDX 65 58 40 59 41 60 50 62 66 63 43 64 32 65 33 66 37 67 34 68
REMARK SMILES IDX 36 69 35 70 54 71 55 72 59 73 56 74 58 75 57 76 44 77 45 78
REMARK SMILES IDX 49 79 46 80 48 81 47 82
REMARK H PARENT 13 7 1 21 1 22 20 31 64 50 42 61
REMARK Flexibility Score: inf
ROOT
ATOM      1  C   UNL     1      -1.526   5.352   4.665  1.00  0.00     0.002 C 
ENDROOT
BRANCH   1   2
ATOM      2  C   UNL     1      -1.897   4.404   3.522  1.00  0.00     0.021 C 
BRANCH   2   3
ATOM      3  C   UNL     1      -2.053   5.102   2.170  1.00  0.00     0.116 C 
BRANCH   3   4
ATOM      4  N   UNL     1      -0.860   4.963   1.365  1.00  0.00    -0.354 N 
ATOM      5  C   UNL     1      -0.579   4.244   0.245  1.00  0.00     0.245 C 
ATOM      6  O   UNL     1       0.570   4.402  -0.197  1.00  0.00    -0.273 OA
ATOM      7  H   UNL     1      -0.099   5.494   1.693  1.00  0.00     0.163 HD
BRANCH   5   8
ATOM      8  C   UNL     1      -1.586   3.366  -0.535  1.00  0.00     0.199 C 
ATOM      9  N   UNL     1      -2.023   2.105   0.107  1.00  0.00    -0.340 N 
ATOM     10  C   UNL     1      -3.265   2.102   0.867  1.00  0.00     0.147 C 
ATOM     11  C   UNL     1      -4.362   2.835   0.092  1.00  0.00     0.181 C 
ATOM     12  C   UNL     1      -2.789   4.159  -1.094  1.00  0.00     0.195 C 
ATOM     13  O   UNL     1      -3.963   4.164  -0.261  1.00  0.00    -0.377 OA
BRANCH   9  14
ATOM     14  C   UNL     1      -1.244   0.974   0.004  1.00  0.00     0.132 A 
ATOM     15  C   UNL     1       0.887  -0.012   0.018  1.00  0.00     0.204 A 
ATOM     16  N   UNL     1       0.100   1.094   0.044  1.00  0.00    -0.207 NA
ATOM     17  C   UNL     1       0.337  -1.286  -0.070  1.00  0.00     0.311 A 
ATOM     18  C   UNL     1      -1.044  -1.426  -0.183  1.00  0.00     0.093 A 
ATOM     19  C   UNL     1      -1.831  -0.282  -0.147  1.00  0.00     0.054 A 
BRANCH  15  20
ATOM     20  N   UNL     1       2.230   0.249   0.193  1.00  0.00    -0.378 N 
ATOM     21  H   UNL     1       2.548   1.179   0.248  1.00  0.00     0.158 HD
ATOM     22  H   UNL     1       2.871  -0.495   0.264  1.00  0.00     0.158 HD
ENDBRANCH  15  20
BRANCH  17  23
ATOM     23  N   UNL     1       1.161  -2.486  -0.052  1.00  0.00     0.066 N 
ATOM     24  O   UNL     1       0.619  -3.539   0.318  1.00  0.00    -0.258 OA
ATOM     25  O   UNL     1       2.337  -2.404  -0.437  1.00  0.00    -0.258 OA
ENDBRANCH  17  23
ENDBRANCH   9  14
ENDBRANCH   5   8
ENDBRANCH   3   4
ENDBRANCH   2   3
ENDBRANCH   1   2
BRANCH   1  26
ATOM     26  C   UNL     1      -2.600   6.388   5.024  1.00  0.00     0.002 C 
BRANCH  26  27
ATOM     27  C   UNL     1      -3.989   5.824   5.340  1.00  0.00     0.021 C 
BRANCH  27  28
ATOM     28  C   UNL     1      -4.023   4.780   6.453  1.00  0.00     0.116 C 
BRANCH  28  29
ATOM     29  N   UNL     1      -3.538   5.311   7.717  1.00  0.00    -0.352 N 
ATOM     30  C   UNL     1      -4.169   5.399   8.932  1.00  0.00     0.251 C 
ATOM     31  H   UNL     1      -2.618   5.660   7.698  1.00  0.00     0.163 HD
ATOM     32  O   UNL     1      -3.675   6.066   9.836  1.00  0.00    -0.269 OA
BRANCH  30  33
ATOM     33  C   UNL     1      -5.451   4.700   9.155  1.00  0.00     0.039 A 
ATOM     34  C   UNL     1      -6.480   5.371   9.822  1.00  0.00     0.014 A 
ATOM     35  C   UNL     1      -5.628   3.377   8.741  1.00  0.00     0.014 A 
ATOM     36  C   UNL     1      -7.705   4.732  10.028  1.00  0.00     0.010 A 
ATOM     37  C   UNL     1      -6.870   2.765   8.887  1.00  0.00     0.010 A 
ATOM     38  C   UNL     1      -7.916   3.433   9.539  1.00  0.00    -0.014 A 
BRANCH  38  39
ATOM     39  C   UNL     1      -9.222   2.751   9.712  1.00  0.00     0.031 A 
ATOM     40  C   UNL     1      -9.325   1.525  10.576  1.00  0.00     0.074 A 
ATOM     41  C   UNL     1     -10.303   3.200   9.047  1.00  0.00     0.049 A 
ATOM     42  N   UNL     1     -10.364   0.765  10.812  1.00  0.00    -0.248 NA
ATOM     43  C   UNL     1      -8.090   1.082  11.243  1.00  0.00     0.031 C 
ATOM     44  C   UNL     1     -10.329   4.364   8.160  1.00  0.00     0.029 A 
ATOM     45  N   UNL     1     -11.590   2.727   9.017  1.00  0.00    -0.354 N 
ATOM     46  C   UNL     1      -9.906  -0.252  11.639  1.00  0.00     0.074 A 
ATOM     47  C   UNL     1      -8.486  -0.043  11.820  1.00  0.00     0.031 C 
ATOM     48  C   UNL     1     -11.580   4.537   7.702  1.00  0.00     0.029 A 
ATOM     49  C   UNL     1     -12.431   3.476   8.231  1.00  0.00     0.049 A 
ATOM     50  H   UNL     1     -11.883   1.928   9.512  1.00  0.00     0.167 HD
ATOM     51  C   UNL     1     -10.606  -1.260  12.214  1.00  0.00     0.031 A 
ATOM     52  C   UNL     1     -13.742   3.325   7.968  1.00  0.00     0.031 A 
ATOM     53  C   UNL     1     -12.018  -1.469  12.037  1.00  0.00     0.049 A 
ATOM     54  C   UNL     1     -14.491   2.181   8.588  1.00  0.00     0.074 A 
ATOM     55  C   UNL     1     -12.829  -2.431  12.613  1.00  0.00     0.029 A 
ATOM     56  N   UNL     1     -12.829  -0.701  11.215  1.00  0.00    -0.354 N 
ATOM     57  N   UNL     1     -14.056   1.258   9.410  1.00  0.00    -0.248 NA
ATOM     58  C   UNL     1     -15.915   2.063   8.246  1.00  0.00     0.031 C 
ATOM     59  C   UNL     1     -14.123  -2.274  12.101  1.00  0.00     0.029 A 
ATOM     60  C   UNL     1     -14.127  -1.182  11.248  1.00  0.00     0.049 A 
ATOM     61  H   UNL     1     -12.527   0.073  10.686  1.00  0.00     0.167 HD
ATOM     62  C   UNL     1     -15.158   0.467   9.709  1.00  0.00     0.074 A 
ATOM     63  C   UNL     1     -16.282   1.025   8.985  1.00  0.00     0.031 C 
ATOM     64  C   UNL     1     -15.233  -0.620  10.515  1.00  0.00     0.031 A 
BRANCH  51  65
ATOM     65  C   UNL     1      -9.834  -2.221  13.077  1.00  0.00    -0.014 A 
ATOM     66  C   UNL     1      -9.296  -1.821  14.312  1.00  0.00     0.009 A 
ATOM     67  C   UNL     1      -9.636  -3.542  12.649  1.00  0.00     0.009 A 
ATOM     68  C   UNL     1      -8.532  -2.708  15.073  1.00  0.00     0.001 A 
ATOM     69  C   UNL     1      -8.899  -4.437  13.428  1.00  0.00     0.001 A 
ATOM     70  C   UNL     1      -8.336  -4.015  14.631  1.00  0.00     0.000 A 
ENDBRANCH  51  65
BRANCH  52  71
ATOM     71  C   UNL     1     -14.440   4.312   7.104  1.00  0.00    -0.014 A 
ATOM     72  C   UNL     1     -15.329   5.237   7.671  1.00  0.00     0.009 A 
ATOM     73  C   UNL     1     -14.211   4.348   5.720  1.00  0.00     0.009 A 
ATOM     74  C   UNL     1     -15.988   6.169   6.867  1.00  0.00     0.001 A 
ATOM     75  C   UNL     1     -14.854   5.297   4.922  1.00  0.00     0.001 A 
ATOM     76  C   UNL     1     -15.746   6.202   5.495  1.00  0.00     0.000 A 
ENDBRANCH  52  71
BRANCH  64  77
ATOM     77  C   UNL     1     -16.583  -1.258  10.679  1.00  0.00    -0.014 A 
ATOM     78  C   UNL     1     -17.162  -2.016   9.650  1.00  0.00     0.009 A 
ATOM     79  C   UNL     1     -17.270  -1.124  11.896  1.00  0.00     0.009 A 
ATOM     80  C   UNL     1     -18.417  -2.602   9.827  1.00  0.00     0.001 A 
ATOM     81  C   UNL     1     -18.512  -1.733  12.079  1.00  0.00     0.001 A 
ATOM     82  C   UNL     1     -19.088  -2.463  11.041  1.00  0.00     0.000 A 
ENDBRANCH  64  77
ENDBRANCH  38  39
ENDBRANCH  30  33
ENDBRANCH  28  29
ENDBRANCH  27  28
ENDBRANCH  26  27
ENDBRANCH   1  26
TORSDOF 16
