REMARK SMILES COc1ccc(CCNc2ncnc3sc(C(=O)NCCCCCCNC(=O)c4ccc(-c5c6nc(c(-c7ccccc7)c7ccc([nH]7)c(-c7ccccc7)c7nc(c(-c8ccccc8)c8ccc5[nH]8)C=C7)C=C6)cc4)c(C)c23)cc1OC
REMARK SMILES IDX 21 1 20 2 19 3 17 4 18 5 16 7 10 8 11 9 79 10 12 11 14 12
REMARK SMILES IDX 77 13 13 14 15 15 78 16 9 17 8 19 7 20 6 21 3 22 4 23 81 24
REMARK SMILES IDX 5 25 80 26 2 27 1 28 82 29 83 30 22 31 23 32 24 33 25 34
REMARK SMILES IDX 26 35 27 36 28 38 29 39 30 40 76 41 31 42 75 43 32 44 33 45
REMARK SMILES IDX 34 46 69 47 35 48 74 49 68 50 70 51 36 52 73 53 67 54 66 55
REMARK SMILES IDX 37 57 59 58 44 59 58 60 45 61 48 62 57 63 71 64 46 65 47 66
REMARK SMILES IDX 56 68 72 69 49 70 38 71 39 72 43 73 40 74 42 75 41 76 60 77
REMARK SMILES IDX 61 78 65 79 62 80 64 81 63 82 50 83 51 84 55 85 52 86 54 87
REMARK SMILES IDX 53 88
REMARK H PARENT 19 6 9 18 26 37 70 56 48 67
REMARK Flexibility Score: inf
ROOT
ATOM      1  C   UNL     1      -7.666   9.191  -2.776  1.00  0.00     0.021 C 
ENDROOT
BRANCH   1   2
ATOM      2  C   UNL     1      -6.445   9.462  -1.898  1.00  0.00     0.116 C 
BRANCH   2   3
ATOM      3  N   UNL     1      -5.950   8.213  -1.379  1.00  0.00    -0.351 N 
ATOM      4  C   UNL     1      -4.971   7.353  -1.790  1.00  0.00     0.261 C 
ATOM      5  O   UNL     1      -5.042   6.246  -1.246  1.00  0.00    -0.268 OA
ATOM      6  H   UNL     1      -6.411   7.919  -0.561  1.00  0.00     0.163 HD
BRANCH   4   7
ATOM      7  C   UNL     1      -3.887   7.715  -2.707  1.00  0.00     0.098 A 
ATOM      8  C   UNL     1      -0.361   7.578  -4.019  1.00  0.00     0.138 A 
ATOM      9  N   UNL     1       0.255   8.508  -4.777  1.00  0.00    -0.219 NA
ATOM     10  C   UNL     1      -1.723   7.768  -3.682  1.00  0.00     0.057 A 
ATOM     11  C   UNL     1      -0.471   9.526  -5.263  1.00  0.00     0.225 A 
ATOM     12  C   UNL     1      -2.342   8.849  -4.276  1.00  0.00     0.129 A 
ATOM     13  C   UNL     1      -2.639   7.093  -2.770  1.00  0.00    -0.014 A 
ATOM     14  N   UNL     1      -1.776   9.754  -5.090  1.00  0.00    -0.225 NA
ATOM     15  S   UNL     1      -3.991   8.924  -3.909  1.00  0.00    -0.110 S 
ATOM     16  C   UNL     1      -2.241   5.925  -1.935  1.00  0.00     0.047 C 
BRANCH   8  17
ATOM     17  N   UNL     1       0.327   6.454  -3.628  1.00  0.00    -0.369 N 
ATOM     18  H   UNL     1      -0.171   5.608  -3.554  1.00  0.00     0.162 HD
BRANCH  17  19
ATOM     19  C   UNL     1       1.744   6.443  -3.317  1.00  0.00     0.119 C 
BRANCH  19  20
ATOM     20  C   UNL     1       1.981   5.896  -1.889  1.00  0.00     0.057 C 
BRANCH  20  21
ATOM     21  C   UNL     1       1.761   4.406  -1.686  1.00  0.00    -0.042 A 
ATOM     22  C   UNL     1       1.313   1.647  -1.225  1.00  0.00     0.160 A 
ATOM     23  C   UNL     1       0.280   2.461  -1.675  1.00  0.00     0.051 A 
ATOM     24  C   UNL     1       2.583   2.197  -1.009  1.00  0.00     0.160 A 
ATOM     25  C   UNL     1       0.515   3.815  -1.895  1.00  0.00     0.008 A 
ATOM     26  C   UNL     1       2.788   3.574  -1.228  1.00  0.00     0.054 A 
BRANCH  22  27
ATOM     27  O   UNL     1       1.067   0.305  -1.125  1.00  0.00    -0.493 OA
ATOM     28  C   UNL     1       0.217  -0.011  -0.022  1.00  0.00     0.278 C 
ENDBRANCH  22  27
BRANCH  24  29
ATOM     29  O   UNL     1       3.721   1.551  -0.603  1.00  0.00    -0.493 OA
ATOM     30  C   UNL     1       3.600   0.209  -0.162  1.00  0.00     0.278 C 
ENDBRANCH  24  29
ENDBRANCH  20  21
ENDBRANCH  19  20
ENDBRANCH  17  19
ENDBRANCH   8  17
ENDBRANCH   4   7
ENDBRANCH   2   3
ENDBRANCH   1   2
BRANCH   1  31
ATOM     31  C   UNL     1      -8.920   8.842  -1.964  1.00  0.00     0.002 C 
BRANCH  31  32
ATOM     32  C   UNL     1      -9.269   9.835  -0.843  1.00  0.00     0.002 C 
BRANCH  32  33
ATOM     33  C   UNL     1      -9.231  11.323  -1.226  1.00  0.00     0.021 C 
BRANCH  33  34
ATOM     34  C   UNL     1     -10.300  11.716  -2.229  1.00  0.00     0.116 C 
BRANCH  34  35
ATOM     35  N   UNL     1     -11.638  11.613  -1.657  1.00  0.00    -0.352 N 
ATOM     36  C   UNL     1     -12.857  11.754  -2.289  1.00  0.00     0.251 C 
ATOM     37  H   UNL     1     -11.677  11.418  -0.693  1.00  0.00     0.163 HD
ATOM     38  O   UNL     1     -13.869  12.011  -1.665  1.00  0.00    -0.269 OA
BRANCH  36  39
ATOM     39  C   UNL     1     -12.902  11.574  -3.749  1.00  0.00     0.039 A 
ATOM     40  C   UNL     1     -13.658  12.424  -4.560  1.00  0.00     0.014 A 
ATOM     41  C   UNL     1     -12.142  10.545  -4.298  1.00  0.00     0.014 A 
ATOM     42  C   UNL     1     -13.582  12.269  -5.941  1.00  0.00     0.010 A 
ATOM     43  C   UNL     1     -11.938  10.502  -5.650  1.00  0.00     0.010 A 
ATOM     44  C   UNL     1     -12.705  11.313  -6.477  1.00  0.00    -0.014 A 
BRANCH  44  45
ATOM     45  C   UNL     1     -12.502  11.203  -7.914  1.00  0.00     0.031 A 
ATOM     46  C   UNL     1     -12.051  12.453  -8.579  1.00  0.00     0.074 A 
ATOM     47  C   UNL     1     -12.492  10.015  -8.557  1.00  0.00     0.049 A 
ATOM     48  N   UNL     1     -12.705  13.170  -9.429  1.00  0.00    -0.248 NA
ATOM     49  C   UNL     1     -10.769  13.043  -8.159  1.00  0.00     0.031 C 
ATOM     50  C   UNL     1     -12.588   8.665  -7.985  1.00  0.00     0.029 A 
ATOM     51  N   UNL     1     -12.259   9.762  -9.871  1.00  0.00    -0.354 N 
ATOM     52  C   UNL     1     -11.846  14.197  -9.808  1.00  0.00     0.074 A 
ATOM     53  C   UNL     1     -10.751  14.172  -8.871  1.00  0.00     0.031 C 
ATOM     54  C   UNL     1     -12.166   7.758  -8.893  1.00  0.00     0.029 A 
ATOM     55  C   UNL     1     -11.952   8.438 -10.156  1.00  0.00     0.049 A 
ATOM     56  H   UNL     1     -12.303  10.460 -10.564  1.00  0.00     0.167 HD
ATOM     57  C   UNL     1     -11.977  14.819 -11.013  1.00  0.00     0.031 A 
ATOM     58  C   UNL     1     -11.524   7.943 -11.342  1.00  0.00     0.031 A 
ATOM     59  C   UNL     1     -13.248  14.524 -11.626  1.00  0.00     0.049 A 
ATOM     60  C   UNL     1     -11.886   8.930 -12.385  1.00  0.00     0.074 A 
ATOM     61  C   UNL     1     -14.569  14.708 -11.269  1.00  0.00     0.029 A 
ATOM     62  N   UNL     1     -13.255  13.568 -12.614  1.00  0.00    -0.354 N 
ATOM     63  N   UNL     1     -13.116   9.199 -12.717  1.00  0.00    -0.248 NA
ATOM     64  C   UNL     1     -10.908   9.947 -12.733  1.00  0.00     0.031 C 
ATOM     65  C   UNL     1     -15.230  13.517 -11.695  1.00  0.00     0.029 A 
ATOM     66  C   UNL     1     -14.297  12.716 -12.357  1.00  0.00     0.049 A 
ATOM     67  H   UNL     1     -12.626  13.507 -13.369  1.00  0.00     0.167 HD
ATOM     68  C   UNL     1     -13.139  10.575 -12.891  1.00  0.00     0.074 A 
ATOM     69  C   UNL     1     -11.732  10.965 -12.996  1.00  0.00     0.031 C 
ATOM     70  C   UNL     1     -14.271  11.298 -12.643  1.00  0.00     0.031 A 
BRANCH  57  71
ATOM     71  C   UNL     1     -10.810  15.330 -11.825  1.00  0.00    -0.014 A 
ATOM     72  C   UNL     1     -11.072  15.965 -13.053  1.00  0.00     0.009 A 
ATOM     73  C   UNL     1      -9.474  14.960 -11.580  1.00  0.00     0.009 A 
ATOM     74  C   UNL     1     -10.069  16.137 -14.015  1.00  0.00     0.001 A 
ATOM     75  C   UNL     1      -8.462  15.169 -12.520  1.00  0.00     0.001 A 
ATOM     76  C   UNL     1      -8.766  15.730 -13.751  1.00  0.00     0.000 A 
ENDBRANCH  57  71
BRANCH  58  77
ATOM     77  C   UNL     1     -10.601   6.820 -11.604  1.00  0.00    -0.014 A 
ATOM     78  C   UNL     1     -10.532   6.230 -12.876  1.00  0.00     0.009 A 
ATOM     79  C   UNL     1      -9.582   6.512 -10.683  1.00  0.00     0.009 A 
ATOM     80  C   UNL     1      -9.459   5.400 -13.228  1.00  0.00     0.001 A 
ATOM     81  C   UNL     1      -8.512   5.683 -11.034  1.00  0.00     0.001 A 
ATOM     82  C   UNL     1      -8.442   5.140 -12.312  1.00  0.00     0.000 A 
ENDBRANCH  58  77
BRANCH  70  83
ATOM     83  C   UNL     1     -15.556  10.541 -12.400  1.00  0.00    -0.014 A 
ATOM     84  C   UNL     1     -15.732   9.638 -11.334  1.00  0.00     0.009 A 
ATOM     85  C   UNL     1     -16.674  10.866 -13.182  1.00  0.00     0.009 A 
ATOM     86  C   UNL     1     -16.981   9.059 -11.082  1.00  0.00     0.001 A 
ATOM     87  C   UNL     1     -17.924  10.304 -12.918  1.00  0.00     0.001 A 
ATOM     88  C   UNL     1     -18.077   9.396 -11.872  1.00  0.00     0.000 A 
ENDBRANCH  70  83
ENDBRANCH  44  45
ENDBRANCH  36  39
ENDBRANCH  34  35
ENDBRANCH  33  34
ENDBRANCH  32  33
ENDBRANCH  31  32
ENDBRANCH   1  31
TORSDOF 19
