REMARK SMILES O=C(NCCCCCCNC(=O)c1ccc(-c2c3nc(c(-c4ccccc4)c4ccc([nH]4)c(-c4ccccc4)c4nc(c(-c5ccccc5)c5ccc2[nH]5)C=C4)C=C3)cc1)C1=Cc2cc(Cl)cc(-c3ccc(Cl)cc3)c2O[C@@H]1C(F)(F)F
REMARK SMILES IDX 7 1 6 2 5 3 4 4 3 5 1 6 2 7 61 9 62 10 78 11 63 12 77 13
REMARK SMILES IDX 64 14 76 15 65 16 68 17 66 18 67 19 79 20 80 21 81 22 82 23
REMARK SMILES IDX 69 24 70 25 75 26 71 27 74 28 72 29 73 30 8 31 9 32 10 33
REMARK SMILES IDX 11 34 12 36 13 37 14 38 60 39 15 40 59 41 16 42 17 43 18 44
REMARK SMILES IDX 53 45 19 46 58 47 52 48 54 49 20 50 57 51 51 52 50 53 21 55
REMARK SMILES IDX 43 56 28 57 42 58 29 59 32 60 41 61 55 62 30 63 31 64 40 66
REMARK SMILES IDX 56 67 33 68 22 69 23 70 27 71 24 72 26 73 25 74 44 75 45 76
REMARK SMILES IDX 49 77 46 78 48 79 47 80 34 81 35 82 39 83 36 84 38 85 37 86
REMARK H PARENT 3 8 10 35 54 54 32 65
REMARK Flexibility Score: inf
ROOT
ATOM      1  C   UNL     1       4.402   4.608   1.470  1.00  0.00     0.002 C 
ENDROOT
BRANCH   1   2
ATOM      2  C   UNL     1       3.813   4.633   0.055  1.00  0.00     0.002 C 
BRANCH   2   3
ATOM      3  C   UNL     1       4.236   3.508  -0.891  1.00  0.00     0.021 C 
BRANCH   3   4
ATOM      4  C   UNL     1       4.018   2.078  -0.402  1.00  0.00     0.116 C 
BRANCH   4   5
ATOM      5  N   UNL     1       2.699   1.529  -0.658  1.00  0.00    -0.352 N 
ATOM      6  O   UNL     1       1.067  -0.005  -0.762  1.00  0.00    -0.270 OA
ATOM      7  C   UNL     1       2.268   0.231  -0.637  1.00  0.00     0.251 C 
ATOM      8  H   UNL     1       2.007   2.193  -0.880  1.00  0.00     0.163 HD
BRANCH   7   9
ATOM      9  C   UNL     1       3.185  -0.923  -0.382  1.00  0.00     0.067 C 
ATOM     10  C   UNL     1       4.452  -0.953  -0.829  1.00  0.00     0.025 C 
ATOM     11  C   UNL     1       2.888  -1.603   0.936  1.00  0.00     0.314 C 
ATOM     12  C   UNL     1       5.433  -0.734   0.265  1.00  0.00     0.019 A 
ATOM     13  O   UNL     1       3.736  -1.061   1.985  1.00  0.00    -0.475 OA
ATOM     14  C   UNL     1       6.718  -0.316  -0.095  1.00  0.00     0.032 A 
ATOM     15  C   UNL     1       4.997  -0.653   1.606  1.00  0.00     0.135 A 
ATOM     16  C   UNL     1       7.538   0.257   0.868  1.00  0.00     0.042 A 
ATOM     17  C   UNL     1       5.800  -0.011   2.568  1.00  0.00     0.026 A 
ATOM     18  Cl  UNL     1       9.060   0.915   0.406  1.00  0.00    -0.084 Cl
ATOM     19  C   UNL     1       7.085   0.419   2.176  1.00  0.00     0.033 A 
BRANCH  11  20
ATOM     20  C   UNL     1       2.980  -3.138   0.834  1.00  0.00     0.429 C 
ATOM     21  F   UNL     1       2.590  -3.737   1.984  1.00  0.00    -0.167 F 
ATOM     22  F   UNL     1       2.183  -3.618  -0.152  1.00  0.00    -0.167 F 
ATOM     23  F   UNL     1       4.237  -3.569   0.567  1.00  0.00    -0.167 F 
ENDBRANCH  11  20
BRANCH  17  24
ATOM     24  C   UNL     1       5.282   0.420   3.883  1.00  0.00    -0.015 A 
ATOM     25  C   UNL     1       5.210   1.798   4.164  1.00  0.00     0.010 A 
ATOM     26  C   UNL     1       4.854  -0.468   4.875  1.00  0.00     0.010 A 
ATOM     27  C   UNL     1       4.758   2.285   5.389  1.00  0.00     0.021 A 
ATOM     28  C   UNL     1       4.399   0.013   6.112  1.00  0.00     0.021 A 
ATOM     29  C   UNL     1       4.360   1.385   6.366  1.00  0.00     0.041 A 
ATOM     30  Cl  UNL     1       3.826   1.971   7.891  1.00  0.00    -0.084 Cl
ENDBRANCH  17  24
ENDBRANCH   7   9
ENDBRANCH   4   5
ENDBRANCH   3   4
ENDBRANCH   2   3
ENDBRANCH   1   2
BRANCH   1  31
ATOM     31  C   UNL     1       5.916   4.414   1.584  1.00  0.00     0.021 C 
BRANCH  31  32
ATOM     32  C   UNL     1       6.787   5.476   0.927  1.00  0.00     0.116 C 
BRANCH  32  33
ATOM     33  N   UNL     1       6.659   6.766   1.582  1.00  0.00    -0.352 N 
ATOM     34  C   UNL     1       7.591   7.548   2.220  1.00  0.00     0.251 C 
ATOM     35  H   UNL     1       5.750   7.145   1.565  1.00  0.00     0.163 HD
ATOM     36  O   UNL     1       7.208   8.507   2.886  1.00  0.00    -0.269 OA
BRANCH  34  37
ATOM     37  C   UNL     1       9.044   7.259   2.131  1.00  0.00     0.039 A 
ATOM     38  C   UNL     1       9.856   7.559   3.233  1.00  0.00     0.014 A 
ATOM     39  C   UNL     1       9.632   6.768   0.964  1.00  0.00     0.014 A 
ATOM     40  C   UNL     1      11.234   7.327   3.177  1.00  0.00     0.010 A 
ATOM     41  C   UNL     1      10.990   6.451   0.940  1.00  0.00     0.010 A 
ATOM     42  C   UNL     1      11.811   6.746   2.037  1.00  0.00    -0.014 A 
BRANCH  42  43
ATOM     43  C   UNL     1      13.270   6.473   1.957  1.00  0.00     0.031 A 
ATOM     44  C   UNL     1      14.113   7.169   0.918  1.00  0.00     0.074 A 
ATOM     45  C   UNL     1      13.830   5.559   2.773  1.00  0.00     0.049 A 
ATOM     46  N   UNL     1      15.383   7.010   0.640  1.00  0.00    -0.248 NA
ATOM     47  C   UNL     1      13.432   8.152   0.058  1.00  0.00     0.031 C 
ATOM     48  C   UNL     1      13.123   4.791   3.800  1.00  0.00     0.029 A 
ATOM     49  N   UNL     1      15.127   5.117   2.863  1.00  0.00    -0.354 N 
ATOM     50  C   UNL     1      15.642   7.843  -0.441  1.00  0.00     0.074 A 
ATOM     51  C   UNL     1      14.391   8.475  -0.797  1.00  0.00     0.031 C 
ATOM     52  C   UNL     1      13.999   3.998   4.437  1.00  0.00     0.029 A 
ATOM     53  C   UNL     1      15.319   4.167   3.837  1.00  0.00     0.049 A 
ATOM     54  H   UNL     1      15.850   5.448   2.284  1.00  0.00     0.167 HD
ATOM     55  C   UNL     1      16.817   8.078  -1.071  1.00  0.00     0.031 A 
ATOM     56  C   UNL     1      16.431   3.502   4.203  1.00  0.00     0.031 A 
ATOM     57  C   UNL     1      18.069   7.477  -0.696  1.00  0.00     0.049 A 
ATOM     58  C   UNL     1      17.723   3.782   3.486  1.00  0.00     0.074 A 
ATOM     59  C   UNL     1      19.328   7.709  -1.223  1.00  0.00     0.029 A 
ATOM     60  N   UNL     1      18.220   6.529   0.303  1.00  0.00    -0.354 N 
ATOM     61  N   UNL     1      17.963   4.625   2.512  1.00  0.00    -0.248 NA
ATOM     62  C   UNL     1      18.901   3.021   3.929  1.00  0.00     0.031 C 
ATOM     63  C   UNL     1      20.234   6.863  -0.576  1.00  0.00     0.029 A 
ATOM     64  C   UNL     1      19.547   6.145   0.390  1.00  0.00     0.049 A 
ATOM     65  H   UNL     1      17.492   6.179   0.866  1.00  0.00     0.167 HD
ATOM     66  C   UNL     1      19.322   4.520   2.247  1.00  0.00     0.074 A 
ATOM     67  C   UNL     1      19.857   3.543   3.172  1.00  0.00     0.031 C 
ATOM     68  C   UNL     1      20.063   5.176   1.321  1.00  0.00     0.031 A 
BRANCH  55  69
ATOM     69  C   UNL     1      16.806   9.023  -2.241  1.00  0.00    -0.014 A 
ATOM     70  C   UNL     1      16.616  10.402  -2.065  1.00  0.00     0.009 A 
ATOM     71  C   UNL     1      17.037   8.530  -3.536  1.00  0.00     0.009 A 
ATOM     72  C   UNL     1      16.621  11.264  -3.164  1.00  0.00     0.001 A 
ATOM     73  C   UNL     1      17.071   9.397  -4.629  1.00  0.00     0.001 A 
ATOM     74  C   UNL     1      16.854  10.762  -4.444  1.00  0.00     0.000 A 
ENDBRANCH  55  69
BRANCH  56  75
ATOM     75  C   UNL     1      16.386   2.519   5.317  1.00  0.00    -0.014 A 
ATOM     76  C   UNL     1      17.019   2.801   6.537  1.00  0.00     0.009 A 
ATOM     77  C   UNL     1      15.729   1.289   5.163  1.00  0.00     0.009 A 
ATOM     78  C   UNL     1      17.023   1.859   7.569  1.00  0.00     0.001 A 
ATOM     79  C   UNL     1      15.709   0.361   6.207  1.00  0.00     0.001 A 
ATOM     80  C   UNL     1      16.365   0.642   7.404  1.00  0.00     0.000 A 
ENDBRANCH  56  75
BRANCH  68  81
ATOM     81  C   UNL     1      21.537   4.890   1.292  1.00  0.00    -0.014 A 
ATOM     82  C   UNL     1      22.035   3.675   0.797  1.00  0.00     0.009 A 
ATOM     83  C   UNL     1      22.442   5.870   1.730  1.00  0.00     0.009 A 
ATOM     84  C   UNL     1      23.410   3.435   0.772  1.00  0.00     0.001 A 
ATOM     85  C   UNL     1      23.817   5.639   1.676  1.00  0.00     0.001 A 
ATOM     86  C   UNL     1      24.299   4.418   1.206  1.00  0.00     0.000 A 
ENDBRANCH  68  81
ENDBRANCH  42  43
ENDBRANCH  34  37
ENDBRANCH  32  33
ENDBRANCH  31  32
ENDBRANCH   1  31
TORSDOF 15
