REMARK SMILES CC(C)(C)OC(=O)[C@H]1CC[C@]1([NH3+])C(=O)NCCCCCCNC(=O)c1ccc(-c2c3nc(c(-c4ccccc4)c4ccc([nH]4)c(-c4ccccc4)c4nc(c(-c5ccccc5)c5ccc2[nH]5)C=C4)C=C3)cc1
REMARK SMILES IDX 18 1 17 2 16 3 15 4 13 5 14 6 11 8 8 9 9 10 10 11 6 12 7 13
REMARK SMILES IDX 5 14 2 15 1 16 3 17 4 18 12 19 19 23 20 24 21 25 22 26 23 27
REMARK SMILES IDX 24 29 25 30 26 31 72 32 27 33 71 34 28 35 29 36 30 37 65 38
REMARK SMILES IDX 31 39 70 40 64 41 66 42 32 43 69 44 63 45 62 46 33 48 55 49
REMARK SMILES IDX 40 50 54 51 41 52 44 53 53 54 67 55 42 56 43 57 52 59 68 60
REMARK SMILES IDX 45 61 34 62 35 63 39 64 36 65 38 66 37 67 56 68 57 69 61 70
REMARK SMILES IDX 58 71 60 72 59 73 46 74 47 75 51 76 48 77 50 78 49 79
REMARK H PARENT 15 7 12 20 12 21 12 22 22 28 66 47 44 58
REMARK Flexibility Score: inf
ROOT
ATOM      1  C   UNL     1      -0.364   5.897  -1.286  1.00  0.00     0.002 C 
ENDROOT
BRANCH   1   2
ATOM      2  C   UNL     1       0.607   5.214  -0.319  1.00  0.00     0.021 C 
BRANCH   2   3
ATOM      3  C   UNL     1       0.835   5.973   0.986  1.00  0.00     0.116 C 
BRANCH   3   4
ATOM      4  N   UNL     1      -0.387   6.076   1.763  1.00  0.00    -0.351 N 
ATOM      5  C   UNL     1      -0.595   5.717   3.076  1.00  0.00     0.282 C 
ATOM      6  O   UNL     1      -1.724   5.907   3.541  1.00  0.00    -0.268 OA
ATOM      7  H   UNL     1      -1.165   6.450   1.291  1.00  0.00     0.163 HD
BRANCH   5   8
ATOM      8  C   UNL     1       0.626   5.111   3.883  1.00  0.00     0.187 C 
ATOM      9  C   UNL     1       1.085   3.676   3.471  1.00  0.00     0.170 C 
ATOM     10  C   UNL     1       0.241   3.150   4.665  1.00  0.00     0.029 C 
ATOM     11  C   UNL     1       0.350   4.542   5.303  1.00  0.00     0.081 C 
BRANCH   9  12
ATOM     12  C   UNL     1       2.538   3.168   3.394  1.00  0.00     0.316 C 
ATOM     13  O   UNL     1       2.830   2.021   3.056  1.00  0.00    -0.252 OA
BRANCH  12  14
ATOM     14  O   UNL     1       3.470   4.112   3.705  1.00  0.00    -0.460 OA
BRANCH  14  15
ATOM     15  C   UNL     1       4.892   3.851   3.590  1.00  0.00     0.104 C 
ATOM     16  C   UNL     1       5.557   5.183   3.970  1.00  0.00     0.056 C 
ATOM     17  C   UNL     1       5.286   3.506   2.149  1.00  0.00     0.056 C 
ATOM     18  C   UNL     1       5.335   2.775   4.585  1.00  0.00     0.056 C 
ENDBRANCH  14  15
ENDBRANCH  12  14
ENDBRANCH   9  12
BRANCH   8  19
ATOM     19  N   UNL     1       1.726   6.085   4.030  1.00  0.00    -0.344 N 
ATOM     20  H   UNL     1       2.490   5.658   4.553  1.00  0.00     0.345 HD
ATOM     21  H   UNL     1       1.388   6.907   4.532  1.00  0.00     0.345 HD
ATOM     22  H   UNL     1       2.060   6.364   3.108  1.00  0.00     0.345 HD
ENDBRANCH   8  19
ENDBRANCH   5   8
ENDBRANCH   3   4
ENDBRANCH   2   3
ENDBRANCH   1   2
BRANCH   1  23
ATOM     23  C   UNL     1       0.014   7.328  -1.681  1.00  0.00     0.002 C 
BRANCH  23  24
ATOM     24  C   UNL     1       1.406   7.483  -2.299  1.00  0.00     0.021 C 
BRANCH  24  25
ATOM     25  C   UNL     1       1.653   6.629  -3.538  1.00  0.00     0.116 C 
BRANCH  25  26
ATOM     26  N   UNL     1       0.746   6.958  -4.626  1.00  0.00    -0.352 N 
ATOM     27  C   UNL     1       1.029   7.262  -5.933  1.00  0.00     0.251 C 
ATOM     28  H   UNL     1      -0.210   6.963  -4.390  1.00  0.00     0.163 HD
ATOM     29  O   UNL     1       0.146   7.691  -6.673  1.00  0.00    -0.269 OA
BRANCH  27  30
ATOM     30  C   UNL     1       2.403   7.097  -6.448  1.00  0.00     0.039 A 
ATOM     31  C   UNL     1       2.956   8.113  -7.233  1.00  0.00     0.014 A 
ATOM     32  C   UNL     1       3.144   5.946  -6.165  1.00  0.00     0.014 A 
ATOM     33  C   UNL     1       4.273   8.000  -7.683  1.00  0.00     0.010 A 
ATOM     34  C   UNL     1       4.479   5.868  -6.553  1.00  0.00     0.010 A 
ATOM     35  C   UNL     1       5.057   6.894  -7.318  1.00  0.00    -0.014 A 
BRANCH  35  36
ATOM     36  C   UNL     1       6.484   6.796  -7.720  1.00  0.00     0.031 A 
ATOM     37  C   UNL     1       6.942   5.687  -8.629  1.00  0.00     0.074 A 
ATOM     38  C   UNL     1       7.379   7.669  -7.216  1.00  0.00     0.049 A 
ATOM     39  N   UNL     1       8.153   5.409  -9.043  1.00  0.00    -0.248 NA
ATOM     40  C   UNL     1       5.913   4.755  -9.118  1.00  0.00     0.031 C 
ATOM     41  C   UNL     1       7.070   8.766  -6.294  1.00  0.00     0.029 A 
ATOM     42  N   UNL     1       8.736   7.767  -7.402  1.00  0.00    -0.354 N 
ATOM     43  C   UNL     1       8.033   4.261  -9.817  1.00  0.00     0.074 A 
ATOM     44  C   UNL     1       6.641   3.872  -9.787  1.00  0.00     0.031 C 
ATOM     45  C   UNL     1       8.199   9.438  -6.015  1.00  0.00     0.029 A 
ATOM     46  C   UNL     1       9.316   8.797  -6.700  1.00  0.00     0.049 A 
ATOM     47  H   UNL     1       9.245   7.157  -7.983  1.00  0.00     0.167 HD
ATOM     48  C   UNL     1       8.995   3.599 -10.502  1.00  0.00     0.031 A 
ATOM     49  C   UNL     1      10.606   9.176  -6.609  1.00  0.00     0.031 A 
ATOM     50  C   UNL     1      10.375   4.001 -10.555  1.00  0.00     0.049 A 
ATOM     51  C   UNL     1      11.651   8.412  -7.377  1.00  0.00     0.074 A 
ATOM     52  C   UNL     1      11.405   3.440 -11.290  1.00  0.00     0.029 A 
ATOM     53  N   UNL     1      10.919   5.056  -9.842  1.00  0.00    -0.354 N 
ATOM     54  N   UNL     1      11.504   7.386  -8.179  1.00  0.00    -0.248 NA
ATOM     55  C   UNL     1      13.041   8.868  -7.233  1.00  0.00     0.031 C 
ATOM     56  C   UNL     1      12.586   4.117 -10.973  1.00  0.00     0.029 A 
ATOM     57  C   UNL     1      12.278   5.140 -10.092  1.00  0.00     0.049 A 
ATOM     58  H   UNL     1      10.415   5.657  -9.246  1.00  0.00     0.167 HD
ATOM     59  C   UNL     1      12.774   7.099  -8.662  1.00  0.00     0.074 A 
ATOM     60  C   UNL     1      13.676   8.069  -8.078  1.00  0.00     0.031 C 
ATOM     61  C   UNL     1      13.161   6.118  -9.513  1.00  0.00     0.031 A 
BRANCH  48  62
ATOM     62  C   UNL     1       8.599   2.357 -11.251  1.00  0.00    -0.014 A 
ATOM     63  C   UNL     1       7.829   2.423 -12.423  1.00  0.00     0.009 A 
ATOM     64  C   UNL     1       9.074   1.108 -10.820  1.00  0.00     0.009 A 
ATOM     65  C   UNL     1       7.526   1.261 -13.135  1.00  0.00     0.001 A 
ATOM     66  C   UNL     1       8.792  -0.049 -11.549  1.00  0.00     0.001 A 
ATOM     67  C   UNL     1       8.014   0.028 -12.703  1.00  0.00     0.000 A 
ENDBRANCH  48  62
BRANCH  49  68
ATOM     68  C   UNL     1      10.998  10.330  -5.757  1.00  0.00    -0.014 A 
ATOM     69  C   UNL     1      11.507  11.505  -6.333  1.00  0.00     0.009 A 
ATOM     70  C   UNL     1      10.914  10.246  -4.358  1.00  0.00     0.009 A 
ATOM     71  C   UNL     1      11.966  12.549  -5.528  1.00  0.00     0.001 A 
ATOM     72  C   UNL     1      11.341  11.306  -3.556  1.00  0.00     0.001 A 
ATOM     73  C   UNL     1      11.881  12.450  -4.140  1.00  0.00     0.000 A 
ENDBRANCH  49  68
BRANCH  61  74
ATOM     74  C   UNL     1      14.612   6.074  -9.903  1.00  0.00    -0.014 A 
ATOM     75  C   UNL     1      15.604   5.678  -8.993  1.00  0.00     0.009 A 
ATOM     76  C   UNL     1      14.984   6.397 -11.218  1.00  0.00     0.009 A 
ATOM     77  C   UNL     1      16.944   5.642  -9.383  1.00  0.00     0.001 A 
ATOM     78  C   UNL     1      16.320   6.328 -11.614  1.00  0.00     0.001 A 
ATOM     79  C   UNL     1      17.300   5.961 -10.693  1.00  0.00     0.000 A 
ENDBRANCH  61  74
ENDBRANCH  35  36
ENDBRANCH  27  30
ENDBRANCH  25  26
ENDBRANCH  24  25
ENDBRANCH  23  24
ENDBRANCH   1  23
TORSDOF 17
