REMARK SMILES O=C(NCCCCCCNC(=O)c1cccc(OS(=O)(=O)c2cccc([N+](=O)[O-])c2)c1)c1ccc(-c2c3nc(c(-c4ccccc4)c4ccc([nH]4)c(-c4ccccc4)c4nc(c(-c5ccccc5)c5ccc2[nH]5)C=C4)C=C3)cc1
REMARK SMILES IDX 7 1 6 2 5 3 4 4 3 5 1 6 2 7 32 9 33 10 79 11 34 12 78 13
REMARK SMILES IDX 35 14 36 15 37 16 72 17 38 18 77 19 71 20 73 21 39 22 76 23
REMARK SMILES IDX 70 24 69 25 40 27 62 28 47 29 61 30 48 31 51 32 60 33 74 34
REMARK SMILES IDX 49 35 50 36 59 38 75 39 52 40 41 41 42 42 46 43 43 44 45 45
REMARK SMILES IDX 44 46 63 47 64 48 68 49 65 50 67 51 66 52 53 53 54 54 58 55
REMARK SMILES IDX 55 56 57 57 56 58 8 59 9 60 10 61 11 62 12 64 13 65 14 66
REMARK SMILES IDX 31 67 15 68 17 69 16 70 18 71 19 72 20 73 21 74 22 75 23 76
REMARK SMILES IDX 30 77 24 78 26 79 25 80 27 81 28 82 29 83
REMARK H PARENT 3 8 73 26 51 37 10 63
REMARK Flexibility Score: inf
ROOT
ATOM      1  C   UNL     1       4.669  -2.909   3.353  1.00  0.00     0.002 C 
ENDROOT
BRANCH   1   2
ATOM      2  C   UNL     1       4.166  -1.492   3.641  1.00  0.00     0.002 C 
BRANCH   2   3
ATOM      3  C   UNL     1       4.656  -0.405   2.682  1.00  0.00     0.021 C 
BRANCH   3   4
ATOM      4  C   UNL     1       4.410  -0.678   1.200  1.00  0.00     0.116 C 
BRANCH   4   5
ATOM      5  N   UNL     1       2.999  -0.819   0.886  1.00  0.00    -0.352 N 
ATOM      6  O   UNL     1       1.024  -0.310  -0.070  1.00  0.00    -0.269 OA
ATOM      7  C   UNL     1       2.243  -0.165  -0.052  1.00  0.00     0.251 C 
ATOM      8  H   UNL     1       2.513  -1.482   1.428  1.00  0.00     0.163 HD
BRANCH   7   9
ATOM      9  C   UNL     1       2.886   0.733  -1.035  1.00  0.00     0.039 A 
ATOM     10  C   UNL     1       4.023   0.338  -1.746  1.00  0.00     0.014 A 
ATOM     11  C   UNL     1       2.303   1.980  -1.279  1.00  0.00     0.014 A 
ATOM     12  C   UNL     1       4.633   1.225  -2.631  1.00  0.00     0.010 A 
ATOM     13  C   UNL     1       2.884   2.848  -2.204  1.00  0.00     0.010 A 
ATOM     14  C   UNL     1       4.064   2.485  -2.873  1.00  0.00    -0.014 A 
BRANCH  14  15
ATOM     15  C   UNL     1       4.669   3.407  -3.863  1.00  0.00     0.031 A 
ATOM     16  C   UNL     1       5.295   4.699  -3.425  1.00  0.00     0.074 A 
ATOM     17  C   UNL     1       4.607   3.096  -5.171  1.00  0.00     0.049 A 
ATOM     18  N   UNL     1       5.794   5.662  -4.158  1.00  0.00    -0.248 NA
ATOM     19  C   UNL     1       5.363   4.944  -1.977  1.00  0.00     0.031 C 
ATOM     20  C   UNL     1       4.017   1.875  -5.721  1.00  0.00     0.029 A 
ATOM     21  N   UNL     1       5.031   3.791  -6.275  1.00  0.00    -0.354 N 
ATOM     22  C   UNL     1       6.210   6.639  -3.264  1.00  0.00     0.074 A 
ATOM     23  C   UNL     1       5.894   6.158  -1.935  1.00  0.00     0.031 C 
ATOM     24  C   UNL     1       4.118   1.905  -7.059  1.00  0.00     0.029 A 
ATOM     25  C   UNL     1       4.732   3.167  -7.460  1.00  0.00     0.049 A 
ATOM     26  H   UNL     1       5.503   4.654  -6.222  1.00  0.00     0.167 HD
ATOM     27  C   UNL     1       6.801   7.830  -3.527  1.00  0.00     0.031 A 
ATOM     28  C   UNL     1       4.901   3.574  -8.731  1.00  0.00     0.031 A 
ATOM     29  C   UNL     1       7.112   8.308  -4.848  1.00  0.00     0.049 A 
ATOM     30  C   UNL     1       5.527   4.910  -9.000  1.00  0.00     0.074 A 
ATOM     31  C   UNL     1       7.753   9.479  -5.213  1.00  0.00     0.029 A 
ATOM     32  N   UNL     1       6.792   7.644  -6.023  1.00  0.00    -0.354 N 
ATOM     33  N   UNL     1       5.958   5.803  -8.143  1.00  0.00    -0.248 NA
ATOM     34  C   UNL     1       5.692   5.293 -10.409  1.00  0.00     0.031 C 
ATOM     35  C   UNL     1       7.781   9.545  -6.611  1.00  0.00     0.029 A 
ATOM     36  C   UNL     1       7.198   8.393  -7.114  1.00  0.00     0.049 A 
ATOM     37  H   UNL     1       6.342   6.770  -6.073  1.00  0.00     0.167 HD
ATOM     38  C   UNL     1       6.460   6.847  -8.907  1.00  0.00     0.074 A 
ATOM     39  C   UNL     1       6.288   6.473 -10.296  1.00  0.00     0.031 C 
ATOM     40  C   UNL     1       7.017   8.010  -8.490  1.00  0.00     0.031 A 
BRANCH  27  41
ATOM     41  C   UNL     1       7.117   8.715  -2.355  1.00  0.00    -0.014 A 
ATOM     42  C   UNL     1       8.170   8.418  -1.477  1.00  0.00     0.009 A 
ATOM     43  C   UNL     1       6.360   9.878  -2.140  1.00  0.00     0.009 A 
ATOM     44  C   UNL     1       8.434   9.247  -0.384  1.00  0.00     0.001 A 
ATOM     45  C   UNL     1       6.641  10.718  -1.061  1.00  0.00     0.001 A 
ATOM     46  C   UNL     1       7.671  10.396  -0.179  1.00  0.00     0.000 A 
ENDBRANCH  27  41
BRANCH  28  47
ATOM     47  C   UNL     1       4.444   2.697  -9.837  1.00  0.00    -0.014 A 
ATOM     48  C   UNL     1       5.368   1.971 -10.600  1.00  0.00     0.009 A 
ATOM     49  C   UNL     1       3.072   2.540 -10.093  1.00  0.00     0.009 A 
ATOM     50  C   UNL     1       4.927   1.105 -11.603  1.00  0.00     0.001 A 
ATOM     51  C   UNL     1       2.634   1.657 -11.081  1.00  0.00     0.001 A 
ATOM     52  C   UNL     1       3.562   0.943 -11.837  1.00  0.00     0.000 A 
ENDBRANCH  28  47
BRANCH  40  53
ATOM     53  C   UNL     1       7.510   8.953  -9.548  1.00  0.00    -0.014 A 
ATOM     54  C   UNL     1       6.618   9.754 -10.277  1.00  0.00     0.009 A 
ATOM     55  C   UNL     1       8.889   9.081  -9.776  1.00  0.00     0.009 A 
ATOM     56  C   UNL     1       7.100  10.656 -11.228  1.00  0.00     0.001 A 
ATOM     57  C   UNL     1       9.368   9.998 -10.713  1.00  0.00     0.001 A 
ATOM     58  C   UNL     1       8.473  10.780 -11.441  1.00  0.00     0.000 A 
ENDBRANCH  40  53
ENDBRANCH  14  15
ENDBRANCH   7   9
ENDBRANCH   4   5
ENDBRANCH   3   4
ENDBRANCH   2   3
ENDBRANCH   1   2
BRANCH   1  59
ATOM     59  C   UNL     1       6.190  -3.065   3.257  1.00  0.00     0.021 C 
BRANCH  59  60
ATOM     60  C   UNL     1       6.964  -2.652   4.506  1.00  0.00     0.116 C 
BRANCH  60  61
ATOM     61  N   UNL     1       6.683  -3.523   5.637  1.00  0.00    -0.352 N 
ATOM     62  C   UNL     1       7.566  -4.132   6.495  1.00  0.00     0.251 C 
ATOM     63  H   UNL     1       5.730  -3.699   5.812  1.00  0.00     0.163 HD
ATOM     64  O   UNL     1       7.182  -4.976   7.297  1.00  0.00    -0.269 OA
BRANCH  62  65
ATOM     65  C   UNL     1       8.997  -3.766   6.443  1.00  0.00     0.043 A 
ATOM     66  C   UNL     1       9.963  -4.767   6.342  1.00  0.00     0.014 A 
ATOM     67  C   UNL     1       9.372  -2.421   6.509  1.00  0.00     0.062 A 
ATOM     68  C   UNL     1      11.308  -4.412   6.250  1.00  0.00     0.005 A 
ATOM     69  C   UNL     1      10.712  -2.061   6.374  1.00  0.00     0.143 A 
ATOM     70  C   UNL     1      11.680  -3.062   6.256  1.00  0.00     0.048 A 
BRANCH  69  71
ATOM     71  O   UNL     1      11.161  -0.761   6.349  1.00  0.00    -0.379 OA
BRANCH  71  72
ATOM     72  S   UNL     1      10.143   0.463   5.979  1.00  0.00     0.339 S 
ATOM     73  O   UNL     1       9.620   0.255   4.644  1.00  0.00    -0.181 OA
ATOM     74  O   UNL     1       9.255   0.683   7.108  1.00  0.00    -0.181 OA
BRANCH  72  75
ATOM     75  C   UNL     1      11.146   1.926   5.885  1.00  0.00     0.112 A 
ATOM     76  C   UNL     1      12.539   1.863   5.945  1.00  0.00     0.024 A 
ATOM     77  C   UNL     1      10.479   3.154   5.784  1.00  0.00     0.109 A 
ATOM     78  C   UNL     1      13.278   3.048   5.904  1.00  0.00     0.009 A 
ATOM     79  C   UNL     1      11.230   4.332   5.745  1.00  0.00     0.270 A 
ATOM     80  C   UNL     1      12.630   4.284   5.806  1.00  0.00     0.086 A 
BRANCH  79  81
ATOM     81  N   UNL     1      10.544   5.626   5.643  1.00  0.00     0.062 N 
ATOM     82  O   UNL     1      11.238   6.651   5.694  1.00  0.00    -0.258 OA
ATOM     83  O   UNL     1       9.313   5.614   5.509  1.00  0.00    -0.258 OA
ENDBRANCH  79  81
ENDBRANCH  72  75
ENDBRANCH  71  72
ENDBRANCH  69  71
ENDBRANCH  62  65
ENDBRANCH  60  61
ENDBRANCH  59  60
ENDBRANCH   1  59
TORSDOF 17
