REMARK SMILES O=C(Cc1c[nH]c(=O)n(Cc2ccccc2)c1=O)NCCCCCCNC(=O)c1ccc(-c2c3nc(c(-c4ccccc4)c4ccc([nH]4)c(-c4ccccc4)c4nc(c(-c5ccccc5)c5ccc2[nH]5)C=C4)C=C3)cc1
REMARK SMILES IDX 22 1 21 2 20 3 19 4 1 5 2 6 3 8 4 9 5 10 17 11 6 12 9 13
REMARK SMILES IDX 18 14 7 15 8 17 10 18 11 19 12 20 16 21 13 22 15 23 14 24
REMARK SMILES IDX 23 25 24 26 25 27 26 28 27 29 28 31 29 32 30 33 76 34 31 35
REMARK SMILES IDX 75 36 32 37 33 38 34 39 69 40 35 41 74 42 68 43 70 44 36 45
REMARK SMILES IDX 73 46 67 47 66 48 37 50 59 51 44 52 58 53 45 54 48 55 57 56
REMARK SMILES IDX 71 57 46 58 47 59 56 61 72 62 49 63 38 64 39 65 43 66 40 67
REMARK SMILES IDX 42 68 41 69 60 70 61 71 65 72 62 73 64 74 63 75 50 76 51 77
REMARK SMILES IDX 55 78 52 79 54 80 53 81
REMARK H PARENT 19 7 6 16 26 30 70 49 48 60
REMARK Flexibility Score: inf
ROOT
ATOM      1  C   UNL     1       4.302   2.831   2.444  1.00  0.00     0.002 C 
ENDROOT
BRANCH   1   2
ATOM      2  C   UNL     1       2.796   2.539   2.490  1.00  0.00     0.021 C 
BRANCH   2   3
ATOM      3  C   UNL     1       2.186   2.029   1.187  1.00  0.00     0.116 C 
BRANCH   3   4
ATOM      4  N   UNL     1       2.746   0.763   0.761  1.00  0.00    -0.356 N 
ATOM      5  O   UNL     1       0.929   0.157  -0.507  1.00  0.00    -0.275 OA
ATOM      6  C   UNL     1       2.074  -0.059  -0.124  1.00  0.00     0.224 C 
ATOM      7  H   UNL     1       3.623   0.481   1.110  1.00  0.00     0.163 HD
BRANCH   6   8
ATOM      8  C   UNL     1       2.915  -1.209  -0.666  1.00  0.00     0.142 C 
BRANCH   8   9
ATOM      9  C   UNL     1       3.906  -0.765  -1.712  1.00  0.00     0.043 A 
ATOM     10  C   UNL     1       4.177   0.499  -2.062  1.00  0.00     0.097 A 
ATOM     11  C   UNL     1       4.663  -1.849  -2.411  1.00  0.00     0.260 A 
ATOM     12  N   UNL     1       5.184   0.797  -2.923  1.00  0.00    -0.314 N 
ATOM     13  N   UNL     1       5.588  -1.451  -3.364  1.00  0.00    -0.256 N 
ATOM     14  O   UNL     1       4.455  -3.022  -2.102  1.00  0.00    -0.269 OA
ATOM     15  C   UNL     1       5.965  -0.133  -3.544  1.00  0.00     0.328 A 
ATOM     16  H   UNL     1       5.362   1.747  -3.112  1.00  0.00     0.171 HD
ATOM     17  O   UNL     1       6.934   0.245  -4.199  1.00  0.00    -0.248 OA
BRANCH  13  18
ATOM     18  C   UNL     1       6.236  -2.461  -4.191  1.00  0.00     0.166 C 
BRANCH  18  19
ATOM     19  C   UNL     1       5.576  -2.563  -5.556  1.00  0.00    -0.028 A 
ATOM     20  C   UNL     1       5.801  -1.581  -6.534  1.00  0.00     0.005 A 
ATOM     21  C   UNL     1       4.699  -3.615  -5.854  1.00  0.00     0.005 A 
ATOM     22  C   UNL     1       5.151  -1.632  -7.767  1.00  0.00     0.000 A 
ATOM     23  C   UNL     1       4.064  -3.676  -7.098  1.00  0.00     0.000 A 
ATOM     24  C   UNL     1       4.284  -2.681  -8.050  1.00  0.00     0.000 A 
ENDBRANCH  18  19
ENDBRANCH  13  18
ENDBRANCH   8   9
ENDBRANCH   6   8
ENDBRANCH   3   4
ENDBRANCH   2   3
ENDBRANCH   1   2
BRANCH   1  25
ATOM     25  C   UNL     1       4.752   3.901   1.444  1.00  0.00     0.002 C 
BRANCH  25  26
ATOM     26  C   UNL     1       4.093   5.272   1.595  1.00  0.00     0.021 C 
BRANCH  26  27
ATOM     27  C   UNL     1       4.181   5.898   2.983  1.00  0.00     0.116 C 
BRANCH  27  28
ATOM     28  N   UNL     1       5.540   6.209   3.398  1.00  0.00    -0.352 N 
ATOM     29  C   UNL     1       6.024   7.352   3.996  1.00  0.00     0.251 C 
ATOM     30  H   UNL     1       6.207   5.505   3.228  1.00  0.00     0.163 HD
ATOM     31  O   UNL     1       7.227   7.488   4.195  1.00  0.00    -0.269 OA
BRANCH  29  32
ATOM     32  C   UNL     1       5.089   8.442   4.355  1.00  0.00     0.039 A 
ATOM     33  C   UNL     1       3.889   8.166   5.013  1.00  0.00     0.014 A 
ATOM     34  C   UNL     1       5.400   9.754   3.985  1.00  0.00     0.014 A 
ATOM     35  C   UNL     1       2.927   9.164   5.136  1.00  0.00     0.010 A 
ATOM     36  C   UNL     1       4.464  10.773   4.185  1.00  0.00     0.010 A 
ATOM     37  C   UNL     1       3.197  10.475   4.710  1.00  0.00    -0.014 A 
BRANCH  37  38
ATOM     38  C   UNL     1       2.133  11.509   4.804  1.00  0.00     0.031 A 
ATOM     39  C   UNL     1       1.539  12.120   3.562  1.00  0.00     0.074 A 
ATOM     40  C   UNL     1       1.652  11.853   6.014  1.00  0.00     0.049 A 
ATOM     41  N   UNL     1       0.576  13.002   3.459  1.00  0.00    -0.248 NA
ATOM     42  C   UNL     1       2.092  11.688   2.268  1.00  0.00     0.031 C 
ATOM     43  C   UNL     1       2.126  11.317   7.291  1.00  0.00     0.029 A 
ATOM     44  N   UNL     1       0.640  12.710   6.368  1.00  0.00    -0.354 N 
ATOM     45  C   UNL     1       0.420  13.241   2.099  1.00  0.00     0.074 A 
ATOM     46  C   UNL     1       1.405  12.434   1.413  1.00  0.00     0.031 C 
ATOM     47  C   UNL     1       1.368  11.810   8.282  1.00  0.00     0.029 A 
ATOM     48  C   UNL     1       0.399  12.745   7.720  1.00  0.00     0.049 A 
ATOM     49  H   UNL     1       0.135  13.247   5.715  1.00  0.00     0.167 HD
ATOM     50  C   UNL     1      -0.470  14.051   1.478  1.00  0.00     0.031 A 
ATOM     51  C   UNL     1      -0.495  13.454   8.435  1.00  0.00     0.031 A 
ATOM     52  C   UNL     1      -1.459  14.844   2.158  1.00  0.00     0.049 A 
ATOM     53  C   UNL     1      -1.438  14.382   7.726  1.00  0.00     0.074 A 
ATOM     54  C   UNL     1      -2.416  15.678   1.606  1.00  0.00     0.029 A 
ATOM     55  N   UNL     1      -1.621  14.902   3.533  1.00  0.00    -0.354 N 
ATOM     56  N   UNL     1      -1.574  14.589   6.439  1.00  0.00    -0.248 NA
ATOM     57  C   UNL     1      -2.347  15.177   8.564  1.00  0.00     0.031 C 
ATOM     58  C   UNL     1      -3.121  16.284   2.648  1.00  0.00     0.029 A 
ATOM     59  C   UNL     1      -2.645  15.779   3.848  1.00  0.00     0.049 A 
ATOM     60  H   UNL     1      -1.088  14.396   4.188  1.00  0.00     0.167 HD
ATOM     61  C   UNL     1      -2.589  15.528   6.311  1.00  0.00     0.074 A 
ATOM     62  C   UNL     1      -3.048  15.835   7.650  1.00  0.00     0.031 C 
ATOM     63  C   UNL     1      -3.091  16.084   5.183  1.00  0.00     0.031 A 
BRANCH  50  64
ATOM     64  C   UNL     1      -0.420  14.139  -0.022  1.00  0.00    -0.014 A 
ATOM     65  C   UNL     1       0.007  15.328  -0.636  1.00  0.00     0.009 A 
ATOM     66  C   UNL     1      -0.887  13.089  -0.828  1.00  0.00     0.009 A 
ATOM     67  C   UNL     1      -0.046  15.469  -2.024  1.00  0.00     0.001 A 
ATOM     68  C   UNL     1      -0.915  13.224  -2.218  1.00  0.00     0.001 A 
ATOM     69  C   UNL     1      -0.504  14.416  -2.814  1.00  0.00     0.000 A 
ENDBRANCH  50  64
BRANCH  51  70
ATOM     70  C   UNL     1      -0.533  13.296   9.912  1.00  0.00    -0.014 A 
ATOM     71  C   UNL     1       0.531  13.755  10.705  1.00  0.00     0.009 A 
ATOM     72  C   UNL     1      -1.603  12.633  10.531  1.00  0.00     0.009 A 
ATOM     73  C   UNL     1       0.539  13.529  12.083  1.00  0.00     0.001 A 
ATOM     74  C   UNL     1      -1.607  12.435  11.914  1.00  0.00     0.001 A 
ATOM     75  C   UNL     1      -0.531  12.872  12.686  1.00  0.00     0.000 A 
ENDBRANCH  51  70
BRANCH  63  76
ATOM     76  C   UNL     1      -4.204  17.082   5.327  1.00  0.00    -0.014 A 
ATOM     77  C   UNL     1      -5.499  16.750   4.897  1.00  0.00     0.009 A 
ATOM     78  C   UNL     1      -3.952  18.383   5.788  1.00  0.00     0.009 A 
ATOM     79  C   UNL     1      -6.517  17.704   4.911  1.00  0.00     0.001 A 
ATOM     80  C   UNL     1      -4.979  19.328   5.826  1.00  0.00     0.001 A 
ATOM     81  C   UNL     1      -6.257  18.991   5.379  1.00  0.00     0.000 A 
ENDBRANCH  63  76
ENDBRANCH  37  38
ENDBRANCH  29  32
ENDBRANCH  27  28
ENDBRANCH  26  27
ENDBRANCH  25  26
ENDBRANCH   1  25
TORSDOF 16
