REMARK SMILES N#Cc1cccnc1N1CC[NH+]([C@@H](C(=O)NCCCCCCNC(=O)c2ccc(-c3c4nc(c(-c5ccccc5)c5ccc([nH]5)c(-c5ccccc5)c5nc(c(-c6ccccc6)c6ccc3[nH]6)C=C5)C=C4)cc2)c2c[nH]c3cc(CO)ccc23)CC1
REMARK SMILES IDX 19 1 18 2 17 3 16 4 14 5 15 6 13 8 12 9 9 10 10 11 86 12
REMARK SMILES IDX 11 13 85 14 8 16 3 17 4 18 5 19 7 20 6 21 2 22 1 23 74 24
REMARK SMILES IDX 75 25 84 26 76 27 77 28 83 29 78 31 82 32 79 33 80 34 81 35
REMARK SMILES IDX 20 37 21 38 22 39 23 40 24 41 25 43 26 44 27 45 73 46 28 47
REMARK SMILES IDX 72 48 29 49 30 50 31 51 66 52 32 53 71 54 65 55 67 56 33 57
REMARK SMILES IDX 70 58 64 59 63 60 34 62 56 63 41 64 55 65 42 66 45 67 54 68
REMARK SMILES IDX 68 69 43 70 44 71 53 73 69 74 46 75 35 76 36 77 40 78 37 79
REMARK SMILES IDX 39 80 38 81 57 82 58 83 62 84 59 85 61 86 60 87 47 88 48 89
REMARK SMILES IDX 52 90 49 91 51 92 50 93
REMARK H PARENT 16 7 12 15 76 30 81 36 23 42 67 61 45 72
REMARK Flexibility Score: inf
ROOT
ATOM      1  C   UNL     1       0.971  -2.113   3.595  1.00  0.00     0.002 C 
ENDROOT
BRANCH   1   2
ATOM      2  C   UNL     1       1.940  -3.258   3.244  1.00  0.00     0.021 C 
BRANCH   2   3
ATOM      3  C   UNL     1       1.309  -4.635   2.873  1.00  0.00     0.116 C 
BRANCH   3   4
ATOM      4  N   UNL     1       0.032  -4.593   2.151  1.00  0.00    -0.351 N 
ATOM      5  C   UNL     1      -0.457  -4.899   0.899  1.00  0.00     0.283 C 
ATOM      6  O   UNL     1      -1.686  -4.768   0.816  1.00  0.00    -0.268 OA
ATOM      7  H   UNL     1      -0.685  -4.246   2.730  1.00  0.00     0.163 HD
BRANCH   5   8
ATOM      8  C   UNL     1       0.400  -5.436  -0.293  1.00  0.00     0.307 C 
BRANCH   8   9
ATOM      9  N   UNL     1       1.400  -4.502  -0.959  1.00  0.00    -0.318 N 
ATOM     10  N   UNL     1       0.591  -1.652  -0.966  1.00  0.00    -0.344 N 
ATOM     11  C   UNL     1      -0.004  -2.611  -1.903  1.00  0.00     0.179 C 
ATOM     12  C   UNL     1       1.175  -2.267   0.235  1.00  0.00     0.179 C 
ATOM     13  C   UNL     1       1.027  -3.719  -2.154  1.00  0.00     0.284 C 
ATOM     14  C   UNL     1       2.042  -3.515  -0.091  1.00  0.00     0.284 C 
ATOM     15  H   UNL     1       2.010  -5.268  -1.246  1.00  0.00     0.349 HD
BRANCH  10  16
ATOM     16  C   UNL     1      -0.172  -0.516  -0.689  1.00  0.00     0.146 A 
ATOM     17  C   UNL     1       0.441   0.692  -0.334  1.00  0.00     0.095 A 
ATOM     18  C   UNL     1      -0.352   1.778   0.040  1.00  0.00     0.025 A 
ATOM     19  C   UNL     1      -1.734   1.641   0.054  1.00  0.00     0.022 A 
ATOM     20  N   UNL     1      -1.523  -0.634  -0.709  1.00  0.00    -0.238 NA
ATOM     21  C   UNL     1      -2.269   0.427  -0.329  1.00  0.00     0.113 A 
BRANCH  17  22
ATOM     22  C   UNL     1       1.875   0.831  -0.331  1.00  0.00     0.103 C 
ATOM     23  N   UNL     1       3.016   0.943  -0.266  1.00  0.00    -0.192 NA
ENDBRANCH  17  22
ENDBRANCH  10  16
ENDBRANCH   8   9
BRANCH   8  24
ATOM     24  C   UNL     1      -0.417  -6.232  -1.378  1.00  0.00     0.044 A 
ATOM     25  C   UNL     1       0.122  -7.263  -2.145  1.00  0.00     0.094 A 
ATOM     26  C   UNL     1      -1.462  -5.755  -2.259  1.00  0.00     0.009 A 
ATOM     27  N   UNL     1       0.165  -6.720  -3.413  1.00  0.00    -0.361 N 
ATOM     28  C   UNL     1      -0.875  -5.823  -3.530  1.00  0.00     0.046 A 
ATOM     29  C   UNL     1      -2.683  -5.062  -2.147  1.00  0.00     0.011 A 
ATOM     30  H   UNL     1       0.824  -6.936  -4.112  1.00  0.00     0.166 HD
ATOM     31  C   UNL     1      -1.232  -4.955  -4.572  1.00  0.00     0.032 A 
ATOM     32  C   UNL     1      -3.138  -4.297  -3.231  1.00  0.00     0.007 A 
ATOM     33  C   UNL     1      -2.333  -4.111  -4.361  1.00  0.00    -0.021 A 
BRANCH  33  34
ATOM     34  C   UNL     1      -2.592  -2.950  -5.290  1.00  0.00     0.191 C 
BRANCH  34  35
ATOM     35  O   UNL     1      -2.598  -1.709  -4.581  1.00  0.00    -0.392 OA
ATOM     36  H   UNL     1      -3.303  -1.721  -3.915  1.00  0.00     0.211 HD
ENDBRANCH  34  35
ENDBRANCH  33  34
ENDBRANCH   8  24
ENDBRANCH   5   8
ENDBRANCH   3   4
ENDBRANCH   2   3
ENDBRANCH   1   2
BRANCH   1  37
ATOM     37  C   UNL     1       1.100  -1.580   5.023  1.00  0.00     0.002 C 
BRANCH  37  38
ATOM     38  C   UNL     1       2.434  -0.906   5.358  1.00  0.00     0.021 C 
BRANCH  38  39
ATOM     39  C   UNL     1       2.742   0.358   4.558  1.00  0.00     0.116 C 
BRANCH  39  40
ATOM     40  N   UNL     1       1.912   1.480   4.976  1.00  0.00    -0.352 N 
ATOM     41  C   UNL     1       2.289   2.624   5.641  1.00  0.00     0.251 C 
ATOM     42  H   UNL     1       0.956   1.411   4.753  1.00  0.00     0.163 HD
ATOM     43  O   UNL     1       1.450   3.361   6.147  1.00  0.00    -0.269 OA
BRANCH  41  44
ATOM     44  C   UNL     1       3.725   2.955   5.752  1.00  0.00     0.039 A 
ATOM     45  C   UNL     1       4.262   3.281   6.999  1.00  0.00     0.014 A 
ATOM     46  C   UNL     1       4.540   2.931   4.616  1.00  0.00     0.014 A 
ATOM     47  C   UNL     1       5.633   3.528   7.115  1.00  0.00     0.010 A 
ATOM     48  C   UNL     1       5.914   3.104   4.747  1.00  0.00     0.010 A 
ATOM     49  C   UNL     1       6.475   3.412   5.996  1.00  0.00    -0.014 A 
BRANCH  49  50
ATOM     50  C   UNL     1       7.941   3.623   6.111  1.00  0.00     0.031 A 
ATOM     51  C   UNL     1       8.599   4.760   5.377  1.00  0.00     0.074 A 
ATOM     52  C   UNL     1       8.689   2.764   6.832  1.00  0.00     0.049 A 
ATOM     53  N   UNL     1       9.868   5.078   5.314  1.00  0.00    -0.248 NA
ATOM     54  C   UNL     1       7.720   5.644   4.594  1.00  0.00     0.031 C 
ATOM     55  C   UNL     1       8.181   1.599   7.558  1.00  0.00     0.029 A 
ATOM     56  N   UNL     1      10.042   2.737   7.067  1.00  0.00    -0.354 N 
ATOM     57  C   UNL     1       9.937   6.191   4.485  1.00  0.00     0.074 A 
ATOM     58  C   UNL     1       8.593   6.455   4.018  1.00  0.00     0.031 C 
ATOM     59  C   UNL     1       9.204   0.984   8.174  1.00  0.00     0.029 A 
ATOM     60  C   UNL     1      10.444   1.684   7.854  1.00  0.00     0.049 A 
ATOM     61  H   UNL     1      10.665   3.408   6.705  1.00  0.00     0.167 HD
ATOM     62  C   UNL     1      11.014   6.944   4.160  1.00  0.00     0.031 A 
ATOM     63  C   UNL     1      11.673   1.317   8.263  1.00  0.00     0.031 A 
ATOM     64  C   UNL     1      12.352   6.680   4.617  1.00  0.00     0.049 A 
ATOM     65  C   UNL     1      12.860   2.149   7.860  1.00  0.00     0.074 A 
ATOM     66  C   UNL     1      13.507   7.401   4.368  1.00  0.00     0.029 A 
ATOM     67  N   UNL     1      12.715   5.607   5.416  1.00  0.00    -0.354 N 
ATOM     68  N   UNL     1      12.897   3.236   7.127  1.00  0.00    -0.248 NA
ATOM     69  C   UNL     1      14.174   1.712   8.354  1.00  0.00     0.031 C 
ATOM     70  C   UNL     1      14.577   6.735   4.972  1.00  0.00     0.029 A 
ATOM     71  C   UNL     1      14.079   5.636   5.653  1.00  0.00     0.049 A 
ATOM     72  H   UNL     1      12.095   4.926   5.764  1.00  0.00     0.167 HD
ATOM     73  C   UNL     1      14.230   3.627   7.096  1.00  0.00     0.074 A 
ATOM     74  C   UNL     1      14.965   2.674   7.902  1.00  0.00     0.031 C 
ATOM     75  C   UNL     1      14.796   4.681   6.458  1.00  0.00     0.031 A 
BRANCH  62  76
ATOM     76  C   UNL     1      10.785   8.131   3.264  1.00  0.00    -0.014 A 
ATOM     77  C   UNL     1      10.075   9.255   3.719  1.00  0.00     0.009 A 
ATOM     78  C   UNL     1      11.315   8.145   1.965  1.00  0.00     0.009 A 
ATOM     79  C   UNL     1       9.871  10.352   2.880  1.00  0.00     0.001 A 
ATOM     80  C   UNL     1      11.137   9.257   1.139  1.00  0.00     0.001 A 
ATOM     81  C   UNL     1      10.407  10.354   1.593  1.00  0.00     0.000 A 
ENDBRANCH  62  76
BRANCH  63  82
ATOM     82  C   UNL     1      11.852   0.098   9.098  1.00  0.00    -0.014 A 
ATOM     83  C   UNL     1      12.269   0.197  10.434  1.00  0.00     0.009 A 
ATOM     84  C   UNL     1      11.627  -1.176   8.553  1.00  0.00     0.009 A 
ATOM     85  C   UNL     1      12.492  -0.954  11.195  1.00  0.00     0.001 A 
ATOM     86  C   UNL     1      11.817  -2.324   9.325  1.00  0.00     0.001 A 
ATOM     87  C   UNL     1      12.262  -2.212  10.641  1.00  0.00     0.000 A 
ENDBRANCH  63  82
BRANCH  75  88
ATOM     88  C   UNL     1      16.275   4.883   6.637  1.00  0.00    -0.014 A 
ATOM     89  C   UNL     1      17.209   4.015   6.051  1.00  0.00     0.009 A 
ATOM     90  C   UNL     1      16.739   5.985   7.372  1.00  0.00     0.009 A 
ATOM     91  C   UNL     1      18.578   4.227   6.230  1.00  0.00     0.001 A 
ATOM     92  C   UNL     1      18.107   6.214   7.521  1.00  0.00     0.001 A 
ATOM     93  C   UNL     1      19.025   5.329   6.959  1.00  0.00     0.000 A 
ENDBRANCH  75  88
ENDBRANCH  49  50
ENDBRANCH  41  44
ENDBRANCH  39  40
ENDBRANCH  38  39
ENDBRANCH  37  38
ENDBRANCH   1  37
TORSDOF 19
