REMARK SMILES C=C(C)CN(CC)c1ccc(F)cc1C(=O)NCCCCCCNC(=O)c1ccc(-c2c3nc(c(-c4ccccc4)c4ccc([nH]4)c(-c4ccccc4)c4nc(c(-c5ccccc5)c5ccc2[nH]5)C=C4)C=C3)cc1
REMARK SMILES IDX 20 1 19 2 18 3 17 4 15 5 16 6 14 8 8 9 9 10 10 11 13 12
REMARK SMILES IDX 11 13 12 14 5 15 4 16 2 17 1 18 3 19 6 20 7 21 21 22 22 23
REMARK SMILES IDX 23 24 24 25 25 26 26 28 27 29 28 30 74 31 29 32 73 33 30 34
REMARK SMILES IDX 31 35 32 36 67 37 33 38 72 39 66 40 68 41 34 42 71 43 65 44
REMARK SMILES IDX 64 45 35 47 57 48 42 49 56 50 43 51 46 52 55 53 69 54 44 55
REMARK SMILES IDX 45 56 54 58 70 59 47 60 36 61 37 62 41 63 38 64 40 65 39 66
REMARK SMILES IDX 58 67 59 68 63 69 60 70 62 71 61 72 48 73 49 74 53 75 50 76
REMARK SMILES IDX 52 77 51 78
REMARK H PARENT 17 7 24 27 68 46 46 57
REMARK Flexibility Score: inf
ROOT
ATOM      1  C   UNL     1       3.971  -2.261   5.792  1.00  0.00     0.002 C 
ENDROOT
BRANCH   1   2
ATOM      2  C   UNL     1       2.504  -2.357   5.362  1.00  0.00     0.021 C 
BRANCH   2   3
ATOM      3  C   UNL     1       2.242  -2.946   3.984  1.00  0.00     0.116 C 
BRANCH   3   4
ATOM      4  N   UNL     1       2.662  -4.296   3.756  1.00  0.00    -0.352 N 
ATOM      5  C   UNL     1       2.443  -5.080   2.645  1.00  0.00     0.253 C 
ATOM      6  O   UNL     1       2.987  -6.189   2.640  1.00  0.00    -0.269 OA
ATOM      7  H   UNL     1       3.172  -4.717   4.485  1.00  0.00     0.163 HD
BRANCH   5   8
ATOM      8  C   UNL     1       1.542  -4.729   1.491  1.00  0.00     0.066 A 
ATOM      9  C   UNL     1       1.425  -3.502   0.781  1.00  0.00     0.050 A 
ATOM     10  C   UNL     1       0.577  -3.483  -0.355  1.00  0.00     0.030 A 
ATOM     11  C   UNL     1      -0.157  -4.591  -0.770  1.00  0.00     0.041 A 
ATOM     12  C   UNL     1       0.808  -5.852   1.034  1.00  0.00     0.055 A 
ATOM     13  C   UNL     1      -0.031  -5.771  -0.070  1.00  0.00     0.124 A 
ATOM     14  F   UNL     1      -0.710  -6.853  -0.472  1.00  0.00    -0.207 F 
BRANCH   9  15
ATOM     15  N   UNL     1       2.114  -2.327   1.075  1.00  0.00    -0.367 N 
BRANCH  15  16
ATOM     16  C   UNL     1       1.359  -1.154   1.558  1.00  0.00     0.146 C 
BRANCH  16  17
ATOM     17  C   UNL     1       0.555  -0.412   0.523  1.00  0.00    -0.061 C 
ATOM     18  C   UNL     1       1.105   0.288  -0.483  1.00  0.00     0.009 C 
ATOM     19  C   UNL     1      -0.935  -0.421   0.751  1.00  0.00     0.041 C 
ENDBRANCH  16  17
ENDBRANCH  15  16
BRANCH  15  20
ATOM     20  C   UNL     1       3.454  -2.119   0.508  1.00  0.00     0.113 C 
ATOM     21  C   UNL     1       4.466  -3.191   0.888  1.00  0.00     0.027 C 
ENDBRANCH  15  20
ENDBRANCH   9  15
ENDBRANCH   5   8
ENDBRANCH   3   4
ENDBRANCH   2   3
ENDBRANCH   1   2
BRANCH   1  22
ATOM     22  C   UNL     1       4.975  -1.630   4.819  1.00  0.00     0.002 C 
BRANCH  22  23
ATOM     23  C   UNL     1       4.686  -0.223   4.294  1.00  0.00     0.021 C 
BRANCH  23  24
ATOM     24  C   UNL     1       4.331   0.843   5.327  1.00  0.00     0.116 C 
BRANCH  24  25
ATOM     25  N   UNL     1       5.313   0.977   6.388  1.00  0.00    -0.352 N 
ATOM     26  C   UNL     1       5.885   2.100   6.939  1.00  0.00     0.251 C 
ATOM     27  H   UNL     1       5.620   0.126   6.775  1.00  0.00     0.163 HD
ATOM     28  O   UNL     1       6.759   1.981   7.789  1.00  0.00    -0.269 OA
BRANCH  26  29
ATOM     29  C   UNL     1       5.489   3.454   6.487  1.00  0.00     0.039 A 
ATOM     30  C   UNL     1       6.496   4.400   6.267  1.00  0.00     0.014 A 
ATOM     31  C   UNL     1       4.152   3.805   6.283  1.00  0.00     0.014 A 
ATOM     32  C   UNL     1       6.173   5.660   5.758  1.00  0.00     0.010 A 
ATOM     33  C   UNL     1       3.836   5.038   5.713  1.00  0.00     0.010 A 
ATOM     34  C   UNL     1       4.845   5.971   5.427  1.00  0.00    -0.014 A 
BRANCH  34  35
ATOM     35  C   UNL     1       4.503   7.235   4.725  1.00  0.00     0.031 A 
ATOM     36  C   UNL     1       3.625   8.264   5.378  1.00  0.00     0.074 A 
ATOM     37  C   UNL     1       4.926   7.420   3.459  1.00  0.00     0.049 A 
ATOM     38  N   UNL     1       3.165   9.388   4.885  1.00  0.00    -0.248 NA
ATOM     39  C   UNL     1       3.190   7.987   6.755  1.00  0.00     0.031 C 
ATOM     40  C   UNL     1       5.763   6.486   2.702  1.00  0.00     0.029 A 
ATOM     41  N   UNL     1       4.703   8.451   2.581  1.00  0.00    -0.354 N 
ATOM     42  C   UNL     1       2.380   9.946   5.886  1.00  0.00     0.074 A 
ATOM     43  C   UNL     1       2.388   9.014   6.995  1.00  0.00     0.031 C 
ATOM     44  C   UNL     1       6.004   6.999   1.486  1.00  0.00     0.029 A 
ATOM     45  C   UNL     1       5.298   8.269   1.356  1.00  0.00     0.049 A 
ATOM     46  H   UNL     1       4.168   9.246   2.808  1.00  0.00     0.167 HD
ATOM     47  C   UNL     1       1.724  11.132   5.888  1.00  0.00     0.031 A 
ATOM     48  C   UNL     1       5.267   9.028   0.244  1.00  0.00     0.031 A 
ATOM     49  C   UNL     1       1.707  12.051   4.780  1.00  0.00     0.049 A 
ATOM     50  C   UNL     1       4.479  10.307   0.249  1.00  0.00     0.074 A 
ATOM     51  C   UNL     1       1.116  13.301   4.706  1.00  0.00     0.029 A 
ATOM     52  N   UNL     1       2.296  11.815   3.547  1.00  0.00    -0.354 N 
ATOM     53  N   UNL     1       3.801  10.855   1.228  1.00  0.00    -0.248 NA
ATOM     54  C   UNL     1       4.452  11.072  -1.006  1.00  0.00     0.031 C 
ATOM     55  C   UNL     1       1.287  13.789   3.406  1.00  0.00     0.029 A 
ATOM     56  C   UNL     1       2.041  12.873   2.690  1.00  0.00     0.049 A 
ATOM     57  H   UNL     1       2.818  11.013   3.316  1.00  0.00     0.167 HD
ATOM     58  C   UNL     1       3.280  12.035   0.714  1.00  0.00     0.074 A 
ATOM     59  C   UNL     1       3.740  12.134  -0.656  1.00  0.00     0.031 C 
ATOM     60  C   UNL     1       2.488  12.951   1.322  1.00  0.00     0.031 A 
BRANCH  47  61
ATOM     61  C   UNL     1       0.946  11.489   7.127  1.00  0.00    -0.014 A 
ATOM     62  C   UNL     1       1.594  11.784   8.338  1.00  0.00     0.009 A 
ATOM     63  C   UNL     1      -0.456  11.555   7.077  1.00  0.00     0.009 A 
ATOM     64  C   UNL     1       0.853  12.091   9.481  1.00  0.00     0.001 A 
ATOM     65  C   UNL     1      -1.192  11.895   8.213  1.00  0.00     0.001 A 
ATOM     66  C   UNL     1      -0.538  12.150   9.417  1.00  0.00     0.000 A 
ENDBRANCH  47  61
BRANCH  48  67
ATOM     67  C   UNL     1       6.005   8.593  -0.971  1.00  0.00    -0.014 A 
ATOM     68  C   UNL     1       7.145   9.291  -1.398  1.00  0.00     0.009 A 
ATOM     69  C   UNL     1       5.581   7.473  -1.704  1.00  0.00     0.009 A 
ATOM     70  C   UNL     1       7.834   8.887  -2.544  1.00  0.00     0.001 A 
ATOM     71  C   UNL     1       6.290   7.054  -2.832  1.00  0.00     0.001 A 
ATOM     72  C   UNL     1       7.411   7.766  -3.255  1.00  0.00     0.000 A 
ENDBRANCH  48  67
BRANCH  60  73
ATOM     73  C   UNL     1       2.070  14.145   0.509  1.00  0.00    -0.014 A 
ATOM     74  C   UNL     1       1.133  14.024  -0.529  1.00  0.00     0.009 A 
ATOM     75  C   UNL     1       2.585  15.415   0.815  1.00  0.00     0.009 A 
ATOM     76  C   UNL     1       0.742  15.145  -1.263  1.00  0.00     0.001 A 
ATOM     77  C   UNL     1       2.168  16.539   0.099  1.00  0.00     0.001 A 
ATOM     78  C   UNL     1       1.254  16.402  -0.944  1.00  0.00     0.000 A 
ENDBRANCH  60  73
ENDBRANCH  34  35
ENDBRANCH  26  29
ENDBRANCH  24  25
ENDBRANCH  23  24
ENDBRANCH  22  23
ENDBRANCH   1  22
TORSDOF 17
