REMARK SMILES CCOc1cc(OCC)cc(-c2ccc([C@@H](C)C(=O)NCCCCCCNC(=O)c3ccc(-c4c5nc(c(-c6ccccc6)c6ccc([nH]6)c(-c6ccccc6)c6nc(c(-c7ccccc7)c7ccc4[nH]7)C=C6)C=C5)cc3)cc2F)c1
REMARK SMILES IDX 22 1 21 2 20 3 18 4 19 5 16 7 17 8 15 9 12 10 13 11 79 12
REMARK SMILES IDX 14 13 78 14 80 15 11 16 4 17 5 18 81 19 6 20 10 21 3 22 2 23
REMARK SMILES IDX 1 24 7 25 8 26 9 27 23 28 24 29 25 30 26 31 27 32 28 33
REMARK SMILES IDX 29 35 30 36 31 37 77 38 32 39 76 40 33 41 34 42 35 43 70 44
REMARK SMILES IDX 36 45 75 46 69 47 71 48 37 49 74 50 68 51 67 52 38 54 60 55
REMARK SMILES IDX 45 56 59 57 46 58 49 59 58 60 72 61 47 62 48 63 57 65 73 66
REMARK SMILES IDX 50 67 39 68 40 69 44 70 41 71 43 72 42 73 61 74 62 75 66 76
REMARK SMILES IDX 63 77 65 78 64 79 51 80 52 81 56 82 53 83 55 84 54 85
REMARK H PARENT 20 6 27 34 71 53 49 64
REMARK Flexibility Score: inf
ROOT
ATOM      1  C   UNL     1       8.524   1.271  -1.688  1.00  0.00     0.021 C 
ENDROOT
BRANCH   1   2
ATOM      2  C   UNL     1       9.343   2.266  -0.862  1.00  0.00     0.116 C 
BRANCH   2   3
ATOM      3  N   UNL     1       8.603   3.479  -0.586  1.00  0.00    -0.356 N 
ATOM      4  C   UNL     1       7.970   3.926   0.533  1.00  0.00     0.227 C 
ATOM      5  O   UNL     1       7.352   4.992   0.424  1.00  0.00    -0.274 OA
ATOM      6  H   UNL     1       8.546   4.096  -1.351  1.00  0.00     0.163 HD
BRANCH   4   7
ATOM      7  C   UNL     1       7.989   3.191   1.882  1.00  0.00     0.105 C 
ATOM      8  C   UNL     1       9.384   2.996   2.476  1.00  0.00     0.023 C 
BRANCH   7   9
ATOM      9  C   UNL     1       7.085   1.970   1.914  1.00  0.00    -0.033 A 
ATOM     10  C   UNL     1       5.284  -0.252   1.859  1.00  0.00     0.018 A 
ATOM     11  C   UNL     1       6.635  -0.380   1.492  1.00  0.00     0.012 A 
ATOM     12  C   UNL     1       4.870   1.019   2.277  1.00  0.00     0.131 A 
ATOM     13  C   UNL     1       7.524   0.696   1.555  1.00  0.00     0.005 A 
ATOM     14  C   UNL     1       5.740   2.114   2.286  1.00  0.00     0.044 A 
ATOM     15  F   UNL     1       3.609   1.229   2.688  1.00  0.00    -0.206 F 
BRANCH  10  16
ATOM     16  C   UNL     1       4.377  -1.419   1.765  1.00  0.00    -0.008 A 
ATOM     17  C   UNL     1       2.222  -2.412   1.218  1.00  0.00     0.123 A 
ATOM     18  C   UNL     1       2.736  -3.691   1.426  1.00  0.00     0.092 A 
ATOM     19  C   UNL     1       3.030  -1.290   1.400  1.00  0.00     0.055 A 
ATOM     20  C   UNL     1       4.064  -3.854   1.818  1.00  0.00     0.123 A 
ATOM     21  C   UNL     1       4.860  -2.722   2.000  1.00  0.00     0.055 A 
BRANCH  17  22
ATOM     22  O   UNL     1       0.885  -2.288   0.955  1.00  0.00    -0.494 OA
BRANCH  22  23
ATOM     23  C   UNL     1       0.595  -1.771  -0.350  1.00  0.00     0.226 C 
ATOM     24  C   UNL     1       0.441  -0.258  -0.349  1.00  0.00     0.049 C 
ENDBRANCH  22  23
ENDBRANCH  17  22
BRANCH  20  25
ATOM     25  O   UNL     1       4.488  -5.147   1.966  1.00  0.00    -0.494 OA
BRANCH  25  26
ATOM     26  C   UNL     1       5.743  -5.378   2.612  1.00  0.00     0.226 C 
ATOM     27  C   UNL     1       6.899  -5.358   1.622  1.00  0.00     0.049 C 
ENDBRANCH  25  26
ENDBRANCH  20  25
ENDBRANCH  10  16
ENDBRANCH   7   9
ENDBRANCH   4   7
ENDBRANCH   2   3
ENDBRANCH   1   2
BRANCH   1  28
ATOM     28  C   UNL     1       8.658   1.460  -3.203  1.00  0.00     0.002 C 
BRANCH  28  29
ATOM     29  C   UNL     1      10.065   1.226  -3.769  1.00  0.00     0.002 C 
BRANCH  29  30
ATOM     30  C   UNL     1      10.686  -0.141  -3.461  1.00  0.00     0.021 C 
BRANCH  30  31
ATOM     31  C   UNL     1       9.900  -1.343  -3.985  1.00  0.00     0.116 C 
BRANCH  31  32
ATOM     32  N   UNL     1       9.778  -1.324  -5.433  1.00  0.00    -0.352 N 
ATOM     33  C   UNL     1      10.182  -2.240  -6.370  1.00  0.00     0.251 C 
ATOM     34  H   UNL     1       9.334  -0.525  -5.800  1.00  0.00     0.163 HD
ATOM     35  O   UNL     1      10.184  -1.932  -7.558  1.00  0.00    -0.269 OA
BRANCH  33  36
ATOM     36  C   UNL     1      10.622  -3.595  -5.968  1.00  0.00     0.039 A 
ATOM     37  C   UNL     1      11.718  -4.163  -6.625  1.00  0.00     0.014 A 
ATOM     38  C   UNL     1       9.931  -4.331  -5.001  1.00  0.00     0.014 A 
ATOM     39  C   UNL     1      12.149  -5.446  -6.280  1.00  0.00     0.010 A 
ATOM     40  C   UNL     1      10.399  -5.587  -4.614  1.00  0.00     0.010 A 
ATOM     41  C   UNL     1      11.508  -6.159  -5.254  1.00  0.00    -0.014 A 
BRANCH  41  42
ATOM     42  C   UNL     1      12.002  -7.497  -4.840  1.00  0.00     0.031 A 
ATOM     43  C   UNL     1      11.168  -8.728  -5.065  1.00  0.00     0.074 A 
ATOM     44  C   UNL     1      13.195  -7.597  -4.223  1.00  0.00     0.049 A 
ATOM     45  N   UNL     1      11.444  -9.974  -4.771  1.00  0.00    -0.248 NA
ATOM     46  C   UNL     1       9.845  -8.534  -5.678  1.00  0.00     0.031 C 
ATOM     47  C   UNL     1      14.080  -6.475  -3.903  1.00  0.00     0.029 A 
ATOM     48  N   UNL     1      13.870  -8.697  -3.754  1.00  0.00    -0.354 N 
ATOM     49  C   UNL     1      10.327 -10.709  -5.152  1.00  0.00     0.074 A 
ATOM     50  C   UNL     1       9.353  -9.765  -5.655  1.00  0.00     0.031 C 
ATOM     51  C   UNL     1      15.193  -6.947  -3.319  1.00  0.00     0.029 A 
ATOM     52  C   UNL     1      15.088  -8.397  -3.196  1.00  0.00     0.049 A 
ATOM     53  H   UNL     1      13.514  -9.613  -3.812  1.00  0.00     0.167 HD
ATOM     54  C   UNL     1      10.136 -12.049  -5.103  1.00  0.00     0.031 A 
ATOM     55  C   UNL     1      16.021  -9.199  -2.649  1.00  0.00     0.031 A 
ATOM     56  C   UNL     1      11.107 -12.991  -4.614  1.00  0.00     0.049 A 
ATOM     57  C   UNL     1      15.788 -10.682  -2.615  1.00  0.00     0.074 A 
ATOM     58  C   UNL     1      11.030 -14.373  -4.585  1.00  0.00     0.029 A 
ATOM     59  N   UNL     1      12.332 -12.648  -4.064  1.00  0.00    -0.354 N 
ATOM     60  N   UNL     1      14.758 -11.367  -3.051  1.00  0.00    -0.248 NA
ATOM     61  C   UNL     1      16.854 -11.505  -2.025  1.00  0.00     0.031 C 
ATOM     62  C   UNL     1      12.190 -14.864  -3.974  1.00  0.00     0.029 A 
ATOM     63  C   UNL     1      13.009 -13.790  -3.670  1.00  0.00     0.049 A 
ATOM     64  H   UNL     1      12.671 -11.728  -3.968  1.00  0.00     0.167 HD
ATOM     65  C   UNL     1      15.061 -12.700  -2.808  1.00  0.00     0.074 A 
ATOM     66  C   UNL     1      16.378 -12.729  -2.206  1.00  0.00     0.031 C 
ATOM     67  C   UNL     1      14.314 -13.802  -3.062  1.00  0.00     0.031 A 
BRANCH  54  68
ATOM     68  C   UNL     1       8.816 -12.578  -5.590  1.00  0.00    -0.014 A 
ATOM     69  C   UNL     1       8.493 -12.580  -6.956  1.00  0.00     0.009 A 
ATOM     70  C   UNL     1       7.900 -13.122  -4.676  1.00  0.00     0.009 A 
ATOM     71  C   UNL     1       7.266 -13.084  -7.393  1.00  0.00     0.001 A 
ATOM     72  C   UNL     1       6.685 -13.649  -5.118  1.00  0.00     0.001 A 
ATOM     73  C   UNL     1       6.365 -13.621  -6.474  1.00  0.00     0.000 A 
ENDBRANCH  54  68
BRANCH  55  74
ATOM     74  C   UNL     1      17.276  -8.616  -2.109  1.00  0.00    -0.014 A 
ATOM     75  C   UNL     1      18.493  -8.800  -2.783  1.00  0.00     0.009 A 
ATOM     76  C   UNL     1      17.263  -7.875  -0.918  1.00  0.00     0.009 A 
ATOM     77  C   UNL     1      19.676  -8.273  -2.262  1.00  0.00     0.001 A 
ATOM     78  C   UNL     1      18.444  -7.327  -0.413  1.00  0.00     0.001 A 
ATOM     79  C   UNL     1      19.650  -7.534  -1.080  1.00  0.00     0.000 A 
ENDBRANCH  55  74
BRANCH  67  80
ATOM     80  C   UNL     1      14.916 -15.130  -2.703  1.00  0.00    -0.014 A 
ATOM     81  C   UNL     1      15.032 -15.537  -1.365  1.00  0.00     0.009 A 
ATOM     82  C   UNL     1      15.349 -15.996  -3.719  1.00  0.00     0.009 A 
ATOM     83  C   UNL     1      15.604 -16.771  -1.050  1.00  0.00     0.001 A 
ATOM     84  C   UNL     1      15.895 -17.241  -3.402  1.00  0.00     0.001 A 
ATOM     85  C   UNL     1      16.031 -17.623  -2.068  1.00  0.00     0.000 A 
ENDBRANCH  67  80
ENDBRANCH  41  42
ENDBRANCH  33  36
ENDBRANCH  31  32
ENDBRANCH  30  31
ENDBRANCH  29  30
ENDBRANCH  28  29
ENDBRANCH   1  28
TORSDOF 19
