REMARK SMILES COC[C@@H](C)CC(=O)Nc1cccc(/C=C/C(=O)NCCCCCCNC(=O)c2ccc(-c3c4nc(c(-c5ccccc5)c5ccc([nH]5)c(-c5ccccc5)c5nc(c(-c6ccccc6)c6ccc3[nH]6)C=C5)C=C4)cc2)c1
REMARK SMILES IDX 20 1 19 2 17 3 18 4 16 6 15 7 14 8 10 9 11 10 77 11 12 12
REMARK SMILES IDX 13 13 9 14 7 15 8 16 6 18 4 19 5 20 3 21 2 22 1 23 21 24
REMARK SMILES IDX 22 25 23 26 24 27 25 28 26 29 27 30 28 32 29 33 30 34 76 35
REMARK SMILES IDX 31 36 75 37 32 38 33 39 34 40 69 41 35 42 74 43 68 44 70 45
REMARK SMILES IDX 36 46 73 47 67 48 66 49 37 51 59 52 44 53 58 54 45 55 48 56
REMARK SMILES IDX 57 57 71 58 46 59 47 60 56 62 72 63 49 64 38 65 39 66 43 67
REMARK SMILES IDX 40 68 42 69 41 70 60 71 61 72 65 73 62 74 64 75 63 76 50 77
REMARK SMILES IDX 51 78 55 79 52 80 54 81 53 82
REMARK H PARENT 19 5 9 17 26 31 70 50 48 61
REMARK Flexibility Score: inf
ROOT
ATOM      1  C   UNL     1      -0.211   1.694   0.430  1.00  0.00     0.116 C 
ENDROOT
BRANCH   1   2
ATOM      2  N   UNL     1       0.525   2.531   1.358  1.00  0.00    -0.353 N 
ATOM      3  C   UNL     1       1.632   2.246   2.099  1.00  0.00     0.243 C 
ATOM      4  O   UNL     1       2.271   3.163   2.611  1.00  0.00    -0.270 OA
ATOM      5  H   UNL     1       0.171   3.443   1.470  1.00  0.00     0.163 HD
BRANCH   3   6
ATOM      6  C   UNL     1       2.153   0.861   2.215  1.00  0.00     0.072 C 
ATOM      7  C   UNL     1       1.442  -0.213   2.595  1.00  0.00     0.014 C 
BRANCH   7   8
ATOM      8  C   UNL     1       2.023  -1.568   2.646  1.00  0.00    -0.023 A 
ATOM      9  C   UNL     1       1.890  -3.898   1.929  1.00  0.00     0.041 A 
ATOM     10  C   UNL     1       3.101  -4.170   2.556  1.00  0.00     0.026 A 
ATOM     11  C   UNL     1       1.317  -2.631   2.064  1.00  0.00     0.034 A 
ATOM     12  C   UNL     1       3.792  -3.137   3.197  1.00  0.00     0.003 A 
ATOM     13  C   UNL     1       3.268  -1.839   3.222  1.00  0.00     0.008 A 
BRANCH   9  14
ATOM     14  N   UNL     1       1.222  -4.918   1.236  1.00  0.00    -0.326 N 
ATOM     15  C   UNL     1       0.591  -4.838   0.016  1.00  0.00     0.224 C 
ATOM     16  O   UNL     1      -0.393  -5.541  -0.213  1.00  0.00    -0.275 OA
ATOM     17  H   UNL     1       1.201  -5.798   1.677  1.00  0.00     0.169 HD
BRANCH  15  18
ATOM     18  C   UNL     1       1.284  -4.065  -1.109  1.00  0.00     0.106 C 
BRANCH  18  19
ATOM     19  C   UNL     1       0.518  -2.871  -1.707  1.00  0.00     0.021 C 
ATOM     20  C   UNL     1       0.954  -2.619  -3.156  1.00  0.00     0.010 C 
BRANCH  19  21
ATOM     21  C   UNL     1       0.715  -1.621  -0.839  1.00  0.00     0.163 C 
BRANCH  21  22
ATOM     22  O   UNL     1       0.877  -0.425  -1.593  1.00  0.00    -0.384 OA
ATOM     23  C   UNL     1       2.222   0.054  -1.551  1.00  0.00     0.194 C 
ENDBRANCH  21  22
ENDBRANCH  19  21
ENDBRANCH  18  19
ENDBRANCH  15  18
ENDBRANCH   9  14
ENDBRANCH   7   8
ENDBRANCH   3   6
ENDBRANCH   1   2
BRANCH   1  24
ATOM     24  C   UNL     1      -1.696   2.038   0.361  1.00  0.00     0.021 C 
BRANCH  24  25
ATOM     25  C   UNL     1      -2.043   3.221  -0.552  1.00  0.00     0.002 C 
BRANCH  25  26
ATOM     26  C   UNL     1      -1.694   3.055  -2.037  1.00  0.00     0.002 C 
BRANCH  26  27
ATOM     27  C   UNL     1      -2.224   1.792  -2.721  1.00  0.00     0.021 C 
BRANCH  27  28
ATOM     28  C   UNL     1      -3.726   1.558  -2.602  1.00  0.00     0.116 C 
BRANCH  28  29
ATOM     29  N   UNL     1      -4.520   2.635  -3.172  1.00  0.00    -0.352 N 
ATOM     30  C   UNL     1      -5.592   2.567  -4.027  1.00  0.00     0.251 C 
ATOM     31  H   UNL     1      -4.250   3.543  -2.906  1.00  0.00     0.163 HD
ATOM     32  O   UNL     1      -6.066   3.595  -4.509  1.00  0.00    -0.269 OA
BRANCH  30  33
ATOM     33  C   UNL     1      -6.165   1.255  -4.394  1.00  0.00     0.039 A 
ATOM     34  C   UNL     1      -6.460   0.995  -5.736  1.00  0.00     0.014 A 
ATOM     35  C   UNL     1      -6.410   0.283  -3.421  1.00  0.00     0.014 A 
ATOM     36  C   UNL     1      -6.940  -0.263  -6.109  1.00  0.00     0.010 A 
ATOM     37  C   UNL     1      -6.815  -0.992  -3.804  1.00  0.00     0.010 A 
ATOM     38  C   UNL     1      -7.089  -1.278  -5.151  1.00  0.00    -0.014 A 
BRANCH  38  39
ATOM     39  C   UNL     1      -7.546  -2.641  -5.522  1.00  0.00     0.031 A 
ATOM     40  C   UNL     1      -8.839  -3.175  -4.968  1.00  0.00     0.074 A 
ATOM     41  C   UNL     1      -6.767  -3.428  -6.290  1.00  0.00     0.049 A 
ATOM     42  N   UNL     1      -9.357  -4.372  -5.081  1.00  0.00    -0.248 NA
ATOM     43  C   UNL     1      -9.642  -2.247  -4.155  1.00  0.00     0.031 C 
ATOM     44  C   UNL     1      -5.480  -3.041  -6.871  1.00  0.00     0.029 A 
ATOM     45  N   UNL     1      -6.940  -4.726  -6.702  1.00  0.00    -0.354 N 
ATOM     46  C   UNL     1     -10.530  -4.346  -4.337  1.00  0.00     0.074 A 
ATOM     47  C   UNL     1     -10.621  -3.034  -3.735  1.00  0.00     0.031 C 
ATOM     48  C   UNL     1      -4.991  -4.072  -7.580  1.00  0.00     0.029 A 
ATOM     49  C   UNL     1      -5.902  -5.206  -7.463  1.00  0.00     0.049 A 
ATOM     50  H   UNL     1      -7.734  -5.262  -6.473  1.00  0.00     0.167 HD
ATOM     51  C   UNL     1     -11.457  -5.321  -4.180  1.00  0.00     0.031 A 
ATOM     52  C   UNL     1      -5.698  -6.426  -7.994  1.00  0.00     0.031 A 
ATOM     53  C   UNL     1     -11.369  -6.624  -4.782  1.00  0.00     0.049 A 
ATOM     54  C   UNL     1      -6.726  -7.503  -7.778  1.00  0.00     0.074 A 
ATOM     55  C   UNL     1     -12.280  -7.664  -4.724  1.00  0.00     0.029 A 
ATOM     56  N   UNL     1     -10.303  -7.067  -5.550  1.00  0.00    -0.354 N 
ATOM     57  N   UNL     1      -7.859  -7.446  -7.120  1.00  0.00    -0.248 NA
ATOM     58  C   UNL     1      -6.451  -8.812  -8.388  1.00  0.00     0.031 C 
ATOM     59  C   UNL     1     -11.738  -8.757  -5.407  1.00  0.00     0.029 A 
ATOM     60  C   UNL     1     -10.522  -8.374  -5.951  1.00  0.00     0.049 A 
ATOM     61  H   UNL     1      -9.508  -6.532  -5.777  1.00  0.00     0.167 HD
ATOM     62  C   UNL     1      -8.448  -8.696  -7.268  1.00  0.00     0.074 A 
ATOM     63  C   UNL     1      -7.553  -9.486  -8.088  1.00  0.00     0.031 C 
ATOM     64  C   UNL     1      -9.626  -9.146  -6.773  1.00  0.00     0.031 A 
BRANCH  51  65
ATOM     65  C   UNL     1     -12.644  -5.014  -3.307  1.00  0.00    -0.014 A 
ATOM     66  C   UNL     1     -13.615  -4.076  -3.695  1.00  0.00     0.009 A 
ATOM     67  C   UNL     1     -12.809  -5.693  -2.089  1.00  0.00     0.009 A 
ATOM     68  C   UNL     1     -14.700  -3.793  -2.863  1.00  0.00     0.001 A 
ATOM     69  C   UNL     1     -13.913  -5.434  -1.276  1.00  0.00     0.001 A 
ATOM     70  C   UNL     1     -14.851  -4.476  -1.657  1.00  0.00     0.000 A 
ENDBRANCH  51  65
BRANCH  52  71
ATOM     71  C   UNL     1      -4.472  -6.700  -8.791  1.00  0.00    -0.014 A 
ATOM     72  C   UNL     1      -4.557  -6.924 -10.174  1.00  0.00     0.009 A 
ATOM     73  C   UNL     1      -3.213  -6.752  -8.174  1.00  0.00     0.009 A 
ATOM     74  C   UNL     1      -3.412  -7.226 -10.916  1.00  0.00     0.001 A 
ATOM     75  C   UNL     1      -2.065  -7.021  -8.923  1.00  0.00     0.001 A 
ATOM     76  C   UNL     1      -2.167  -7.269 -10.291  1.00  0.00     0.000 A 
ENDBRANCH  52  71
BRANCH  64  77
ATOM     77  C   UNL     1     -10.047 -10.541  -7.147  1.00  0.00    -0.014 A 
ATOM     78  C   UNL     1      -9.398 -11.671  -6.625  1.00  0.00     0.009 A 
ATOM     79  C   UNL     1     -11.147 -10.723  -8.001  1.00  0.00     0.009 A 
ATOM     80  C   UNL     1      -9.823 -12.954  -6.978  1.00  0.00     0.001 A 
ATOM     81  C   UNL     1     -11.590 -12.006  -8.325  1.00  0.00     0.001 A 
ATOM     82  C   UNL     1     -10.922 -13.120  -7.821  1.00  0.00     0.000 A 
ENDBRANCH  64  77
ENDBRANCH  38  39
ENDBRANCH  30  33
ENDBRANCH  28  29
ENDBRANCH  27  28
ENDBRANCH  26  27
ENDBRANCH  25  26
ENDBRANCH  24  25
ENDBRANCH   1  24
TORSDOF 19
