REMARK SMILES Cc1n[nH]c(C[N@H+]2CCC[C@H](c3cccc(C(=O)NCCCCCCNC(=O)c4ccc(-c5c6nc(c(-c7ccccc7)c7ccc([nH]7)c(-c7ccccc7)c7nc(c(-c8ccccc8)c8ccc5[nH]8)C=C7)C=C6)cc4)c3)C2)n1
REMARK SMILES IDX 22 1 21 2 20 3 19 4 17 5 18 6 16 8 12 9 13 10 77 11 14 12
REMARK SMILES IDX 15 13 11 14 7 15 8 16 78 17 9 19 10 20 6 21 5 22 1 23 2 24
REMARK SMILES IDX 3 25 79 26 4 27 23 29 24 30 25 31 26 32 27 33 28 35 29 36
REMARK SMILES IDX 30 37 76 38 31 39 75 40 32 41 33 42 34 43 69 44 35 45 74 46
REMARK SMILES IDX 68 47 70 48 36 49 73 50 67 51 66 52 37 54 59 55 44 56 58 57
REMARK SMILES IDX 45 58 48 59 57 60 71 61 46 62 47 63 56 65 72 66 49 67 38 68
REMARK SMILES IDX 39 69 43 70 40 71 42 72 41 73 60 74 61 75 65 76 62 77 64 78
REMARK SMILES IDX 63 79 50 80 51 81 55 82 52 83 54 84 53 85
REMARK H PARENT 19 7 7 18 4 28 26 34 70 53 48 64
REMARK Flexibility Score: inf
ROOT
ATOM      1  C   UNL     1     -10.022   2.303  -3.597  1.00  0.00     0.002 C 
ENDROOT
BRANCH   1   2
ATOM      2  C   UNL     1      -8.532   2.046  -3.788  1.00  0.00     0.021 C 
BRANCH   2   3
ATOM      3  C   UNL     1      -8.116   0.600  -4.015  1.00  0.00     0.116 C 
BRANCH   3   4
ATOM      4  N   UNL     1      -8.651  -0.020  -5.218  1.00  0.00    -0.352 N 
ATOM      5  C   UNL     1      -8.082  -0.900  -6.121  1.00  0.00     0.251 C 
ATOM      6  O   UNL     1      -8.757  -1.282  -7.076  1.00  0.00    -0.269 OA
ATOM      7  H   UNL     1      -9.580   0.230  -5.426  1.00  0.00     0.163 HD
BRANCH   5   8
ATOM      8  C   UNL     1      -6.664  -1.343  -6.009  1.00  0.00     0.040 A 
ATOM      9  C   UNL     1      -4.621  -1.471  -4.682  1.00  0.00    -0.039 A 
ATOM     10  C   UNL     1      -3.909  -1.749  -5.855  1.00  0.00     0.004 A 
ATOM     11  C   UNL     1      -6.015  -1.405  -4.779  1.00  0.00     0.018 A 
ATOM     12  C   UNL     1      -4.570  -1.888  -7.080  1.00  0.00     0.001 A 
ATOM     13  C   UNL     1      -5.941  -1.644  -7.164  1.00  0.00     0.014 A 
BRANCH   9  14
ATOM     14  C   UNL     1      -3.964  -1.065  -3.361  1.00  0.00     0.074 C 
ATOM     15  N   UNL     1      -2.194  -2.802  -3.195  1.00  0.00    -0.328 N 
ATOM     16  C   UNL     1      -2.859  -3.434  -2.047  1.00  0.00     0.262 C 
ATOM     17  C   UNL     1      -2.457  -1.353  -3.250  1.00  0.00     0.270 C 
ATOM     18  H   UNL     1      -2.609  -3.227  -4.024  1.00  0.00     0.348 HD
ATOM     19  C   UNL     1      -4.363  -3.143  -2.007  1.00  0.00     0.062 C 
ATOM     20  C   UNL     1      -4.631  -1.646  -2.097  1.00  0.00     0.020 C 
BRANCH  15  21
ATOM     21  C   UNL     1      -0.750  -3.091  -3.263  1.00  0.00     0.340 C 
BRANCH  21  22
ATOM     22  C   UNL     1       0.042  -2.537  -2.127  1.00  0.00     0.179 A 
ATOM     23  C   UNL     1       1.192  -0.121   0.167  1.00  0.00     0.092 C 
ATOM     24  C   UNL     1       0.876  -1.334  -0.611  1.00  0.00     0.147 A 
ATOM     25  N   UNL     1       1.091  -2.573  -0.153  1.00  0.00    -0.159 NA
ATOM     26  N   UNL     1       0.274  -1.272  -1.836  1.00  0.00    -0.211 NA
ATOM     27  N   UNL     1       0.573  -3.319  -1.143  1.00  0.00    -0.258 N 
ATOM     28  H   UNL     1       0.576  -4.303  -1.156  1.00  0.00     0.192 HD
ENDBRANCH  21  22
ENDBRANCH  15  21
ENDBRANCH   9  14
ENDBRANCH   5   8
ENDBRANCH   3   4
ENDBRANCH   2   3
ENDBRANCH   1   2
BRANCH   1  29
ATOM     29  C   UNL     1     -10.755   1.445  -2.555  1.00  0.00     0.002 C 
BRANCH  29  30
ATOM     30  C   UNL     1     -10.169   1.369  -1.138  1.00  0.00     0.021 C 
BRANCH  30  31
ATOM     31  C   UNL     1     -10.036   2.707  -0.434  1.00  0.00     0.116 C 
BRANCH  31  32
ATOM     32  N   UNL     1     -11.317   3.375  -0.174  1.00  0.00    -0.352 N 
ATOM     33  C   UNL     1     -11.540   4.604   0.441  1.00  0.00     0.251 C 
ATOM     34  H   UNL     1     -12.122   2.893  -0.473  1.00  0.00     0.163 HD
ATOM     35  O   UNL     1     -12.626   4.902   0.907  1.00  0.00    -0.269 OA
BRANCH  33  36
ATOM     36  C   UNL     1     -10.417   5.557   0.491  1.00  0.00     0.039 A 
ATOM     37  C   UNL     1     -10.142   6.387   1.581  1.00  0.00     0.014 A 
ATOM     38  C   UNL     1      -9.584   5.546  -0.614  1.00  0.00     0.014 A 
ATOM     39  C   UNL     1      -8.984   7.164   1.541  1.00  0.00     0.010 A 
ATOM     40  C   UNL     1      -8.318   6.017  -0.488  1.00  0.00     0.010 A 
ATOM     41  C   UNL     1      -8.082   6.965   0.487  1.00  0.00    -0.014 A 
BRANCH  41  42
ATOM     42  C   UNL     1      -6.843   7.702   0.329  1.00  0.00     0.031 A 
ATOM     43  C   UNL     1      -5.882   7.540   1.441  1.00  0.00     0.074 A 
ATOM     44  C   UNL     1      -6.488   8.235  -0.864  1.00  0.00     0.049 A 
ATOM     45  N   UNL     1      -5.519   8.435   2.294  1.00  0.00    -0.248 NA
ATOM     46  C   UNL     1      -5.366   6.191   1.727  1.00  0.00     0.031 C 
ATOM     47  C   UNL     1      -7.172   8.151  -2.167  1.00  0.00     0.029 A 
ATOM     48  N   UNL     1      -5.330   8.854  -1.195  1.00  0.00    -0.354 N 
ATOM     49  C   UNL     1      -4.570   7.824   3.104  1.00  0.00     0.074 A 
ATOM     50  C   UNL     1      -4.662   6.410   2.839  1.00  0.00     0.031 C 
ATOM     51  C   UNL     1      -6.302   8.450  -3.158  1.00  0.00     0.029 A 
ATOM     52  C   UNL     1      -5.068   8.920  -2.557  1.00  0.00     0.049 A 
ATOM     53  H   UNL     1      -4.720   9.230  -0.520  1.00  0.00     0.167 HD
ATOM     54  C   UNL     1      -3.603   8.551   3.730  1.00  0.00     0.031 A 
ATOM     55  C   UNL     1      -3.896   9.289  -3.131  1.00  0.00     0.031 A 
ATOM     56  C   UNL     1      -3.882   9.966   3.677  1.00  0.00     0.049 A 
ATOM     57  C   UNL     1      -3.129  10.034  -2.099  1.00  0.00     0.074 A 
ATOM     58  C   UNL     1      -4.934  10.761   4.090  1.00  0.00     0.029 A 
ATOM     59  N   UNL     1      -3.207  10.704   2.730  1.00  0.00    -0.354 N 
ATOM     60  N   UNL     1      -3.516  11.183  -1.619  1.00  0.00    -0.248 NA
ATOM     61  C   UNL     1      -2.233   9.270  -1.242  1.00  0.00     0.031 C 
ATOM     62  C   UNL     1      -5.139  11.674   3.011  1.00  0.00     0.029 A 
ATOM     63  C   UNL     1      -4.146  11.444   2.056  1.00  0.00     0.049 A 
ATOM     64  H   UNL     1      -2.236  10.701   2.567  1.00  0.00     0.167 HD
ATOM     65  C   UNL     1      -3.285  11.094  -0.253  1.00  0.00     0.074 A 
ATOM     66  C   UNL     1      -2.417   9.926  -0.090  1.00  0.00     0.031 C 
ATOM     67  C   UNL     1      -4.057  11.772   0.650  1.00  0.00     0.031 A 
BRANCH  54  68
ATOM     68  C   UNL     1      -2.218   8.032   4.005  1.00  0.00    -0.014 A 
ATOM     69  C   UNL     1      -1.336   8.834   4.750  1.00  0.00     0.009 A 
ATOM     70  C   UNL     1      -1.659   6.931   3.328  1.00  0.00     0.009 A 
ATOM     71  C   UNL     1       0.042   8.589   4.751  1.00  0.00     0.001 A 
ATOM     72  C   UNL     1      -0.290   6.659   3.362  1.00  0.00     0.001 A 
ATOM     73  C   UNL     1       0.564   7.507   4.050  1.00  0.00     0.000 A 
ENDBRANCH  54  68
BRANCH  55  74
ATOM     74  C   UNL     1      -3.274   8.761  -4.368  1.00  0.00    -0.014 A 
ATOM     75  C   UNL     1      -2.212   9.436  -4.990  1.00  0.00     0.009 A 
ATOM     76  C   UNL     1      -3.545   7.446  -4.791  1.00  0.00     0.009 A 
ATOM     77  C   UNL     1      -1.430   8.804  -5.970  1.00  0.00     0.001 A 
ATOM     78  C   UNL     1      -2.766   6.815  -5.769  1.00  0.00     0.001 A 
ATOM     79  C   UNL     1      -1.698   7.490  -6.348  1.00  0.00     0.000 A 
ENDBRANCH  55  74
BRANCH  67  80
ATOM     80  C   UNL     1      -5.079  12.756   0.126  1.00  0.00    -0.014 A 
ATOM     81  C   UNL     1      -6.146  12.388  -0.714  1.00  0.00     0.009 A 
ATOM     82  C   UNL     1      -5.067  14.060   0.641  1.00  0.00     0.009 A 
ATOM     83  C   UNL     1      -7.152  13.303  -1.048  1.00  0.00     0.001 A 
ATOM     84  C   UNL     1      -6.080  14.969   0.323  1.00  0.00     0.001 A 
ATOM     85  C   UNL     1      -7.119  14.593  -0.524  1.00  0.00     0.000 A 
ENDBRANCH  67  80
ENDBRANCH  41  42
ENDBRANCH  33  36
ENDBRANCH  31  32
ENDBRANCH  30  31
ENDBRANCH  29  30
ENDBRANCH   1  29
TORSDOF 16
