REMARK SMILES C[NH2+][C@@](C)(CC[N@@H+](C)C1CCC(C)(C)CC1)C(=O)NCCCCCCNC(=O)c1ccc(-c2c3nc(c(-c4ccccc4)c4ccc([nH]4)c(-c4ccccc4)c4nc(c(-c5ccccc5)c5ccc2[nH]5)C=C4)C=C3)cc1
REMARK SMILES IDX 21 1 20 2 19 3 17 4 18 5 3 7 4 8 2 9 1 10 5 13 6 14 7 15
REMARK SMILES IDX 8 16 9 18 10 19 16 20 11 21 15 22 12 23 13 24 14 25 22 26
REMARK SMILES IDX 23 27 24 28 25 29 26 30 27 31 28 33 29 34 30 35 76 36 31 37
REMARK SMILES IDX 75 38 32 39 33 40 34 41 69 42 35 43 74 44 68 45 70 46 36 47
REMARK SMILES IDX 73 48 67 49 66 50 37 52 59 53 44 54 58 55 45 56 48 57 57 58
REMARK SMILES IDX 71 59 46 60 47 61 56 63 72 64 49 65 38 66 39 67 43 68 40 69
REMARK SMILES IDX 42 70 41 71 60 72 61 73 65 74 62 75 64 76 63 77 50 78 51 79
REMARK SMILES IDX 55 80 52 81 54 82 53 83
REMARK H PARENT 19 6 2 11 2 12 7 17 26 32 70 51 48 62
REMARK Flexibility Score: inf
ROOT
ATOM      1  C   UNL     1      -4.043   2.138  -1.263  1.00  0.00     0.021 C 
ENDROOT
BRANCH   1   2
ATOM      2  C   UNL     1      -2.805   1.488  -2.112  1.00  0.00     0.116 C 
BRANCH   2   3
ATOM      3  N   UNL     1      -1.377   1.388  -1.376  1.00  0.00    -0.351 N 
ATOM      4  C   UNL     1      -0.715   0.245  -0.849  1.00  0.00     0.281 C 
ATOM      5  O   UNL     1      -1.040  -0.848  -1.342  1.00  0.00    -0.268 OA
ATOM      6  H   UNL     1      -0.894   2.240  -1.275  1.00  0.00     0.163 HD
BRANCH   4   7
ATOM      7  C   UNL     1       0.555   0.249   0.446  1.00  0.00     0.177 C 
ATOM      8  C   UNL     1       0.664  -1.295   0.817  1.00  0.00     0.090 C 
BRANCH   7   9
ATOM      9  N   UNL     1       1.840   0.730  -0.159  1.00  0.00    -0.336 N 
ATOM     10  C   UNL     1       2.450  -0.162  -1.144  1.00  0.00     0.331 C 
ATOM     11  H   UNL     1       1.656   1.623  -0.616  1.00  0.00     0.346 HD
ATOM     12  H   UNL     1       2.505   0.788   0.613  1.00  0.00     0.346 HD
ENDBRANCH   7   9
BRANCH   7  13
ATOM     13  C   UNL     1       0.610   0.872   2.041  1.00  0.00     0.140 C 
BRANCH  13  14
ATOM     14  C   UNL     1       0.412   2.360   2.635  1.00  0.00     0.269 C 
BRANCH  14  15
ATOM     15  N   UNL     1      -0.921   2.985   3.064  1.00  0.00    -0.335 N 
ATOM     16  C   UNL     1      -0.649   4.324   3.629  1.00  0.00     0.332 C 
ATOM     17  H   UNL     1      -1.322   2.337   3.742  1.00  0.00     0.348 HD
BRANCH  15  18
ATOM     18  C   UNL     1      -1.938   3.120   2.003  1.00  0.00     0.183 C 
ATOM     19  C   UNL     1      -1.805   1.911   1.183  1.00  0.00     0.065 C 
ATOM     20  C   UNL     1      -3.474   3.129   2.258  1.00  0.00     0.065 C 
ATOM     21  C   UNL     1      -2.139   0.640   1.964  1.00  0.00     0.012 C 
ATOM     22  C   UNL     1      -4.301   1.755   2.236  1.00  0.00     0.012 C 
ATOM     23  C   UNL     1      -3.611   0.371   1.929  1.00  0.00    -0.035 C 
ATOM     24  C   UNL     1      -3.991  -0.652   3.009  1.00  0.00     0.011 C 
ATOM     25  C   UNL     1      -3.859  -0.449   0.623  1.00  0.00     0.011 C 
ENDBRANCH  15  18
ENDBRANCH  14  15
ENDBRANCH  13  14
ENDBRANCH   7  13
ENDBRANCH   4   7
ENDBRANCH   2   3
ENDBRANCH   1   2
BRANCH   1  26
ATOM     26  C   UNL     1      -5.442   2.661  -1.735  1.00  0.00     0.002 C 
BRANCH  26  27
ATOM     27  C   UNL     1      -6.750   1.802  -1.721  1.00  0.00     0.002 C 
BRANCH  27  28
ATOM     28  C   UNL     1      -7.408   1.237  -0.427  1.00  0.00     0.021 C 
BRANCH  28  29
ATOM     29  C   UNL     1      -8.027   2.167   0.641  1.00  0.00     0.116 C 
BRANCH  29  30
ATOM     30  N   UNL     1      -9.072   3.054   0.139  1.00  0.00    -0.352 N 
ATOM     31  C   UNL     1     -10.418   3.112   0.353  1.00  0.00     0.251 C 
ATOM     32  H   UNL     1      -8.739   3.749  -0.474  1.00  0.00     0.163 HD
ATOM     33  O   UNL     1     -11.089   3.906  -0.356  1.00  0.00    -0.269 OA
BRANCH  31  34
ATOM     34  C   UNL     1     -11.154   2.319   1.365  1.00  0.00     0.039 A 
ATOM     35  C   UNL     1     -12.429   1.826   1.041  1.00  0.00     0.014 A 
ATOM     36  C   UNL     1     -10.695   2.179   2.678  1.00  0.00     0.014 A 
ATOM     37  C   UNL     1     -13.219   1.179   2.002  1.00  0.00     0.010 A 
ATOM     38  C   UNL     1     -11.467   1.490   3.629  1.00  0.00     0.010 A 
ATOM     39  C   UNL     1     -12.743   0.995   3.310  1.00  0.00    -0.014 A 
BRANCH  39  40
ATOM     40  C   UNL     1     -13.586   0.327   4.345  1.00  0.00     0.031 A 
ATOM     41  C   UNL     1     -14.095   1.097   5.538  1.00  0.00     0.074 A 
ATOM     42  C   UNL     1     -13.880  -0.987   4.233  1.00  0.00     0.049 A 
ATOM     43  N   UNL     1     -14.833   0.685   6.542  1.00  0.00    -0.248 NA
ATOM     44  C   UNL     1     -13.703   2.512   5.621  1.00  0.00     0.031 C 
ATOM     45  C   UNL     1     -13.437  -1.861   3.147  1.00  0.00     0.029 A 
ATOM     46  N   UNL     1     -14.623  -1.813   5.042  1.00  0.00    -0.354 N 
ATOM     47  C   UNL     1     -14.972   1.781   7.385  1.00  0.00     0.074 A 
ATOM     48  C   UNL     1     -14.211   2.863   6.808  1.00  0.00     0.031 C 
ATOM     49  C   UNL     1     -13.941  -3.092   3.340  1.00  0.00     0.029 A 
ATOM     50  C   UNL     1     -14.714  -3.103   4.577  1.00  0.00     0.049 A 
ATOM     51  H   UNL     1     -15.049  -1.509   5.876  1.00  0.00     0.167 HD
ATOM     52  C   UNL     1     -15.685   1.888   8.539  1.00  0.00     0.031 A 
ATOM     53  C   UNL     1     -15.352  -4.177   5.086  1.00  0.00     0.031 A 
ATOM     54  C   UNL     1     -16.459   0.820   9.114  1.00  0.00     0.049 A 
ATOM     55  C   UNL     1     -16.132  -4.034   6.365  1.00  0.00     0.074 A 
ATOM     56  C   UNL     1     -17.263   0.848  10.242  1.00  0.00     0.029 A 
ATOM     57  N   UNL     1     -16.524  -0.469   8.611  1.00  0.00    -0.354 N 
ATOM     58  N   UNL     1     -16.310  -2.971   7.112  1.00  0.00    -0.248 NA
ATOM     59  C   UNL     1     -16.812  -5.242   6.856  1.00  0.00     0.031 C 
ATOM     60  C   UNL     1     -17.771  -0.440  10.450  1.00  0.00     0.029 A 
ATOM     61  C   UNL     1     -17.334  -1.253   9.416  1.00  0.00     0.049 A 
ATOM     62  H   UNL     1     -16.062  -0.782   7.799  1.00  0.00     0.167 HD
ATOM     63  C   UNL     1     -17.153  -3.371   8.140  1.00  0.00     0.074 A 
ATOM     64  C   UNL     1     -17.464  -4.765   7.920  1.00  0.00     0.031 C 
ATOM     65  C   UNL     1     -17.635  -2.640   9.180  1.00  0.00     0.031 A 
BRANCH  52  66
ATOM     66  C   UNL     1     -15.644   3.210   9.259  1.00  0.00    -0.014 A 
ATOM     67  C   UNL     1     -16.256   4.356   8.726  1.00  0.00     0.009 A 
ATOM     68  C   UNL     1     -15.009   3.304  10.509  1.00  0.00     0.009 A 
ATOM     69  C   UNL     1     -16.192   5.576   9.404  1.00  0.00     0.001 A 
ATOM     70  C   UNL     1     -14.974   4.517  11.200  1.00  0.00     0.001 A 
ATOM     71  C   UNL     1     -15.554   5.655  10.641  1.00  0.00     0.000 A 
ENDBRANCH  52  66
BRANCH  53  72
ATOM     72  C   UNL     1     -15.313  -5.479   4.368  1.00  0.00    -0.014 A 
ATOM     73  C   UNL     1     -16.468  -5.984   3.749  1.00  0.00     0.009 A 
ATOM     74  C   UNL     1     -14.130  -6.232   4.307  1.00  0.00     0.009 A 
ATOM     75  C   UNL     1     -16.446  -7.226   3.108  1.00  0.00     0.001 A 
ATOM     76  C   UNL     1     -14.103  -7.458   3.639  1.00  0.00     0.001 A 
ATOM     77  C   UNL     1     -15.262  -7.959   3.049  1.00  0.00     0.000 A 
ENDBRANCH  53  72
BRANCH  65  78
ATOM     78  C   UNL     1     -18.583  -3.329  10.121  1.00  0.00    -0.014 A 
ATOM     79  C   UNL     1     -18.145  -4.322  11.011  1.00  0.00     0.009 A 
ATOM     80  C   UNL     1     -19.936  -2.954  10.135  1.00  0.00     0.009 A 
ATOM     81  C   UNL     1     -19.052  -4.954  11.866  1.00  0.00     0.001 A 
ATOM     82  C   UNL     1     -20.833  -3.564  11.012  1.00  0.00     0.001 A 
ATOM     83  C   UNL     1     -20.393  -4.571  11.869  1.00  0.00     0.000 A 
ENDBRANCH  65  78
ENDBRANCH  39  40
ENDBRANCH  31  34
ENDBRANCH  29  30
ENDBRANCH  28  29
ENDBRANCH  27  28
ENDBRANCH  26  27
ENDBRANCH   1  26
TORSDOF 18
