REMARK SMILES C[C@@H](C(=O)NCCCCCCNC(=O)c1ccc(-c2c3nc(c(-c4ccccc4)c4ccc([nH]4)c(-c4ccccc4)c4nc(c(-c5ccccc5)c5ccc2[nH]5)C=C4)C=C3)cc1)c1ccc(C[C@H]2CCCC2=O)cc1
REMARK SMILES IDX 8 1 7 2 6 3 5 4 3 5 4 6 2 8 1 9 63 10 64 11 75 12 65 13
REMARK SMILES IDX 74 14 66 15 67 16 68 17 69 18 72 19 70 20 71 21 73 22 9 23
REMARK SMILES IDX 10 24 11 25 12 26 13 27 14 29 15 30 16 31 62 32 17 33 61 34
REMARK SMILES IDX 18 35 19 36 20 37 55 38 21 39 60 40 54 41 56 42 22 43 59 44
REMARK SMILES IDX 53 45 52 46 23 48 45 49 30 50 44 51 31 52 34 53 43 54 57 55
REMARK SMILES IDX 32 56 33 57 42 59 58 60 35 61 24 62 25 63 29 64 26 65 28 66
REMARK SMILES IDX 27 67 46 68 47 69 51 70 48 71 50 72 49 73 36 74 37 75 41 76
REMARK SMILES IDX 38 77 40 78 39 79
REMARK H PARENT 5 7 12 28 56 47 34 58
REMARK Flexibility Score: inf
ROOT
ATOM      1  C   UNL     1       4.993   1.160  -2.596  1.00  0.00     0.002 C 
ENDROOT
BRANCH   1   2
ATOM      2  C   UNL     1       4.259   0.722  -1.322  1.00  0.00     0.021 C 
BRANCH   2   3
ATOM      3  C   UNL     1       3.365   1.804  -0.709  1.00  0.00     0.116 C 
BRANCH   3   4
ATOM      4  N   UNL     1       2.258   2.099  -1.595  1.00  0.00    -0.356 N 
ATOM      5  C   UNL     1       0.972   1.643  -1.572  1.00  0.00     0.227 C 
ATOM      6  O   UNL     1       0.304   1.825  -2.592  1.00  0.00    -0.274 OA
ATOM      7  H   UNL     1       2.465   2.726  -2.325  1.00  0.00     0.163 HD
BRANCH   5   8
ATOM      8  C   UNL     1       0.409   0.983  -0.298  1.00  0.00     0.105 C 
ATOM      9  C   UNL     1       0.939  -0.449  -0.159  1.00  0.00     0.023 C 
BRANCH   8  10
ATOM     10  C   UNL     1      -1.118   1.087  -0.232  1.00  0.00    -0.036 A 
ATOM     11  C   UNL     1      -1.719   2.356  -0.289  1.00  0.00     0.005 A 
ATOM     12  C   UNL     1      -1.959  -0.030  -0.119  1.00  0.00     0.005 A 
ATOM     13  C   UNL     1      -3.108   2.500  -0.252  1.00  0.00     0.004 A 
ATOM     14  C   UNL     1      -3.347   0.116  -0.050  1.00  0.00     0.004 A 
ATOM     15  C   UNL     1      -3.935   1.382  -0.107  1.00  0.00    -0.047 A 
BRANCH  15  16
ATOM     16  C   UNL     1      -5.433   1.531  -0.006  1.00  0.00     0.047 C 
BRANCH  16  17
ATOM     17  C   UNL     1      -5.971   2.035   1.338  1.00  0.00     0.060 C 
ATOM     18  C   UNL     1      -5.486   1.300   2.592  1.00  0.00     0.012 C 
ATOM     19  C   UNL     1      -5.554   3.459   1.626  1.00  0.00     0.136 C 
ATOM     20  C   UNL     1      -4.334   2.128   3.152  1.00  0.00     0.009 C 
ATOM     21  C   UNL     1      -4.699   3.576   2.859  1.00  0.00     0.076 C 
ATOM     22  O   UNL     1      -5.893   4.421   0.945  1.00  0.00    -0.299 OA
ENDBRANCH  16  17
ENDBRANCH  15  16
ENDBRANCH   8  10
ENDBRANCH   5   8
ENDBRANCH   3   4
ENDBRANCH   2   3
ENDBRANCH   1   2
BRANCH   1  23
ATOM     23  C   UNL     1       5.951   2.341  -2.421  1.00  0.00     0.002 C 
BRANCH  23  24
ATOM     24  C   UNL     1       7.016   2.157  -1.337  1.00  0.00     0.021 C 
BRANCH  24  25
ATOM     25  C   UNL     1       7.913   0.936  -1.517  1.00  0.00     0.116 C 
BRANCH  25  26
ATOM     26  N   UNL     1       8.712   1.013  -2.729  1.00  0.00    -0.352 N 
ATOM     27  C   UNL     1      10.058   0.826  -2.896  1.00  0.00     0.251 C 
ATOM     28  H   UNL     1       8.212   1.231  -3.548  1.00  0.00     0.163 HD
ATOM     29  O   UNL     1      10.588   1.105  -3.973  1.00  0.00    -0.269 OA
BRANCH  27  30
ATOM     30  C   UNL     1      10.888   0.308  -1.788  1.00  0.00     0.039 A 
ATOM     31  C   UNL     1      12.128   0.906  -1.544  1.00  0.00     0.014 A 
ATOM     32  C   UNL     1      10.470  -0.778  -1.013  1.00  0.00     0.014 A 
ATOM     33  C   UNL     1      12.926   0.447  -0.495  1.00  0.00     0.010 A 
ATOM     34  C   UNL     1      11.241  -1.197   0.071  1.00  0.00     0.010 A 
ATOM     35  C   UNL     1      12.479  -0.593   0.336  1.00  0.00    -0.014 A 
BRANCH  35  36
ATOM     36  C   UNL     1      13.302  -1.054   1.481  1.00  0.00     0.031 A 
ATOM     37  C   UNL     1      13.907  -2.431   1.479  1.00  0.00     0.074 A 
ATOM     38  C   UNL     1      13.480  -0.243   2.542  1.00  0.00     0.049 A 
ATOM     39  N   UNL     1      14.645  -3.008   2.394  1.00  0.00    -0.248 NA
ATOM     40  C   UNL     1      13.633  -3.276   0.306  1.00  0.00     0.031 C 
ATOM     41  C   UNL     1      12.912   1.099   2.688  1.00  0.00     0.029 A 
ATOM     42  N   UNL     1      14.191  -0.432   3.700  1.00  0.00    -0.354 N 
ATOM     43  C   UNL     1      14.919  -4.281   1.910  1.00  0.00     0.074 A 
ATOM     44  C   UNL     1      14.227  -4.411   0.646  1.00  0.00     0.031 C 
ATOM     45  C   UNL     1      13.316   1.621   3.857  1.00  0.00     0.029 A 
ATOM     46  C   UNL     1      14.147   0.644   4.553  1.00  0.00     0.049 A 
ATOM     47  H   UNL     1      14.685  -1.259   3.901  1.00  0.00     0.167 HD
ATOM     48  C   UNL     1      15.694  -5.249   2.455  1.00  0.00     0.031 A 
ATOM     49  C   UNL     1      14.714   0.825   5.760  1.00  0.00     0.031 A 
ATOM     50  C   UNL     1      16.388  -5.125   3.709  1.00  0.00     0.049 A 
ATOM     51  C   UNL     1      15.574  -0.262   6.341  1.00  0.00     0.074 A 
ATOM     52  C   UNL     1      17.220  -6.041   4.330  1.00  0.00     0.029 A 
ATOM     53  N   UNL     1      16.333  -4.012   4.533  1.00  0.00    -0.354 N 
ATOM     54  N   UNL     1      15.865  -1.439   5.844  1.00  0.00    -0.248 NA
ATOM     55  C   UNL     1      16.198   0.014   7.643  1.00  0.00     0.031 C 
ATOM     56  C   UNL     1      17.643  -5.493   5.547  1.00  0.00     0.029 A 
ATOM     57  C   UNL     1      17.109  -4.220   5.660  1.00  0.00     0.049 A 
ATOM     58  H   UNL     1      15.818  -3.194   4.344  1.00  0.00     0.167 HD
ATOM     59  C   UNL     1      16.722  -2.035   6.760  1.00  0.00     0.074 A 
ATOM     60  C   UNL     1      16.919  -1.081   7.832  1.00  0.00     0.031 C 
ATOM     61  C   UNL     1      17.293  -3.263   6.718  1.00  0.00     0.031 A 
BRANCH  48  62
ATOM     62  C   UNL     1      15.837  -6.531   1.686  1.00  0.00    -0.014 A 
ATOM     63  C   UNL     1      16.602  -6.584   0.509  1.00  0.00     0.009 A 
ATOM     64  C   UNL     1      15.233  -7.707   2.157  1.00  0.00     0.009 A 
ATOM     65  C   UNL     1      16.732  -7.781  -0.197  1.00  0.00     0.001 A 
ATOM     66  C   UNL     1      15.386  -8.908   1.462  1.00  0.00     0.001 A 
ATOM     67  C   UNL     1      16.128  -8.942   0.282  1.00  0.00     0.000 A 
ENDBRANCH  48  62
BRANCH  49  68
ATOM     68  C   UNL     1      14.505   2.097   6.497  1.00  0.00    -0.014 A 
ATOM     69  C   UNL     1      15.548   3.026   6.626  1.00  0.00     0.009 A 
ATOM     70  C   UNL     1      13.264   2.380   7.088  1.00  0.00     0.009 A 
ATOM     71  C   UNL     1      15.361   4.202   7.357  1.00  0.00     0.001 A 
ATOM     72  C   UNL     1      13.072   3.569   7.795  1.00  0.00     0.001 A 
ATOM     73  C   UNL     1      14.123   4.473   7.938  1.00  0.00     0.000 A 
ENDBRANCH  49  68
BRANCH  61  74
ATOM     74  C   UNL     1      18.205  -3.629   7.853  1.00  0.00    -0.014 A 
ATOM     75  C   UNL     1      17.695  -3.942   9.123  1.00  0.00     0.009 A 
ATOM     76  C   UNL     1      19.591  -3.683   7.642  1.00  0.00     0.009 A 
ATOM     77  C   UNL     1      18.561  -4.268  10.168  1.00  0.00     0.001 A 
ATOM     78  C   UNL     1      20.452  -4.034   8.683  1.00  0.00     0.001 A 
ATOM     79  C   UNL     1      19.937  -4.316   9.947  1.00  0.00     0.000 A 
ENDBRANCH  61  74
ENDBRANCH  35  36
ENDBRANCH  27  30
ENDBRANCH  25  26
ENDBRANCH  24  25
ENDBRANCH  23  24
ENDBRANCH   1  23
TORSDOF 16
