REMARK SMILES O=C(CNC(=O)N1CC(NCCCCCCNC(=O)c2ccc(-c3c4nc(c(-c5ccccc5)c5ccc([nH]5)c(-c5ccccc5)c5nc(c(-c6ccccc6)c6ccc3[nH]6)C=C5)C=C4)cc2)=[NH+]c2ccccc21)N[C@H](C(=O)[O-])c1ccccc1
REMARK SMILES IDX 12 1 11 2 10 3 7 4 8 5 74 6 9 7 69 8 73 9 68 10 70 11 72 12
REMARK SMILES IDX 71 15 5 16 4 17 6 19 3 20 2 21 1 22 75 23 76 25 80 26 81 27
REMARK SMILES IDX 85 28 82 29 84 30 83 31 77 32 78 33 79 34 13 35 14 36 15 37
REMARK SMILES IDX 16 38 17 39 18 40 19 42 20 43 21 44 67 45 22 46 66 47 23 48
REMARK SMILES IDX 24 49 25 50 60 51 26 52 65 53 59 54 61 55 27 56 64 57 58 58
REMARK SMILES IDX 57 59 28 61 50 62 35 63 49 64 36 65 39 66 48 67 62 68 37 69
REMARK SMILES IDX 38 70 47 72 63 73 40 74 29 75 30 76 34 77 31 78 33 79 32 80
REMARK SMILES IDX 51 81 52 82 56 83 53 84 55 85 54 86 41 87 42 88 46 89 43 90
REMARK SMILES IDX 45 91 44 92
REMARK H PARENT 10 13 68 14 4 18 75 24 17 41 61 60 39 71
REMARK Flexibility Score: inf
ROOT
ATOM      1  C   UNL     1       0.873   6.637   3.634  1.00  0.00     0.046 C 
ENDROOT
BRANCH   1   2
ATOM      2  C   UNL     1       0.834   6.821   5.150  1.00  0.00     0.233 C 
BRANCH   2   3
ATOM      3  N   UNL     1       0.312   5.643   5.795  1.00  0.00    -0.277 N 
ATOM      4  N   UNL     1       3.103   3.414   6.592  1.00  0.00    -0.278 N 
ATOM      5  C   UNL     1       2.515   4.739   6.670  1.00  0.00     0.255 C 
ATOM      6  C   UNL     1       2.423   2.433   7.353  1.00  0.00     0.093 A 
ATOM      7  C   UNL     1       1.004   4.639   6.424  1.00  0.00     0.268 C 
ATOM      8  C   UNL     1       1.022   2.557   7.458  1.00  0.00     0.148 A 
ATOM      9  C   UNL     1       3.089   1.354   7.948  1.00  0.00     0.031 A 
ATOM     10  N   UNL     1       0.311   3.615   6.851  1.00  0.00    -0.241 N 
ATOM     11  C   UNL     1       0.303   1.536   8.082  1.00  0.00     0.054 A 
ATOM     12  C   UNL     1       2.355   0.359   8.595  1.00  0.00     0.002 A 
ATOM     13  H   UNL     1      -0.668   5.546   5.783  1.00  0.00     0.304 HD
ATOM     14  H   UNL     1      -0.668   3.583   6.754  1.00  0.00     0.312 HD
ATOM     15  C   UNL     1       0.963   0.439   8.642  1.00  0.00     0.005 A 
BRANCH   4  16
ATOM     16  C   UNL     1       4.227   3.247   5.828  1.00  0.00     0.323 C 
ATOM     17  N   UNL     1       4.400   2.110   5.106  1.00  0.00    -0.329 N 
ATOM     18  H   UNL     1       5.309   1.984   4.748  1.00  0.00     0.165 HD
ATOM     19  O   UNL     1       5.057   4.149   5.682  1.00  0.00    -0.248 OA
BRANCH  17  20
ATOM     20  C   UNL     1       3.458   1.042   4.776  1.00  0.00     0.218 C 
BRANCH  20  21
ATOM     21  C   UNL     1       2.859   1.021   3.370  1.00  0.00     0.240 C 
ATOM     22  O   UNL     1       2.111   0.101   3.039  1.00  0.00    -0.273 OA
ATOM     23  N   UNL     1       3.135   2.103   2.572  1.00  0.00    -0.342 N 
ATOM     24  H   UNL     1       3.582   2.896   2.947  1.00  0.00     0.164 HD
BRANCH  23  25
ATOM     25  C   UNL     1       2.757   2.066   1.147  1.00  0.00     0.158 C 
BRANCH  25  26
ATOM     26  C   UNL     1       2.950   3.448   0.530  1.00  0.00    -0.020 A 
ATOM     27  C   UNL     1       4.070   3.771  -0.253  1.00  0.00     0.006 A 
ATOM     28  C   UNL     1       1.998   4.453   0.764  1.00  0.00     0.006 A 
ATOM     29  C   UNL     1       4.222   5.044  -0.806  1.00  0.00     0.000 A 
ATOM     30  C   UNL     1       2.156   5.730   0.218  1.00  0.00     0.000 A 
ATOM     31  C   UNL     1       3.267   6.027  -0.567  1.00  0.00     0.000 A 
ENDBRANCH  25  26
BRANCH  25  32
ATOM     32  C   UNL     1       3.497   0.950   0.314  1.00  0.00     0.068 C 
ATOM     33  O   UNL     1       2.859   0.488  -0.679  1.00  0.00    -0.548 OA
ATOM     34  O   UNL     1       4.676   0.670   0.706  1.00  0.00    -0.548 OA
ENDBRANCH  25  32
ENDBRANCH  23  25
ENDBRANCH  20  21
ENDBRANCH  17  20
ENDBRANCH   4  16
ENDBRANCH   2   3
ENDBRANCH   1   2
BRANCH   1  35
ATOM     35  C   UNL     1      -0.508   6.537   2.969  1.00  0.00     0.004 C 
BRANCH  35  36
ATOM     36  C   UNL     1      -1.448   7.721   3.215  1.00  0.00     0.002 C 
BRANCH  36  37
ATOM     37  C   UNL     1      -0.877   9.096   2.861  1.00  0.00     0.021 C 
BRANCH  37  38
ATOM     38  C   UNL     1      -0.484   9.270   1.399  1.00  0.00     0.116 C 
BRANCH  38  39
ATOM     39  N   UNL     1      -1.634   9.255   0.507  1.00  0.00    -0.352 N 
ATOM     40  C   UNL     1      -2.017  10.189  -0.425  1.00  0.00     0.251 C 
ATOM     41  H   UNL     1      -2.219   8.467   0.583  1.00  0.00     0.163 HD
ATOM     42  O   UNL     1      -3.113  10.119  -0.973  1.00  0.00    -0.269 OA
BRANCH  40  43
ATOM     43  C   UNL     1      -1.107  11.308  -0.747  1.00  0.00     0.039 A 
ATOM     44  C   UNL     1      -1.611  12.612  -0.767  1.00  0.00     0.014 A 
ATOM     45  C   UNL     1       0.243  11.069  -1.012  1.00  0.00     0.014 A 
ATOM     46  C   UNL     1      -0.743  13.686  -0.984  1.00  0.00     0.010 A 
ATOM     47  C   UNL     1       1.116  12.142  -1.158  1.00  0.00     0.010 A 
ATOM     48  C   UNL     1       0.633  13.461  -1.145  1.00  0.00    -0.014 A 
BRANCH  48  49
ATOM     49  C   UNL     1       1.595  14.579  -1.319  1.00  0.00     0.031 A 
ATOM     50  C   UNL     1       2.377  14.694  -2.599  1.00  0.00     0.074 A 
ATOM     51  C   UNL     1       1.836  15.429  -0.303  1.00  0.00     0.049 A 
ATOM     52  N   UNL     1       3.363  15.502  -2.895  1.00  0.00    -0.248 NA
ATOM     53  C   UNL     1       2.017  13.760  -3.678  1.00  0.00     0.031 C 
ATOM     54  C   UNL     1       1.160  15.416   0.996  1.00  0.00     0.029 A 
ATOM     55  N   UNL     1       2.737  16.460  -0.197  1.00  0.00    -0.354 N 
ATOM     56  C   UNL     1       3.762  15.150  -4.179  1.00  0.00     0.074 A 
ATOM     57  C   UNL     1       2.938  14.036  -4.590  1.00  0.00     0.031 C 
ATOM     58  C   UNL     1       1.662  16.397   1.763  1.00  0.00     0.029 A 
ATOM     59  C   UNL     1       2.728  17.076   1.032  1.00  0.00     0.049 A 
ATOM     60  H   UNL     1       3.332  16.733  -0.932  1.00  0.00     0.167 HD
ATOM     61  C   UNL     1       4.721  15.713  -4.952  1.00  0.00     0.031 A 
ATOM     62  C   UNL     1       3.507  18.059   1.524  1.00  0.00     0.031 A 
ATOM     63  C   UNL     1       5.534  16.827  -4.546  1.00  0.00     0.049 A 
ATOM     64  C   UNL     1       4.587  18.647   0.657  1.00  0.00     0.074 A 
ATOM     65  C   UNL     1       6.498  17.500  -5.277  1.00  0.00     0.029 A 
ATOM     66  N   UNL     1       5.481  17.429  -3.299  1.00  0.00    -0.354 N 
ATOM     67  N   UNL     1       4.914  18.344  -0.576  1.00  0.00    -0.248 NA
ATOM     68  C   UNL     1       5.402  19.720   1.248  1.00  0.00     0.031 C 
ATOM     69  C   UNL     1       7.064  18.478  -4.454  1.00  0.00     0.029 A 
ATOM     70  C   UNL     1       6.408  18.454  -3.233  1.00  0.00     0.049 A 
ATOM     71  H   UNL     1       4.873  17.167  -2.570  1.00  0.00     0.167 HD
ATOM     72  C   UNL     1       5.943  19.211  -0.920  1.00  0.00     0.074 A 
ATOM     73  C   UNL     1       6.184  20.055   0.231  1.00  0.00     0.031 C 
ATOM     74  C   UNL     1       6.622  19.301  -2.089  1.00  0.00     0.031 A 
BRANCH  61  75
ATOM     75  C   UNL     1       4.953  15.117  -6.312  1.00  0.00    -0.014 A 
ATOM     76  C   UNL     1       4.005  15.253  -7.339  1.00  0.00     0.009 A 
ATOM     77  C   UNL     1       6.151  14.438  -6.581  1.00  0.00     0.009 A 
ATOM     78  C   UNL     1       4.236  14.687  -8.594  1.00  0.00     0.001 A 
ATOM     79  C   UNL     1       6.393  13.900  -7.846  1.00  0.00     0.001 A 
ATOM     80  C   UNL     1       5.431  14.016  -8.848  1.00  0.00     0.000 A 
ENDBRANCH  61  75
BRANCH  62  81
ATOM     81  C   UNL     1       3.296  18.555   2.909  1.00  0.00    -0.014 A 
ATOM     82  C   UNL     1       2.773  19.839   3.133  1.00  0.00     0.009 A 
ATOM     83  C   UNL     1       3.622  17.755   4.015  1.00  0.00     0.009 A 
ATOM     84  C   UNL     1       2.609  20.321   4.434  1.00  0.00     0.001 A 
ATOM     85  C   UNL     1       3.428  18.228   5.315  1.00  0.00     0.001 A 
ATOM     86  C   UNL     1       2.932  19.514   5.523  1.00  0.00     0.000 A 
ENDBRANCH  62  81
BRANCH  74  87
ATOM     87  C   UNL     1       7.649  20.390  -2.218  1.00  0.00    -0.014 A 
ATOM     88  C   UNL     1       8.893  20.305  -1.576  1.00  0.00     0.009 A 
ATOM     89  C   UNL     1       7.393  21.477  -3.069  1.00  0.00     0.009 A 
ATOM     90  C   UNL     1       9.854  21.299  -1.770  1.00  0.00     0.001 A 
ATOM     91  C   UNL     1       8.366  22.454  -3.283  1.00  0.00     0.001 A 
ATOM     92  C   UNL     1       9.594  22.367  -2.630  1.00  0.00     0.000 A 
ENDBRANCH  74  87
ENDBRANCH  48  49
ENDBRANCH  40  43
ENDBRANCH  38  39
ENDBRANCH  37  38
ENDBRANCH  36  37
ENDBRANCH  35  36
ENDBRANCH   1  35
TORSDOF 18
