REMARK SMILES NS(=O)(=O)c1ccc(-n2nc(NC(=O)NCCCCCCCCCCC(=O)NCCCCCCNC(=O)c3ccc(-c4c5nc(c(-c6ccccc6)c6ccc([nH]6)c(-c6ccccc6)c6nc(c(-c7ccccc7)c7ccc4[nH]7)C=C6)C=C5)cc3)cc2-c2ccccc2)cc1
REMARK SMILES IDX 23 1 22 2 21 3 20 4 19 5 18 6 17 7 16 8 15 9 12 10 13 11
REMARK SMILES IDX 14 13 11 15 9 16 10 17 87 18 86 19 8 20 5 21 6 22 95 23 7 24
REMARK SMILES IDX 94 25 2 26 3 27 4 28 1 29 88 32 89 33 93 34 90 35 92 36
REMARK SMILES IDX 91 37 24 38 25 39 26 40 27 41 28 42 29 44 30 45 31 46 32 47
REMARK SMILES IDX 33 48 34 49 35 50 36 51 37 53 38 54 39 55 85 56 40 57 84 58
REMARK SMILES IDX 41 59 42 60 43 61 78 62 44 63 83 64 77 65 79 66 45 67 82 68
REMARK SMILES IDX 76 69 75 70 46 72 68 73 53 74 67 75 54 76 57 77 66 78 80 79
REMARK SMILES IDX 55 80 56 81 65 83 81 84 58 85 47 86 48 87 52 88 49 89 51 90
REMARK SMILES IDX 50 91 69 92 70 93 74 94 71 95 73 96 72 97 59 98 60 99 64 100
REMARK SMILES IDX 61 101 63 102 62 103
REMARK H PARENT 12 12 15 14 1 30 1 31 28 43 35 52 79 71 57 82
REMARK Flexibility Score: inf
ROOT
ATOM      1  C   UNL     1      -3.333   4.400  -1.314  1.00  0.00     0.001 C 
ENDROOT
BRANCH   1   2
ATOM      2  C   UNL     1      -3.584   4.116   0.172  1.00  0.00     0.000 C 
BRANCH   2   3
ATOM      3  C   UNL     1      -2.352   4.269   1.037  1.00  0.00     0.000 C 
BRANCH   3   4
ATOM      4  C   UNL     1      -1.844   5.701   1.137  1.00  0.00     0.000 C 
BRANCH   4   5
ATOM      5  C   UNL     1      -2.821   6.738   1.698  1.00  0.00     0.000 C 
BRANCH   5   6
ATOM      6  C   UNL     1      -3.410   6.438   3.081  1.00  0.00     0.002 C 
BRANCH   6   7
ATOM      7  C   UNL     1      -2.429   5.986   4.161  1.00  0.00     0.021 C 
BRANCH   7   8
ATOM      8  C   UNL     1      -1.125   6.760   4.260  1.00  0.00     0.117 C 
BRANCH   8   9
ATOM      9  N   UNL     1      -1.195   8.075   4.840  1.00  0.00    -0.338 N 
ATOM     10  N   UNL     1       1.026   8.282   5.685  1.00  0.00    -0.291 N 
ATOM     11  C   UNL     1      -0.223   8.764   5.481  1.00  0.00     0.320 C 
ATOM     12  H   UNL     1       1.494   8.700   6.444  1.00  0.00     0.173 HD
ATOM     13  O   UNL     1      -0.537   9.838   6.004  1.00  0.00    -0.248 OA
ATOM     14  H   UNL     1      -2.063   8.533   4.760  1.00  0.00     0.165 HD
BRANCH  10  15
ATOM     15  C   UNL     1       1.770   7.318   5.035  1.00  0.00     0.157 A 
ATOM     16  N   UNL     1       2.280   5.752   3.699  1.00  0.00    -0.231 N 
ATOM     17  N   UNL     1       1.600   6.917   3.772  1.00  0.00    -0.149 NA
ATOM     18  C   UNL     1       3.230   5.663   4.707  1.00  0.00     0.076 A 
ATOM     19  C   UNL     1       2.873   6.644   5.614  1.00  0.00     0.078 A 
BRANCH  16  20
ATOM     20  C   UNL     1       1.921   4.761   2.742  1.00  0.00     0.065 A 
ATOM     21  C   UNL     1       1.181   2.813   0.882  1.00  0.00     0.082 A 
ATOM     22  C   UNL     1       1.494   2.432   2.188  1.00  0.00     0.024 A 
ATOM     23  C   UNL     1       1.240   4.160   0.501  1.00  0.00     0.024 A 
ATOM     24  C   UNL     1       1.877   3.406   3.114  1.00  0.00     0.030 A 
ATOM     25  C   UNL     1       1.582   5.140   1.440  1.00  0.00     0.030 A 
BRANCH  21  26
ATOM     26  S   UNL     1       0.694   1.600  -0.313  1.00  0.00     0.238 S 
ATOM     27  O   UNL     1       1.282   1.965  -1.595  1.00  0.00    -0.207 OA
ATOM     28  O   UNL     1      -0.699   1.320  -0.149  1.00  0.00    -0.207 OA
BRANCH  26  29
ATOM     29  N   UNL     1       1.506   0.205   0.152  1.00  0.00    -0.225 NA
ATOM     30  H   UNL     1       1.278  -0.552  -0.492  1.00  0.00     0.137 HD
ATOM     31  H   UNL     1       1.222  -0.055   1.097  1.00  0.00     0.137 HD
ENDBRANCH  26  29
ENDBRANCH  21  26
ENDBRANCH  16  20
BRANCH  18  32
ATOM     32  C   UNL     1       4.332   4.708   4.679  1.00  0.00     0.000 A 
ATOM     33  C   UNL     1       5.101   4.588   3.509  1.00  0.00     0.010 A 
ATOM     34  C   UNL     1       4.591   3.858   5.756  1.00  0.00     0.010 A 
ATOM     35  C   UNL     1       6.076   3.602   3.396  1.00  0.00     0.001 A 
ATOM     36  C   UNL     1       5.575   2.872   5.643  1.00  0.00     0.001 A 
ATOM     37  C   UNL     1       6.308   2.739   4.462  1.00  0.00     0.000 A 
ENDBRANCH  18  32
ENDBRANCH  10  15
ENDBRANCH   8   9
ENDBRANCH   7   8
ENDBRANCH   6   7
ENDBRANCH   5   6
ENDBRANCH   4   5
ENDBRANCH   3   4
ENDBRANCH   2   3
ENDBRANCH   1   2
BRANCH   1  38
ATOM     38  C   UNL     1      -3.221   3.161  -2.202  1.00  0.00     0.010 C 
BRANCH  38  39
ATOM     39  C   UNL     1      -4.380   2.164  -2.147  1.00  0.00     0.100 C 
BRANCH  39  40
ATOM     40  C   UNL     1      -5.574   2.528  -3.008  1.00  0.00     0.219 C 
ATOM     41  O   UNL     1      -5.688   2.077  -4.150  1.00  0.00    -0.275 OA
ATOM     42  N   UNL     1      -6.564   3.336  -2.540  1.00  0.00    -0.356 N 
ATOM     43  H   UNL     1      -7.309   3.483  -3.168  1.00  0.00     0.163 HD
BRANCH  42  44
ATOM     44  C   UNL     1      -6.700   4.014  -1.269  1.00  0.00     0.116 C 
BRANCH  44  45
ATOM     45  C   UNL     1      -6.670   5.537  -1.440  1.00  0.00     0.021 C 
BRANCH  45  46
ATOM     46  C   UNL     1      -8.041   6.163  -1.696  1.00  0.00     0.002 C 
BRANCH  46  47
ATOM     47  C   UNL     1      -9.084   5.939  -0.590  1.00  0.00     0.002 C 
BRANCH  47  48
ATOM     48  C   UNL     1      -8.696   6.390   0.827  1.00  0.00     0.021 C 
BRANCH  48  49
ATOM     49  C   UNL     1      -8.519   7.893   0.954  1.00  0.00     0.116 C 
BRANCH  49  50
ATOM     50  N   UNL     1      -9.751   8.646   0.655  1.00  0.00    -0.352 N 
ATOM     51  C   UNL     1      -9.976  10.016   0.635  1.00  0.00     0.251 C 
ATOM     52  H   UNL     1     -10.534   8.092   0.435  1.00  0.00     0.163 HD
ATOM     53  O   UNL     1     -11.111  10.475   0.683  1.00  0.00    -0.269 OA
BRANCH  51  54
ATOM     54  C   UNL     1      -8.822  10.920   0.523  1.00  0.00     0.039 A 
ATOM     55  C   UNL     1      -8.728  12.184   1.116  1.00  0.00     0.014 A 
ATOM     56  C   UNL     1      -7.753  10.418  -0.182  1.00  0.00     0.014 A 
ATOM     57  C   UNL     1      -7.545  12.902   0.932  1.00  0.00     0.010 A 
ATOM     58  C   UNL     1      -6.535  10.868   0.185  1.00  0.00     0.010 A 
ATOM     59  C   UNL     1      -6.456  12.221   0.390  1.00  0.00    -0.014 A 
BRANCH  59  60
ATOM     60  C   UNL     1      -5.177  12.798   0.037  1.00  0.00     0.031 A 
ATOM     61  C   UNL     1      -4.377  13.235   1.193  1.00  0.00     0.074 A 
ATOM     62  C   UNL     1      -4.635  12.638  -1.194  1.00  0.00     0.049 A 
ATOM     63  N   UNL     1      -4.143  14.445   1.566  1.00  0.00    -0.248 NA
ATOM     64  C   UNL     1      -3.922  12.206   2.140  1.00  0.00     0.031 C 
ATOM     65  C   UNL     1      -5.128  11.871  -2.352  1.00  0.00     0.029 A 
ATOM     66  N   UNL     1      -3.419  13.052  -1.627  1.00  0.00    -0.354 N 
ATOM     67  C   UNL     1      -3.337  14.336   2.691  1.00  0.00     0.074 A 
ATOM     68  C   UNL     1      -3.425  12.963   3.119  1.00  0.00     0.031 C 
ATOM     69  C   UNL     1      -4.122  11.691  -3.241  1.00  0.00     0.029 A 
ATOM     70  C   UNL     1      -2.974  12.462  -2.801  1.00  0.00     0.049 A 
ATOM     71  H   UNL     1      -2.889  13.726  -1.143  1.00  0.00     0.167 HD
ATOM     72  C   UNL     1      -2.450  15.312   3.023  1.00  0.00     0.031 A 
ATOM     73  C   UNL     1      -1.726  12.569  -3.323  1.00  0.00     0.031 A 
ATOM     74  C   UNL     1      -2.660  16.508   2.242  1.00  0.00     0.049 A 
ATOM     75  C   UNL     1      -1.106  13.774  -2.708  1.00  0.00     0.074 A 
ATOM     76  C   UNL     1      -3.721  17.374   2.066  1.00  0.00     0.029 A 
ATOM     77  N   UNL     1      -1.845  16.689   1.145  1.00  0.00    -0.354 N 
ATOM     78  N   UNL     1      -1.563  14.982  -2.897  1.00  0.00    -0.248 NA
ATOM     79  C   UNL     1      -0.330  13.588  -1.489  1.00  0.00     0.031 C 
ATOM     80  C   UNL     1      -3.749  17.632   0.661  1.00  0.00     0.029 A 
ATOM     81  C   UNL     1      -2.660  16.981   0.078  1.00  0.00     0.049 A 
ATOM     82  H   UNL     1      -0.863  16.622   1.129  1.00  0.00     0.167 HD
ATOM     83  C   UNL     1      -1.512  15.588  -1.647  1.00  0.00     0.074 A 
ATOM     84  C   UNL     1      -0.666  14.707  -0.837  1.00  0.00     0.031 C 
ATOM     85  C   UNL     1      -2.395  16.569  -1.286  1.00  0.00     0.031 A 
BRANCH  72  86
ATOM     86  C   UNL     1      -1.157  15.051   3.746  1.00  0.00    -0.014 A 
ATOM     87  C   UNL     1      -0.375  16.150   4.139  1.00  0.00     0.009 A 
ATOM     88  C   UNL     1      -0.555  13.781   3.831  1.00  0.00     0.009 A 
ATOM     89  C   UNL     1       0.959  15.988   4.531  1.00  0.00     0.001 A 
ATOM     90  C   UNL     1       0.762  13.611   4.262  1.00  0.00     0.001 A 
ATOM     91  C   UNL     1       1.529  14.720   4.584  1.00  0.00     0.000 A 
ENDBRANCH  72  86
BRANCH  73  92
ATOM     92  C   UNL     1      -0.943  11.500  -3.991  1.00  0.00    -0.014 A 
ATOM     93  C   UNL     1       0.204  11.790  -4.746  1.00  0.00     0.009 A 
ATOM     94  C   UNL     1      -1.184  10.149  -3.672  1.00  0.00     0.009 A 
ATOM     95  C   UNL     1       1.085  10.770  -5.142  1.00  0.00     0.001 A 
ATOM     96  C   UNL     1      -0.307   9.132  -4.066  1.00  0.00     0.001 A 
ATOM     97  C   UNL     1       0.836   9.445  -4.792  1.00  0.00     0.000 A 
ENDBRANCH  73  92
BRANCH  85  98
ATOM     98  C   UNL     1      -3.356  17.086  -2.337  1.00  0.00    -0.014 A 
ATOM     99  C   UNL     1      -4.342  16.280  -2.937  1.00  0.00     0.009 A 
ATOM    100  C   UNL     1      -3.396  18.464  -2.587  1.00  0.00     0.009 A 
ATOM    101  C   UNL     1      -5.321  16.832  -3.773  1.00  0.00     0.001 A 
ATOM    102  C   UNL     1      -4.382  19.019  -3.410  1.00  0.00     0.001 A 
ATOM    103  C   UNL     1      -5.342  18.204  -4.005  1.00  0.00     0.000 A 
ENDBRANCH  85  98
ENDBRANCH  59  60
ENDBRANCH  51  54
ENDBRANCH  49  50
ENDBRANCH  48  49
ENDBRANCH  47  48
ENDBRANCH  46  47
ENDBRANCH  45  46
ENDBRANCH  44  45
ENDBRANCH  42  44
ENDBRANCH  39  40
ENDBRANCH  38  39
ENDBRANCH   1  38
TORSDOF 28
