REMARK SMILES CC1(C)[C@@](C)(C(=O)NCCCCCCNC(=O)c2ccc(-c3c4nc(c(-c5ccccc5)c5ccc([nH]5)c(-c5ccccc5)c5nc(c(-c6ccccc6)c6ccc3[nH]6)C=C5)C=C4)cc2)CC[C@]1(C)C(=O)Nc1ccc(Cl)cc1Cl
REMARK SMILES IDX 11 1 10 2 9 3 8 4 6 5 7 6 4 8 1 9 2 10 3 11 68 12 5 13 66 14
REMARK SMILES IDX 67 15 69 16 70 17 71 18 72 19 73 21 74 22 79 23 75 24 78 25
REMARK SMILES IDX 80 26 76 27 77 28 12 29 13 30 14 31 15 32 16 33 17 35 18 36
REMARK SMILES IDX 19 37 65 38 20 39 64 40 21 41 22 42 23 43 58 44 24 45 63 46
REMARK SMILES IDX 57 47 59 48 25 49 62 50 56 51 55 52 26 54 48 55 33 56 47 57
REMARK SMILES IDX 34 58 37 59 46 60 60 61 35 62 36 63 45 65 61 66 38 67 27 68
REMARK SMILES IDX 28 69 32 70 29 71 31 72 30 73 49 74 50 75 54 76 51 77 53 78
REMARK SMILES IDX 52 79 39 80 40 81 44 82 41 83 43 84 42 85
REMARK H PARENT 8 7 72 20 15 34 59 53 37 64
REMARK Flexibility Score: inf
ROOT
ATOM      1  C   UNL     1       1.574  -2.508   3.328  1.00  0.00     0.002 C 
ENDROOT
BRANCH   1   2
ATOM      2  C   UNL     1       1.079  -1.812   2.065  1.00  0.00     0.021 C 
BRANCH   2   3
ATOM      3  C   UNL     1      -0.224  -1.002   2.225  1.00  0.00     0.116 C 
BRANCH   3   4
ATOM      4  N   UNL     1       0.023   0.336   2.753  1.00  0.00    -0.356 N 
ATOM      5  C   UNL     1      -0.026   1.605   2.248  1.00  0.00     0.226 C 
ATOM      6  O   UNL     1       0.365   2.477   3.035  1.00  0.00    -0.274 OA
ATOM      7  H   UNL     1       0.289   0.321   3.701  1.00  0.00     0.163 HD
BRANCH   5   8
ATOM      8  C   UNL     1      -0.565   1.997   0.823  1.00  0.00     0.052 C 
ATOM      9  C   UNL     1       0.947   0.287  -0.288  1.00  0.00     0.013 C 
ATOM     10  C   UNL     1       0.322   1.645  -0.448  1.00  0.00    -0.007 C 
ATOM     11  C   UNL     1      -0.576   1.687  -1.713  1.00  0.00     0.013 C 
ATOM     12  C   UNL     1       1.454   2.740  -0.549  1.00  0.00     0.053 C 
ATOM     13  C   UNL     1      -2.025   1.482   0.760  1.00  0.00     0.022 C 
ATOM     14  C   UNL     1      -0.601   3.545   0.697  1.00  0.00     0.018 C 
ATOM     15  C   UNL     1       0.697   3.997   0.001  1.00  0.00     0.018 C 
ATOM     16  C   UNL     1       2.678   2.541   0.374  1.00  0.00     0.022 C 
BRANCH  12  17
ATOM     17  C   UNL     1       2.028   3.001  -2.006  1.00  0.00     0.230 C 
ATOM     18  O   UNL     1       1.982   4.148  -2.476  1.00  0.00    -0.274 OA
ATOM     19  N   UNL     1       2.614   2.079  -2.852  1.00  0.00    -0.324 N 
ATOM     20  H   UNL     1       2.703   2.406  -3.776  1.00  0.00     0.170 HD
BRANCH  19  21
ATOM     21  C   UNL     1       3.111   0.771  -2.678  1.00  0.00     0.060 A 
ATOM     22  C   UNL     1       4.407   0.612  -2.176  1.00  0.00     0.029 A 
ATOM     23  C   UNL     1       2.402  -0.390  -3.062  1.00  0.00     0.066 A 
ATOM     24  C   UNL     1       4.898  -0.666  -1.870  1.00  0.00     0.023 A 
ATOM     25  C   UNL     1       2.854  -1.659  -2.673  1.00  0.00     0.043 A 
ATOM     26  Cl  UNL     1       0.930  -0.344  -3.959  1.00  0.00    -0.082 Cl
ATOM     27  C   UNL     1       4.091  -1.786  -2.053  1.00  0.00     0.042 A 
ATOM     28  Cl  UNL     1       4.619  -3.331  -1.510  1.00  0.00    -0.084 Cl
ENDBRANCH  19  21
ENDBRANCH  12  17
ENDBRANCH   5   8
ENDBRANCH   3   4
ENDBRANCH   2   3
ENDBRANCH   1   2
BRANCH   1  29
ATOM     29  C   UNL     1       0.714  -3.683   3.781  1.00  0.00     0.002 C 
BRANCH  29  30
ATOM     30  C   UNL     1       0.444  -4.737   2.704  1.00  0.00     0.021 C 
BRANCH  30  31
ATOM     31  C   UNL     1       1.696  -5.304   2.039  1.00  0.00     0.116 C 
BRANCH  31  32
ATOM     32  N   UNL     1       2.532  -6.021   2.990  1.00  0.00    -0.352 N 
ATOM     33  C   UNL     1       2.825  -7.360   3.030  1.00  0.00     0.251 C 
ATOM     34  H   UNL     1       2.942  -5.473   3.698  1.00  0.00     0.163 HD
ATOM     35  O   UNL     1       3.342  -7.866   4.024  1.00  0.00    -0.269 OA
BRANCH  33  36
ATOM     36  C   UNL     1       2.498  -8.195   1.860  1.00  0.00     0.039 A 
ATOM     37  C   UNL     1       1.764  -9.370   2.033  1.00  0.00     0.014 A 
ATOM     38  C   UNL     1       2.894  -7.783   0.584  1.00  0.00     0.014 A 
ATOM     39  C   UNL     1       1.365 -10.102   0.913  1.00  0.00     0.010 A 
ATOM     40  C   UNL     1       2.436  -8.473  -0.530  1.00  0.00     0.010 A 
ATOM     41  C   UNL     1       1.667  -9.639  -0.377  1.00  0.00    -0.014 A 
BRANCH  41  42
ATOM     42  C   UNL     1       1.209 -10.349  -1.596  1.00  0.00     0.031 A 
ATOM     43  C   UNL     1       2.225 -10.919  -2.547  1.00  0.00     0.074 A 
ATOM     44  C   UNL     1      -0.102 -10.391  -1.901  1.00  0.00     0.049 A 
ATOM     45  N   UNL     1       2.048 -11.426  -3.739  1.00  0.00    -0.248 NA
ATOM     46  C   UNL     1       3.630 -10.885  -2.107  1.00  0.00     0.031 C 
ATOM     47  C   UNL     1      -1.186  -9.862  -1.070  1.00  0.00     0.029 A 
ATOM     48  N   UNL     1      -0.745 -10.885  -3.009  1.00  0.00    -0.354 N 
ATOM     49  C   UNL     1       3.319 -11.745  -4.202  1.00  0.00     0.074 A 
ATOM     50  C   UNL     1       4.259 -11.334  -3.183  1.00  0.00     0.031 C 
ATOM     51  C   UNL     1      -2.358 -10.070  -1.692  1.00  0.00     0.029 A 
ATOM     52  C   UNL     1      -2.106 -10.695  -2.987  1.00  0.00     0.049 A 
ATOM     53  H   UNL     1      -0.275 -11.332  -3.750  1.00  0.00     0.167 HD
ATOM     54  C   UNL     1       3.670 -12.340  -5.366  1.00  0.00     0.031 A 
ATOM     55  C   UNL     1      -3.042 -10.971  -3.915  1.00  0.00     0.031 A 
ATOM     56  C   UNL     1       2.732 -12.755  -6.373  1.00  0.00     0.049 A 
ATOM     57  C   UNL     1      -2.622 -11.592  -5.220  1.00  0.00     0.074 A 
ATOM     58  C   UNL     1       2.983 -13.410  -7.566  1.00  0.00     0.029 A 
ATOM     59  N   UNL     1       1.362 -12.552  -6.306  1.00  0.00    -0.354 N 
ATOM     60  N   UNL     1      -1.423 -11.934  -5.624  1.00  0.00    -0.248 NA
ATOM     61  C   UNL     1      -3.686 -11.868  -6.197  1.00  0.00     0.031 C 
ATOM     62  C   UNL     1       1.772 -13.550  -8.249  1.00  0.00     0.029 A 
ATOM     63  C   UNL     1       0.758 -13.045  -7.450  1.00  0.00     0.049 A 
ATOM     64  H   UNL     1       0.890 -12.122  -5.557  1.00  0.00     0.167 HD
ATOM     65  C   UNL     1      -1.592 -12.499  -6.881  1.00  0.00     0.074 A 
ATOM     66  C   UNL     1      -3.010 -12.459  -7.172  1.00  0.00     0.031 C 
ATOM     67  C   UNL     1      -0.656 -13.011  -7.717  1.00  0.00     0.031 A 
BRANCH  54  68
ATOM     68  C   UNL     1       5.136 -12.561  -5.619  1.00  0.00    -0.014 A 
ATOM     69  C   UNL     1       5.873 -13.493  -4.871  1.00  0.00     0.009 A 
ATOM     70  C   UNL     1       5.781 -11.852  -6.644  1.00  0.00     0.009 A 
ATOM     71  C   UNL     1       7.235 -13.680  -5.118  1.00  0.00     0.001 A 
ATOM     72  C   UNL     1       7.134 -12.065  -6.911  1.00  0.00     0.001 A 
ATOM     73  C   UNL     1       7.862 -12.970  -6.141  1.00  0.00     0.000 A 
ENDBRANCH  54  68
BRANCH  55  74
ATOM     74  C   UNL     1      -4.472 -10.660  -3.650  1.00  0.00    -0.014 A 
ATOM     75  C   UNL     1      -5.404 -11.694  -3.471  1.00  0.00     0.009 A 
ATOM     76  C   UNL     1      -4.917  -9.330  -3.586  1.00  0.00     0.009 A 
ATOM     77  C   UNL     1      -6.754 -11.404  -3.264  1.00  0.00     0.001 A 
ATOM     78  C   UNL     1      -6.263  -9.042  -3.346  1.00  0.00     0.001 A 
ATOM     79  C   UNL     1      -7.182 -10.079  -3.196  1.00  0.00     0.000 A 
ENDBRANCH  55  74
BRANCH  67  80
ATOM     80  C   UNL     1      -1.131 -13.623  -9.005  1.00  0.00    -0.014 A 
ATOM     81  C   UNL     1      -1.582 -12.832 -10.071  1.00  0.00     0.009 A 
ATOM     82  C   UNL     1      -1.042 -15.014  -9.178  1.00  0.00     0.009 A 
ATOM     83  C   UNL     1      -1.953 -13.425 -11.280  1.00  0.00     0.001 A 
ATOM     84  C   UNL     1      -1.385 -15.601 -10.397  1.00  0.00     0.001 A 
ATOM     85  C   UNL     1      -1.845 -14.806 -11.445  1.00  0.00     0.000 A 
ENDBRANCH  67  80
ENDBRANCH  41  42
ENDBRANCH  33  36
ENDBRANCH  31  32
ENDBRANCH  30  31
ENDBRANCH  29  30
ENDBRANCH   1  29
TORSDOF 15
