REMARK SMILES O=C(NCCCCCCNC(=O)C1CCN(C(=O)CCN2C(=O)[C@H]3Cc4ccccc4CN3C2=O)CC1)c1ccc(-c2c3nc(c(-c4ccccc4)c4ccc([nH]4)c(-c4ccccc4)c4nc(c(-c5ccccc5)c5ccc2[nH]5)C=C4)C=C3)cc1
REMARK SMILES IDX 7 1 6 2 5 3 4 4 3 5 1 6 2 7 38 9 39 10 85 11 40 12 84 13
REMARK SMILES IDX 41 14 42 15 43 16 78 17 44 18 83 19 77 20 79 21 45 22 82 23
REMARK SMILES IDX 76 24 75 25 46 27 68 28 53 29 67 30 54 31 57 32 66 33 80 34
REMARK SMILES IDX 55 35 56 36 65 38 81 39 58 40 47 41 48 42 52 43 49 44 51 45
REMARK SMILES IDX 50 46 69 47 70 48 74 49 71 50 73 51 72 52 59 53 60 54 64 55
REMARK SMILES IDX 61 56 63 57 62 58 8 59 9 60 10 61 11 62 12 64 13 65 14 66
REMARK SMILES IDX 37 67 15 68 36 69 16 70 17 71 18 72 19 73 20 74 21 75 22 76
REMARK SMILES IDX 34 77 23 78 24 79 33 80 35 81 25 82 32 83 26 84 31 85 27 86
REMARK SMILES IDX 30 87 28 88 29 89
REMARK H PARENT 3 8 79 26 57 37 10 63
REMARK Flexibility Score: inf
ROOT
ATOM      1  C   UNL     1       4.017   3.567   2.514  1.00  0.00     0.002 C 
ENDROOT
BRANCH   1   2
ATOM      2  C   UNL     1       3.454   3.427   1.095  1.00  0.00     0.002 C 
BRANCH   2   3
ATOM      3  C   UNL     1       4.214   2.441   0.196  1.00  0.00     0.021 C 
BRANCH   3   4
ATOM      4  C   UNL     1       4.206   1.007   0.718  1.00  0.00     0.116 C 
BRANCH   4   5
ATOM      5  N   UNL     1       2.841   0.556   0.926  1.00  0.00    -0.352 N 
ATOM      6  O   UNL     1       0.881  -0.242   0.163  1.00  0.00    -0.269 OA
ATOM      7  C   UNL     1       2.106  -0.305   0.160  1.00  0.00     0.251 C 
ATOM      8  H   UNL     1       2.387   0.917   1.721  1.00  0.00     0.163 HD
BRANCH   7   9
ATOM      9  C   UNL     1       2.793  -1.351  -0.620  1.00  0.00     0.039 A 
ATOM     10  C   UNL     1       2.260  -1.746  -1.849  1.00  0.00     0.014 A 
ATOM     11  C   UNL     1       3.896  -2.018  -0.077  1.00  0.00     0.014 A 
ATOM     12  C   UNL     1       2.824  -2.825  -2.527  1.00  0.00     0.010 A 
ATOM     13  C   UNL     1       4.501  -3.046  -0.786  1.00  0.00     0.010 A 
ATOM     14  C   UNL     1       3.941  -3.485  -1.993  1.00  0.00    -0.014 A 
BRANCH  14  15
ATOM     15  C   UNL     1       4.501  -4.691  -2.640  1.00  0.00     0.031 A 
ATOM     16  C   UNL     1       4.405  -6.019  -1.943  1.00  0.00     0.074 A 
ATOM     17  C   UNL     1       5.136  -4.579  -3.819  1.00  0.00     0.049 A 
ATOM     18  N   UNL     1       4.890  -7.177  -2.308  1.00  0.00    -0.248 NA
ATOM     19  C   UNL     1       3.693  -6.045  -0.653  1.00  0.00     0.031 C 
ATOM     20  C   UNL     1       5.293  -3.336  -4.574  1.00  0.00     0.029 A 
ATOM     21  N   UNL     1       5.767  -5.523  -4.586  1.00  0.00    -0.354 N 
ATOM     22  C   UNL     1       4.564  -8.059  -1.286  1.00  0.00     0.074 A 
ATOM     23  C   UNL     1       3.884  -7.297  -0.264  1.00  0.00     0.031 C 
ATOM     24  C   UNL     1       5.953  -3.600  -5.711  1.00  0.00     0.029 A 
ATOM     25  C   UNL     1       6.309  -5.016  -5.740  1.00  0.00     0.049 A 
ATOM     26  H   UNL     1       5.827  -6.473  -4.332  1.00  0.00     0.167 HD
ATOM     27  C   UNL     1       4.797  -9.390  -1.220  1.00  0.00     0.031 A 
ATOM     28  C   UNL     1       7.021  -5.621  -6.710  1.00  0.00     0.031 A 
ATOM     29  C   UNL     1       5.452 -10.136  -2.261  1.00  0.00     0.049 A 
ATOM     30  C   UNL     1       7.297  -7.093  -6.604  1.00  0.00     0.074 A 
ATOM     31  C   UNL     1       5.659 -11.501  -2.332  1.00  0.00     0.029 A 
ATOM     32  N   UNL     1       6.011  -9.581  -3.402  1.00  0.00    -0.354 N 
ATOM     33  N   UNL     1       6.922  -7.933  -5.668  1.00  0.00    -0.248 NA
ATOM     34  C   UNL     1       8.087  -7.705  -7.681  1.00  0.00     0.031 C 
ATOM     35  C   UNL     1       6.420 -11.762  -3.472  1.00  0.00     0.029 A 
ATOM     36  C   UNL     1       6.613 -10.572  -4.157  1.00  0.00     0.049 A 
ATOM     37  H   UNL     1       5.983  -8.626  -3.640  1.00  0.00     0.167 HD
ATOM     38  C   UNL     1       7.419  -9.173  -6.046  1.00  0.00     0.074 A 
ATOM     39  C   UNL     1       8.108  -8.979  -7.306  1.00  0.00     0.031 C 
ATOM     40  C   UNL     1       7.311 -10.362  -5.403  1.00  0.00     0.031 A 
BRANCH  27  41
ATOM     41  C   UNL     1       4.356 -10.130   0.014  1.00  0.00    -0.014 A 
ATOM     42  C   UNL     1       5.318 -10.730   0.842  1.00  0.00     0.009 A 
ATOM     43  C   UNL     1       2.997 -10.307   0.320  1.00  0.00     0.009 A 
ATOM     44  C   UNL     1       4.932 -11.499   1.941  1.00  0.00     0.001 A 
ATOM     45  C   UNL     1       2.614 -11.047   1.442  1.00  0.00     0.001 A 
ATOM     46  C   UNL     1       3.581 -11.651   2.244  1.00  0.00     0.000 A 
ENDBRANCH  27  41
BRANCH  28  47
ATOM     47  C   UNL     1       7.474  -4.809  -7.869  1.00  0.00    -0.014 A 
ATOM     48  C   UNL     1       8.447  -3.808  -7.705  1.00  0.00     0.009 A 
ATOM     49  C   UNL     1       6.844  -4.943  -9.115  1.00  0.00     0.009 A 
ATOM     50  C   UNL     1       8.742  -2.926  -8.747  1.00  0.00     0.001 A 
ATOM     51  C   UNL     1       7.163  -4.078 -10.165  1.00  0.00     0.001 A 
ATOM     52  C   UNL     1       8.098  -3.061  -9.976  1.00  0.00     0.000 A 
ENDBRANCH  28  47
BRANCH  40  53
ATOM     53  C   UNL     1       7.963 -11.567  -6.024  1.00  0.00    -0.014 A 
ATOM     54  C   UNL     1       7.167 -12.623  -6.499  1.00  0.00     0.009 A 
ATOM     55  C   UNL     1       9.356 -11.724  -5.997  1.00  0.00     0.009 A 
ATOM     56  C   UNL     1       7.751 -13.826  -6.899  1.00  0.00     0.001 A 
ATOM     57  C   UNL     1       9.940 -12.916  -6.429  1.00  0.00     0.001 A 
ATOM     58  C   UNL     1       9.137 -13.971  -6.864  1.00  0.00     0.000 A 
ENDBRANCH  40  53
ENDBRANCH  14  15
ENDBRANCH   7   9
ENDBRANCH   4   5
ENDBRANCH   3   4
ENDBRANCH   2   3
ENDBRANCH   1   2
BRANCH   1  59
ATOM     59  C   UNL     1       5.512   3.878   2.554  1.00  0.00     0.021 C 
BRANCH  59  60
ATOM     60  C   UNL     1       5.903   5.114   1.738  1.00  0.00     0.116 C 
BRANCH  60  61
ATOM     61  N   UNL     1       6.017   6.292   2.553  1.00  0.00    -0.356 N 
ATOM     62  C   UNL     1       7.108   7.026   2.873  1.00  0.00     0.223 C 
ATOM     63  H   UNL     1       5.170   6.615   2.938  1.00  0.00     0.163 HD
ATOM     64  O   UNL     1       6.909   8.106   3.438  1.00  0.00    -0.275 OA
BRANCH  62  65
ATOM     65  C   UNL     1       8.536   6.536   2.640  1.00  0.00     0.082 C 
ATOM     66  C   UNL     1       9.127   6.598   1.230  1.00  0.00     0.035 C 
ATOM     67  C   UNL     1       8.838   5.251   3.384  1.00  0.00     0.035 C 
ATOM     68  C   UNL     1       9.467   5.267   0.538  1.00  0.00     0.120 C 
ATOM     69  C   UNL     1       8.930   3.990   2.559  1.00  0.00     0.120 C 
ATOM     70  N   UNL     1       9.820   4.167   1.441  1.00  0.00    -0.343 N 
ATOM     71  C   UNL     1      10.783   3.236   1.065  1.00  0.00     0.224 C 
ATOM     72  O   UNL     1      11.464   3.382   0.047  1.00  0.00    -0.275 OA
BRANCH  71  73
ATOM     73  C   UNL     1      10.949   1.959   1.893  1.00  0.00     0.122 C 
BRANCH  73  74
ATOM     74  C   UNL     1      11.948   2.049   3.055  1.00  0.00     0.140 C 
BRANCH  74  75
ATOM     75  N   UNL     1      11.436   2.701   4.255  1.00  0.00    -0.262 N 
ATOM     76  C   UNL     1      10.562   2.152   5.167  1.00  0.00     0.253 C 
ATOM     77  C   UNL     1      11.739   3.993   4.601  1.00  0.00     0.327 C 
ATOM     78  O   UNL     1      10.135   1.006   5.162  1.00  0.00    -0.272 OA
ATOM     79  C   UNL     1      10.057   3.273   6.076  1.00  0.00     0.181 C 
ATOM     80  N   UNL     1      10.975   4.319   5.705  1.00  0.00    -0.308 N 
ATOM     81  O   UNL     1      12.489   4.747   4.018  1.00  0.00    -0.248 OA
ATOM     82  C   UNL     1      10.041   3.074   7.579  1.00  0.00     0.071 C 
ATOM     83  C   UNL     1      10.850   5.639   6.278  1.00  0.00     0.158 C 
ATOM     84  C   UNL     1       9.789   4.415   8.256  1.00  0.00    -0.040 A 
ATOM     85  C   UNL     1      10.154   5.622   7.616  1.00  0.00    -0.025 A 
ATOM     86  C   UNL     1       9.205   4.473   9.527  1.00  0.00     0.004 A 
ATOM     87  C   UNL     1       9.854   6.853   8.219  1.00  0.00     0.006 A 
ATOM     88  C   UNL     1       8.940   5.707  10.130  1.00  0.00     0.000 A 
ATOM     89  C   UNL     1       9.246   6.894   9.470  1.00  0.00     0.000 A 
ENDBRANCH  74  75
ENDBRANCH  73  74
ENDBRANCH  71  73
ENDBRANCH  62  65
ENDBRANCH  60  61
ENDBRANCH  59  60
ENDBRANCH   1  59
TORSDOF 16
