REMARK SMILES COc1ccc(/C=C/c2cc(OC)cc(OC)c2/C=C/C(=O)NCCCCCCNC(=O)c2ccc(-c3c4nc(c(-c5ccccc5)c5ccc([nH]5)c(-c5ccccc5)c5nc(c(-c6ccccc6)c6ccc3[nH]6)C=C5)C=C4)cc2)cc1
REMARK SMILES IDX 25 1 24 2 23 3 21 4 22 5 20 7 19 8 18 9 9 10 10 11 11 12
REMARK SMILES IDX 15 13 14 14 8 15 7 16 6 17 3 18 4 19 82 20 5 21 81 22 2 23
REMARK SMILES IDX 1 24 12 25 13 26 16 27 17 28 26 29 27 30 28 31 29 32 30 33
REMARK SMILES IDX 31 34 32 36 33 37 34 38 80 39 35 40 79 41 36 42 37 43 38 44
REMARK SMILES IDX 73 45 39 46 78 47 72 48 74 49 40 50 77 51 71 52 70 53 41 55
REMARK SMILES IDX 63 56 48 57 62 58 49 59 52 60 61 61 75 62 50 63 51 64 60 66
REMARK SMILES IDX 76 67 53 68 42 69 43 70 47 71 44 72 46 73 45 74 64 75 65 76
REMARK SMILES IDX 69 77 66 78 68 79 67 80 54 81 55 82 59 83 56 84 58 85 57 86
REMARK H PARENT 23 6 30 35 74 54 52 65
REMARK Flexibility Score: inf
ROOT
ATOM      1  C   UNL     1       4.315  -0.668   5.313  1.00  0.00     0.021 C 
ENDROOT
BRANCH   1   2
ATOM      2  C   UNL     1       4.894  -2.080   5.273  1.00  0.00     0.116 C 
BRANCH   2   3
ATOM      3  N   UNL     1       6.021  -2.212   6.170  1.00  0.00    -0.353 N 
ATOM      4  C   UNL     1       6.216  -3.102   7.176  1.00  0.00     0.244 C 
ATOM      5  O   UNL     1       7.263  -3.101   7.815  1.00  0.00    -0.270 OA
ATOM      6  H   UNL     1       6.751  -1.565   6.030  1.00  0.00     0.163 HD
BRANCH   4   7
ATOM      7  C   UNL     1       5.183  -4.118   7.469  1.00  0.00     0.072 C 
ATOM      8  C   UNL     1       4.027  -3.782   8.062  1.00  0.00     0.018 C 
BRANCH   8   9
ATOM      9  C   UNL     1       3.078  -4.788   8.579  1.00  0.00     0.024 A 
ATOM     10  C   UNL     1       1.810  -4.913   7.944  1.00  0.00    -0.011 A 
ATOM     11  C   UNL     1       0.876  -5.865   8.381  1.00  0.00     0.055 A 
ATOM     12  C   UNL     1       1.144  -6.673   9.474  1.00  0.00     0.123 A 
ATOM     13  C   UNL     1       3.345  -5.623   9.687  1.00  0.00     0.130 A 
ATOM     14  C   UNL     1       2.376  -6.558  10.107  1.00  0.00     0.093 A 
BRANCH  10  15
ATOM     15  C   UNL     1       1.347  -4.072   6.830  1.00  0.00     0.009 C 
ATOM     16  C   UNL     1       1.827  -4.221   5.589  1.00  0.00     0.009 C 
BRANCH  16  17
ATOM     17  C   UNL     1       1.409  -3.452   4.410  1.00  0.00    -0.025 A 
ATOM     18  C   UNL     1       0.774  -2.034   2.066  1.00  0.00     0.118 A 
ATOM     19  C   UNL     1       0.016  -1.853   3.221  1.00  0.00     0.047 A 
ATOM     20  C   UNL     1       1.831  -2.941   2.075  1.00  0.00     0.047 A 
ATOM     21  C   UNL     1       0.329  -2.560   4.387  1.00  0.00     0.012 A 
ATOM     22  C   UNL     1       2.149  -3.636   3.237  1.00  0.00     0.012 A 
BRANCH  18  23
ATOM     23  O   UNL     1       0.413  -1.270   0.994  1.00  0.00    -0.497 OA
ATOM     24  C   UNL     1       1.259  -1.390  -0.142  1.00  0.00     0.278 C 
ENDBRANCH  18  23
ENDBRANCH  16  17
ENDBRANCH  10  15
BRANCH  12  25
ATOM     25  O   UNL     1       0.144  -7.534   9.828  1.00  0.00    -0.497 OA
ATOM     26  C   UNL     1       0.137  -7.933  11.195  1.00  0.00     0.278 C 
ENDBRANCH  12  25
BRANCH  13  27
ATOM     27  O   UNL     1       4.445  -5.704  10.499  1.00  0.00    -0.496 OA
ATOM     28  C   UNL     1       5.463  -4.720  10.502  1.00  0.00     0.278 C 
ENDBRANCH  13  27
ENDBRANCH   8   9
ENDBRANCH   4   7
ENDBRANCH   2   3
ENDBRANCH   1   2
BRANCH   1  29
ATOM     29  C   UNL     1       5.191   0.393   4.632  1.00  0.00     0.002 C 
BRANCH  29  30
ATOM     30  C   UNL     1       5.508   0.140   3.151  1.00  0.00     0.002 C 
BRANCH  30  31
ATOM     31  C   UNL     1       4.295  -0.149   2.266  1.00  0.00     0.021 C 
BRANCH  31  32
ATOM     32  C   UNL     1       3.296   1.000   2.152  1.00  0.00     0.116 C 
BRANCH  32  33
ATOM     33  N   UNL     1       3.791   2.060   1.287  1.00  0.00    -0.352 N 
ATOM     34  C   UNL     1       3.264   2.595   0.135  1.00  0.00     0.251 C 
ATOM     35  H   UNL     1       4.643   2.460   1.574  1.00  0.00     0.163 HD
ATOM     36  O   UNL     1       3.961   3.340  -0.550  1.00  0.00    -0.269 OA
BRANCH  34  37
ATOM     37  C   UNL     1       1.886   2.274  -0.316  1.00  0.00     0.039 A 
ATOM     38  C   UNL     1       1.643   2.125  -1.689  1.00  0.00     0.014 A 
ATOM     39  C   UNL     1       0.824   2.152   0.580  1.00  0.00     0.014 A 
ATOM     40  C   UNL     1       0.364   1.784  -2.154  1.00  0.00     0.010 A 
ATOM     41  C   UNL     1      -0.430   1.737   0.122  1.00  0.00     0.010 A 
ATOM     42  C   UNL     1      -0.680   1.545  -1.250  1.00  0.00    -0.014 A 
BRANCH  42  43
ATOM     43  C   UNL     1      -2.034   1.098  -1.694  1.00  0.00     0.031 A 
ATOM     44  C   UNL     1      -3.235   1.961  -1.406  1.00  0.00     0.074 A 
ATOM     45  C   UNL     1      -2.222  -0.106  -2.276  1.00  0.00     0.049 A 
ATOM     46  N   UNL     1      -4.498   1.736  -1.671  1.00  0.00    -0.248 NA
ATOM     47  C   UNL     1      -2.982   3.245  -0.731  1.00  0.00     0.031 C 
ATOM     48  C   UNL     1      -1.175  -1.055  -2.649  1.00  0.00     0.029 A 
ATOM     49  N   UNL     1      -3.383  -0.754  -2.635  1.00  0.00    -0.354 N 
ATOM     50  C   UNL     1      -5.182   2.854  -1.213  1.00  0.00     0.074 A 
ATOM     51  C   UNL     1      -4.211   3.710  -0.569  1.00  0.00     0.031 C 
ATOM     52  C   UNL     1      -1.733  -2.181  -3.120  1.00  0.00     0.029 A 
ATOM     53  C   UNL     1      -3.181  -2.025  -3.121  1.00  0.00     0.049 A 
ATOM     54  H   UNL     1      -4.275  -0.346  -2.550  1.00  0.00     0.167 HD
ATOM     55  C   UNL     1      -6.491   3.172  -1.356  1.00  0.00     0.031 A 
ATOM     56  C   UNL     1      -4.053  -2.960  -3.547  1.00  0.00     0.031 A 
ATOM     57  C   UNL     1      -7.471   2.324  -1.979  1.00  0.00     0.049 A 
ATOM     58  C   UNL     1      -5.517  -2.631  -3.607  1.00  0.00     0.074 A 
ATOM     59  C   UNL     1      -8.809   2.583  -2.218  1.00  0.00     0.029 A 
ATOM     60  N   UNL     1      -7.221   1.044  -2.448  1.00  0.00    -0.354 N 
ATOM     61  N   UNL     1      -6.127  -1.520  -3.277  1.00  0.00    -0.248 NA
ATOM     62  C   UNL     1      -6.405  -3.669  -4.149  1.00  0.00     0.031 C 
ATOM     63  C   UNL     1      -9.383   1.435  -2.774  1.00  0.00     0.029 A 
ATOM     64  C   UNL     1      -8.389   0.486  -2.942  1.00  0.00     0.049 A 
ATOM     65  H   UNL     1      -6.344   0.597  -2.432  1.00  0.00     0.167 HD
ATOM     66  C   UNL     1      -7.459  -1.703  -3.625  1.00  0.00     0.074 A 
ATOM     67  C   UNL     1      -7.567  -3.032  -4.190  1.00  0.00     0.031 C 
ATOM     68  C   UNL     1      -8.493  -0.837  -3.504  1.00  0.00     0.031 A 
BRANCH  55  69
ATOM     69  C   UNL     1      -6.925   4.510  -0.824  1.00  0.00    -0.014 A 
ATOM     70  C   UNL     1      -6.475   5.703  -1.416  1.00  0.00     0.009 A 
ATOM     71  C   UNL     1      -7.785   4.584   0.281  1.00  0.00     0.009 A 
ATOM     72  C   UNL     1      -6.831   6.940  -0.877  1.00  0.00     0.001 A 
ATOM     73  C   UNL     1      -8.168   5.824   0.796  1.00  0.00     0.001 A 
ATOM     74  C   UNL     1      -7.679   7.000   0.227  1.00  0.00     0.000 A 
ENDBRANCH  55  69
BRANCH  56  75
ATOM     75  C   UNL     1      -3.560  -4.276  -4.036  1.00  0.00    -0.014 A 
ATOM     76  C   UNL     1      -3.580  -4.571  -5.408  1.00  0.00     0.009 A 
ATOM     77  C   UNL     1      -3.090  -5.247  -3.140  1.00  0.00     0.009 A 
ATOM     78  C   UNL     1      -3.175  -5.825  -5.870  1.00  0.00     0.001 A 
ATOM     79  C   UNL     1      -2.661  -6.493  -3.608  1.00  0.00     0.001 A 
ATOM     80  C   UNL     1      -2.714  -6.784  -4.970  1.00  0.00     0.000 A 
ENDBRANCH  56  75
BRANCH  68  81
ATOM     81  C   UNL     1      -9.831  -1.275  -4.034  1.00  0.00    -0.014 A 
ATOM     82  C   UNL     1     -10.580  -2.277  -3.399  1.00  0.00     0.009 A 
ATOM     83  C   UNL     1     -10.367  -0.640  -5.166  1.00  0.00     0.009 A 
ATOM     84  C   UNL     1     -11.825  -2.656  -3.906  1.00  0.00     0.001 A 
ATOM     85  C   UNL     1     -11.626  -0.997  -5.651  1.00  0.00     0.001 A 
ATOM     86  C   UNL     1     -12.350  -2.011  -5.026  1.00  0.00     0.000 A 
ENDBRANCH  68  81
ENDBRANCH  42  43
ENDBRANCH  34  37
ENDBRANCH  32  33
ENDBRANCH  31  32
ENDBRANCH  30  31
ENDBRANCH  29  30
ENDBRANCH   1  29
TORSDOF 19
