REMARK SMILES O=C(NCCCCCCNC(=O)[C@H]1[C@H]2CC[C@H](C2)[C@@H]1C(=O)Nc1sc2c(c1C(=O)NC1CCCCC1)CCCC2)c1ccc(-c2c3nc(c(-c4ccccc4)c4ccc([nH]4)c(-c4ccccc4)c4nc(c(-c5ccccc5)c5ccc2[nH]5)C=C4)C=C3)cc1
REMARK SMILES IDX 7 1 6 2 5 3 4 4 3 5 1 6 2 7 41 9 42 10 88 11 43 12 87 13
REMARK SMILES IDX 44 14 45 15 46 16 81 17 47 18 86 19 80 20 82 21 48 22 85 23
REMARK SMILES IDX 79 24 78 25 49 27 71 28 56 29 70 30 57 31 60 32 69 33 83 34
REMARK SMILES IDX 58 35 59 36 68 38 84 39 61 40 50 41 51 42 55 43 52 44 54 45
REMARK SMILES IDX 53 46 72 47 73 48 77 49 74 50 76 51 75 52 62 53 63 54 67 55
REMARK SMILES IDX 64 56 66 57 65 58 8 59 9 60 10 61 11 62 12 64 13 65 14 66
REMARK SMILES IDX 19 67 15 68 18 69 17 70 16 71 20 72 21 73 22 74 23 76 24 77
REMARK SMILES IDX 27 78 25 79 26 80 40 81 37 82 39 83 38 84 28 85 29 86 30 87
REMARK SMILES IDX 31 89 32 90 36 91 33 92 35 93 34 94
REMARK H PARENT 3 8 82 26 60 37 10 63 22 75 30 88
REMARK Flexibility Score: inf
ROOT
ATOM      1  C   UNL     1       7.255  -7.587   1.702  1.00  0.00     0.002 C 
ENDROOT
BRANCH   1   2
ATOM      2  C   UNL     1       5.920  -6.890   1.988  1.00  0.00     0.002 C 
BRANCH   2   3
ATOM      3  C   UNL     1       4.688  -7.753   1.733  1.00  0.00     0.021 C 
BRANCH   3   4
ATOM      4  C   UNL     1       4.683  -9.069   2.496  1.00  0.00     0.116 C 
BRANCH   4   5
ATOM      5  N   UNL     1       4.614  -8.876   3.937  1.00  0.00    -0.352 N 
ATOM      6  O   UNL     1       3.686  -8.997   5.997  1.00  0.00    -0.269 OA
ATOM      7  C   UNL     1       3.710  -9.391   4.834  1.00  0.00     0.251 C 
ATOM      8  H   UNL     1       5.310  -8.296   4.322  1.00  0.00     0.163 HD
BRANCH   7   9
ATOM      9  C   UNL     1       2.738 -10.403   4.374  1.00  0.00     0.039 A 
ATOM     10  C   UNL     1       3.154 -11.460   3.562  1.00  0.00     0.014 A 
ATOM     11  C   UNL     1       1.391 -10.267   4.719  1.00  0.00     0.014 A 
ATOM     12  C   UNL     1       2.206 -12.266   2.947  1.00  0.00     0.010 A 
ATOM     13  C   UNL     1       0.450 -11.150   4.184  1.00  0.00     0.010 A 
ATOM     14  C   UNL     1       0.843 -12.126   3.255  1.00  0.00    -0.014 A 
BRANCH  14  15
ATOM     15  C   UNL     1      -0.140 -13.034   2.610  1.00  0.00     0.031 A 
ATOM     16  C   UNL     1      -1.214 -12.502   1.700  1.00  0.00     0.074 A 
ATOM     17  C   UNL     1      -0.029 -14.360   2.818  1.00  0.00     0.049 A 
ATOM     18  N   UNL     1      -2.118 -13.163   1.019  1.00  0.00    -0.248 NA
ATOM     19  C   UNL     1      -1.294 -11.042   1.537  1.00  0.00     0.031 C 
ATOM     20  C   UNL     1       0.972 -14.999   3.677  1.00  0.00     0.029 A 
ATOM     21  N   UNL     1      -0.741 -15.411   2.301  1.00  0.00    -0.354 N 
ATOM     22  C   UNL     1      -2.888 -12.204   0.372  1.00  0.00     0.074 A 
ATOM     23  C   UNL     1      -2.363 -10.913   0.762  1.00  0.00     0.031 C 
ATOM     24  C   UNL     1       0.852 -16.330   3.577  1.00  0.00     0.029 A 
ATOM     25  C   UNL     1      -0.277 -16.638   2.708  1.00  0.00     0.049 A 
ATOM     26  H   UNL     1      -1.510 -15.298   1.697  1.00  0.00     0.167 HD
ATOM     27  C   UNL     1      -3.933 -12.382  -0.471  1.00  0.00     0.031 A 
ATOM     28  C   UNL     1      -0.714 -17.878   2.423  1.00  0.00     0.031 A 
ATOM     29  C   UNL     1      -4.451 -13.669  -0.861  1.00  0.00     0.049 A 
ATOM     30  C   UNL     1      -1.894 -18.042   1.511  1.00  0.00     0.074 A 
ATOM     31  C   UNL     1      -5.482 -13.954  -1.739  1.00  0.00     0.029 A 
ATOM     32  N   UNL     1      -3.981 -14.886  -0.391  1.00  0.00    -0.354 N 
ATOM     33  N   UNL     1      -2.584 -17.126   0.878  1.00  0.00    -0.248 NA
ATOM     34  C   UNL     1      -2.349 -19.417   1.270  1.00  0.00     0.031 C 
ATOM     35  C   UNL     1      -5.677 -15.339  -1.753  1.00  0.00     0.029 A 
ATOM     36  C   UNL     1      -4.720 -15.922  -0.939  1.00  0.00     0.049 A 
ATOM     37  H   UNL     1      -3.233 -14.998   0.240  1.00  0.00     0.167 HD
ATOM     38  C   UNL     1      -3.535 -17.814   0.137  1.00  0.00     0.074 A 
ATOM     39  C   UNL     1      -3.319 -19.225   0.388  1.00  0.00     0.031 C 
ATOM     40  C   UNL     1      -4.496 -17.322  -0.681  1.00  0.00     0.031 A 
BRANCH  27  41
ATOM     41  C   UNL     1      -4.617 -11.151  -1.005  1.00  0.00    -0.014 A 
ATOM     42  C   UNL     1      -3.991 -10.304  -1.935  1.00  0.00     0.009 A 
ATOM     43  C   UNL     1      -5.928 -10.856  -0.599  1.00  0.00     0.009 A 
ATOM     44  C   UNL     1      -4.650  -9.169  -2.415  1.00  0.00     0.001 A 
ATOM     45  C   UNL     1      -6.596  -9.739  -1.104  1.00  0.00     0.001 A 
ATOM     46  C   UNL     1      -5.953  -8.890  -2.003  1.00  0.00     0.000 A 
ENDBRANCH  27  41
BRANCH  28  47
ATOM     47  C   UNL     1      -0.030 -19.059   3.010  1.00  0.00    -0.014 A 
ATOM     48  C   UNL     1       0.695 -19.942   2.195  1.00  0.00     0.009 A 
ATOM     49  C   UNL     1      -0.099 -19.310   4.389  1.00  0.00     0.009 A 
ATOM     50  C   UNL     1       1.312 -21.067   2.746  1.00  0.00     0.001 A 
ATOM     51  C   UNL     1       0.549 -20.416   4.942  1.00  0.00     0.001 A 
ATOM     52  C   UNL     1       1.243 -21.299   4.119  1.00  0.00     0.000 A 
ENDBRANCH  28  47
BRANCH  40  53
ATOM     53  C   UNL     1      -5.352 -18.323  -1.407  1.00  0.00    -0.014 A 
ATOM     54  C   UNL     1      -6.296 -19.113  -0.732  1.00  0.00     0.009 A 
ATOM     55  C   UNL     1      -5.217 -18.466  -2.797  1.00  0.00     0.009 A 
ATOM     56  C   UNL     1      -7.053 -20.057  -1.429  1.00  0.00     0.001 A 
ATOM     57  C   UNL     1      -5.999 -19.385  -3.496  1.00  0.00     0.001 A 
ATOM     58  C   UNL     1      -6.907 -20.189  -2.810  1.00  0.00     0.000 A 
ENDBRANCH  40  53
ENDBRANCH  14  15
ENDBRANCH   7   9
ENDBRANCH   4   5
ENDBRANCH   3   4
ENDBRANCH   2   3
ENDBRANCH   1   2
BRANCH   1  59
ATOM     59  C   UNL     1       7.390  -8.176   0.287  1.00  0.00     0.021 C 
BRANCH  59  60
ATOM     60  C   UNL     1       7.146  -7.161  -0.828  1.00  0.00     0.116 C 
BRANCH  60  61
ATOM     61  N   UNL     1       8.099  -6.082  -0.726  1.00  0.00    -0.356 N 
ATOM     62  C   UNL     1       9.023  -5.614  -1.592  1.00  0.00     0.224 C 
ATOM     63  H   UNL     1       8.070  -5.600   0.132  1.00  0.00     0.163 HD
ATOM     64  O   UNL     1       9.719  -4.685  -1.180  1.00  0.00    -0.275 OA
BRANCH  62  65
ATOM     65  C   UNL     1       9.090  -6.131  -3.023  1.00  0.00     0.094 C 
ATOM     66  C   UNL     1      10.028  -5.200  -3.858  1.00  0.00     0.002 C 
ATOM     67  C   UNL     1       9.706  -7.529  -3.280  1.00  0.00     0.094 C 
ATOM     68  C   UNL     1      11.512  -5.236  -3.431  1.00  0.00     0.005 C 
ATOM     69  C   UNL     1      10.117  -6.005  -5.134  1.00  0.00     0.009 C 
ATOM     70  C   UNL     1      10.693  -7.248  -4.435  1.00  0.00     0.002 C 
ATOM     71  C   UNL     1      11.972  -6.643  -3.832  1.00  0.00     0.005 C 
BRANCH  67  72
ATOM     72  C   UNL     1       8.733  -8.724  -3.442  1.00  0.00     0.229 C 
ATOM     73  O   UNL     1       8.748  -9.590  -2.550  1.00  0.00    -0.274 OA
ATOM     74  N   UNL     1       7.734  -8.849  -4.360  1.00  0.00    -0.317 N 
ATOM     75  H   UNL     1       7.020  -9.474  -4.099  1.00  0.00     0.170 HD
BRANCH  74  76
ATOM     76  C   UNL     1       7.547  -8.257  -5.586  1.00  0.00     0.108 A 
ATOM     77  S   UNL     1       8.778  -8.455  -6.742  1.00  0.00    -0.122 S 
ATOM     78  C   UNL     1       6.365  -7.769  -6.159  1.00  0.00     0.078 A 
ATOM     79  C   UNL     1       8.077  -7.231  -7.675  1.00  0.00     0.011 A 
ATOM     80  C   UNL     1       6.713  -7.134  -7.436  1.00  0.00    -0.019 A 
ATOM     81  C   UNL     1       8.873  -6.415  -8.644  1.00  0.00     0.047 C 
ATOM     82  C   UNL     1       5.878  -6.345  -8.405  1.00  0.00     0.037 C 
ATOM     83  C   UNL     1       8.026  -5.223  -9.106  1.00  0.00     0.006 C 
ATOM     84  C   UNL     1       6.664  -5.737  -9.579  1.00  0.00     0.005 C 
BRANCH  78  85
ATOM     85  C   UNL     1       5.112  -7.937  -5.393  1.00  0.00     0.254 C 
ATOM     86  O   UNL     1       4.963  -8.934  -4.675  1.00  0.00    -0.269 OA
ATOM     87  N   UNL     1       4.090  -7.023  -5.320  1.00  0.00    -0.349 N 
ATOM     88  H   UNL     1       3.365  -7.295  -4.711  1.00  0.00     0.164 HD
BRANCH  87  89
ATOM     89  C   UNL     1       3.858  -5.743  -5.953  1.00  0.00     0.082 C 
ATOM     90  C   UNL     1       2.429  -5.224  -5.738  1.00  0.00     0.025 C 
ATOM     91  C   UNL     1       4.851  -4.667  -5.495  1.00  0.00     0.025 C 
ATOM     92  C   UNL     1       2.209  -3.961  -6.576  1.00  0.00     0.002 C 
ATOM     93  C   UNL     1       4.668  -3.370  -6.285  1.00  0.00     0.002 C 
ATOM     94  C   UNL     1       3.227  -2.868  -6.250  1.00  0.00     0.000 C 
ENDBRANCH  87  89
ENDBRANCH  78  85
ENDBRANCH  74  76
ENDBRANCH  67  72
ENDBRANCH  62  65
ENDBRANCH  60  61
ENDBRANCH  59  60
ENDBRANCH   1  59
TORSDOF 17
