REMARK SMILES O=C(NCCCCCCNC(=O)[C@H]1Cc2[nH]cnc2CN1C(=O)c1ccncc1Cl)c1ccc(-c2c3nc(c(-c4ccccc4)c4ccc([nH]4)c(-c4ccccc4)c4nc(c(-c5ccccc5)c5ccc2[nH]5)C=C4)C=C3)cc1
REMARK SMILES IDX 6 1 5 2 4 3 3 4 1 5 2 6 31 8 32 9 78 10 33 11 77 12 34 13
REMARK SMILES IDX 35 14 36 15 71 16 37 17 76 18 70 19 72 20 38 21 75 22 69 23
REMARK SMILES IDX 68 24 39 26 61 27 46 28 60 29 47 30 50 31 59 32 73 33 48 34
REMARK SMILES IDX 49 35 58 37 74 38 51 39 40 40 41 41 45 42 42 43 44 44 43 45
REMARK SMILES IDX 62 46 63 47 67 48 64 49 66 50 65 51 52 52 53 53 57 54 54 55
REMARK SMILES IDX 56 56 55 57 7 58 8 59 9 60 10 61 11 62 12 64 13 65 14 66
REMARK SMILES IDX 21 67 15 68 20 69 16 70 19 71 17 72 18 74 22 75 23 76 24 77
REMARK SMILES IDX 25 78 29 79 26 80 28 81 30 82 27 83
REMARK H PARENT 3 7 72 25 50 36 10 63 16 73
REMARK Flexibility Score: inf
ROOT
ATOM      1  C   UNL     1       4.248   1.738  -2.962  1.00  0.00     0.002 C 
ENDROOT
BRANCH   1   2
ATOM      2  C   UNL     1       4.755   0.603  -2.066  1.00  0.00     0.021 C 
BRANCH   2   3
ATOM      3  C   UNL     1       4.548   0.815  -0.566  1.00  0.00     0.116 C 
BRANCH   3   4
ATOM      4  N   UNL     1       3.166   1.020  -0.188  1.00  0.00    -0.352 N 
ATOM      5  O   UNL     1       1.082   0.752   0.484  1.00  0.00    -0.269 OA
ATOM      6  C   UNL     1       2.106   0.199   0.077  1.00  0.00     0.251 C 
ATOM      7  H   UNL     1       2.936   1.974  -0.101  1.00  0.00     0.163 HD
BRANCH   6   8
ATOM      8  C   UNL     1       2.087  -1.279  -0.121  1.00  0.00     0.039 A 
ATOM      9  C   UNL     1       3.173  -2.070  -0.497  1.00  0.00     0.014 A 
ATOM     10  C   UNL     1       0.843  -1.910   0.077  1.00  0.00     0.014 A 
ATOM     11  C   UNL     1       3.015  -3.436  -0.721  1.00  0.00     0.010 A 
ATOM     12  C   UNL     1       0.681  -3.277  -0.129  1.00  0.00     0.010 A 
ATOM     13  C   UNL     1       1.768  -4.038  -0.551  1.00  0.00    -0.014 A 
BRANCH  13  14
ATOM     14  C   UNL     1       1.683  -5.488  -0.715  1.00  0.00     0.031 A 
ATOM     15  C   UNL     1       2.432  -6.306   0.283  1.00  0.00     0.074 A 
ATOM     16  C   UNL     1       0.865  -6.099  -1.594  1.00  0.00     0.049 A 
ATOM     17  N   UNL     1       3.334  -7.211   0.072  1.00  0.00    -0.248 NA
ATOM     18  C   UNL     1       2.160  -6.050   1.706  1.00  0.00     0.031 C 
ATOM     19  C   UNL     1      -0.178  -5.488  -2.420  1.00  0.00     0.029 A 
ATOM     20  N   UNL     1       0.721  -7.435  -1.837  1.00  0.00    -0.354 N 
ATOM     21  C   UNL     1       3.635  -7.756   1.321  1.00  0.00     0.074 A 
ATOM     22  C   UNL     1       2.960  -6.937   2.297  1.00  0.00     0.031 C 
ATOM     23  C   UNL     1      -0.989  -6.460  -2.893  1.00  0.00     0.029 A 
ATOM     24  C   UNL     1      -0.448  -7.755  -2.512  1.00  0.00     0.049 A 
ATOM     25  H   UNL     1       1.384  -8.108  -1.560  1.00  0.00     0.167 HD
ATOM     26  C   UNL     1       4.261  -8.957   1.466  1.00  0.00     0.031 A 
ATOM     27  C   UNL     1      -0.975  -8.989  -2.688  1.00  0.00     0.031 A 
ATOM     28  C   UNL     1       4.953  -9.365   0.274  1.00  0.00     0.049 A 
ATOM     29  C   UNL     1       0.086  -9.992  -2.451  1.00  0.00     0.074 A 
ATOM     30  C   UNL     1       5.966  -8.843  -0.504  1.00  0.00     0.029 A 
ATOM     31  N   UNL     1       4.402 -10.378  -0.470  1.00  0.00    -0.354 N 
ATOM     32  N   UNL     1       1.093 -10.190  -3.250  1.00  0.00    -0.248 NA
ATOM     33  C   UNL     1       0.222 -10.564  -1.122  1.00  0.00     0.031 C 
ATOM     34  C   UNL     1       5.654  -9.242  -1.838  1.00  0.00     0.029 A 
ATOM     35  C   UNL     1       4.482  -9.998  -1.782  1.00  0.00     0.049 A 
ATOM     36  H   UNL     1       4.021 -11.218  -0.125  1.00  0.00     0.167 HD
ATOM     37  C   UNL     1       2.145 -10.530  -2.415  1.00  0.00     0.074 A 
ATOM     38  C   UNL     1       1.520 -10.876  -1.143  1.00  0.00     0.031 C 
ATOM     39  C   UNL     1       3.434 -10.228  -2.749  1.00  0.00     0.031 A 
BRANCH  26  40
ATOM     40  C   UNL     1       3.928  -9.943   2.564  1.00  0.00    -0.014 A 
ATOM     41  C   UNL     1       4.639 -11.157   2.627  1.00  0.00     0.009 A 
ATOM     42  C   UNL     1       2.757  -9.861   3.341  1.00  0.00     0.009 A 
ATOM     43  C   UNL     1       4.152 -12.255   3.348  1.00  0.00     0.001 A 
ATOM     44  C   UNL     1       2.294 -10.939   4.101  1.00  0.00     0.001 A 
ATOM     45  C   UNL     1       2.973 -12.148   4.077  1.00  0.00     0.000 A 
ENDBRANCH  26  40
BRANCH  27  46
ATOM     46  C   UNL     1      -2.394  -9.371  -2.830  1.00  0.00    -0.014 A 
ATOM     47  C   UNL     1      -2.756 -10.610  -3.380  1.00  0.00     0.009 A 
ATOM     48  C   UNL     1      -3.397  -8.616  -2.195  1.00  0.00     0.009 A 
ATOM     49  C   UNL     1      -4.069 -11.087  -3.271  1.00  0.00     0.001 A 
ATOM     50  C   UNL     1      -4.708  -9.088  -2.092  1.00  0.00     0.001 A 
ATOM     51  C   UNL     1      -5.040 -10.331  -2.619  1.00  0.00     0.000 A 
ENDBRANCH  27  46
BRANCH  39  52
ATOM     52  C   UNL     1       3.716  -9.788  -4.163  1.00  0.00    -0.014 A 
ATOM     53  C   UNL     1       3.119  -8.652  -4.736  1.00  0.00     0.009 A 
ATOM     54  C   UNL     1       4.721 -10.450  -4.885  1.00  0.00     0.009 A 
ATOM     55  C   UNL     1       3.487  -8.217  -6.012  1.00  0.00     0.001 A 
ATOM     56  C   UNL     1       5.105 -10.000  -6.151  1.00  0.00     0.001 A 
ATOM     57  C   UNL     1       4.483  -8.889  -6.716  1.00  0.00     0.000 A 
ENDBRANCH  39  52
ENDBRANCH  13  14
ENDBRANCH   6   8
ENDBRANCH   3   4
ENDBRANCH   2   3
ENDBRANCH   1   2
BRANCH   1  58
ATOM     58  C   UNL     1       4.749   3.143  -2.618  1.00  0.00     0.002 C 
BRANCH  58  59
ATOM     59  C   UNL     1       6.269   3.320  -2.553  1.00  0.00     0.021 C 
BRANCH  59  60
ATOM     60  C   UNL     1       7.045   2.868  -3.785  1.00  0.00     0.116 C 
BRANCH  60  61
ATOM     61  N   UNL     1       6.590   3.483  -5.020  1.00  0.00    -0.354 N 
ATOM     62  C   UNL     1       7.336   3.868  -6.103  1.00  0.00     0.243 C 
ATOM     63  H   UNL     1       5.621   3.643  -5.087  1.00  0.00     0.163 HD
ATOM     64  O   UNL     1       6.775   3.879  -7.197  1.00  0.00    -0.273 OA
BRANCH  62  65
ATOM     65  C   UNL     1       8.839   4.157  -5.924  1.00  0.00     0.181 C 
ATOM     66  C   UNL     1       9.488   2.783  -6.309  1.00  0.00     0.091 C 
ATOM     67  N   UNL     1       9.567   5.294  -6.610  1.00  0.00    -0.320 N 
ATOM     68  C   UNL     1      10.953   2.894  -6.210  1.00  0.00     0.042 A 
ATOM     69  C   UNL     1      11.015   5.420  -6.280  1.00  0.00     0.178 C 
ATOM     70  N   UNL     1      11.885   1.902  -6.169  1.00  0.00    -0.348 N 
ATOM     71  C   UNL     1      11.649   4.076  -6.200  1.00  0.00     0.081 A 
ATOM     72  C   UNL     1      13.105   2.520  -6.092  1.00  0.00     0.197 A 
ATOM     73  H   UNL     1      11.715   0.933  -6.189  1.00  0.00     0.167 HD
ATOM     74  N   UNL     1      12.993   3.833  -6.097  1.00  0.00    -0.240 NA
BRANCH  67  75
ATOM     75  C   UNL     1       9.038   6.423  -7.237  1.00  0.00     0.256 C 
ATOM     76  O   UNL     1       9.724   7.378  -7.601  1.00  0.00    -0.269 OA
BRANCH  75  77
ATOM     77  C   UNL     1       7.620   6.528  -7.572  1.00  0.00     0.061 A 
ATOM     78  C   UNL     1       7.245   6.240  -8.888  1.00  0.00     0.035 A 
ATOM     79  C   UNL     1       6.685   6.996  -6.656  1.00  0.00     0.072 A 
ATOM     80  C   UNL     1       5.909   6.372  -9.219  1.00  0.00     0.112 A 
ATOM     81  C   UNL     1       5.376   7.105  -7.096  1.00  0.00     0.132 A 
ATOM     82  Cl  UNL     1       7.080   7.407  -5.032  1.00  0.00    -0.082 Cl
ATOM     83  N   UNL     1       4.963   6.802  -8.353  1.00  0.00    -0.263 NA
ENDBRANCH  75  77
ENDBRANCH  67  75
ENDBRANCH  62  65
ENDBRANCH  60  61
ENDBRANCH  59  60
ENDBRANCH  58  59
ENDBRANCH   1  58
TORSDOF 15
