REMARK SMILES CC1CC[NH+]([C@H](c2ccc(F)cc2)c2ccc([C@@H](C)C(=O)NCCCCCCNC(=O)c3ccc(-c4c5nc(c(-c6ccccc6)c6ccc([nH]6)c(-c6ccccc6)c6nc(c(-c7ccccc7)c7ccc4[nH]7)C=C6)C=C5)cc3)cc2-c2ccc(C(F)(F)F)cc2)CC1
REMARK SMILES IDX 25 1 24 2 23 3 22 4 20 5 21 6 18 8 19 9 17 10 14 11 15 12
REMARK SMILES IDX 81 13 16 14 80 15 6 16 5 17 1 18 2 19 3 20 93 21 4 22 92 23
REMARK SMILES IDX 7 25 8 26 13 27 9 28 12 29 10 30 11 31 82 32 83 33 91 34
REMARK SMILES IDX 84 35 90 36 85 37 86 38 87 39 88 40 89 41 26 42 27 43 28 44
REMARK SMILES IDX 29 45 30 46 31 48 32 49 33 50 79 51 34 52 78 53 35 54 36 55
REMARK SMILES IDX 37 56 72 57 38 58 77 59 71 60 73 61 39 62 76 63 70 64 69 65
REMARK SMILES IDX 40 67 62 68 47 69 61 70 48 71 51 72 60 73 74 74 49 75 50 76
REMARK SMILES IDX 59 78 75 79 52 80 41 81 42 82 46 83 43 84 45 85 44 86 63 87
REMARK SMILES IDX 64 88 68 89 65 90 67 91 66 92 53 93 54 94 58 95 55 96 57 97
REMARK SMILES IDX 56 98
REMARK H PARENT 22 7 5 24 29 47 73 66 51 77
REMARK Flexibility Score: inf
ROOT
ATOM      1  C   UNL     1      -0.059   6.442  -3.436  1.00  0.00     0.002 C 
ENDROOT
BRANCH   1   2
ATOM      2  C   UNL     1       1.002   5.397  -3.789  1.00  0.00     0.021 C 
BRANCH   2   3
ATOM      3  C   UNL     1       2.228   5.973  -4.510  1.00  0.00     0.116 C 
BRANCH   3   4
ATOM      4  N   UNL     1       3.278   6.333  -3.578  1.00  0.00    -0.356 N 
ATOM      5  C   UNL     1       4.436   5.723  -3.206  1.00  0.00     0.227 C 
ATOM      6  O   UNL     1       5.077   6.287  -2.310  1.00  0.00    -0.274 OA
ATOM      7  H   UNL     1       3.122   7.191  -3.123  1.00  0.00     0.163 HD
BRANCH   5   8
ATOM      8  C   UNL     1       4.979   4.419  -3.823  1.00  0.00     0.105 C 
ATOM      9  C   UNL     1       5.246   4.508  -5.324  1.00  0.00     0.023 C 
BRANCH   8  10
ATOM     10  C   UNL     1       4.223   3.183  -3.370  1.00  0.00    -0.035 A 
ATOM     11  C   UNL     1       2.623   1.100  -2.221  1.00  0.00     0.022 A 
ATOM     12  C   UNL     1       2.175   1.913  -3.272  1.00  0.00     0.011 A 
ATOM     13  C   UNL     1       3.986   1.254  -1.843  1.00  0.00    -0.009 A 
ATOM     14  C   UNL     1       2.988   2.851  -3.895  1.00  0.00     0.005 A 
ATOM     15  C   UNL     1       4.728   2.347  -2.367  1.00  0.00     0.013 A 
BRANCH  11  16
ATOM     16  C   UNL     1       1.679   0.044  -1.574  1.00  0.00     0.247 C 
BRANCH  16  17
ATOM     17  N   UNL     1       0.246   0.006  -2.026  1.00  0.00    -0.325 N 
ATOM     18  C   UNL     1      -3.308   1.268  -4.257  1.00  0.00     0.008 C 
ATOM     19  C   UNL     1      -1.918   1.106  -3.663  1.00  0.00    -0.003 C 
ATOM     20  C   UNL     1      -1.308  -0.242  -4.039  1.00  0.00     0.065 C 
ATOM     21  C   UNL     1      -1.978   1.184  -2.147  1.00  0.00     0.065 C 
ATOM     22  C   UNL     1       0.066  -0.476  -3.399  1.00  0.00     0.263 C 
ATOM     23  C   UNL     1      -0.573   1.126  -1.565  1.00  0.00     0.263 C 
ATOM     24  H   UNL     1      -0.195  -0.749  -1.502  1.00  0.00     0.348 HD
ENDBRANCH  16  17
BRANCH  16  25
ATOM     25  C   UNL     1       1.751   0.017  -0.033  1.00  0.00     0.014 A 
ATOM     26  C   UNL     1       1.589   1.183   0.743  1.00  0.00     0.013 A 
ATOM     27  C   UNL     1       1.983  -1.201   0.633  1.00  0.00     0.013 A 
ATOM     28  C   UNL     1       1.635   1.127   2.137  1.00  0.00     0.040 A 
ATOM     29  C   UNL     1       2.070  -1.248   2.026  1.00  0.00     0.040 A 
ATOM     30  C   UNL     1       1.885  -0.086   2.764  1.00  0.00     0.123 A 
ATOM     31  F   UNL     1       1.948  -0.137   4.101  1.00  0.00    -0.207 F 
ENDBRANCH  16  25
ENDBRANCH  11  16
BRANCH  13  32
ATOM     32  C   UNL     1       4.707   0.300  -0.976  1.00  0.00    -0.018 A 
ATOM     33  C   UNL     1       5.298   0.703   0.230  1.00  0.00     0.009 A 
ATOM     34  C   UNL     1       4.862  -1.039  -1.373  1.00  0.00     0.009 A 
ATOM     35  C   UNL     1       5.990  -0.212   1.031  1.00  0.00     0.014 A 
ATOM     36  C   UNL     1       5.540  -1.959  -0.569  1.00  0.00     0.014 A 
ATOM     37  C   UNL     1       6.104  -1.556   0.647  1.00  0.00     0.056 A 
BRANCH  37  38
ATOM     38  C   UNL     1       6.842  -2.537   1.524  1.00  0.00     0.416 C 
ATOM     39  F   UNL     1       8.186  -2.318   1.533  1.00  0.00    -0.166 F 
ATOM     40  F   UNL     1       6.444  -2.482   2.825  1.00  0.00    -0.166 F 
ATOM     41  F   UNL     1       6.678  -3.835   1.141  1.00  0.00    -0.166 F 
ENDBRANCH  37  38
ENDBRANCH  13  32
ENDBRANCH   8  10
ENDBRANCH   5   8
ENDBRANCH   3   4
ENDBRANCH   2   3
ENDBRANCH   1   2
BRANCH   1  42
ATOM     42  C   UNL     1      -0.692   7.144  -4.644  1.00  0.00     0.002 C 
BRANCH  42  43
ATOM     43  C   UNL     1      -1.362   6.213  -5.660  1.00  0.00     0.021 C 
BRANCH  43  44
ATOM     44  C   UNL     1      -2.561   5.448  -5.107  1.00  0.00     0.116 C 
BRANCH  44  45
ATOM     45  N   UNL     1      -3.639   6.353  -4.726  1.00  0.00    -0.352 N 
ATOM     46  C   UNL     1      -4.907   6.460  -5.250  1.00  0.00     0.251 C 
ATOM     47  H   UNL     1      -3.431   6.974  -3.991  1.00  0.00     0.163 HD
ATOM     48  O   UNL     1      -5.606   7.435  -5.013  1.00  0.00    -0.269 OA
BRANCH  46  49
ATOM     49  C   UNL     1      -5.418   5.367  -6.098  1.00  0.00     0.039 A 
ATOM     50  C   UNL     1      -6.023   5.643  -7.325  1.00  0.00     0.014 A 
ATOM     51  C   UNL     1      -5.273   4.051  -5.664  1.00  0.00     0.014 A 
ATOM     52  C   UNL     1      -6.407   4.584  -8.155  1.00  0.00     0.010 A 
ATOM     53  C   UNL     1      -5.574   3.005  -6.523  1.00  0.00     0.010 A 
ATOM     54  C   UNL     1      -6.142   3.256  -7.780  1.00  0.00    -0.014 A 
BRANCH  54  55
ATOM     55  C   UNL     1      -6.432   2.096  -8.662  1.00  0.00     0.031 A 
ATOM     56  C   UNL     1      -7.352   1.004  -8.184  1.00  0.00     0.074 A 
ATOM     57  C   UNL     1      -5.767   1.953  -9.826  1.00  0.00     0.049 A 
ATOM     58  N   UNL     1      -7.598  -0.165  -8.718  1.00  0.00    -0.248 NA
ATOM     59  C   UNL     1      -8.054   1.243  -6.912  1.00  0.00     0.031 C 
ATOM     60  C   UNL     1      -4.812   2.912 -10.384  1.00  0.00     0.029 A 
ATOM     61  N   UNL     1      -5.777   0.926 -10.738  1.00  0.00    -0.354 N 
ATOM     62  C   UNL     1      -8.453  -0.810  -7.833  1.00  0.00     0.074 A 
ATOM     63  C   UNL     1      -8.638   0.073  -6.703  1.00  0.00     0.031 C 
ATOM     64  C   UNL     1      -4.343   2.438 -11.549  1.00  0.00     0.029 A 
ATOM     65  C   UNL     1      -4.921   1.120 -11.795  1.00  0.00     0.049 A 
ATOM     66  H   UNL     1      -6.344   0.127 -10.643  1.00  0.00     0.167 HD
ATOM     67  C   UNL     1      -9.047  -2.021  -7.956  1.00  0.00     0.031 A 
ATOM     68  C   UNL     1      -4.618   0.321 -12.836  1.00  0.00     0.031 A 
ATOM     69  C   UNL     1      -8.873  -2.891  -9.088  1.00  0.00     0.049 A 
ATOM     70  C   UNL     1      -5.279  -1.024 -12.950  1.00  0.00     0.074 A 
ATOM     71  C   UNL     1      -9.483  -4.107  -9.341  1.00  0.00     0.029 A 
ATOM     72  N   UNL     1      -8.022  -2.639 -10.153  1.00  0.00    -0.354 N 
ATOM     73  N   UNL     1      -6.140  -1.592 -12.139  1.00  0.00    -0.248 NA
ATOM     74  C   UNL     1      -4.936  -1.836 -14.126  1.00  0.00     0.031 C 
ATOM     75  C   UNL     1      -8.955  -4.620 -10.528  1.00  0.00     0.029 A 
ATOM     76  C   UNL     1      -8.071  -3.690 -11.052  1.00  0.00     0.049 A 
ATOM     77  H   UNL     1      -7.465  -1.833 -10.254  1.00  0.00     0.167 HD
ATOM     78  C   UNL     1      -6.471  -2.806 -12.726  1.00  0.00     0.074 A 
ATOM     79  C   UNL     1      -5.720  -2.893 -13.962  1.00  0.00     0.031 C 
ATOM     80  C   UNL     1      -7.328  -3.759 -12.284  1.00  0.00     0.031 A 
BRANCH  67  81
ATOM     81  C   UNL     1      -9.930  -2.479  -6.826  1.00  0.00    -0.014 A 
ATOM     82  C   UNL     1     -11.142  -1.834  -6.535  1.00  0.00     0.009 A 
ATOM     83  C   UNL     1      -9.553  -3.590  -6.055  1.00  0.00     0.009 A 
ATOM     84  C   UNL     1     -11.933  -2.259  -5.465  1.00  0.00     0.001 A 
ATOM     85  C   UNL     1     -10.363  -4.036  -5.009  1.00  0.00     0.001 A 
ATOM     86  C   UNL     1     -11.545  -3.362  -4.706  1.00  0.00     0.000 A 
ENDBRANCH  67  81
BRANCH  68  87
ATOM     87  C   UNL     1      -3.647   0.782 -13.865  1.00  0.00    -0.014 A 
ATOM     88  C   UNL     1      -4.085   1.117 -15.155  1.00  0.00     0.009 A 
ATOM     89  C   UNL     1      -2.282   0.900 -13.562  1.00  0.00     0.009 A 
ATOM     90  C   UNL     1      -3.174   1.538 -16.127  1.00  0.00     0.001 A 
ATOM     91  C   UNL     1      -1.377   1.351 -14.525  1.00  0.00     0.001 A 
ATOM     92  C   UNL     1      -1.822   1.661 -15.809  1.00  0.00     0.000 A 
ENDBRANCH  68  87
BRANCH  80  93
ATOM     93  C   UNL     1      -7.556  -4.956 -13.164  1.00  0.00    -0.014 A 
ATOM     94  C   UNL     1      -6.584  -5.956 -13.315  1.00  0.00     0.009 A 
ATOM     95  C   UNL     1      -8.805  -5.121 -13.787  1.00  0.00     0.009 A 
ATOM     96  C   UNL     1      -6.852  -7.087 -14.090  1.00  0.00     0.001 A 
ATOM     97  C   UNL     1      -9.080  -6.266 -14.534  1.00  0.00     0.001 A 
ATOM     98  C   UNL     1      -8.101  -7.245 -14.691  1.00  0.00     0.000 A 
ENDBRANCH  80  93
ENDBRANCH  54  55
ENDBRANCH  46  49
ENDBRANCH  44  45
ENDBRANCH  43  44
ENDBRANCH  42  43
ENDBRANCH   1  42
TORSDOF 19
