REMARK SMILES COC(=O)[C@@H]1CCN(C(=O)NC(=O)COCC(=O)NCCCCCCNC(=O)c2ccc(-c3c4nc(c(-c5ccccc5)c5ccc([nH]5)c(-c5ccccc5)c5nc(c(-c6ccccc6)c6ccc3[nH]6)C=C5)C=C4)cc2)C1
REMARK SMILES IDX 20 1 19 2 17 3 18 4 16 6 15 7 14 8 12 9 9 10 10 11 11 12
REMARK SMILES IDX 13 14 8 15 5 16 6 17 77 18 7 19 3 20 4 21 2 22 1 23 21 24
REMARK SMILES IDX 22 25 23 26 24 27 25 28 26 29 27 30 28 32 29 33 30 34 76 35
REMARK SMILES IDX 31 36 75 37 32 38 33 39 34 40 69 41 35 42 74 43 68 44 70 45
REMARK SMILES IDX 36 46 73 47 67 48 66 49 37 51 59 52 44 53 58 54 45 55 48 56
REMARK SMILES IDX 57 57 71 58 46 59 47 60 56 62 72 63 49 64 38 65 39 66 43 67
REMARK SMILES IDX 40 68 42 69 41 70 60 71 61 72 65 73 62 74 64 75 63 76 50 77
REMARK SMILES IDX 51 78 55 79 52 80 54 81 53 82
REMARK H PARENT 19 5 11 13 26 31 70 50 48 61
REMARK Flexibility Score: inf
ROOT
ATOM      1  C   UNL     1       4.877   0.390  -2.485  1.00  0.00     0.116 C 
ENDROOT
BRANCH   1   2
ATOM      2  N   UNL     1       6.113   0.539  -3.234  1.00  0.00    -0.354 N 
ATOM      3  C   UNL     1       6.535   1.599  -3.985  1.00  0.00     0.246 C 
ATOM      4  O   UNL     1       7.617   1.529  -4.566  1.00  0.00    -0.272 OA
ATOM      5  H   UNL     1       6.729  -0.228  -3.195  1.00  0.00     0.163 HD
BRANCH   3   6
ATOM      6  C   UNL     1       5.653   2.843  -4.073  1.00  0.00     0.260 C 
BRANCH   6   7
ATOM      7  O   UNL     1       4.372   2.550  -4.604  1.00  0.00    -0.362 OA
BRANCH   7   8
ATOM      8  C   UNL     1       4.340   2.480  -6.014  1.00  0.00     0.261 C 
BRANCH   8   9
ATOM      9  C   UNL     1       3.829   3.753  -6.654  1.00  0.00     0.254 C 
ATOM     10  C   UNL     1       1.849   4.528  -5.107  1.00  0.00     0.324 C 
ATOM     11  O   UNL     1       1.452   5.667  -4.830  1.00  0.00    -0.248 OA
ATOM     12  N   UNL     1       2.748   4.455  -6.143  1.00  0.00    -0.276 N 
ATOM     13  H   UNL     1       2.545   5.189  -6.768  1.00  0.00     0.174 HD
ATOM     14  O   UNL     1       4.383   4.208  -7.661  1.00  0.00    -0.272 OA
BRANCH  10  15
ATOM     15  N   UNL     1       1.356   3.446  -4.451  1.00  0.00    -0.324 N 
ATOM     16  C   UNL     1      -0.071   2.295  -2.912  1.00  0.00     0.120 C 
ATOM     17  C   UNL     1       0.259   1.389  -4.097  1.00  0.00     0.039 C 
ATOM     18  C   UNL     1       0.355   3.672  -3.408  1.00  0.00     0.136 C 
ATOM     19  C   UNL     1       1.510   2.027  -4.686  1.00  0.00     0.122 C 
BRANCH  16  20
ATOM     20  C   UNL     1       0.660   1.891  -1.645  1.00  0.00     0.310 C 
ATOM     21  O   UNL     1       1.437   2.589  -1.014  1.00  0.00    -0.252 OA
BRANCH  20  22
ATOM     22  O   UNL     1       0.282   0.631  -1.275  1.00  0.00    -0.469 OA
ATOM     23  C   UNL     1       0.858   0.191  -0.043  1.00  0.00     0.282 C 
ENDBRANCH  20  22
ENDBRANCH  16  20
ENDBRANCH  10  15
ENDBRANCH   8   9
ENDBRANCH   7   8
ENDBRANCH   6   7
ENDBRANCH   3   6
ENDBRANCH   1   2
BRANCH   1  24
ATOM     24  C   UNL     1       3.978  -0.696  -3.081  1.00  0.00     0.021 C 
BRANCH  24  25
ATOM     25  C   UNL     1       4.624  -2.085  -3.173  1.00  0.00     0.002 C 
BRANCH  25  26
ATOM     26  C   UNL     1       5.218  -2.619  -1.866  1.00  0.00     0.002 C 
BRANCH  26  27
ATOM     27  C   UNL     1       4.222  -2.760  -0.714  1.00  0.00     0.021 C 
BRANCH  27  28
ATOM     28  C   UNL     1       3.072  -3.725  -0.983  1.00  0.00     0.116 C 
BRANCH  28  29
ATOM     29  N   UNL     1       3.533  -5.088  -1.193  1.00  0.00    -0.352 N 
ATOM     30  C   UNL     1       3.164  -6.246  -0.554  1.00  0.00     0.251 C 
ATOM     31  H   UNL     1       4.210  -5.197  -1.899  1.00  0.00     0.163 HD
ATOM     32  O   UNL     1       3.800  -7.279  -0.735  1.00  0.00    -0.269 OA
BRANCH  30  33
ATOM     33  C   UNL     1       2.011  -6.245   0.371  1.00  0.00     0.039 A 
ATOM     34  C   UNL     1       2.124  -6.917   1.591  1.00  0.00     0.014 A 
ATOM     35  C   UNL     1       0.820  -5.595   0.036  1.00  0.00     0.014 A 
ATOM     36  C   UNL     1       1.065  -6.883   2.501  1.00  0.00     0.010 A 
ATOM     37  C   UNL     1      -0.204  -5.497   0.975  1.00  0.00     0.010 A 
ATOM     38  C   UNL     1      -0.094  -6.142   2.216  1.00  0.00    -0.014 A 
BRANCH  38  39
ATOM     39  C   UNL     1      -1.193  -6.024   3.208  1.00  0.00     0.031 A 
ATOM     40  C   UNL     1      -2.561  -6.566   2.896  1.00  0.00     0.074 A 
ATOM     41  C   UNL     1      -0.975  -5.372   4.368  1.00  0.00     0.049 A 
ATOM     42  N   UNL     1      -3.655  -6.506   3.614  1.00  0.00    -0.248 NA
ATOM     43  C   UNL     1      -2.732  -7.243   1.600  1.00  0.00     0.031 C 
ATOM     44  C   UNL     1       0.294  -4.764   4.775  1.00  0.00     0.029 A 
ATOM     45  N   UNL     1      -1.820  -5.105   5.417  1.00  0.00    -0.354 N 
ATOM     46  C   UNL     1      -4.642  -7.118   2.851  1.00  0.00     0.074 A 
ATOM     47  C   UNL     1      -4.032  -7.502   1.597  1.00  0.00     0.031 C 
ATOM     48  C   UNL     1       0.151  -4.218   5.993  1.00  0.00     0.029 A 
ATOM     49  C   UNL     1      -1.229  -4.394   6.435  1.00  0.00     0.049 A 
ATOM     50  H   UNL     1      -2.760  -5.395   5.438  1.00  0.00     0.167 HD
ATOM     51  C   UNL     1      -5.936  -7.354   3.172  1.00  0.00     0.031 A 
ATOM     52  C   UNL     1      -1.741  -3.926   7.589  1.00  0.00     0.031 A 
ATOM     53  C   UNL     1      -6.540  -6.987   4.425  1.00  0.00     0.049 A 
ATOM     54  C   UNL     1      -3.186  -4.191   7.911  1.00  0.00     0.074 A 
ATOM     55  C   UNL     1      -7.826  -7.245   4.867  1.00  0.00     0.029 A 
ATOM     56  N   UNL     1      -5.904  -6.279   5.432  1.00  0.00    -0.354 N 
ATOM     57  N   UNL     1      -4.083  -4.843   7.212  1.00  0.00    -0.248 NA
ATOM     58  C   UNL     1      -3.686  -3.666   9.190  1.00  0.00     0.031 C 
ATOM     59  C   UNL     1      -7.989  -6.635   6.115  1.00  0.00     0.029 A 
ATOM     60  C   UNL     1      -6.783  -6.061   6.480  1.00  0.00     0.049 A 
ATOM     61  H   UNL     1      -4.968  -5.976   5.406  1.00  0.00     0.167 HD
ATOM     62  C   UNL     1      -5.241  -4.834   7.980  1.00  0.00     0.074 A 
ATOM     63  C   UNL     1      -4.927  -4.129   9.205  1.00  0.00     0.031 C 
ATOM     64  C   UNL     1      -6.457  -5.361   7.695  1.00  0.00     0.031 A 
BRANCH  51  65
ATOM     65  C   UNL     1      -6.800  -8.037   2.147  1.00  0.00    -0.014 A 
ATOM     66  C   UNL     1      -6.620  -9.391   1.823  1.00  0.00     0.009 A 
ATOM     67  C   UNL     1      -7.857  -7.332   1.548  1.00  0.00     0.009 A 
ATOM     68  C   UNL     1      -7.462 -10.016   0.901  1.00  0.00     0.001 A 
ATOM     69  C   UNL     1      -8.715  -7.967   0.650  1.00  0.00     0.001 A 
ATOM     70  C   UNL     1      -8.513  -9.306   0.321  1.00  0.00     0.000 A 
ENDBRANCH  51  65
BRANCH  52  71
ATOM     71  C   UNL     1      -0.889  -3.146   8.527  1.00  0.00    -0.014 A 
ATOM     72  C   UNL     1      -0.552  -3.662   9.789  1.00  0.00     0.009 A 
ATOM     73  C   UNL     1      -0.436  -1.864   8.179  1.00  0.00     0.009 A 
ATOM     74  C   UNL     1       0.185  -2.895  10.695  1.00  0.00     0.001 A 
ATOM     75  C   UNL     1       0.332  -1.114   9.072  1.00  0.00     0.001 A 
ATOM     76  C   UNL     1       0.629  -1.624  10.335  1.00  0.00     0.000 A 
ENDBRANCH  52  71
BRANCH  64  77
ATOM     77  C   UNL     1      -7.527  -5.235   8.744  1.00  0.00    -0.014 A 
ATOM     78  C   UNL     1      -8.119  -3.998   9.043  1.00  0.00     0.009 A 
ATOM     79  C   UNL     1      -7.979  -6.384   9.413  1.00  0.00     0.009 A 
ATOM     80  C   UNL     1      -9.115  -3.909  10.019  1.00  0.00     0.001 A 
ATOM     81  C   UNL     1      -8.998  -6.298  10.363  1.00  0.00     0.001 A 
ATOM     82  C   UNL     1      -9.557  -5.059  10.672  1.00  0.00     0.000 A 
ENDBRANCH  64  77
ENDBRANCH  38  39
ENDBRANCH  30  33
ENDBRANCH  28  29
ENDBRANCH  27  28
ENDBRANCH  26  27
ENDBRANCH  25  26
ENDBRANCH  24  25
ENDBRANCH   1  24
TORSDOF 19
