REMARK SMILES C=CCN1C(=O)/C(=C/c2ccc(OCc3cccc(C(=O)NCCCCCCNC(=O)c4ccc(-c5c6nc(c(-c7ccccc7)c7ccc([nH]7)c(-c7ccccc7)c7nc(c(-c8ccccc8)c8ccc5[nH]8)C=C7)C=C6)cc4)c3)cc2)C(=O)NC1=S
REMARK SMILES IDX 23 1 22 2 20 3 21 4 19 6 15 7 16 8 80 9 17 10 18 11 14 12
REMARK SMILES IDX 13 13 12 14 9 15 10 16 82 17 11 18 81 19 8 20 4 21 5 22
REMARK SMILES IDX 86 23 6 24 7 25 85 26 87 27 83 28 84 30 3 31 2 32 1 33 24 34
REMARK SMILES IDX 25 35 26 36 27 37 28 38 29 39 30 40 31 42 32 43 33 44 79 45
REMARK SMILES IDX 34 46 78 47 35 48 36 49 37 50 72 51 38 52 77 53 71 54 73 55
REMARK SMILES IDX 39 56 76 57 70 58 69 59 40 61 62 62 47 63 61 64 48 65 51 66
REMARK SMILES IDX 60 67 74 68 49 69 50 70 59 72 75 73 52 74 41 75 42 76 46 77
REMARK SMILES IDX 43 78 45 79 44 80 63 81 64 82 68 83 65 84 67 85 66 86 53 87
REMARK SMILES IDX 54 88 58 89 55 90 57 91 56 92
REMARK H PARENT 22 5 85 29 29 41 73 60 51 71
REMARK Flexibility Score: inf
ROOT
ATOM      1  C   UNL     1      -4.093 -12.932  -3.380  1.00  0.00     0.116 C 
ENDROOT
BRANCH   1   2
ATOM      2  N   UNL     1      -3.762 -13.283  -2.011  1.00  0.00    -0.352 N 
ATOM      3  C   UNL     1      -3.565 -12.479  -0.910  1.00  0.00     0.251 C 
ATOM      4  O   UNL     1      -3.279 -12.997   0.167  1.00  0.00    -0.269 OA
ATOM      5  H   UNL     1      -3.663 -14.248  -1.843  1.00  0.00     0.163 HD
BRANCH   3   6
ATOM      6  C   UNL     1      -3.625 -11.000  -1.020  1.00  0.00     0.040 A 
ATOM      7  C   UNL     1      -4.439  -8.980  -2.123  1.00  0.00    -0.010 A 
ATOM      8  C   UNL     1      -3.471  -8.250  -1.421  1.00  0.00     0.007 A 
ATOM      9  C   UNL     1      -4.557 -10.348  -1.835  1.00  0.00     0.021 A 
ATOM     10  C   UNL     1      -2.628  -8.870  -0.494  1.00  0.00     0.001 A 
ATOM     11  C   UNL     1      -2.688 -10.248  -0.307  1.00  0.00     0.014 A 
BRANCH   7  12
ATOM     12  C   UNL     1      -5.379  -8.399  -3.170  1.00  0.00     0.265 C 
BRANCH  12  13
ATOM     13  O   UNL     1      -4.924  -7.247  -3.884  1.00  0.00    -0.489 OA
BRANCH  13  14
ATOM     14  C   UNL     1      -4.936  -6.054  -3.219  1.00  0.00     0.119 A 
ATOM     15  C   UNL     1      -4.449  -3.747  -1.737  1.00  0.00    -0.024 A 
ATOM     16  C   UNL     1      -3.722  -3.993  -2.907  1.00  0.00     0.012 A 
ATOM     17  C   UNL     1      -5.490  -4.600  -1.371  1.00  0.00     0.012 A 
ATOM     18  C   UNL     1      -3.972  -5.142  -3.651  1.00  0.00     0.047 A 
ATOM     19  C   UNL     1      -5.740  -5.751  -2.119  1.00  0.00     0.047 A 
BRANCH  15  20
ATOM     20  C   UNL     1      -4.035  -2.638  -0.884  1.00  0.00     0.027 C 
ATOM     21  N   UNL     1      -1.529  -1.482   1.465  1.00  0.00    -0.281 N 
ATOM     22  C   UNL     1      -2.708  -1.437   0.720  1.00  0.00     0.265 C 
ATOM     23  C   UNL     1      -1.044  -2.659   2.026  1.00  0.00     0.183 C 
ATOM     24  O   UNL     1      -3.358  -0.408   0.538  1.00  0.00    -0.268 OA
ATOM     25  C   UNL     1      -3.164  -2.728   0.143  1.00  0.00     0.106 C 
ATOM     26  N   UNL     1      -1.620  -3.825   1.600  1.00  0.00    -0.298 N 
ATOM     27  S   UNL     1       0.167  -2.822   3.176  1.00  0.00    -0.040 S 
ATOM     28  C   UNL     1      -2.600  -3.994   0.661  1.00  0.00     0.263 C 
ATOM     29  H   UNL     1      -1.285  -4.648   2.023  1.00  0.00     0.172 HD
ATOM     30  O   UNL     1      -2.952  -5.115   0.339  1.00  0.00    -0.269 OA
BRANCH  21  31
ATOM     31  C   UNL     1      -0.921  -0.175   1.748  1.00  0.00     0.155 C 
BRANCH  31  32
ATOM     32  C   UNL     1       0.469  -0.097   1.171  1.00  0.00    -0.013 C 
ATOM     33  C   UNL     1       0.778   0.058  -0.123  1.00  0.00     0.006 C 
ENDBRANCH  31  32
ENDBRANCH  21  31
ENDBRANCH  15  20
ENDBRANCH  13  14
ENDBRANCH  12  13
ENDBRANCH   7  12
ENDBRANCH   3   6
ENDBRANCH   1   2
BRANCH   1  34
ATOM     34  C   UNL     1      -3.342 -13.726  -4.439  1.00  0.00     0.021 C 
BRANCH  34  35
ATOM     35  C   UNL     1      -3.505 -15.244  -4.402  1.00  0.00     0.002 C 
BRANCH  35  36
ATOM     36  C   UNL     1      -4.937 -15.780  -4.352  1.00  0.00     0.002 C 
BRANCH  36  37
ATOM     37  C   UNL     1      -5.904 -15.252  -5.413  1.00  0.00     0.021 C 
BRANCH  37  38
ATOM     38  C   UNL     1      -5.432 -15.361  -6.858  1.00  0.00     0.116 C 
BRANCH  38  39
ATOM     39  N   UNL     1      -5.228 -16.733  -7.290  1.00  0.00    -0.352 N 
ATOM     40  C   UNL     1      -5.711 -17.371  -8.408  1.00  0.00     0.251 C 
ATOM     41  H   UNL     1      -4.664 -17.284  -6.699  1.00  0.00     0.163 HD
ATOM     42  O   UNL     1      -5.536 -18.575  -8.563  1.00  0.00    -0.269 OA
BRANCH  40  43
ATOM     43  C   UNL     1      -6.476 -16.603  -9.414  1.00  0.00     0.039 A 
ATOM     44  C   UNL     1      -7.709 -17.098  -9.848  1.00  0.00     0.014 A 
ATOM     45  C   UNL     1      -5.988 -15.392  -9.911  1.00  0.00     0.014 A 
ATOM     46  C   UNL     1      -8.491 -16.341 -10.724  1.00  0.00     0.010 A 
ATOM     47  C   UNL     1      -6.793 -14.611 -10.735  1.00  0.00     0.010 A 
ATOM     48  C   UNL     1      -8.055 -15.074 -11.144  1.00  0.00    -0.014 A 
BRANCH  48  49
ATOM     49  C   UNL     1      -8.893 -14.204 -12.006  1.00  0.00     0.031 A 
ATOM     50  C   UNL     1      -8.422 -13.844 -13.387  1.00  0.00     0.074 A 
ATOM     51  C   UNL     1     -10.021 -13.656 -11.515  1.00  0.00     0.049 A 
ATOM     52  N   UNL     1      -8.920 -12.977 -14.231  1.00  0.00    -0.248 NA
ATOM     53  C   UNL     1      -7.215 -14.534 -13.872  1.00  0.00     0.031 C 
ATOM     54  C   UNL     1     -10.580 -13.908 -10.185  1.00  0.00     0.029 A 
ATOM     55  N   UNL     1     -10.891 -12.753 -12.074  1.00  0.00    -0.354 N 
ATOM     56  C   UNL     1      -8.072 -12.994 -15.331  1.00  0.00     0.074 A 
ATOM     57  C   UNL     1      -7.012 -13.933 -15.035  1.00  0.00     0.031 C 
ATOM     58  C   UNL     1     -11.700 -13.184 -10.035  1.00  0.00     0.029 A 
ATOM     59  C   UNL     1     -11.914 -12.382 -11.236  1.00  0.00     0.049 A 
ATOM     60  H   UNL     1     -10.791 -12.404 -12.989  1.00  0.00     0.167 HD
ATOM     61  C   UNL     1      -8.173 -12.297 -16.488  1.00  0.00     0.031 A 
ATOM     62  C   UNL     1     -12.901 -11.481 -11.405  1.00  0.00     0.031 A 
ATOM     63  C   UNL     1      -9.236 -11.379 -16.790  1.00  0.00     0.049 A 
ATOM     64  C   UNL     1     -12.981 -10.706 -12.690  1.00  0.00     0.074 A 
ATOM     65  C   UNL     1      -9.453 -10.664 -17.956  1.00  0.00     0.029 A 
ATOM     66  N   UNL     1     -10.264 -11.049 -15.920  1.00  0.00    -0.354 N 
ATOM     67  N   UNL     1     -12.195 -10.763 -13.737  1.00  0.00    -0.248 NA
ATOM     68  C   UNL     1     -14.086  -9.744 -12.818  1.00  0.00     0.031 C 
ATOM     69  C   UNL     1     -10.590  -9.871 -17.776  1.00  0.00     0.029 A 
ATOM     70  C   UNL     1     -11.107 -10.129 -16.517  1.00  0.00     0.049 A 
ATOM     71  H   UNL     1     -10.377 -11.416 -15.013  1.00  0.00     0.167 HD
ATOM     72  C   UNL     1     -12.728  -9.873 -14.660  1.00  0.00     0.074 A 
ATOM     73  C   UNL     1     -13.905  -9.290 -14.051  1.00  0.00     0.031 C 
ATOM     74  C   UNL     1     -12.283  -9.570 -15.903  1.00  0.00     0.031 A 
BRANCH  61  75
ATOM     75  C   UNL     1      -7.091 -12.496 -17.511  1.00  0.00    -0.014 A 
ATOM     76  C   UNL     1      -6.989 -13.692 -18.239  1.00  0.00     0.009 A 
ATOM     77  C   UNL     1      -6.182 -11.460 -17.774  1.00  0.00     0.009 A 
ATOM     78  C   UNL     1      -5.976 -13.858 -19.186  1.00  0.00     0.001 A 
ATOM     79  C   UNL     1      -5.187 -11.619 -18.740  1.00  0.00     0.001 A 
ATOM     80  C   UNL     1      -5.079 -12.821 -19.438  1.00  0.00     0.000 A 
ENDBRANCH  61  75
BRANCH  62  81
ATOM     81  C   UNL     1     -13.900 -11.263 -10.327  1.00  0.00    -0.014 A 
ATOM     82  C   UNL     1     -15.218 -11.720 -10.479  1.00  0.00     0.009 A 
ATOM     83  C   UNL     1     -13.544 -10.597  -9.144  1.00  0.00     0.009 A 
ATOM     84  C   UNL     1     -16.165 -11.495  -9.477  1.00  0.00     0.001 A 
ATOM     85  C   UNL     1     -14.487 -10.396  -8.133  1.00  0.00     0.001 A 
ATOM     86  C   UNL     1     -15.798 -10.838  -8.304  1.00  0.00     0.000 A 
ENDBRANCH  62  81
BRANCH  74  87
ATOM     87  C   UNL     1     -13.096  -8.603 -16.714  1.00  0.00    -0.014 A 
ATOM     88  C   UNL     1     -13.057  -7.225 -16.459  1.00  0.00     0.009 A 
ATOM     89  C   UNL     1     -13.854  -9.078 -17.796  1.00  0.00     0.009 A 
ATOM     90  C   UNL     1     -13.777  -6.340 -17.265  1.00  0.00     0.001 A 
ATOM     91  C   UNL     1     -14.554  -8.189 -18.613  1.00  0.00     0.001 A 
ATOM     92  C   UNL     1     -14.518  -6.822 -18.344  1.00  0.00     0.000 A 
ENDBRANCH  74  87
ENDBRANCH  48  49
ENDBRANCH  40  43
ENDBRANCH  38  39
ENDBRANCH  37  38
ENDBRANCH  36  37
ENDBRANCH  35  36
ENDBRANCH  34  35
ENDBRANCH   1  34
TORSDOF 19
