REMARK SMILES Cc1[nH]c(=O)sc1S(=O)(=O)NC1(CC(=O)NCCCCCCNC(=O)c2ccc(-c3c4nc(c(-c5ccccc5)c5ccc([nH]5)c(-c5ccccc5)c5nc(c(-c6ccccc6)c6ccc3[nH]6)C=C5)C=C4)cc2)CCC1
REMARK SMILES IDX 18 1 17 2 16 3 14 4 15 5 13 7 12 8 74 9 76 10 75 11 11 12
REMARK SMILES IDX 8 14 9 15 10 16 7 17 1 18 2 19 3 20 4 21 6 23 5 24 19 25
REMARK SMILES IDX 20 26 21 27 22 28 23 29 24 30 25 32 26 33 27 34 73 35 28 36
REMARK SMILES IDX 72 37 29 38 30 39 31 40 66 41 32 42 71 43 65 44 67 45 33 46
REMARK SMILES IDX 70 47 64 48 63 49 34 51 56 52 41 53 55 54 42 55 45 56 54 57
REMARK SMILES IDX 68 58 43 59 44 60 53 62 69 63 46 64 35 65 36 66 40 67 37 68
REMARK SMILES IDX 39 69 38 70 57 71 58 72 62 73 59 74 61 75 60 76 47 77 48 78
REMARK SMILES IDX 52 79 49 80 51 81 50 82
REMARK H PARENT 16 6 11 13 3 22 23 31 67 50 45 61
REMARK Flexibility Score: inf
ROOT
ATOM      1  C   UNL     1      -1.030   3.400  -2.622  1.00  0.00     0.021 C 
ENDROOT
BRANCH   1   2
ATOM      2  C   UNL     1      -0.782   2.817  -4.017  1.00  0.00     0.116 C 
BRANCH   2   3
ATOM      3  N   UNL     1       0.583   3.037  -4.421  1.00  0.00    -0.356 N 
ATOM      4  C   UNL     1       1.627   2.169  -4.375  1.00  0.00     0.221 C 
ATOM      5  O   UNL     1       2.744   2.546  -4.729  1.00  0.00    -0.275 OA
ATOM      6  H   UNL     1       0.785   3.932  -4.776  1.00  0.00     0.163 HD
BRANCH   4   7
ATOM      7  C   UNL     1       1.399   0.743  -3.944  1.00  0.00     0.123 C 
BRANCH   7   8
ATOM      8  C   UNL     1       1.211   0.474  -2.440  1.00  0.00     0.042 C 
ATOM      9  C   UNL     1       1.187  -1.090  -2.221  1.00  0.00     0.024 C 
ATOM     10  C   UNL     1      -0.244   0.456  -1.851  1.00  0.00     0.024 C 
ATOM     11  C   UNL     1      -0.329  -1.049  -2.047  1.00  0.00     0.004 C 
BRANCH   8  12
ATOM     12  N   UNL     1       2.336   1.101  -1.626  1.00  0.00    -0.204 NA
ATOM     13  H   UNL     1       2.551   0.389  -0.929  1.00  0.00     0.142 HD
BRANCH  12  14
ATOM     14  S   UNL     1       2.446   2.559  -0.750  1.00  0.00     0.252 S 
ATOM     15  O   UNL     1       2.132   3.608  -1.697  1.00  0.00    -0.206 OA
ATOM     16  O   UNL     1       3.771   2.513  -0.163  1.00  0.00    -0.206 OA
BRANCH  14  17
ATOM     17  C   UNL     1       1.279   2.584   0.534  1.00  0.00     0.158 A 
ATOM     18  C   UNL     1       1.356   0.078   1.155  1.00  0.00     0.067 C 
ATOM     19  C   UNL     1       0.883   1.492   1.217  1.00  0.00     0.046 A 
ATOM     20  N   UNL     1      -0.184   1.753   2.048  1.00  0.00    -0.315 N 
ATOM     21  C   UNL     1      -0.648   3.050   2.092  1.00  0.00     0.305 A 
ATOM     22  H   UNL     1      -0.599   1.042   2.588  1.00  0.00     0.170 HD
ATOM     23  S   UNL     1       0.389   4.013   1.050  1.00  0.00    -0.061 S 
ATOM     24  O   UNL     1      -1.611   3.446   2.690  1.00  0.00    -0.257 OA
ENDBRANCH  14  17
ENDBRANCH  12  14
ENDBRANCH   8  12
ENDBRANCH   7   8
ENDBRANCH   4   7
ENDBRANCH   2   3
ENDBRANCH   1   2
BRANCH   1  25
ATOM     25  C   UNL     1      -1.194   4.914  -2.652  1.00  0.00     0.002 C 
BRANCH  25  26
ATOM     26  C   UNL     1      -2.392   5.341  -3.507  1.00  0.00     0.002 C 
BRANCH  26  27
ATOM     27  C   UNL     1      -3.722   4.683  -3.100  1.00  0.00     0.021 C 
BRANCH  27  28
ATOM     28  C   UNL     1      -4.161   5.113  -1.710  1.00  0.00     0.116 C 
BRANCH  28  29
ATOM     29  N   UNL     1      -4.493   6.538  -1.705  1.00  0.00    -0.352 N 
ATOM     30  C   UNL     1      -5.319   7.230  -0.846  1.00  0.00     0.251 C 
ATOM     31  H   UNL     1      -4.069   7.076  -2.412  1.00  0.00     0.163 HD
ATOM     32  O   UNL     1      -5.881   8.258  -1.199  1.00  0.00    -0.269 OA
BRANCH  30  33
ATOM     33  C   UNL     1      -5.385   6.783   0.555  1.00  0.00     0.039 A 
ATOM     34  C   UNL     1      -6.459   7.000   1.426  1.00  0.00     0.014 A 
ATOM     35  C   UNL     1      -4.231   6.213   1.053  1.00  0.00     0.014 A 
ATOM     36  C   UNL     1      -6.292   6.676   2.793  1.00  0.00     0.010 A 
ATOM     37  C   UNL     1      -4.340   5.497   2.199  1.00  0.00     0.010 A 
ATOM     38  C   UNL     1      -5.109   6.034   3.210  1.00  0.00    -0.014 A 
BRANCH  38  39
ATOM     39  C   UNL     1      -4.868   5.324   4.488  1.00  0.00     0.031 A 
ATOM     40  C   UNL     1      -5.878   4.184   4.553  1.00  0.00     0.074 A 
ATOM     41  C   UNL     1      -3.763   5.545   5.288  1.00  0.00     0.049 A 
ATOM     42  N   UNL     1      -7.036   4.253   5.141  1.00  0.00    -0.248 NA
ATOM     43  C   UNL     1      -5.846   3.031   3.597  1.00  0.00     0.031 C 
ATOM     44  C   UNL     1      -2.670   6.543   5.168  1.00  0.00     0.029 A 
ATOM     45  N   UNL     1      -3.343   4.888   6.440  1.00  0.00    -0.354 N 
ATOM     46  C   UNL     1      -7.614   2.994   4.964  1.00  0.00     0.074 A 
ATOM     47  C   UNL     1      -7.060   2.491   3.751  1.00  0.00     0.031 C 
ATOM     48  C   UNL     1      -1.629   6.247   6.001  1.00  0.00     0.029 A 
ATOM     49  C   UNL     1      -1.986   5.123   6.843  1.00  0.00     0.049 A 
ATOM     50  H   UNL     1      -3.942   4.296   6.950  1.00  0.00     0.167 HD
ATOM     51  C   UNL     1      -8.011   2.288   6.064  1.00  0.00     0.031 A 
ATOM     52  C   UNL     1      -1.275   4.483   7.845  1.00  0.00     0.031 A 
ATOM     53  C   UNL     1      -8.099   3.198   7.184  1.00  0.00     0.049 A 
ATOM     54  C   UNL     1      -2.277   3.826   8.721  1.00  0.00     0.074 A 
ATOM     55  C   UNL     1      -8.794   4.355   7.462  1.00  0.00     0.029 A 
ATOM     56  N   UNL     1      -6.954   3.226   7.934  1.00  0.00    -0.354 N 
ATOM     57  N   UNL     1      -3.114   4.514   9.443  1.00  0.00    -0.248 NA
ATOM     58  C   UNL     1      -2.720   2.519   8.264  1.00  0.00     0.031 C 
ATOM     59  C   UNL     1      -7.858   5.204   8.125  1.00  0.00     0.029 A 
ATOM     60  C   UNL     1      -6.705   4.474   8.410  1.00  0.00     0.049 A 
ATOM     61  H   UNL     1      -6.384   2.442   8.106  1.00  0.00     0.167 HD
ATOM     62  C   UNL     1      -4.345   4.008   9.062  1.00  0.00     0.074 A 
ATOM     63  C   UNL     1      -4.032   2.767   8.329  1.00  0.00     0.031 C 
ATOM     64  C   UNL     1      -5.451   4.814   9.033  1.00  0.00     0.031 A 
BRANCH  51  65
ATOM     65  C   UNL     1      -7.676   0.811   6.301  1.00  0.00    -0.014 A 
ATOM     66  C   UNL     1      -7.976   0.274   7.570  1.00  0.00     0.009 A 
ATOM     67  C   UNL     1      -6.838   0.022   5.487  1.00  0.00     0.009 A 
ATOM     68  C   UNL     1      -7.406  -0.922   8.027  1.00  0.00     0.001 A 
ATOM     69  C   UNL     1      -6.288  -1.192   5.929  1.00  0.00     0.001 A 
ATOM     70  C   UNL     1      -6.555  -1.652   7.208  1.00  0.00     0.000 A 
ENDBRANCH  51  65
BRANCH  52  71
ATOM     71  C   UNL     1       0.167   4.045   7.972  1.00  0.00    -0.014 A 
ATOM     72  C   UNL     1       0.736   3.516   9.166  1.00  0.00     0.009 A 
ATOM     73  C   UNL     1       0.892   3.814   6.796  1.00  0.00     0.009 A 
ATOM     74  C   UNL     1       1.947   2.780   9.157  1.00  0.00     0.001 A 
ATOM     75  C   UNL     1       2.085   3.068   6.784  1.00  0.00     0.001 A 
ATOM     76  C   UNL     1       2.610   2.539   7.959  1.00  0.00     0.000 A 
ENDBRANCH  52  71
BRANCH  64  77
ATOM     77  C   UNL     1      -5.374   6.177   9.671  1.00  0.00    -0.014 A 
ATOM     78  C   UNL     1      -4.606   7.267   9.219  1.00  0.00     0.009 A 
ATOM     79  C   UNL     1      -6.264   6.385  10.733  1.00  0.00     0.009 A 
ATOM     80  C   UNL     1      -4.694   8.509   9.871  1.00  0.00     0.001 A 
ATOM     81  C   UNL     1      -6.368   7.620  11.361  1.00  0.00     0.001 A 
ATOM     82  C   UNL     1      -5.567   8.678  10.946  1.00  0.00     0.000 A 
ENDBRANCH  64  77
ENDBRANCH  38  39
ENDBRANCH  30  33
ENDBRANCH  28  29
ENDBRANCH  27  28
ENDBRANCH  26  27
ENDBRANCH  25  26
ENDBRANCH   1  25
TORSDOF 17
