REMARK SMILES C[C@@H]1[C@H](C)CCC[C@H]1NC(=O)C[N@H+]1CCC[C@@H]1C(=O)NCCCCCCNC(=O)c1ccc(-c2c3nc(c(-c4ccccc4)c4ccc([nH]4)c(-c4ccccc4)c4nc(c(-c5ccccc5)c5ccc2[nH]5)C=C4)C=C3)cc1
REMARK SMILES IDX 23 1 22 2 21 3 20 4 18 5 19 6 17 8 13 9 14 10 15 12 16 13
REMARK SMILES IDX 12 14 10 15 9 16 11 18 8 19 1 20 2 21 3 22 4 23 5 24 7 25
REMARK SMILES IDX 6 26 24 27 25 28 26 29 27 30 28 31 29 33 30 34 31 35 77 36
REMARK SMILES IDX 32 37 76 38 33 39 34 40 35 41 70 42 36 43 75 44 69 45 71 46
REMARK SMILES IDX 37 47 74 48 68 49 67 50 38 52 60 53 45 54 59 55 46 56 49 57
REMARK SMILES IDX 58 58 72 59 47 60 48 61 57 63 73 64 50 65 39 66 40 67 44 68
REMARK SMILES IDX 41 69 43 70 42 71 61 72 62 73 66 74 63 75 65 76 64 77 51 78
REMARK SMILES IDX 52 79 56 80 53 81 55 82 54 83
REMARK H PARENT 20 7 13 11 9 17 27 32 71 51 49 62
REMARK Flexibility Score: inf
ROOT
ATOM      1  C   UNL     1      -4.865   3.254  -0.402  1.00  0.00     0.002 C 
ENDROOT
BRANCH   1   2
ATOM      2  C   UNL     1      -3.673   2.444   0.119  1.00  0.00     0.021 C 
BRANCH   2   3
ATOM      3  C   UNL     1      -2.558   3.243   0.779  1.00  0.00     0.116 C 
BRANCH   3   4
ATOM      4  N   UNL     1      -2.830   3.743   2.094  1.00  0.00    -0.351 N 
ATOM      5  C   UNL     1      -1.928   4.272   2.965  1.00  0.00     0.278 C 
ATOM      6  O   UNL     1      -2.404   4.954   3.885  1.00  0.00    -0.268 OA
ATOM      7  H   UNL     1      -3.765   3.699   2.399  1.00  0.00     0.163 HD
BRANCH   5   8
ATOM      8  C   UNL     1      -0.411   4.001   2.954  1.00  0.00     0.274 C 
ATOM      9  N   UNL     1       0.380   4.065   1.704  1.00  0.00    -0.317 N 
ATOM     10  C   UNL     1       1.727   3.738   2.179  1.00  0.00     0.263 C 
ATOM     11  H   UNL     1      -0.037   3.433   1.021  1.00  0.00     0.349 HD
ATOM     12  C   UNL     1       1.422   2.418   2.863  1.00  0.00     0.068 C 
ATOM     13  C   UNL     1      -0.019   2.580   3.375  1.00  0.00     0.081 C 
BRANCH   9  14
ATOM     14  C   UNL     1       0.353   5.258   0.877  1.00  0.00     0.364 C 
BRANCH  14  15
ATOM     15  C   UNL     1      -0.221   4.918  -0.513  1.00  0.00     0.275 C 
ATOM     16  N   UNL     1      -0.144   3.682  -1.104  1.00  0.00    -0.348 N 
ATOM     17  H   UNL     1      -0.965   3.422  -1.582  1.00  0.00     0.163 HD
ATOM     18  O   UNL     1      -0.872   5.772  -1.132  1.00  0.00    -0.268 OA
BRANCH  16  19
ATOM     19  C   UNL     1       0.919   2.666  -1.165  1.00  0.00     0.085 C 
ATOM     20  C   UNL     1       1.845   0.453  -0.314  1.00  0.00     0.010 C 
ATOM     21  C   UNL     1       0.558   1.272  -0.554  1.00  0.00     0.011 C 
ATOM     22  C   UNL     1      -0.467   0.461  -1.397  1.00  0.00    -0.009 C 
ATOM     23  C   UNL     1      -0.728  -0.949  -0.843  1.00  0.00     0.008 C 
ATOM     24  C   UNL     1      -0.072   0.375  -2.876  1.00  0.00     0.004 C 
ATOM     25  C   UNL     1       1.289   2.500  -2.654  1.00  0.00     0.025 C 
ATOM     26  C   UNL     1       0.212   1.755  -3.453  1.00  0.00     0.002 C 
ENDBRANCH  16  19
ENDBRANCH  14  15
ENDBRANCH   9  14
ENDBRANCH   5   8
ENDBRANCH   3   4
ENDBRANCH   2   3
ENDBRANCH   1   2
BRANCH   1  27
ATOM     27  C   UNL     1      -4.567   4.412  -1.365  1.00  0.00     0.002 C 
BRANCH  27  28
ATOM     28  C   UNL     1      -3.728   4.099  -2.607  1.00  0.00     0.021 C 
BRANCH  28  29
ATOM     29  C   UNL     1      -4.205   2.957  -3.497  1.00  0.00     0.116 C 
BRANCH  29  30
ATOM     30  N   UNL     1      -5.543   3.168  -4.023  1.00  0.00    -0.352 N 
ATOM     31  C   UNL     1      -6.003   3.124  -5.311  1.00  0.00     0.251 C 
ATOM     32  H   UNL     1      -6.226   3.375  -3.346  1.00  0.00     0.163 HD
ATOM     33  O   UNL     1      -7.167   3.468  -5.553  1.00  0.00    -0.269 OA
BRANCH  31  34
ATOM     34  C   UNL     1      -5.132   2.697  -6.429  1.00  0.00     0.039 A 
ATOM     35  C   UNL     1      -5.188   3.412  -7.631  1.00  0.00     0.014 A 
ATOM     36  C   UNL     1      -4.293   1.584  -6.323  1.00  0.00     0.014 A 
ATOM     37  C   UNL     1      -4.361   3.053  -8.699  1.00  0.00     0.010 A 
ATOM     38  C   UNL     1      -3.422   1.266  -7.367  1.00  0.00     0.010 A 
ATOM     39  C   UNL     1      -3.444   1.998  -8.564  1.00  0.00    -0.014 A 
BRANCH  39  40
ATOM     40  C   UNL     1      -2.490   1.665  -9.655  1.00  0.00     0.031 A 
ATOM     41  C   UNL     1      -2.561   0.336 -10.355  1.00  0.00     0.074 A 
ATOM     42  C   UNL     1      -1.515   2.539  -9.974  1.00  0.00     0.049 A 
ATOM     43  N   UNL     1      -1.773  -0.153 -11.280  1.00  0.00    -0.248 NA
ATOM     44  C   UNL     1      -3.648  -0.570  -9.951  1.00  0.00     0.031 C 
ATOM     45  C   UNL     1      -1.316   3.851  -9.355  1.00  0.00     0.029 A 
ATOM     46  N   UNL     1      -0.500   2.450 -10.896  1.00  0.00    -0.354 N 
ATOM     47  C   UNL     1      -2.257  -1.426 -11.556  1.00  0.00     0.074 A 
ATOM     48  C   UNL     1      -3.380  -1.651 -10.670  1.00  0.00     0.031 C 
ATOM     49  C   UNL     1      -0.262   4.452  -9.928  1.00  0.00     0.029 A 
ATOM     50  C   UNL     1       0.318   3.554 -10.921  1.00  0.00     0.049 A 
ATOM     51  H   UNL     1      -0.372   1.670 -11.482  1.00  0.00     0.167 HD
ATOM     52  C   UNL     1      -1.817  -2.322 -12.472  1.00  0.00     0.031 A 
ATOM     53  C   UNL     1       1.421   3.811 -11.650  1.00  0.00     0.031 A 
ATOM     54  C   UNL     1      -0.703  -2.099 -13.356  1.00  0.00     0.049 A 
ATOM     55  C   UNL     1       1.909   2.786 -12.636  1.00  0.00     0.074 A 
ATOM     56  C   UNL     1      -0.217  -2.927 -14.355  1.00  0.00     0.029 A 
ATOM     57  N   UNL     1       0.102  -0.971 -13.345  1.00  0.00    -0.354 N 
ATOM     58  N   UNL     1       1.401   1.613 -12.928  1.00  0.00    -0.248 NA
ATOM     59  C   UNL     1       3.119   3.125 -13.398  1.00  0.00     0.031 C 
ATOM     60  C   UNL     1       0.918  -2.325 -14.907  1.00  0.00     0.029 A 
ATOM     61  C   UNL     1       1.101  -1.095 -14.297  1.00  0.00     0.049 A 
ATOM     62  H   UNL     1      -0.019  -0.197 -12.749  1.00  0.00     0.167 HD
ATOM     63  C   UNL     1       2.212   1.087 -13.925  1.00  0.00     0.074 A 
ATOM     64  C   UNL     1       3.235   2.075 -14.200  1.00  0.00     0.031 C 
ATOM     65  C   UNL     1       2.116  -0.107 -14.558  1.00  0.00     0.031 A 
BRANCH  52  66
ATOM     66  C   UNL     1      -2.537  -3.641 -12.556  1.00  0.00    -0.014 A 
ATOM     67  C   UNL     1      -3.845  -3.728 -13.059  1.00  0.00     0.009 A 
ATOM     68  C   UNL     1      -1.882  -4.820 -12.165  1.00  0.00     0.009 A 
ATOM     69  C   UNL     1      -4.494  -4.962 -13.134  1.00  0.00     0.001 A 
ATOM     70  C   UNL     1      -2.522  -6.056 -12.270  1.00  0.00     0.001 A 
ATOM     71  C   UNL     1      -3.831  -6.125 -12.745  1.00  0.00     0.000 A 
ENDBRANCH  52  66
BRANCH  53  72
ATOM     72  C   UNL     1       2.143   5.099 -11.479  1.00  0.00    -0.014 A 
ATOM     73  C   UNL     1       2.131   6.065 -12.497  1.00  0.00     0.009 A 
ATOM     74  C   UNL     1       2.856   5.367 -10.299  1.00  0.00     0.009 A 
ATOM     75  C   UNL     1       2.840   7.259 -12.348  1.00  0.00     0.001 A 
ATOM     76  C   UNL     1       3.538   6.576 -10.141  1.00  0.00     0.001 A 
ATOM     77  C   UNL     1       3.538   7.516 -11.169  1.00  0.00     0.000 A 
ENDBRANCH  53  72
BRANCH  65  78
ATOM     78  C   UNL     1       3.126  -0.402 -15.633  1.00  0.00    -0.014 A 
ATOM     79  C   UNL     1       4.464  -0.686 -15.319  1.00  0.00     0.009 A 
ATOM     80  C   UNL     1       2.719  -0.438 -16.976  1.00  0.00     0.009 A 
ATOM     81  C   UNL     1       5.381  -0.970 -16.334  1.00  0.00     0.001 A 
ATOM     82  C   UNL     1       3.631  -0.752 -17.985  1.00  0.00     0.001 A 
ATOM     83  C   UNL     1       4.963  -1.009 -17.664  1.00  0.00     0.000 A 
ENDBRANCH  65  78
ENDBRANCH  39  40
ENDBRANCH  31  34
ENDBRANCH  29  30
ENDBRANCH  28  29
ENDBRANCH  27  28
ENDBRANCH   1  27
TORSDOF 16
