REMARK SMILES O=C(NCCCCCCNC(=O)c1ccc(N2C(=O)/C(=C\C3=Cc4ccccc4OC3)SC2=S)cc1)c1ccc(-c2c3nc(c(-c4ccccc4)c4ccc([nH]4)c(-c4ccccc4)c4nc(c(-c5ccccc5)c5ccc2[nH]5)C=C4)C=C3)cc1
REMARK SMILES IDX 6 1 5 2 4 3 3 4 1 5 2 6 37 8 38 9 84 10 39 11 83 12 40 13
REMARK SMILES IDX 41 14 42 15 77 16 43 17 82 18 76 19 78 20 44 21 81 22 75 23
REMARK SMILES IDX 74 24 45 26 67 27 52 28 66 29 53 30 56 31 65 32 79 33 54 34
REMARK SMILES IDX 55 35 64 37 80 38 57 39 46 40 47 41 51 42 48 43 50 44 49 45
REMARK SMILES IDX 68 46 69 47 73 48 70 49 72 50 71 51 58 52 59 53 63 54 60 55
REMARK SMILES IDX 62 56 61 57 7 58 8 59 9 60 10 61 11 62 12 64 13 65 14 66
REMARK SMILES IDX 36 67 15 68 35 69 16 70 17 71 18 72 33 73 19 74 20 75 32 76
REMARK SMILES IDX 34 77 21 78 22 79 23 80 31 81 24 82 30 83 25 84 29 85 26 86
REMARK SMILES IDX 28 87 27 88
REMARK H PARENT 3 7 78 25 56 36 10 63
REMARK Flexibility Score: inf
ROOT
ATOM      1  C   UNL     1       4.394   3.818  -1.180  1.00  0.00     0.002 C 
ENDROOT
BRANCH   1   2
ATOM      2  C   UNL     1       4.827   2.370  -1.413  1.00  0.00     0.021 C 
BRANCH   2   3
ATOM      3  C   UNL     1       4.570   1.417  -0.251  1.00  0.00     0.116 C 
BRANCH   3   4
ATOM      4  N   UNL     1       3.155   1.212   0.010  1.00  0.00    -0.352 N 
ATOM      5  O   UNL     1       1.218   0.070   0.190  1.00  0.00    -0.269 OA
ATOM      6  C   UNL     1       2.442   0.041   0.105  1.00  0.00     0.251 C 
ATOM      7  H   UNL     1       2.628   2.035   0.138  1.00  0.00     0.163 HD
BRANCH   6   8
ATOM      8  C   UNL     1       3.144  -1.263   0.083  1.00  0.00     0.039 A 
ATOM      9  C   UNL     1       4.299  -1.473   0.839  1.00  0.00     0.014 A 
ATOM     10  C   UNL     1       2.615  -2.304  -0.688  1.00  0.00     0.014 A 
ATOM     11  C   UNL     1       4.994  -2.675   0.726  1.00  0.00     0.010 A 
ATOM     12  C   UNL     1       3.275  -3.536  -0.744  1.00  0.00     0.010 A 
ATOM     13  C   UNL     1       4.484  -3.722  -0.059  1.00  0.00    -0.014 A 
BRANCH  13  14
ATOM     14  C   UNL     1       5.200  -5.023  -0.095  1.00  0.00     0.031 A 
ATOM     15  C   UNL     1       5.847  -5.523  -1.357  1.00  0.00     0.074 A 
ATOM     16  C   UNL     1       5.283  -5.748   1.037  1.00  0.00     0.049 A 
ATOM     17  N   UNL     1       6.536  -6.621  -1.547  1.00  0.00    -0.248 NA
ATOM     18  C   UNL     1       5.701  -4.690  -2.560  1.00  0.00     0.031 C 
ATOM     19  C   UNL     1       4.690  -5.375   2.323  1.00  0.00     0.029 A 
ATOM     20  N   UNL     1       5.913  -6.939   1.294  1.00  0.00    -0.354 N 
ATOM     21  C   UNL     1       6.891  -6.620  -2.890  1.00  0.00     0.074 A 
ATOM     22  C   UNL     1       6.324  -5.423  -3.474  1.00  0.00     0.031 C 
ATOM     23  C   UNL     1       5.020  -6.294   3.242  1.00  0.00     0.029 A 
ATOM     24  C   UNL     1       5.801  -7.346   2.601  1.00  0.00     0.049 A 
ATOM     25  H   UNL     1       6.398  -7.452   0.608  1.00  0.00     0.167 HD
ATOM     26  C   UNL     1       7.625  -7.532  -3.573  1.00  0.00     0.031 A 
ATOM     27  C   UNL     1       6.262  -8.449   3.217  1.00  0.00     0.031 A 
ATOM     28  C   UNL     1       8.189  -8.723  -2.993  1.00  0.00     0.049 A 
ATOM     29  C   UNL     1       7.049  -9.454   2.429  1.00  0.00     0.074 A 
ATOM     30  C   UNL     1       8.975  -9.688  -3.601  1.00  0.00     0.029 A 
ATOM     31  N   UNL     1       8.023  -9.116  -1.675  1.00  0.00    -0.354 N 
ATOM     32  N   UNL     1       7.407  -9.416   1.169  1.00  0.00    -0.248 NA
ATOM     33  C   UNL     1       7.496 -10.654   3.151  1.00  0.00     0.031 C 
ATOM     34  C   UNL     1       9.247 -10.688  -2.660  1.00  0.00     0.029 A 
ATOM     35  C   UNL     1       8.672 -10.320  -1.455  1.00  0.00     0.049 A 
ATOM     36  H   UNL     1       7.519  -8.613  -0.994  1.00  0.00     0.167 HD
ATOM     37  C   UNL     1       8.133 -10.578   0.950  1.00  0.00     0.074 A 
ATOM     38  C   UNL     1       8.182 -11.289   2.211  1.00  0.00     0.031 C 
ATOM     39  C   UNL     1       8.706 -11.018  -0.197  1.00  0.00     0.031 A 
BRANCH  26  40
ATOM     40  C   UNL     1       7.846  -7.290  -5.040  1.00  0.00    -0.014 A 
ATOM     41  C   UNL     1       8.741  -6.306  -5.488  1.00  0.00     0.009 A 
ATOM     42  C   UNL     1       7.193  -8.097  -5.985  1.00  0.00     0.009 A 
ATOM     43  C   UNL     1       8.958  -6.120  -6.856  1.00  0.00     0.001 A 
ATOM     44  C   UNL     1       7.429  -7.923  -7.350  1.00  0.00     0.001 A 
ATOM     45  C   UNL     1       8.306  -6.930  -7.785  1.00  0.00     0.000 A 
ENDBRANCH  26  40
BRANCH  27  46
ATOM     46  C   UNL     1       5.980  -8.661   4.659  1.00  0.00    -0.014 A 
ATOM     47  C   UNL     1       7.005  -8.552   5.610  1.00  0.00     0.009 A 
ATOM     48  C   UNL     1       4.678  -8.958   5.091  1.00  0.00     0.009 A 
ATOM     49  C   UNL     1       6.734  -8.756   6.965  1.00  0.00     0.001 A 
ATOM     50  C   UNL     1       4.405  -9.134   6.448  1.00  0.00     0.001 A 
ATOM     51  C   UNL     1       5.434  -9.040   7.383  1.00  0.00     0.000 A 
ENDBRANCH  27  46
BRANCH  39  52
ATOM     52  C   UNL     1       9.455 -12.317  -0.128  1.00  0.00    -0.014 A 
ATOM     53  C   UNL     1       8.776 -13.542  -0.044  1.00  0.00     0.009 A 
ATOM     54  C   UNL     1      10.858 -12.315  -0.171  1.00  0.00     0.009 A 
ATOM     55  C   UNL     1       9.489 -14.739   0.028  1.00  0.00     0.001 A 
ATOM     56  C   UNL     1      11.567 -13.515  -0.124  1.00  0.00     0.001 A 
ATOM     57  C   UNL     1      10.883 -14.725  -0.015  1.00  0.00     0.000 A 
ENDBRANCH  39  52
ENDBRANCH  13  14
ENDBRANCH   6   8
ENDBRANCH   3   4
ENDBRANCH   2   3
ENDBRANCH   1   2
BRANCH   1  58
ATOM     58  C   UNL     1       5.017   4.512   0.035  1.00  0.00     0.002 C 
BRANCH  58  59
ATOM     59  C   UNL     1       6.550   4.521   0.093  1.00  0.00     0.021 C 
BRANCH  59  60
ATOM     60  C   UNL     1       7.259   5.121  -1.122  1.00  0.00     0.116 C 
BRANCH  60  61
ATOM     61  N   UNL     1       6.900   6.508  -1.347  1.00  0.00    -0.352 N 
ATOM     62  C   UNL     1       7.686   7.620  -1.514  1.00  0.00     0.251 C 
ATOM     63  H   UNL     1       5.932   6.681  -1.386  1.00  0.00     0.163 HD
ATOM     64  O   UNL     1       7.158   8.729  -1.546  1.00  0.00    -0.269 OA
BRANCH  62  65
ATOM     65  C   UNL     1       9.159   7.518  -1.631  1.00  0.00     0.039 A 
ATOM     66  C   UNL     1       9.942   8.427  -0.920  1.00  0.00     0.016 A 
ATOM     67  C   UNL     1       9.782   6.596  -2.470  1.00  0.00     0.016 A 
ATOM     68  C   UNL     1      11.340   8.374  -1.001  1.00  0.00     0.027 A 
ATOM     69  C   UNL     1      11.183   6.541  -2.538  1.00  0.00     0.027 A 
ATOM     70  C   UNL     1      11.994   7.427  -1.805  1.00  0.00     0.051 A 
BRANCH  70  71
ATOM     71  N   UNL     1      13.427   7.298  -1.804  1.00  0.00    -0.261 N 
ATOM     72  C   UNL     1      14.155   7.532  -0.634  1.00  0.00     0.270 C 
ATOM     73  C   UNL     1      14.213   6.985  -2.908  1.00  0.00     0.152 C 
ATOM     74  O   UNL     1      13.875   8.265   0.297  1.00  0.00    -0.268 OA
ATOM     75  C   UNL     1      15.475   6.846  -0.737  1.00  0.00     0.081 C 
ATOM     76  S   UNL     1      15.903   6.782  -2.407  1.00  0.00    -0.054 SA
ATOM     77  S   UNL     1      13.819   6.882  -4.532  1.00  0.00    -0.051 S 
ATOM     78  C   UNL     1      16.158   6.156   0.190  1.00  0.00     0.028 C 
BRANCH  78  79
ATOM     79  C   UNL     1      15.743   5.712   1.528  1.00  0.00    -0.009 C 
ATOM     80  C   UNL     1      14.751   6.277   2.246  1.00  0.00     0.019 C 
ATOM     81  C   UNL     1      15.713   4.188   1.611  1.00  0.00     0.265 C 
ATOM     82  C   UNL     1      13.436   5.656   1.903  1.00  0.00     0.017 A 
ATOM     83  O   UNL     1      14.528   3.680   0.958  1.00  0.00    -0.488 OA
ATOM     84  C   UNL     1      12.250   6.350   2.148  1.00  0.00     0.012 A 
ATOM     85  C   UNL     1      13.396   4.420   1.228  1.00  0.00     0.127 A 
ATOM     86  C   UNL     1      11.040   5.846   1.669  1.00  0.00     0.001 A 
ATOM     87  C   UNL     1      12.190   3.929   0.736  1.00  0.00     0.047 A 
ATOM     88  C   UNL     1      11.014   4.648   0.951  1.00  0.00     0.004 A 
ENDBRANCH  78  79
ENDBRANCH  70  71
ENDBRANCH  62  65
ENDBRANCH  60  61
ENDBRANCH  59  60
ENDBRANCH  58  59
ENDBRANCH   1  58
TORSDOF 15
