REMARK SMILES CC1=C(C)C[C@H](C(=O)N[C@@H](C)CCc2ccccc2)[C@@H](C(=O)NCCCCCCNC(=O)c2ccc(-c3c4nc(c(-c5ccccc5)c5ccc([nH]5)c(-c5ccccc5)c5nc(c(-c6ccccc6)c6ccc3[nH]6)C=C5)C=C4)cc2)C1
REMARK SMILES IDX 25 1 24 2 23 3 21 4 22 5 20 7 1 8 2 9 3 10 81 11 4 12 5 13
REMARK SMILES IDX 6 14 7 15 8 16 9 17 10 19 11 20 12 21 13 22 14 23 15 24
REMARK SMILES IDX 19 25 16 26 18 27 17 28 26 29 27 30 28 31 29 32 30 33 31 34
REMARK SMILES IDX 32 36 33 37 34 38 80 39 35 40 79 41 36 42 37 43 38 44 73 45
REMARK SMILES IDX 39 46 78 47 72 48 74 49 40 50 77 51 71 52 70 53 41 55 63 56
REMARK SMILES IDX 48 57 62 58 49 59 52 60 61 61 75 62 50 63 51 64 60 66 76 67
REMARK SMILES IDX 53 68 42 69 43 70 47 71 44 72 46 73 45 74 64 75 65 76 69 77
REMARK SMILES IDX 66 78 68 79 67 80 54 81 55 82 59 83 56 84 58 85 57 86
REMARK H PARENT 23 6 9 18 30 35 74 54 52 65
REMARK Flexibility Score: inf
ROOT
ATOM      1  C   UNL     1       1.988   7.175   1.622  1.00  0.00     0.021 C 
ENDROOT
BRANCH   1   2
ATOM      2  C   UNL     1       2.087   5.968   0.684  1.00  0.00     0.116 C 
BRANCH   2   3
ATOM      3  N   UNL     1       2.528   4.781   1.398  1.00  0.00    -0.356 N 
ATOM      4  C   UNL     1       1.903   3.607   1.703  1.00  0.00     0.224 C 
ATOM      5  O   UNL     1       2.549   2.780   2.351  1.00  0.00    -0.275 OA
ATOM      6  H   UNL     1       3.456   4.833   1.723  1.00  0.00     0.163 HD
BRANCH   4   7
ATOM      7  C   UNL     1       0.467   3.317   1.250  1.00  0.00     0.095 C 
ATOM      8  C   UNL     1       0.751  -0.234  -0.378  1.00  0.00     0.039 C 
ATOM      9  C   UNL     1       0.334   0.779   0.660  1.00  0.00    -0.074 C 
ATOM     10  C   UNL     1      -0.138   0.479   1.887  1.00  0.00    -0.074 C 
ATOM     11  C   UNL     1       0.503   2.207   0.192  1.00  0.00     0.045 C 
ATOM     12  C   UNL     1      -0.400  -0.914   2.409  1.00  0.00     0.039 C 
ATOM     13  C   UNL     1      -0.440   1.540   2.917  1.00  0.00     0.045 C 
ATOM     14  C   UNL     1      -0.391   3.015   2.485  1.00  0.00     0.095 C 
BRANCH  14  15
ATOM     15  C   UNL     1      -1.804   3.602   2.463  1.00  0.00     0.224 C 
ATOM     16  O   UNL     1      -2.794   2.952   2.131  1.00  0.00    -0.275 OA
ATOM     17  N   UNL     1      -2.003   4.886   2.915  1.00  0.00    -0.353 N 
ATOM     18  H   UNL     1      -2.827   5.053   3.427  1.00  0.00     0.163 HD
BRANCH  17  19
ATOM     19  C   UNL     1      -1.115   6.021   2.711  1.00  0.00     0.079 C 
ATOM     20  C   UNL     1      -1.581   6.705   1.413  1.00  0.00     0.031 C 
BRANCH  19  21
ATOM     21  C   UNL     1      -1.105   7.055   3.854  1.00  0.00     0.029 C 
BRANCH  21  22
ATOM     22  C   UNL     1      -0.702   6.565   5.253  1.00  0.00     0.037 C 
BRANCH  22  23
ATOM     23  C   UNL     1       0.668   5.948   5.385  1.00  0.00    -0.048 A 
ATOM     24  C   UNL     1       0.790   4.558   5.504  1.00  0.00     0.004 A 
ATOM     25  C   UNL     1       1.834   6.724   5.415  1.00  0.00     0.004 A 
ATOM     26  C   UNL     1       2.044   3.949   5.566  1.00  0.00     0.000 A 
ATOM     27  C   UNL     1       3.092   6.116   5.509  1.00  0.00     0.000 A 
ATOM     28  C   UNL     1       3.196   4.727   5.565  1.00  0.00     0.000 A 
ENDBRANCH  22  23
ENDBRANCH  21  22
ENDBRANCH  19  21
ENDBRANCH  17  19
ENDBRANCH  14  15
ENDBRANCH   4   7
ENDBRANCH   2   3
ENDBRANCH   1   2
BRANCH   1  29
ATOM     29  C   UNL     1       3.191   8.117   1.635  1.00  0.00     0.002 C 
BRANCH  29  30
ATOM     30  C   UNL     1       3.437   8.884   0.331  1.00  0.00     0.002 C 
BRANCH  30  31
ATOM     31  C   UNL     1       2.232   9.623  -0.265  1.00  0.00     0.021 C 
BRANCH  31  32
ATOM     32  C   UNL     1       1.535  10.620   0.660  1.00  0.00     0.116 C 
BRANCH  32  33
ATOM     33  N   UNL     1       2.418  11.693   1.087  1.00  0.00    -0.352 N 
ATOM     34  C   UNL     1       2.434  13.026   0.764  1.00  0.00     0.251 C 
ATOM     35  H   UNL     1       3.124  11.416   1.714  1.00  0.00     0.163 HD
ATOM     36  O   UNL     1       3.400  13.711   1.086  1.00  0.00    -0.269 OA
BRANCH  34  37
ATOM     37  C   UNL     1       1.315  13.656   0.025  1.00  0.00     0.039 A 
ATOM     38  C   UNL     1       1.619  14.589  -0.973  1.00  0.00     0.014 A 
ATOM     39  C   UNL     1      -0.021  13.403   0.352  1.00  0.00     0.014 A 
ATOM     40  C   UNL     1       0.591  15.227  -1.673  1.00  0.00     0.010 A 
ATOM     41  C   UNL     1      -1.046  13.994  -0.390  1.00  0.00     0.010 A 
ATOM     42  C   UNL     1      -0.752  14.918  -1.405  1.00  0.00    -0.014 A 
BRANCH  42  43
ATOM     43  C   UNL     1      -1.850  15.554  -2.179  1.00  0.00     0.031 A 
ATOM     44  C   UNL     1      -2.819  16.491  -1.509  1.00  0.00     0.074 A 
ATOM     45  C   UNL     1      -2.003  15.258  -3.484  1.00  0.00     0.049 A 
ATOM     46  N   UNL     1      -3.847  17.120  -2.022  1.00  0.00    -0.248 NA
ATOM     47  C   UNL     1      -2.619  16.737  -0.073  1.00  0.00     0.031 C 
ATOM     48  C   UNL     1      -1.157  14.341  -4.249  1.00  0.00     0.029 A 
ATOM     49  N   UNL     1      -2.929  15.698  -4.397  1.00  0.00    -0.354 N 
ATOM     50  C   UNL     1      -4.424  17.823  -0.971  1.00  0.00     0.074 A 
ATOM     51  C   UNL     1      -3.658  17.508   0.216  1.00  0.00     0.031 C 
ATOM     52  C   UNL     1      -1.583  14.309  -5.522  1.00  0.00     0.029 A 
ATOM     53  C   UNL     1      -2.751  15.175  -5.655  1.00  0.00     0.049 A 
ATOM     54  H   UNL     1      -3.651  16.328  -4.173  1.00  0.00     0.167 HD
ATOM     55  C   UNL     1      -5.483  18.669  -0.992  1.00  0.00     0.031 A 
ATOM     56  C   UNL     1      -3.448  15.369  -6.790  1.00  0.00     0.031 A 
ATOM     57  C   UNL     1      -6.243  18.994  -2.170  1.00  0.00     0.049 A 
ATOM     58  C   UNL     1      -4.624  16.304  -6.787  1.00  0.00     0.074 A 
ATOM     59  C   UNL     1      -7.299  19.880  -2.299  1.00  0.00     0.029 A 
ATOM     60  N   UNL     1      -6.031  18.441  -3.423  1.00  0.00    -0.354 N 
ATOM     61  N   UNL     1      -5.116  17.008  -5.797  1.00  0.00    -0.248 NA
ATOM     62  C   UNL     1      -5.333  16.478  -8.063  1.00  0.00     0.031 C 
ATOM     63  C   UNL     1      -7.755  19.830  -3.620  1.00  0.00     0.029 A 
ATOM     64  C   UNL     1      -6.950  18.950  -4.326  1.00  0.00     0.049 A 
ATOM     65  H   UNL     1      -5.331  17.784  -3.639  1.00  0.00     0.167 HD
ATOM     66  C   UNL     1      -6.175  17.728  -6.336  1.00  0.00     0.074 A 
ATOM     67  C   UNL     1      -6.243  17.386  -7.742  1.00  0.00     0.031 C 
ATOM     68  C   UNL     1      -7.014  18.596  -5.720  1.00  0.00     0.031 A 
BRANCH  55  69
ATOM     69  C   UNL     1      -5.887  19.298   0.314  1.00  0.00    -0.014 A 
ATOM     70  C   UNL     1      -5.092  20.281   0.925  1.00  0.00     0.009 A 
ATOM     71  C   UNL     1      -7.092  18.922   0.927  1.00  0.00     0.009 A 
ATOM     72  C   UNL     1      -5.474  20.844   2.144  1.00  0.00     0.001 A 
ATOM     73  C   UNL     1      -7.486  19.508   2.132  1.00  0.00     0.001 A 
ATOM     74  C   UNL     1      -6.672  20.459   2.745  1.00  0.00     0.000 A 
ENDBRANCH  55  69
BRANCH  56  75
ATOM     75  C   UNL     1      -3.035  14.680  -8.040  1.00  0.00    -0.014 A 
ATOM     76  C   UNL     1      -2.433  15.401  -9.082  1.00  0.00     0.009 A 
ATOM     77  C   UNL     1      -3.239  13.300  -8.197  1.00  0.00     0.009 A 
ATOM     78  C   UNL     1      -2.063  14.759 -10.265  1.00  0.00     0.001 A 
ATOM     79  C   UNL     1      -2.844  12.656  -9.371  1.00  0.00     0.001 A 
ATOM     80  C   UNL     1      -2.265  13.387 -10.407  1.00  0.00     0.000 A 
ENDBRANCH  56  75
BRANCH  68  81
ATOM     81  C   UNL     1      -8.061  19.256  -6.572  1.00  0.00    -0.014 A 
ATOM     82  C   UNL     1      -9.173  18.542  -7.043  1.00  0.00     0.009 A 
ATOM     83  C   UNL     1      -7.943  20.619  -6.886  1.00  0.00     0.009 A 
ATOM     84  C   UNL     1     -10.129  19.172  -7.843  1.00  0.00     0.001 A 
ATOM     85  C   UNL     1      -8.915  21.253  -7.663  1.00  0.00     0.001 A 
ATOM     86  C   UNL     1     -10.001  20.527  -8.149  1.00  0.00     0.000 A 
ENDBRANCH  68  81
ENDBRANCH  42  43
ENDBRANCH  34  37
ENDBRANCH  32  33
ENDBRANCH  31  32
ENDBRANCH  30  31
ENDBRANCH  29  30
ENDBRANCH   1  29
TORSDOF 18
