REMARK SMILES CC(C)N(c1cc2c(cc1Cl)C=C(C(=O)NCCCCCCNC(=O)c1ccc(-c3c4nc(c(-c5ccccc5)c5ccc([nH]5)c(-c5ccccc5)c5nc(c(-c6ccccc6)c6ccc3[nH]6)C=C5)C=C4)cc1)[C@@H](C(F)(F)F)O2)C(C)C
REMARK SMILES IDX 19 1 18 2 17 3 16 4 14 5 15 6 13 8 5 9 6 10 10 11 7 12 9 13
REMARK SMILES IDX 11 14 8 15 79 16 12 17 74 18 4 19 2 20 1 21 3 22 80 23 81 24
REMARK SMILES IDX 82 25 75 26 76 27 77 28 78 29 20 30 21 31 22 32 23 33 24 34
REMARK SMILES IDX 25 36 26 37 27 38 73 39 28 40 72 41 29 42 30 43 31 44 66 45
REMARK SMILES IDX 32 46 71 47 65 48 67 49 33 50 70 51 64 52 63 53 34 55 56 56
REMARK SMILES IDX 41 57 55 58 42 59 45 60 54 61 68 62 43 63 44 64 53 66 69 67
REMARK SMILES IDX 46 68 35 69 36 70 40 71 37 72 39 73 38 74 57 75 58 76 62 77
REMARK SMILES IDX 59 78 61 79 60 80 47 81 48 82 52 83 49 84 51 85 50 86
REMARK H PARENT 16 7 23 35 67 54 45 65
REMARK Flexibility Score: inf
ROOT
ATOM      1  C   UNL     1      -8.098   3.351  -8.239  1.00  0.00     0.002 C 
ENDROOT
BRANCH   1   2
ATOM      2  C   UNL     1      -7.148   3.147  -7.055  1.00  0.00     0.021 C 
BRANCH   2   3
ATOM      3  C   UNL     1      -7.229   1.759  -6.426  1.00  0.00     0.116 C 
BRANCH   3   4
ATOM      4  N   UNL     1      -6.425   0.791  -7.150  1.00  0.00    -0.352 N 
ATOM      5  C   UNL     1      -5.383  -0.030  -6.888  1.00  0.00     0.251 C 
ATOM      6  O   UNL     1      -5.023  -0.737  -7.836  1.00  0.00    -0.270 OA
ATOM      7  H   UNL     1      -6.720   0.709  -8.086  1.00  0.00     0.163 HD
BRANCH   5   8
ATOM      8  C   UNL     1      -4.667  -0.132  -5.582  1.00  0.00     0.067 C 
ATOM      9  C   UNL     1      -1.382  -1.302  -1.888  1.00  0.00     0.060 A 
ATOM     10  C   UNL     1      -2.396  -0.343  -2.067  1.00  0.00     0.074 A 
ATOM     11  C   UNL     1      -1.116  -2.151  -2.989  1.00  0.00     0.065 A 
ATOM     12  C   UNL     1      -3.123  -0.253  -3.253  1.00  0.00     0.130 A 
ATOM     13  C   UNL     1      -1.815  -2.020  -4.202  1.00  0.00     0.034 A 
ATOM     14  Cl  UNL     1       0.009  -3.467  -2.917  1.00  0.00    -0.082 Cl
ATOM     15  C   UNL     1      -2.827  -1.072  -4.335  1.00  0.00     0.019 A 
ATOM     16  O   UNL     1      -4.101   0.695  -3.291  1.00  0.00    -0.475 OA
ATOM     17  C   UNL     1      -3.564  -0.904  -5.580  1.00  0.00     0.025 C 
ATOM     18  C   UNL     1      -5.123   0.526  -4.309  1.00  0.00     0.314 C 
BRANCH   9  19
ATOM     19  N   UNL     1      -0.721  -1.365  -0.644  1.00  0.00    -0.365 N 
BRANCH  19  20
ATOM     20  C   UNL     1       0.753  -1.229  -0.656  1.00  0.00     0.076 C 
ATOM     21  C   UNL     1       1.235   0.119  -0.122  1.00  0.00     0.030 C 
ATOM     22  C   UNL     1       1.467  -2.379   0.048  1.00  0.00     0.030 C 
ENDBRANCH  19  20
BRANCH  19  23
ATOM     23  C   UNL     1      -1.585  -1.401   0.560  1.00  0.00     0.076 C 
ATOM     24  C   UNL     1      -1.396  -2.670   1.385  1.00  0.00     0.030 C 
ATOM     25  C   UNL     1      -1.484  -0.150   1.428  1.00  0.00     0.030 C 
ENDBRANCH  19  23
ENDBRANCH   9  19
BRANCH  18  26
ATOM     26  C   UNL     1      -6.352  -0.169  -3.694  1.00  0.00     0.429 C 
ATOM     27  F   UNL     1      -6.926   0.625  -2.755  1.00  0.00    -0.167 F 
ATOM     28  F   UNL     1      -7.316  -0.428  -4.609  1.00  0.00    -0.167 F 
ATOM     29  F   UNL     1      -6.046  -1.343  -3.100  1.00  0.00    -0.167 F 
ENDBRANCH  18  26
ENDBRANCH   5   8
ENDBRANCH   3   4
ENDBRANCH   2   3
ENDBRANCH   1   2
BRANCH   1  30
ATOM     30  C   UNL     1      -9.579   3.073  -7.952  1.00  0.00     0.002 C 
BRANCH  30  31
ATOM     31  C   UNL     1     -10.146   3.736  -6.694  1.00  0.00     0.021 C 
BRANCH  31  32
ATOM     32  C   UNL     1     -10.019   5.253  -6.656  1.00  0.00     0.116 C 
BRANCH  32  33
ATOM     33  N   UNL     1     -10.749   5.903  -7.732  1.00  0.00    -0.352 N 
ATOM     34  C   UNL     1     -11.661   6.928  -7.676  1.00  0.00     0.251 C 
ATOM     35  H   UNL     1     -10.561   5.557  -8.635  1.00  0.00     0.163 HD
ATOM     36  O   UNL     1     -12.295   7.244  -8.679  1.00  0.00    -0.269 OA
BRANCH  34  37
ATOM     37  C   UNL     1     -11.903   7.633  -6.399  1.00  0.00     0.039 A 
ATOM     38  C   UNL     1     -10.840   7.996  -5.570  1.00  0.00     0.014 A 
ATOM     39  C   UNL     1     -13.216   7.934  -6.025  1.00  0.00     0.014 A 
ATOM     40  C   UNL     1     -11.098   8.506  -4.303  1.00  0.00     0.010 A 
ATOM     41  C   UNL     1     -13.468   8.533  -4.787  1.00  0.00     0.010 A 
ATOM     42  C   UNL     1     -12.414   8.783  -3.896  1.00  0.00    -0.014 A 
BRANCH  42  43
ATOM     43  C   UNL     1     -12.646   9.352  -2.543  1.00  0.00     0.031 A 
ATOM     44  C   UNL     1     -13.399   8.583  -1.493  1.00  0.00     0.074 A 
ATOM     45  C   UNL     1     -12.108  10.551  -2.243  1.00  0.00     0.049 A 
ATOM     46  N   UNL     1     -13.601   8.894  -0.236  1.00  0.00    -0.248 NA
ATOM     47  C   UNL     1     -14.009   7.306  -1.897  1.00  0.00     0.031 C 
ATOM     48  C   UNL     1     -11.361  11.394  -3.179  1.00  0.00     0.029 A 
ATOM     49  N   UNL     1     -12.071  11.250  -1.062  1.00  0.00    -0.354 N 
ATOM     50  C   UNL     1     -14.370   7.865   0.293  1.00  0.00     0.074 A 
ATOM     51  C   UNL     1     -14.627   6.934  -0.783  1.00  0.00     0.031 C 
ATOM     52  C   UNL     1     -10.878  12.457  -2.521  1.00  0.00     0.029 A 
ATOM     53  C   UNL     1     -11.332  12.406  -1.135  1.00  0.00     0.049 A 
ATOM     54  H   UNL     1     -12.529  10.952  -0.243  1.00  0.00     0.167 HD
ATOM     55  C   UNL     1     -14.809   7.706   1.564  1.00  0.00     0.031 A 
ATOM     56  C   UNL     1     -11.046  13.327  -0.196  1.00  0.00     0.031 A 
ATOM     57  C   UNL     1     -14.541   8.628   2.636  1.00  0.00     0.049 A 
ATOM     58  C   UNL     1     -11.562  13.137   1.200  1.00  0.00     0.074 A 
ATOM     59  C   UNL     1     -14.913   8.527   3.966  1.00  0.00     0.029 A 
ATOM     60  N   UNL     1     -13.842   9.817   2.505  1.00  0.00    -0.354 N 
ATOM     61  N   UNL     1     -12.254  12.138   1.691  1.00  0.00    -0.248 NA
ATOM     62  C   UNL     1     -11.259  14.196   2.171  1.00  0.00     0.031 C 
ATOM     63  C   UNL     1     -14.495   9.685   4.625  1.00  0.00     0.029 A 
ATOM     64  C   UNL     1     -13.800  10.475   3.724  1.00  0.00     0.049 A 
ATOM     65  H   UNL     1     -13.435  10.146   1.671  1.00  0.00     0.167 HD
ATOM     66  C   UNL     1     -12.465  12.444   3.028  1.00  0.00     0.074 A 
ATOM     67  C   UNL     1     -11.802  13.707   3.279  1.00  0.00     0.031 C 
ATOM     68  C   UNL     1     -13.152  11.740   3.961  1.00  0.00     0.031 A 
BRANCH  55  69
ATOM     69  C   UNL     1     -15.640   6.492   1.879  1.00  0.00    -0.014 A 
ATOM     70  C   UNL     1     -16.995   6.645   2.218  1.00  0.00     0.009 A 
ATOM     71  C   UNL     1     -15.067   5.212   1.940  1.00  0.00     0.009 A 
ATOM     72  C   UNL     1     -17.755   5.546   2.623  1.00  0.00     0.001 A 
ATOM     73  C   UNL     1     -15.838   4.110   2.319  1.00  0.00     0.001 A 
ATOM     74  C   UNL     1     -17.177   4.279   2.669  1.00  0.00     0.000 A 
ENDBRANCH  55  69
BRANCH  56  75
ATOM     75  C   UNL     1     -10.209  14.500  -0.563  1.00  0.00    -0.014 A 
ATOM     76  C   UNL     1     -10.696  15.472  -1.452  1.00  0.00     0.009 A 
ATOM     77  C   UNL     1      -8.896  14.618  -0.083  1.00  0.00     0.009 A 
ATOM     78  C   UNL     1      -9.877  16.518  -1.881  1.00  0.00     0.001 A 
ATOM     79  C   UNL     1      -8.089  15.684  -0.489  1.00  0.00     0.001 A 
ATOM     80  C   UNL     1      -8.575  16.625  -1.396  1.00  0.00     0.000 A 
ENDBRANCH  56  75
BRANCH  68  81
ATOM     81  C   UNL     1     -13.236  12.314   5.348  1.00  0.00    -0.014 A 
ATOM     82  C   UNL     1     -12.582  11.671   6.411  1.00  0.00     0.009 A 
ATOM     83  C   UNL     1     -14.038  13.433   5.619  1.00  0.00     0.009 A 
ATOM     84  C   UNL     1     -12.740  12.129   7.720  1.00  0.00     0.001 A 
ATOM     85  C   UNL     1     -14.169  13.907   6.926  1.00  0.00     0.001 A 
ATOM     86  C   UNL     1     -13.528  13.249   7.976  1.00  0.00     0.000 A 
ENDBRANCH  68  81
ENDBRANCH  42  43
ENDBRANCH  34  37
ENDBRANCH  32  33
ENDBRANCH  31  32
ENDBRANCH  30  31
ENDBRANCH   1  30
TORSDOF 17
