REMARK SMILES CCC(CC)(NC(=O)Nc1cc(Cl)cc(Cl)c1)C(=O)NCCCCCCNC(=O)c1ccc(-c2c3nc(c(-c4ccccc4)c4ccc([nH]4)c(-c4ccccc4)c4nc(c(-c5ccccc5)c5ccc2[nH]5)C=C4)C=C3)cc1
REMARK SMILES IDX 23 1 22 2 21 3 20 4 18 5 19 6 3 8 2 9 1 10 4 11 5 12 6 13
REMARK SMILES IDX 7 14 8 16 9 17 10 19 11 20 17 21 12 22 15 23 13 24 14 25
REMARK SMILES IDX 16 26 24 27 25 28 26 29 27 30 28 31 29 33 30 34 31 35 77 36
REMARK SMILES IDX 32 37 76 38 33 39 34 40 35 41 70 42 36 43 75 44 69 45 71 46
REMARK SMILES IDX 37 47 74 48 68 49 67 50 38 52 60 53 45 54 59 55 46 56 49 57
REMARK SMILES IDX 58 58 72 59 47 60 48 61 57 63 73 64 50 65 39 66 40 67 44 68
REMARK SMILES IDX 41 69 43 70 42 71 61 72 62 73 66 74 63 75 65 76 64 77 51 78
REMARK SMILES IDX 52 79 56 80 53 81 55 82 54 83
REMARK H PARENT 20 7 6 15 9 18 27 32 71 51 49 62
REMARK Flexibility Score: inf
ROOT
ATOM      1  C   UNL     1       3.975  -5.073   3.732  1.00  0.00     0.002 C 
ENDROOT
BRANCH   1   2
ATOM      2  C   UNL     1       2.438  -5.138   3.760  1.00  0.00     0.021 C 
BRANCH   2   3
ATOM      3  C   UNL     1       1.690  -3.804   3.969  1.00  0.00     0.116 C 
BRANCH   3   4
ATOM      4  N   UNL     1       2.287  -2.740   3.172  1.00  0.00    -0.354 N 
ATOM      5  C   UNL     1       1.714  -1.674   2.485  1.00  0.00     0.245 C 
ATOM      6  O   UNL     1       1.996  -0.510   2.755  1.00  0.00    -0.272 OA
ATOM      7  H   UNL     1       3.268  -2.783   3.108  1.00  0.00     0.163 HD
BRANCH   5   8
ATOM      8  C   UNL     1       0.646  -2.067   1.442  1.00  0.00     0.120 C 
BRANCH   8   9
ATOM      9  C   UNL     1       0.469  -1.329   0.100  1.00  0.00     0.035 C 
ATOM     10  C   UNL     1       0.587   0.177   0.082  1.00  0.00     0.007 C 
ENDBRANCH   8   9
BRANCH   8  11
ATOM     11  C   UNL     1      -0.607  -1.841   2.383  1.00  0.00     0.035 C 
ATOM     12  C   UNL     1      -2.033  -1.879   1.878  1.00  0.00     0.007 C 
ENDBRANCH   8  11
BRANCH   8  13
ATOM     13  N   UNL     1       0.988  -3.470   1.084  1.00  0.00    -0.323 N 
ATOM     14  C   UNL     1       2.046  -4.051   0.482  1.00  0.00     0.320 C 
ATOM     15  H   UNL     1       0.290  -4.114   1.342  1.00  0.00     0.166 HD
ATOM     16  O   UNL     1       1.871  -5.223   0.124  1.00  0.00    -0.248 OA
ATOM     17  N   UNL     1       3.262  -3.532   0.189  1.00  0.00    -0.308 N 
ATOM     18  H   UNL     1       3.753  -4.204  -0.337  1.00  0.00     0.171 HD
BRANCH  17  19
ATOM     19  C   UNL     1       4.110  -2.398   0.342  1.00  0.00     0.045 A 
ATOM     20  C   UNL     1       4.474  -1.725   1.512  1.00  0.00     0.046 A 
ATOM     21  C   UNL     1       4.819  -2.017  -0.803  1.00  0.00     0.046 A 
ATOM     22  C   UNL     1       5.249  -0.556   1.501  1.00  0.00     0.044 A 
ATOM     23  C   UNL     1       5.646  -0.882  -0.811  1.00  0.00     0.044 A 
ATOM     24  Cl  UNL     1       5.535   0.297   2.972  1.00  0.00    -0.084 Cl
ATOM     25  C   UNL     1       5.812  -0.105   0.326  1.00  0.00     0.041 A 
ATOM     26  Cl  UNL     1       6.477  -0.446  -2.252  1.00  0.00    -0.084 Cl
ENDBRANCH  17  19
ENDBRANCH   8  13
ENDBRANCH   5   8
ENDBRANCH   3   4
ENDBRANCH   2   3
ENDBRANCH   1   2
BRANCH   1  27
ATOM     27  C   UNL     1       4.617  -4.372   4.928  1.00  0.00     0.002 C 
BRANCH  27  28
ATOM     28  C   UNL     1       4.167  -4.912   6.280  1.00  0.00     0.021 C 
BRANCH  28  29
ATOM     29  C   UNL     1       4.341  -6.414   6.440  1.00  0.00     0.116 C 
BRANCH  29  30
ATOM     30  N   UNL     1       5.734  -6.810   6.521  1.00  0.00    -0.352 N 
ATOM     31  C   UNL     1       6.315  -7.677   7.419  1.00  0.00     0.251 C 
ATOM     32  H   UNL     1       6.337  -6.410   5.853  1.00  0.00     0.163 HD
ATOM     33  O   UNL     1       7.525  -7.803   7.478  1.00  0.00    -0.269 OA
BRANCH  31  34
ATOM     34  C   UNL     1       5.437  -8.433   8.341  1.00  0.00     0.039 A 
ATOM     35  C   UNL     1       5.743  -8.446   9.702  1.00  0.00     0.014 A 
ATOM     36  C   UNL     1       4.297  -9.089   7.865  1.00  0.00     0.014 A 
ATOM     37  C   UNL     1       4.880  -9.084  10.594  1.00  0.00     0.010 A 
ATOM     38  C   UNL     1       3.393  -9.644   8.765  1.00  0.00     0.010 A 
ATOM     39  C   UNL     1       3.684  -9.666  10.137  1.00  0.00    -0.014 A 
BRANCH  39  40
ATOM     40  C   UNL     1       2.752 -10.338  11.077  1.00  0.00     0.031 A 
ATOM     41  C   UNL     1       2.482 -11.813  10.939  1.00  0.00     0.074 A 
ATOM     42  C   UNL     1       2.127  -9.625  12.035  1.00  0.00     0.049 A 
ATOM     43  N   UNL     1       1.683 -12.577  11.642  1.00  0.00    -0.248 NA
ATOM     44  C   UNL     1       3.185 -12.521   9.855  1.00  0.00     0.031 C 
ATOM     45  C   UNL     1       2.271  -8.184  12.253  1.00  0.00     0.029 A 
ATOM     46  N   UNL     1       1.244 -10.020  13.009  1.00  0.00    -0.354 N 
ATOM     47  C   UNL     1       1.790 -13.845  11.085  1.00  0.00     0.074 A 
ATOM     48  C   UNL     1       2.669 -13.736   9.944  1.00  0.00     0.031 C 
ATOM     49  C   UNL     1       1.527  -7.823  13.312  1.00  0.00     0.029 A 
ATOM     50  C   UNL     1       0.824  -8.995  13.823  1.00  0.00     0.049 A 
ATOM     51  H   UNL     1       0.940 -10.951  13.114  1.00  0.00     0.167 HD
ATOM     52  C   UNL     1       1.234 -15.007  11.504  1.00  0.00     0.031 A 
ATOM     53  C   UNL     1      -0.035  -9.000  14.860  1.00  0.00     0.031 A 
ATOM     54  C   UNL     1       0.359 -15.121  12.639  1.00  0.00     0.049 A 
ATOM     55  C   UNL     1      -0.664 -10.300  15.285  1.00  0.00     0.074 A 
ATOM     56  C   UNL     1      -0.242 -16.256  13.154  1.00  0.00     0.029 A 
ATOM     57  N   UNL     1      -0.035 -14.060  13.439  1.00  0.00    -0.354 N 
ATOM     58  N   UNL     1      -0.511 -11.500  14.778  1.00  0.00    -0.248 NA
ATOM     59  C   UNL     1      -1.570 -10.248  16.441  1.00  0.00     0.031 C 
ATOM     60  C   UNL     1      -1.039 -15.875  14.238  1.00  0.00     0.029 A 
ATOM     61  C   UNL     1      -0.879 -14.513  14.438  1.00  0.00     0.049 A 
ATOM     62  H   UNL     1       0.243 -13.124  13.314  1.00  0.00     0.167 HD
ATOM     63  C   UNL     1      -1.267 -12.348  15.578  1.00  0.00     0.074 A 
ATOM     64  C   UNL     1      -1.861 -11.528  16.613  1.00  0.00     0.031 C 
ATOM     65  C   UNL     1      -1.452 -13.687  15.469  1.00  0.00     0.031 A 
BRANCH  52  66
ATOM     66  C   UNL     1       1.572 -16.253  10.731  1.00  0.00    -0.014 A 
ATOM     67  C   UNL     1       2.867 -16.797  10.768  1.00  0.00     0.009 A 
ATOM     68  C   UNL     1       0.581 -16.913   9.990  1.00  0.00     0.009 A 
ATOM     69  C   UNL     1       3.170 -17.956  10.052  1.00  0.00     0.001 A 
ATOM     70  C   UNL     1       0.879 -18.091   9.300  1.00  0.00     0.001 A 
ATOM     71  C   UNL     1       2.174 -18.606   9.324  1.00  0.00     0.000 A 
ENDBRANCH  52  66
BRANCH  53  72
ATOM     72  C   UNL     1      -0.355  -7.738  15.581  1.00  0.00    -0.014 A 
ATOM     73  C   UNL     1       0.032  -7.554  16.918  1.00  0.00     0.009 A 
ATOM     74  C   UNL     1      -1.094  -6.726  14.948  1.00  0.00     0.009 A 
ATOM     75  C   UNL     1      -0.356  -6.409  17.619  1.00  0.00     0.001 A 
ATOM     76  C   UNL     1      -1.449  -5.566  15.639  1.00  0.00     0.001 A 
ATOM     77  C   UNL     1      -1.094  -5.415  16.978  1.00  0.00     0.000 A 
ENDBRANCH  53  72
BRANCH  65  78
ATOM     78  C   UNL     1      -2.277 -14.357  16.533  1.00  0.00    -0.014 A 
ATOM     79  C   UNL     1      -3.661 -14.147  16.635  1.00  0.00     0.009 A 
ATOM     80  C   UNL     1      -1.655 -15.234  17.435  1.00  0.00     0.009 A 
ATOM     81  C   UNL     1      -4.395 -14.766  17.650  1.00  0.00     0.001 A 
ATOM     82  C   UNL     1      -2.397 -15.879  18.425  1.00  0.00     0.001 A 
ATOM     83  C   UNL     1      -3.764 -15.633  18.541  1.00  0.00     0.000 A 
ENDBRANCH  65  78
ENDBRANCH  39  40
ENDBRANCH  31  34
ENDBRANCH  29  30
ENDBRANCH  28  29
ENDBRANCH  27  28
ENDBRANCH   1  27
TORSDOF 17
