REMARK SMILES CC[N@H+](Cc1ccc(Br)c(C)c1)[C@H]1COC[C@@H]1C(=O)NCCCCCCNC(=O)c1ccc(-c2c3nc(c(-c4ccccc4)c4ccc([nH]4)c(-c4ccccc4)c4nc(c(-c5ccccc5)c5ccc2[nH]5)C=C4)C=C3)cc1
REMARK SMILES IDX 23 1 22 2 21 3 20 4 18 5 19 6 17 8 13 9 14 10 15 11 16 12
REMARK SMILES IDX 3 13 2 15 1 16 4 17 5 18 6 19 12 20 7 21 10 22 8 23 11 24
REMARK SMILES IDX 9 25 24 26 25 27 26 28 27 29 28 30 29 32 30 33 31 34 77 35
REMARK SMILES IDX 32 36 76 37 33 38 34 39 35 40 70 41 36 42 75 43 69 44 71 45
REMARK SMILES IDX 37 46 74 47 68 48 67 49 38 51 60 52 45 53 59 54 46 55 49 56
REMARK SMILES IDX 58 57 72 58 47 59 48 60 57 62 73 63 50 64 39 65 40 66 44 67
REMARK SMILES IDX 41 68 43 69 42 70 61 71 62 72 66 73 63 74 65 75 64 76 51 77
REMARK SMILES IDX 52 78 56 79 53 80 55 81 54 82
REMARK H PARENT 20 7 3 14 27 31 71 50 49 61
REMARK Flexibility Score: inf
ROOT
ATOM      1  C   UNL     1      -1.849   3.200   3.651  1.00  0.00     0.002 C 
ENDROOT
BRANCH   1   2
ATOM      2  C   UNL     1      -0.846   2.660   2.625  1.00  0.00     0.021 C 
BRANCH   2   3
ATOM      3  C   UNL     1       0.581   3.194   2.767  1.00  0.00     0.116 C 
BRANCH   3   4
ATOM      4  N   UNL     1       1.157   2.797   4.035  1.00  0.00    -0.356 N 
ATOM      5  C   UNL     1       2.258   2.041   4.301  1.00  0.00     0.231 C 
ATOM      6  O   UNL     1       2.488   1.790   5.484  1.00  0.00    -0.274 OA
ATOM      7  H   UNL     1       0.678   3.126   4.830  1.00  0.00     0.163 HD
BRANCH   5   8
ATOM      8  C   UNL     1       3.143   1.552   3.156  1.00  0.00     0.164 C 
ATOM      9  C   UNL     1       2.495   0.370   2.425  1.00  0.00     0.225 C 
ATOM     10  C   UNL     1       3.022  -0.803   3.264  1.00  0.00     0.226 C 
ATOM     11  O   UNL     1       4.360  -0.461   3.647  1.00  0.00    -0.374 OA
ATOM     12  C   UNL     1       4.444   0.975   3.709  1.00  0.00     0.180 C 
BRANCH   9  13
ATOM     13  N   UNL     1       2.800   0.354   0.950  1.00  0.00    -0.326 N 
ATOM     14  H   UNL     1       2.795   1.330   0.652  1.00  0.00     0.348 HD
BRANCH  13  15
ATOM     15  C   UNL     1       1.763  -0.380   0.189  1.00  0.00     0.259 C 
ATOM     16  C   UNL     1       0.379   0.263   0.209  1.00  0.00     0.071 C 
ENDBRANCH  13  15
BRANCH  13  17
ATOM     17  C   UNL     1       4.149  -0.198   0.647  1.00  0.00     0.299 C 
BRANCH  17  18
ATOM     18  C   UNL     1       4.576  -0.153  -0.812  1.00  0.00     0.007 A 
ATOM     19  C   UNL     1       4.388  -1.273  -1.636  1.00  0.00     0.011 A 
ATOM     20  C   UNL     1       5.197   0.984  -1.350  1.00  0.00     0.014 A 
ATOM     21  C   UNL     1       4.787  -1.248  -2.971  1.00  0.00     0.016 A 
ATOM     22  C   UNL     1       5.641   1.011  -2.686  1.00  0.00    -0.036 A 
ATOM     23  C   UNL     1       5.412  -0.115  -3.493  1.00  0.00     0.020 A 
ATOM     24  C   UNL     1       6.355   2.229  -3.200  1.00  0.00     0.045 C 
ATOM     25  Br  UNL     1       5.935  -0.170  -5.319  1.00  0.00    -0.051 Br
ENDBRANCH  17  18
ENDBRANCH  13  17
ENDBRANCH   9  13
ENDBRANCH   5   8
ENDBRANCH   3   4
ENDBRANCH   2   3
ENDBRANCH   1   2
BRANCH   1  26
ATOM     26  C   UNL     1      -2.005   4.722   3.682  1.00  0.00     0.002 C 
BRANCH  26  27
ATOM     27  C   UNL     1      -2.374   5.367   2.345  1.00  0.00     0.021 C 
BRANCH  27  28
ATOM     28  C   UNL     1      -3.656   4.841   1.707  1.00  0.00     0.116 C 
BRANCH  28  29
ATOM     29  N   UNL     1      -4.833   5.102   2.521  1.00  0.00    -0.352 N 
ATOM     30  C   UNL     1      -6.012   5.715   2.179  1.00  0.00     0.251 C 
ATOM     31  H   UNL     1      -4.775   4.795   3.454  1.00  0.00     0.163 HD
ATOM     32  O   UNL     1      -6.835   5.997   3.048  1.00  0.00    -0.269 OA
BRANCH  30  33
ATOM     33  C   UNL     1      -6.288   6.063   0.769  1.00  0.00     0.039 A 
ATOM     34  C   UNL     1      -6.807   7.327   0.476  1.00  0.00     0.014 A 
ATOM     35  C   UNL     1      -6.040   5.151  -0.261  1.00  0.00     0.014 A 
ATOM     36  C   UNL     1      -7.011   7.701  -0.854  1.00  0.00     0.010 A 
ATOM     37  C   UNL     1      -6.178   5.550  -1.589  1.00  0.00     0.010 A 
ATOM     38  C   UNL     1      -6.662   6.830  -1.899  1.00  0.00    -0.014 A 
BRANCH  38  39
ATOM     39  C   UNL     1      -6.773   7.252  -3.319  1.00  0.00     0.031 A 
ATOM     40  C   UNL     1      -7.722   6.552  -4.252  1.00  0.00     0.074 A 
ATOM     41  C   UNL     1      -5.970   8.229  -3.786  1.00  0.00     0.049 A 
ATOM     42  N   UNL     1      -7.915   6.748  -5.533  1.00  0.00    -0.248 NA
ATOM     43  C   UNL     1      -8.546   5.476  -3.679  1.00  0.00     0.031 C 
ATOM     44  C   UNL     1      -4.978   8.962  -2.996  1.00  0.00     0.029 A 
ATOM     45  N   UNL     1      -5.856   8.769  -5.043  1.00  0.00    -0.354 N 
ATOM     46  C   UNL     1      -8.868   5.814  -5.919  1.00  0.00     0.074 A 
ATOM     47  C   UNL     1      -9.181   5.021  -4.750  1.00  0.00     0.031 C 
ATOM     48  C   UNL     1      -4.377   9.872  -3.779  1.00  0.00     0.029 A 
ATOM     49  C   UNL     1      -4.907   9.759  -5.134  1.00  0.00     0.049 A 
ATOM     50  H   UNL     1      -6.403   8.475  -5.807  1.00  0.00     0.167 HD
ATOM     51  C   UNL     1      -9.445   5.643  -7.132  1.00  0.00     0.031 A 
ATOM     52  C   UNL     1      -4.501  10.489  -6.190  1.00  0.00     0.031 A 
ATOM     53  C   UNL     1      -9.141   6.435  -8.294  1.00  0.00     0.049 A 
ATOM     54  C   UNL     1      -5.143  10.264  -7.530  1.00  0.00     0.074 A 
ATOM     55  C   UNL     1      -9.715   6.374  -9.553  1.00  0.00     0.029 A 
ATOM     56  N   UNL     1      -8.176   7.429  -8.343  1.00  0.00    -0.354 N 
ATOM     57  N   UNL     1      -6.095   9.425  -7.860  1.00  0.00    -0.248 NA
ATOM     58  C   UNL     1      -4.660  11.095  -8.642  1.00  0.00     0.031 C 
ATOM     59  C   UNL     1      -9.058   7.292 -10.378  1.00  0.00     0.029 A 
ATOM     60  C   UNL     1      -8.118   7.968  -9.617  1.00  0.00     0.049 A 
ATOM     61  H   UNL     1      -7.615   7.710  -7.584  1.00  0.00     0.167 HD
ATOM     62  C   UNL     1      -6.344   9.647  -9.208  1.00  0.00     0.074 A 
ATOM     63  C   UNL     1      -5.457  10.711  -9.630  1.00  0.00     0.031 C 
ATOM     64  C   UNL     1      -7.230   9.026 -10.024  1.00  0.00     0.031 A 
BRANCH  51  65
ATOM     65  C   UNL     1     -10.464   4.546  -7.269  1.00  0.00    -0.014 A 
ATOM     66  C   UNL     1     -11.726   4.644  -6.660  1.00  0.00     0.009 A 
ATOM     67  C   UNL     1     -10.178   3.421  -8.058  1.00  0.00     0.009 A 
ATOM     68  C   UNL     1     -12.666   3.622  -6.812  1.00  0.00     0.001 A 
ATOM     69  C   UNL     1     -11.130   2.415  -8.232  1.00  0.00     0.001 A 
ATOM     70  C   UNL     1     -12.370   2.512  -7.602  1.00  0.00     0.000 A 
ENDBRANCH  51  65
BRANCH  52  71
ATOM     71  C   UNL     1      -3.432  11.509  -6.026  1.00  0.00    -0.014 A 
ATOM     72  C   UNL     1      -3.730  12.877  -6.125  1.00  0.00     0.009 A 
ATOM     73  C   UNL     1      -2.105  11.120  -5.785  1.00  0.00     0.009 A 
ATOM     74  C   UNL     1      -2.716  13.832  -6.018  1.00  0.00     0.001 A 
ATOM     75  C   UNL     1      -1.099  12.079  -5.646  1.00  0.00     0.001 A 
ATOM     76  C   UNL     1      -1.403  13.433  -5.774  1.00  0.00     0.000 A 
ENDBRANCH  52  71
BRANCH  64  77
ATOM     77  C   UNL     1      -7.308   9.504 -11.447  1.00  0.00    -0.014 A 
ATOM     78  C   UNL     1      -6.280   9.239 -12.365  1.00  0.00     0.009 A 
ATOM     79  C   UNL     1      -8.446  10.201 -11.883  1.00  0.00     0.009 A 
ATOM     80  C   UNL     1      -6.376   9.692 -13.682  1.00  0.00     0.001 A 
ATOM     81  C   UNL     1      -8.553  10.626 -13.208  1.00  0.00     0.001 A 
ATOM     82  C   UNL     1      -7.513  10.380 -14.104  1.00  0.00     0.000 A 
ENDBRANCH  64  77
ENDBRANCH  38  39
ENDBRANCH  30  33
ENDBRANCH  28  29
ENDBRANCH  27  28
ENDBRANCH  26  27
ENDBRANCH   1  26
TORSDOF 17
