REMARK SMILES CCC[NH2+][C@H]1C[C@@H](C(=O)NCCCCCCNC(=O)c2ccc(-c3c4nc(c(-c5ccccc5)c5ccc([nH]5)c(-c5ccccc5)c5nc(c(-c6ccccc6)c6ccc3[nH]6)C=C5)C=C4)cc2)C1
REMARK SMILES IDX 13 1 12 2 11 3 10 4 8 5 9 6 7 8 5 9 68 10 6 11 4 12 3 15
REMARK SMILES IDX 2 16 1 17 14 18 15 19 16 20 17 21 18 22 19 24 20 25 21 26
REMARK SMILES IDX 67 27 22 28 66 29 23 30 24 31 25 32 60 33 26 34 65 35 59 36
REMARK SMILES IDX 61 37 27 38 64 39 58 40 57 41 28 43 50 44 35 45 49 46 36 47
REMARK SMILES IDX 39 48 48 49 62 50 37 51 38 52 47 54 63 55 40 56 29 57 30 58
REMARK SMILES IDX 34 59 31 60 33 61 32 62 51 63 52 64 56 65 53 66 55 67 54 68
REMARK SMILES IDX 41 69 42 70 46 71 43 72 45 73 44 74
REMARK H PARENT 10 7 4 13 4 14 17 23 61 42 39 53
REMARK Flexibility Score: inf
ROOT
ATOM      1  C   UNL     1       6.753  -1.354  -2.418  1.00  0.00     0.002 C 
ENDROOT
BRANCH   1   2
ATOM      2  C   UNL     1       5.221  -1.364  -2.471  1.00  0.00     0.021 C 
BRANCH   2   3
ATOM      3  C   UNL     1       4.610  -0.132  -3.135  1.00  0.00     0.116 C 
BRANCH   3   4
ATOM      4  N   UNL     1       4.907  -0.095  -4.552  1.00  0.00    -0.356 N 
ATOM      5  C   UNL     1       4.086  -0.086  -5.652  1.00  0.00     0.223 C 
ATOM      6  O   UNL     1       4.661  -0.114  -6.750  1.00  0.00    -0.275 OA
ATOM      7  H   UNL     1       5.869  -0.071  -4.764  1.00  0.00     0.163 HD
BRANCH   5   8
ATOM      8  C   UNL     1       2.553  -0.004  -5.534  1.00  0.00     0.090 C 
ATOM      9  C   UNL     1       0.842   0.129  -4.219  1.00  0.00     0.183 C 
ATOM     10  C   UNL     1       1.921   1.124  -4.692  1.00  0.00     0.078 C 
ATOM     11  C   UNL     1       1.746  -1.031  -4.712  1.00  0.00     0.078 C 
BRANCH   9  12
ATOM     12  N   UNL     1       0.698   0.012  -2.766  1.00  0.00    -0.344 N 
ATOM     13  H   UNL     1      -0.237  -0.346  -2.571  1.00  0.00     0.346 HD
ATOM     14  H   UNL     1       1.447  -0.608  -2.459  1.00  0.00     0.346 HD
BRANCH  12  15
ATOM     15  C   UNL     1       0.869   1.250  -2.017  1.00  0.00     0.260 C 
BRANCH  15  16
ATOM     16  C   UNL     1       0.303   1.149  -0.596  1.00  0.00     0.058 C 
ATOM     17  C   UNL     1       0.921   0.037   0.241  1.00  0.00     0.010 C 
ENDBRANCH  15  16
ENDBRANCH  12  15
ENDBRANCH   9  12
ENDBRANCH   5   8
ENDBRANCH   3   4
ENDBRANCH   2   3
ENDBRANCH   1   2
BRANCH   1  18
ATOM     18  C   UNL     1       7.372  -0.156  -1.690  1.00  0.00     0.002 C 
BRANCH  18  19
ATOM     19  C   UNL     1       6.875   0.063  -0.259  1.00  0.00     0.021 C 
BRANCH  19  20
ATOM     20  C   UNL     1       7.078  -1.125   0.676  1.00  0.00     0.116 C 
BRANCH  20  21
ATOM     21  N   UNL     1       8.484  -1.445   0.865  1.00  0.00    -0.352 N 
ATOM     22  C   UNL     1       9.191  -1.604   2.029  1.00  0.00     0.251 C 
ATOM     23  H   UNL     1       9.004  -1.565   0.037  1.00  0.00     0.163 HD
ATOM     24  O   UNL     1      10.417  -1.697   2.001  1.00  0.00    -0.269 OA
BRANCH  22  25
ATOM     25  C   UNL     1       8.482  -1.641   3.325  1.00  0.00     0.039 A 
ATOM     26  C   UNL     1       8.994  -0.905   4.396  1.00  0.00     0.014 A 
ATOM     27  C   UNL     1       7.320  -2.401   3.486  1.00  0.00     0.014 A 
ATOM     28  C   UNL     1       8.307  -0.883   5.612  1.00  0.00     0.010 A 
ATOM     29  C   UNL     1       6.599  -2.320   4.673  1.00  0.00     0.010 A 
ATOM     30  C   UNL     1       7.086  -1.563   5.749  1.00  0.00    -0.014 A 
BRANCH  30  31
ATOM     31  C   UNL     1       6.305  -1.492   7.010  1.00  0.00     0.031 A 
ATOM     32  C   UNL     1       6.070  -2.732   7.828  1.00  0.00     0.074 A 
ATOM     33  C   UNL     1       5.756  -0.322   7.388  1.00  0.00     0.049 A 
ATOM     34  N   UNL     1       5.371  -2.877   8.926  1.00  0.00    -0.248 NA
ATOM     35  C   UNL     1       6.679  -3.978   7.335  1.00  0.00     0.031 C 
ATOM     36  C   UNL     1       5.879   0.947   6.665  1.00  0.00     0.029 A 
ATOM     37  N   UNL     1       4.977  -0.010   8.475  1.00  0.00    -0.354 N 
ATOM     38  C   UNL     1       5.444  -4.227   9.245  1.00  0.00     0.074 A 
ATOM     39  C   UNL     1       6.210  -4.867   8.198  1.00  0.00     0.031 C 
ATOM     40  C   UNL     1       5.226   1.904   7.344  1.00  0.00     0.029 A 
ATOM     41  C   UNL     1       4.603   1.311   8.523  1.00  0.00     0.049 A 
ATOM     42  H   UNL     1       4.712  -0.670   9.155  1.00  0.00     0.167 HD
ATOM     43  C   UNL     1       4.937  -4.874  10.321  1.00  0.00     0.031 A 
ATOM     44  C   UNL     1       3.839   1.971   9.413  1.00  0.00     0.031 A 
ATOM     45  C   UNL     1       4.180  -4.236  11.365  1.00  0.00     0.049 A 
ATOM     46  C   UNL     1       3.265   1.225  10.585  1.00  0.00     0.074 A 
ATOM     47  C   UNL     1       3.669  -4.796  12.524  1.00  0.00     0.029 A 
ATOM     48  N   UNL     1       3.820  -2.897  11.375  1.00  0.00    -0.354 N 
ATOM     49  N   UNL     1       3.401  -0.038  10.908  1.00  0.00    -0.248 NA
ATOM     50  C   UNL     1       2.440   2.001  11.522  1.00  0.00     0.031 C 
ATOM     51  C   UNL     1       2.952  -3.808  13.207  1.00  0.00     0.029 A 
ATOM     52  C   UNL     1       3.070  -2.619  12.505  1.00  0.00     0.049 A 
ATOM     53  H   UNL     1       4.063  -2.242  10.681  1.00  0.00     0.167 HD
ATOM     54  C   UNL     1       2.706  -0.201  12.100  1.00  0.00     0.074 A 
ATOM     55  C   UNL     1       2.163   1.095  12.449  1.00  0.00     0.031 C 
ATOM     56  C   UNL     1       2.535  -1.324  12.839  1.00  0.00     0.031 A 
BRANCH  43  57
ATOM     57  C   UNL     1       5.178  -6.356  10.414  1.00  0.00    -0.014 A 
ATOM     58  C   UNL     1       6.461  -6.872  10.658  1.00  0.00     0.009 A 
ATOM     59  C   UNL     1       4.101  -7.248  10.288  1.00  0.00     0.009 A 
ATOM     60  C   UNL     1       6.667  -8.252  10.732  1.00  0.00     0.001 A 
ATOM     61  C   UNL     1       4.305  -8.625  10.394  1.00  0.00     0.001 A 
ATOM     62  C   UNL     1       5.589  -9.126  10.605  1.00  0.00     0.000 A 
ENDBRANCH  43  57
BRANCH  44  63
ATOM     63  C   UNL     1       3.580   3.425   9.241  1.00  0.00    -0.014 A 
ATOM     64  C   UNL     1       4.145   4.358  10.125  1.00  0.00     0.009 A 
ATOM     65  C   UNL     1       2.760   3.889   8.200  1.00  0.00     0.009 A 
ATOM     66  C   UNL     1       3.871   5.720   9.987  1.00  0.00     0.001 A 
ATOM     67  C   UNL     1       2.513   5.254   8.047  1.00  0.00     0.001 A 
ATOM     68  C   UNL     1       3.060   6.168   8.946  1.00  0.00     0.000 A 
ENDBRANCH  44  63
BRANCH  56  69
ATOM     69  C   UNL     1       1.759  -1.192  14.120  1.00  0.00    -0.014 A 
ATOM     70  C   UNL     1       0.370  -0.986  14.117  1.00  0.00     0.009 A 
ATOM     71  C   UNL     1       2.425  -1.315  15.350  1.00  0.00     0.009 A 
ATOM     72  C   UNL     1      -0.328  -0.871  15.320  1.00  0.00     0.001 A 
ATOM     73  C   UNL     1       1.720  -1.231  16.550  1.00  0.00     0.001 A 
ATOM     74  C   UNL     1       0.345  -0.999  16.535  1.00  0.00     0.000 A 
ENDBRANCH  56  69
ENDBRANCH  30  31
ENDBRANCH  22  25
ENDBRANCH  20  21
ENDBRANCH  19  20
ENDBRANCH  18  19
ENDBRANCH   1  18
TORSDOF 16
