REMARK SMILES Cc1ccc([N+](=O)[O-])c(NCc2ccc(C(=O)NCCCCCCNC(=O)c3ccc(-c4c5nc(c(-c6ccccc6)c6ccc([nH]6)c(-c6ccccc6)c6nc(c(-c7ccccc7)c7ccc4[nH]7)C=C6)C=C5)cc3)cc2)c1
REMARK SMILES IDX 20 1 19 2 18 3 16 4 17 5 15 7 12 8 13 9 77 10 14 11 76 12
REMARK SMILES IDX 11 13 10 14 9 16 1 17 2 18 3 19 78 20 4 21 5 22 6 23 7 24
REMARK SMILES IDX 8 25 21 26 22 27 23 28 24 29 25 30 26 31 27 33 28 34 29 35
REMARK SMILES IDX 75 36 30 37 74 38 31 39 32 40 33 41 68 42 34 43 73 44 67 45
REMARK SMILES IDX 69 46 35 47 72 48 66 49 65 50 36 52 58 53 43 54 57 55 44 56
REMARK SMILES IDX 47 57 56 58 70 59 45 60 46 61 55 63 71 64 48 65 37 66 38 67
REMARK SMILES IDX 42 68 39 69 41 70 40 71 59 72 60 73 64 74 61 75 63 76 62 77
REMARK SMILES IDX 49 78 50 79 54 80 51 81 53 82 52 83
REMARK H PARENT 18 6 10 15 25 32 69 51 47 62
REMARK Flexibility Score: inf
ROOT
ATOM      1  C   UNL     1      -2.353   9.755  -0.870  1.00  0.00     0.021 C 
ENDROOT
BRANCH   1   2
ATOM      2  C   UNL     1      -3.096   9.216   0.357  1.00  0.00     0.116 C 
BRANCH   2   3
ATOM      3  N   UNL     1      -4.494   8.985   0.061  1.00  0.00    -0.352 N 
ATOM      4  C   UNL     1      -5.234   7.844  -0.108  1.00  0.00     0.251 C 
ATOM      5  O   UNL     1      -6.450   7.986  -0.257  1.00  0.00    -0.269 OA
ATOM      6  H   UNL     1      -5.018   9.812  -0.038  1.00  0.00     0.163 HD
BRANCH   4   7
ATOM      7  C   UNL     1      -4.670   6.461  -0.089  1.00  0.00     0.039 A 
ATOM      8  C   UNL     1      -3.823   3.740  -0.067  1.00  0.00    -0.029 A 
ATOM      9  C   UNL     1      -5.141   4.090   0.263  1.00  0.00     0.006 A 
ATOM     10  C   UNL     1      -2.952   4.770  -0.455  1.00  0.00     0.006 A 
ATOM     11  C   UNL     1      -5.554   5.427   0.256  1.00  0.00     0.014 A 
ATOM     12  C   UNL     1      -3.373   6.113  -0.472  1.00  0.00     0.014 A 
BRANCH   8  13
ATOM     13  C   UNL     1      -3.456   2.264  -0.128  1.00  0.00     0.149 C 
BRANCH  13  14
ATOM     14  N   UNL     1      -2.054   2.019   0.169  1.00  0.00    -0.375 N 
ATOM     15  H   UNL     1      -1.535   2.801   0.465  1.00  0.00     0.161 HD
BRANCH  14  16
ATOM     16  C   UNL     1      -1.355   0.825   0.087  1.00  0.00     0.114 A 
ATOM     17  C   UNL     1       2.417   0.048  -0.014  1.00  0.00     0.044 C 
ATOM     18  C   UNL     1       0.929  -0.149  -0.015  1.00  0.00    -0.049 A 
ATOM     19  C   UNL     1       0.400  -1.436  -0.089  1.00  0.00     0.010 A 
ATOM     20  C   UNL     1       0.054   0.951   0.070  1.00  0.00     0.036 A 
ATOM     21  C   UNL     1      -0.979  -1.611  -0.101  1.00  0.00     0.088 A 
ATOM     22  C   UNL     1      -1.835  -0.491  -0.031  1.00  0.00     0.292 A 
BRANCH  22  23
ATOM     23  N   UNL     1      -3.246  -0.818  -0.006  1.00  0.00     0.064 N 
ATOM     24  O   UNL     1      -3.663  -1.436   0.983  1.00  0.00    -0.258 OA
ATOM     25  O   UNL     1      -3.921  -0.525  -1.002  1.00  0.00    -0.258 OA
ENDBRANCH  22  23
ENDBRANCH  14  16
ENDBRANCH  13  14
ENDBRANCH   8  13
ENDBRANCH   4   7
ENDBRANCH   2   3
ENDBRANCH   1   2
BRANCH   1  26
ATOM     26  C   UNL     1      -2.492  11.270  -1.099  1.00  0.00     0.002 C 
BRANCH  26  27
ATOM     27  C   UNL     1      -2.107  12.186   0.077  1.00  0.00     0.002 C 
BRANCH  27  28
ATOM     28  C   UNL     1      -0.804  11.840   0.801  1.00  0.00     0.021 C 
BRANCH  28  29
ATOM     29  C   UNL     1       0.452  12.165   0.003  1.00  0.00     0.116 C 
BRANCH  29  30
ATOM     30  N   UNL     1       1.078  13.426   0.385  1.00  0.00    -0.352 N 
ATOM     31  C   UNL     1       2.144  14.100  -0.193  1.00  0.00     0.251 C 
ATOM     32  H   UNL     1       0.684  13.865   1.172  1.00  0.00     0.163 HD
ATOM     33  O   UNL     1       2.555  15.132   0.291  1.00  0.00    -0.269 OA
BRANCH  31  34
ATOM     34  C   UNL     1       2.678  13.618  -1.493  1.00  0.00     0.039 A 
ATOM     35  C   UNL     1       2.824  14.564  -2.514  1.00  0.00     0.014 A 
ATOM     36  C   UNL     1       2.799  12.260  -1.769  1.00  0.00     0.014 A 
ATOM     37  C   UNL     1       2.815  14.140  -3.838  1.00  0.00     0.010 A 
ATOM     38  C   UNL     1       2.695  11.840  -3.079  1.00  0.00     0.010 A 
ATOM     39  C   UNL     1       2.623  12.786  -4.106  1.00  0.00    -0.014 A 
BRANCH  39  40
ATOM     40  C   UNL     1       2.191  12.290  -5.405  1.00  0.00     0.031 A 
ATOM     41  C   UNL     1       3.125  11.574  -6.290  1.00  0.00     0.074 A 
ATOM     42  C   UNL     1       0.905  12.450  -5.787  1.00  0.00     0.049 A 
ATOM     43  N   UNL     1       2.976  11.495  -7.568  1.00  0.00    -0.248 NA
ATOM     44  C   UNL     1       4.338  10.925  -5.805  1.00  0.00     0.031 C 
ATOM     45  C   UNL     1       0.217  11.811  -6.906  1.00  0.00     0.029 A 
ATOM     46  N   UNL     1       0.011  13.421  -5.346  1.00  0.00    -0.354 N 
ATOM     47  C   UNL     1       3.883  10.577  -8.031  1.00  0.00     0.074 A 
ATOM     48  C   UNL     1       4.755  10.302  -6.912  1.00  0.00     0.031 C 
ATOM     49  C   UNL     1      -0.864  12.540  -7.223  1.00  0.00     0.029 A 
ATOM     50  C   UNL     1      -0.829  13.751  -6.422  1.00  0.00     0.049 A 
ATOM     51  H   UNL     1      -0.025  13.807  -4.441  1.00  0.00     0.167 HD
ATOM     52  C   UNL     1       3.731  10.052  -9.277  1.00  0.00     0.031 A 
ATOM     53  C   UNL     1      -0.837  15.022  -6.923  1.00  0.00     0.031 A 
ATOM     54  C   UNL     1       2.598  10.625  -9.997  1.00  0.00     0.049 A 
ATOM     55  C   UNL     1      -0.328  15.140  -8.349  1.00  0.00     0.074 A 
ATOM     56  C   UNL     1       1.319  10.193 -10.306  1.00  0.00     0.029 A 
ATOM     57  N   UNL     1       2.617  11.981 -10.275  1.00  0.00    -0.354 N 
ATOM     58  N   UNL     1       0.109  14.142  -9.067  1.00  0.00    -0.248 NA
ATOM     59  C   UNL     1      -0.177  16.422  -9.041  1.00  0.00     0.031 C 
ATOM     60  C   UNL     1       0.575  11.309 -10.787  1.00  0.00     0.029 A 
ATOM     61  C   UNL     1       1.408  12.411 -10.782  1.00  0.00     0.049 A 
ATOM     62  H   UNL     1       3.396  12.566 -10.129  1.00  0.00     0.167 HD
ATOM     63  C   UNL     1       0.641  14.617 -10.236  1.00  0.00     0.074 A 
ATOM     64  C   UNL     1       0.428  16.050 -10.182  1.00  0.00     0.031 C 
ATOM     65  C   UNL     1       1.268  13.811 -11.140  1.00  0.00     0.031 A 
BRANCH  52  66
ATOM     66  C   UNL     1       4.499   8.846  -9.740  1.00  0.00    -0.014 A 
ATOM     67  C   UNL     1       3.887   7.917 -10.599  1.00  0.00     0.009 A 
ATOM     68  C   UNL     1       5.814   8.556  -9.338  1.00  0.00     0.009 A 
ATOM     69  C   UNL     1       4.515   6.717 -10.956  1.00  0.00     0.001 A 
ATOM     70  C   UNL     1       6.431   7.339  -9.654  1.00  0.00     0.001 A 
ATOM     71  C   UNL     1       5.775   6.414 -10.456  1.00  0.00     0.000 A 
ENDBRANCH  52  66
BRANCH  53  72
ATOM     72  C   UNL     1      -0.661  16.061  -5.868  1.00  0.00    -0.014 A 
ATOM     73  C   UNL     1      -1.688  16.221  -4.916  1.00  0.00     0.009 A 
ATOM     74  C   UNL     1       0.604  16.593  -5.584  1.00  0.00     0.009 A 
ATOM     75  C   UNL     1      -1.424  16.790  -3.667  1.00  0.00     0.001 A 
ATOM     76  C   UNL     1       0.860  17.174  -4.336  1.00  0.00     0.001 A 
ATOM     77  C   UNL     1      -0.141  17.238  -3.367  1.00  0.00     0.000 A 
ENDBRANCH  53  72
BRANCH  65  78
ATOM     78  C   UNL     1       1.857  14.290 -12.439  1.00  0.00    -0.014 A 
ATOM     79  C   UNL     1       1.221  15.234 -13.256  1.00  0.00     0.009 A 
ATOM     80  C   UNL     1       3.030  13.691 -12.945  1.00  0.00     0.009 A 
ATOM     81  C   UNL     1       1.766  15.602 -14.494  1.00  0.00     0.001 A 
ATOM     82  C   UNL     1       3.564  14.038 -14.188  1.00  0.00     0.001 A 
ATOM     83  C   UNL     1       2.936  15.005 -14.959  1.00  0.00     0.000 A 
ENDBRANCH  65  78
ENDBRANCH  39  40
ENDBRANCH  31  34
ENDBRANCH  29  30
ENDBRANCH  28  29
ENDBRANCH  27  28
ENDBRANCH  26  27
ENDBRANCH   1  26
TORSDOF 17
