REMARK SMILES CCCc1noc(C2C[NH+](CC(=O)NCCCCCCNC(=O)c3ccc(-c4c5nc(c(-c6ccccc6)c6ccc([nH]6)c(-c6ccccc6)c6nc(c(-c7ccccc7)c7ccc4[nH]7)C=C6)C=C5)cc3)C2)n1
REMARK SMILES IDX 16 1 15 2 14 3 12 4 13 5 11 7 10 8 8 9 9 10 72 11 7 13 4 14
REMARK SMILES IDX 5 15 73 16 6 17 3 18 2 19 1 20 17 21 18 22 19 23 20 24 21 25
REMARK SMILES IDX 22 26 23 28 24 29 25 30 71 31 26 32 70 33 27 34 28 35 29 36
REMARK SMILES IDX 64 37 30 38 69 39 63 40 65 41 31 42 68 43 62 44 61 45 32 47
REMARK SMILES IDX 54 48 39 49 53 50 40 51 43 52 52 53 66 54 41 55 42 56 51 58
REMARK SMILES IDX 67 59 44 60 33 61 34 62 38 63 35 64 37 65 36 66 55 67 56 68
REMARK SMILES IDX 60 69 57 70 59 71 58 72 45 73 46 74 50 75 47 76 49 77 48 78
REMARK H PARENT 14 6 10 12 21 27 65 46 43 57
REMARK Flexibility Score: inf
ROOT
ATOM      1  C   UNL     1       1.308   2.830   7.274  1.00  0.00     0.021 C 
ENDROOT
BRANCH   1   2
ATOM      2  C   UNL     1       0.229   3.297   8.260  1.00  0.00     0.116 C 
BRANCH   2   3
ATOM      3  N   UNL     1      -0.881   3.961   7.596  1.00  0.00    -0.351 N 
ATOM      4  C   UNL     1      -2.161   3.552   7.344  1.00  0.00     0.275 C 
ATOM      5  O   UNL     1      -2.872   4.315   6.683  1.00  0.00    -0.269 OA
ATOM      6  H   UNL     1      -0.673   4.866   7.269  1.00  0.00     0.163 HD
BRANCH   4   7
ATOM      7  C   UNL     1      -2.695   2.198   7.831  1.00  0.00     0.363 C 
BRANCH   7   8
ATOM      8  N   UNL     1      -2.676   1.039   6.895  1.00  0.00    -0.325 N 
ATOM      9  C   UNL     1      -1.373   1.548   5.292  1.00  0.00     0.188 C 
ATOM     10  C   UNL     1      -2.893   1.350   5.452  1.00  0.00     0.282 C 
ATOM     11  C   UNL     1      -1.311   0.614   6.537  1.00  0.00     0.282 C 
ATOM     12  H   UNL     1      -3.334   0.441   7.395  1.00  0.00     0.348 HD
BRANCH   9  13
ATOM     13  C   UNL     1      -0.620   1.008   4.107  1.00  0.00     0.241 A 
ATOM     14  C   UNL     1       0.426  -0.202   2.757  1.00  0.00     0.171 A 
ATOM     15  N   UNL     1       1.002   0.994   2.599  1.00  0.00    -0.062 NA
ATOM     16  N   UNL     1      -0.587  -0.238   3.686  1.00  0.00    -0.196 NA
ATOM     17  O   UNL     1       0.292   1.806   3.466  1.00  0.00    -0.339 OA
BRANCH  14  18
ATOM     18  C   UNL     1       0.905  -1.398   2.025  1.00  0.00     0.081 C 
BRANCH  18  19
ATOM     19  C   UNL     1       0.408  -1.472   0.581  1.00  0.00     0.005 C 
ATOM     20  C   UNL     1       0.948  -0.359  -0.311  1.00  0.00     0.004 C 
ENDBRANCH  18  19
ENDBRANCH  14  18
ENDBRANCH   9  13
ENDBRANCH   7   8
ENDBRANCH   4   7
ENDBRANCH   2   3
ENDBRANCH   1   2
BRANCH   1  21
ATOM     21  C   UNL     1       2.145   3.941   6.635  1.00  0.00     0.002 C 
BRANCH  21  22
ATOM     22  C   UNL     1       3.176   4.586   7.561  1.00  0.00     0.002 C 
BRANCH  22  23
ATOM     23  C   UNL     1       4.146   3.619   8.249  1.00  0.00     0.021 C 
BRANCH  23  24
ATOM     24  C   UNL     1       4.902   2.667   7.321  1.00  0.00     0.116 C 
BRANCH  24  25
ATOM     25  N   UNL     1       5.795   3.369   6.417  1.00  0.00    -0.352 N 
ATOM     26  C   UNL     1       7.152   3.251   6.250  1.00  0.00     0.251 C 
ATOM     27  H   UNL     1       5.360   4.033   5.834  1.00  0.00     0.163 HD
ATOM     28  O   UNL     1       7.757   4.070   5.564  1.00  0.00    -0.269 OA
BRANCH  26  29
ATOM     29  C   UNL     1       7.902   2.154   6.904  1.00  0.00     0.039 A 
ATOM     30  C   UNL     1       9.122   2.456   7.517  1.00  0.00     0.014 A 
ATOM     31  C   UNL     1       7.444   0.834   6.878  1.00  0.00     0.014 A 
ATOM     32  C   UNL     1       9.854   1.446   8.147  1.00  0.00     0.010 A 
ATOM     33  C   UNL     1       8.148  -0.164   7.555  1.00  0.00     0.010 A 
ATOM     34  C   UNL     1       9.361   0.132   8.196  1.00  0.00    -0.014 A 
BRANCH  34  35
ATOM     35  C   UNL     1      10.105  -0.925   8.928  1.00  0.00     0.031 A 
ATOM     36  C   UNL     1      10.745  -2.069   8.191  1.00  0.00     0.074 A 
ATOM     37  C   UNL     1      10.187  -0.864  10.272  1.00  0.00     0.049 A 
ATOM     38  N   UNL     1      11.444  -3.068   8.669  1.00  0.00    -0.248 NA
ATOM     39  C   UNL     1      10.566  -2.105   6.731  1.00  0.00     0.031 C 
ATOM     40  C   UNL     1       9.576   0.168  11.113  1.00  0.00     0.029 A 
ATOM     41  N   UNL     1      10.822  -1.689  11.167  1.00  0.00    -0.354 N 
ATOM     42  C   UNL     1      11.786  -3.850   7.573  1.00  0.00     0.074 A 
ATOM     43  C   UNL     1      11.179  -3.237   6.411  1.00  0.00     0.031 C 
ATOM     44  C   UNL     1       9.890  -0.070  12.397  1.00  0.00     0.029 A 
ATOM     45  C   UNL     1      10.699  -1.282  12.473  1.00  0.00     0.049 A 
ATOM     46  H   UNL     1      11.319  -2.495  10.898  1.00  0.00     0.167 HD
ATOM     47  C   UNL     1      12.553  -4.967   7.532  1.00  0.00     0.031 A 
ATOM     48  C   UNL     1      11.187  -1.820  13.607  1.00  0.00     0.031 A 
ATOM     49  C   UNL     1      13.163  -5.581   8.681  1.00  0.00     0.049 A 
ATOM     50  C   UNL     1      12.035  -3.058  13.531  1.00  0.00     0.074 A 
ATOM     51  C   UNL     1      13.984  -6.696   8.730  1.00  0.00     0.029 A 
ATOM     52  N   UNL     1      13.020  -5.133   9.984  1.00  0.00    -0.354 N 
ATOM     53  N   UNL     1      12.396  -3.749  12.478  1.00  0.00    -0.248 NA
ATOM     54  C   UNL     1      12.555  -3.579  14.803  1.00  0.00     0.031 C 
ATOM     55  C   UNL     1      14.309  -6.942  10.069  1.00  0.00     0.029 A 
ATOM     56  C   UNL     1      13.726  -5.955  10.846  1.00  0.00     0.049 A 
ATOM     57  H   UNL     1      12.494  -4.346  10.257  1.00  0.00     0.167 HD
ATOM     58  C   UNL     1      13.201  -4.773  12.957  1.00  0.00     0.074 A 
ATOM     59  C   UNL     1      13.296  -4.599  14.392  1.00  0.00     0.031 C 
ATOM     60  C   UNL     1      13.806  -5.773  12.271  1.00  0.00     0.031 A 
BRANCH  47  61
ATOM     61  C   UNL     1      12.785  -5.597   6.188  1.00  0.00    -0.014 A 
ATOM     62  C   UNL     1      13.643  -4.999   5.250  1.00  0.00     0.009 A 
ATOM     63  C   UNL     1      12.188  -6.828   5.875  1.00  0.00     0.009 A 
ATOM     64  C   UNL     1      13.876  -5.608   4.016  1.00  0.00     0.001 A 
ATOM     65  C   UNL     1      12.442  -7.446   4.649  1.00  0.00     0.001 A 
ATOM     66  C   UNL     1      13.280  -6.833   3.718  1.00  0.00     0.000 A 
ENDBRANCH  47  61
BRANCH  48  67
ATOM     67  C   UNL     1      10.901  -1.184  14.918  1.00  0.00    -0.014 A 
ATOM     68  C   UNL     1      11.915  -0.521  15.626  1.00  0.00     0.009 A 
ATOM     69  C   UNL     1       9.618  -1.261  15.481  1.00  0.00     0.009 A 
ATOM     70  C   UNL     1      11.659   0.024  16.886  1.00  0.00     0.001 A 
ATOM     71  C   UNL     1       9.357  -0.690  16.729  1.00  0.00     0.001 A 
ATOM     72  C   UNL     1      10.380  -0.059  17.434  1.00  0.00     0.000 A 
ENDBRANCH  48  67
BRANCH  60  73
ATOM     73  C   UNL     1      14.638  -6.737  13.067  1.00  0.00    -0.014 A 
ATOM     74  C   UNL     1      14.040  -7.694  13.902  1.00  0.00     0.009 A 
ATOM     75  C   UNL     1      16.037  -6.695  12.970  1.00  0.00     0.009 A 
ATOM     76  C   UNL     1      14.829  -8.563  14.656  1.00  0.00     0.001 A 
ATOM     77  C   UNL     1      16.823  -7.583  13.706  1.00  0.00     0.001 A 
ATOM     78  C   UNL     1      16.219  -8.509  14.556  1.00  0.00     0.000 A 
ENDBRANCH  60  73
ENDBRANCH  34  35
ENDBRANCH  26  29
ENDBRANCH  24  25
ENDBRANCH  23  24
ENDBRANCH  22  23
ENDBRANCH  21  22
ENDBRANCH   1  21
TORSDOF 17
