REMARK SMILES O=C(NCCCCCCNC(=O)c1ccc(-c2c3nc(c(-c4ccccc4)c4ccc([nH]4)c(-c4ccccc4)c4nc(c(-c5ccccc5)c5ccc2[nH]5)C=C4)C=C3)cc1)C1=Cc2cc(Cl)cc(-c3ccc(O)cc3)c2O[C@@H]1C(F)(F)F
REMARK SMILES IDX 6 1 5 2 4 3 3 4 1 5 2 6 61 8 62 9 78 10 63 11 77 12 64 13
REMARK SMILES IDX 76 14 65 15 68 16 66 17 67 18 79 19 80 20 81 21 82 22 69 23
REMARK SMILES IDX 70 24 75 25 71 26 74 27 72 28 73 29 7 31 8 32 9 33 10 34
REMARK SMILES IDX 11 35 12 37 13 38 14 39 60 40 15 41 59 42 16 43 17 44 18 45
REMARK SMILES IDX 53 46 19 47 58 48 52 49 54 50 20 51 57 52 51 53 50 54 21 56
REMARK SMILES IDX 43 57 28 58 42 59 29 60 32 61 41 62 55 63 30 64 31 65 40 67
REMARK SMILES IDX 56 68 33 69 22 70 23 71 27 72 24 73 26 74 25 75 44 76 45 77
REMARK SMILES IDX 49 78 46 79 48 80 47 81 34 82 35 83 39 84 36 85 38 86 37 87
REMARK H PARENT 3 7 73 30 10 36 54 55 32 66
REMARK Flexibility Score: inf
ROOT
ATOM      1  C   UNL     1       3.771  -4.083   2.241  1.00  0.00     0.002 C 
ENDROOT
BRANCH   1   2
ATOM      2  C   UNL     1       4.144  -2.618   2.468  1.00  0.00     0.021 C 
BRANCH   2   3
ATOM      3  C   UNL     1       3.854  -1.636   1.336  1.00  0.00     0.116 C 
BRANCH   3   4
ATOM      4  N   UNL     1       2.544  -1.014   1.348  1.00  0.00    -0.352 N 
ATOM      5  O   UNL     1       0.925   0.419   0.754  1.00  0.00    -0.270 OA
ATOM      6  C   UNL     1       2.126   0.149   0.759  1.00  0.00     0.251 C 
ATOM      7  H   UNL     1       1.854  -1.499   1.855  1.00  0.00     0.163 HD
BRANCH   6   8
ATOM      8  C   UNL     1       3.053   1.082   0.044  1.00  0.00     0.067 C 
ATOM      9  C   UNL     1       4.316   1.318   0.441  1.00  0.00     0.025 C 
ATOM     10  C   UNL     1       2.769   1.150  -1.441  1.00  0.00     0.314 C 
ATOM     11  C   UNL     1       5.297   0.615  -0.436  1.00  0.00     0.019 A 
ATOM     12  O   UNL     1       3.615   0.207  -2.157  1.00  0.00    -0.475 OA
ATOM     13  C   UNL     1       6.562   0.352   0.099  1.00  0.00     0.032 A 
ATOM     14  C   UNL     1       4.857  -0.038  -1.609  1.00  0.00     0.135 A 
ATOM     15  C   UNL     1       7.348  -0.637  -0.478  1.00  0.00     0.042 A 
ATOM     16  C   UNL     1       5.629  -1.075  -2.162  1.00  0.00     0.026 A 
ATOM     17  Cl  UNL     1       8.820  -1.104   0.282  1.00  0.00    -0.084 Cl
ATOM     18  C   UNL     1       6.886  -1.351  -1.583  1.00  0.00     0.033 A 
BRANCH  10  19
ATOM     19  C   UNL     1       2.879   2.584  -1.993  1.00  0.00     0.429 C 
ATOM     20  F   UNL     1       2.491   2.653  -3.288  1.00  0.00    -0.167 F 
ATOM     21  F   UNL     1       2.092   3.443  -1.299  1.00  0.00    -0.167 F 
ATOM     22  F   UNL     1       4.142   3.073  -1.929  1.00  0.00    -0.167 F 
ENDBRANCH  10  19
BRANCH  16  23
ATOM     23  C   UNL     1       5.090  -2.042  -3.136  1.00  0.00    -0.014 A 
ATOM     24  C   UNL     1       4.701  -3.311  -2.674  1.00  0.00     0.012 A 
ATOM     25  C   UNL     1       4.994  -1.790  -4.506  1.00  0.00     0.012 A 
ATOM     26  C   UNL     1       4.281  -4.320  -3.536  1.00  0.00     0.047 A 
ATOM     27  C   UNL     1       4.561  -2.797  -5.384  1.00  0.00     0.047 A 
ATOM     28  C   UNL     1       4.222  -4.056  -4.892  1.00  0.00     0.115 A 
BRANCH  28  29
ATOM     29  O   UNL     1       3.825  -5.071  -5.709  1.00  0.00    -0.508 OA
ATOM     30  H   UNL     1       3.604  -5.906  -5.345  1.00  0.00     0.293 HD
ENDBRANCH  28  29
ENDBRANCH  16  23
ENDBRANCH   6   8
ENDBRANCH   3   4
ENDBRANCH   2   3
ENDBRANCH   1   2
BRANCH   1  31
ATOM     31  C   UNL     1       4.250  -4.729   0.938  1.00  0.00     0.002 C 
BRANCH  31  32
ATOM     32  C   UNL     1       5.735  -4.569   0.595  1.00  0.00     0.021 C 
BRANCH  32  33
ATOM     33  C   UNL     1       6.714  -5.261   1.531  1.00  0.00     0.116 C 
BRANCH  33  34
ATOM     34  N   UNL     1       6.558  -6.706   1.514  1.00  0.00    -0.352 N 
ATOM     35  C   UNL     1       7.483  -7.702   1.326  1.00  0.00     0.251 C 
ATOM     36  H   UNL     1       5.637  -7.022   1.661  1.00  0.00     0.163 HD
ATOM     37  O   UNL     1       7.098  -8.856   1.163  1.00  0.00    -0.269 OA
BRANCH  35  38
ATOM     38  C   UNL     1       8.936  -7.408   1.306  1.00  0.00     0.039 A 
ATOM     39  C   UNL     1       9.761  -8.161   0.463  1.00  0.00     0.014 A 
ATOM     40  C   UNL     1       9.502  -6.442   2.142  1.00  0.00     0.014 A 
ATOM     41  C   UNL     1      11.136  -7.918   0.430  1.00  0.00     0.010 A 
ATOM     42  C   UNL     1      10.856  -6.137   2.041  1.00  0.00     0.010 A 
ATOM     43  C   UNL     1      11.692  -6.885   1.200  1.00  0.00    -0.014 A 
BRANCH  43  44
ATOM     44  C   UNL     1      13.146  -6.590   1.162  1.00  0.00     0.031 A 
ATOM     45  C   UNL     1      13.982  -6.745   2.404  1.00  0.00     0.074 A 
ATOM     46  C   UNL     1      13.705  -6.131   0.025  1.00  0.00     0.049 A 
ATOM     47  N   UNL     1      15.255  -6.494   2.581  1.00  0.00    -0.248 NA
ATOM     48  C   UNL     1      13.292  -7.218   3.615  1.00  0.00     0.031 C 
ATOM     49  C   UNL     1      12.996  -5.903  -1.236  1.00  0.00     0.029 A 
ATOM     50  N   UNL     1      15.000  -5.772  -0.252  1.00  0.00    -0.354 N 
ATOM     51  C   UNL     1      15.508  -6.753   3.923  1.00  0.00     0.074 A 
ATOM     52  C   UNL     1      14.249  -7.128   4.526  1.00  0.00     0.031 C 
ATOM     53  C   UNL     1      13.871  -5.481  -2.161  1.00  0.00     0.029 A 
ATOM     54  C   UNL     1      15.191  -5.363  -1.550  1.00  0.00     0.049 A 
ATOM     55  H   UNL     1      15.723  -5.805   0.415  1.00  0.00     0.167 HD
ATOM     56  C   UNL     1      16.686  -6.704   4.590  1.00  0.00     0.031 A 
ATOM     57  C   UNL     1      16.304  -4.938  -2.176  1.00  0.00     0.031 A 
ATOM     58  C   UNL     1      17.939  -6.342   3.985  1.00  0.00     0.049 A 
ATOM     59  C   UNL     1      17.596  -4.876  -1.410  1.00  0.00     0.074 A 
ATOM     60  C   UNL     1      19.200  -6.323   4.556  1.00  0.00     0.029 A 
ATOM     61  N   UNL     1      18.089  -5.931   2.669  1.00  0.00    -0.354 N 
ATOM     62  N   UNL     1      17.833  -5.195  -0.161  1.00  0.00    -0.248 NA
ATOM     63  C   UNL     1      18.776  -4.404  -2.147  1.00  0.00     0.031 C 
ATOM     64  C   UNL     1      20.102  -5.841   3.603  1.00  0.00     0.029 A 
ATOM     65  C   UNL     1      19.416  -5.624   2.419  1.00  0.00     0.049 A 
ATOM     66  H   UNL     1      17.360  -5.866   2.011  1.00  0.00     0.167 HD
ATOM     67  C   UNL     1      19.193  -4.991   0.031  1.00  0.00     0.074 A 
ATOM     68  C   UNL     1      19.730  -4.537  -1.236  1.00  0.00     0.031 C 
ATOM     69  C   UNL     1      19.932  -5.168   1.154  1.00  0.00     0.031 A 
BRANCH  56  70
ATOM     70  C   UNL     1      16.664  -7.035   6.059  1.00  0.00    -0.014 A 
ATOM     71  C   UNL     1      16.393  -8.336   6.514  1.00  0.00     0.009 A 
ATOM     72  C   UNL     1      16.938  -6.033   7.003  1.00  0.00     0.009 A 
ATOM     73  C   UNL     1      16.350  -8.614   7.882  1.00  0.00     0.001 A 
ATOM     74  C   UNL     1      16.928  -6.321   8.369  1.00  0.00     0.001 A 
ATOM     75  C   UNL     1      16.621  -7.608   8.808  1.00  0.00     0.000 A 
ENDBRANCH  56  70
BRANCH  57  76
ATOM     76  C   UNL     1      16.250  -4.561  -3.613  1.00  0.00    -0.014 A 
ATOM     77  C   UNL     1      16.871  -5.365  -4.582  1.00  0.00     0.009 A 
ATOM     78  C   UNL     1      15.574  -3.402  -4.026  1.00  0.00     0.009 A 
ATOM     79  C   UNL     1      16.837  -5.003  -5.930  1.00  0.00     0.001 A 
ATOM     80  C   UNL     1      15.516  -3.059  -5.379  1.00  0.00     0.001 A 
ATOM     81  C   UNL     1      16.155  -3.854  -6.328  1.00  0.00     0.000 A 
ENDBRANCH  57  76
BRANCH  69  82
ATOM     82  C   UNL     1      21.408  -4.901   1.053  1.00  0.00    -0.014 A 
ATOM     83  C   UNL     1      21.910  -3.597   0.923  1.00  0.00     0.009 A 
ATOM     84  C   UNL     1      22.312  -5.973   1.132  1.00  0.00     0.009 A 
ATOM     85  C   UNL     1      23.286  -3.376   0.838  1.00  0.00     0.001 A 
ATOM     86  C   UNL     1      23.688  -5.745   1.080  1.00  0.00     0.001 A 
ATOM     87  C   UNL     1      24.173  -4.449   0.923  1.00  0.00     0.000 A 
ENDBRANCH  69  82
ENDBRANCH  43  44
ENDBRANCH  35  38
ENDBRANCH  33  34
ENDBRANCH  32  33
ENDBRANCH  31  32
ENDBRANCH   1  31
TORSDOF 16
