REMARK SMILES C[C@H]1[C@@H](C(=O)NCCCCCCNC(=O)c2ccc(-c3c4nc(c(-c5ccccc5)c5ccc([nH]5)c(-c5ccccc5)c5nc(c(-c6ccccc6)c6ccc3[nH]6)C=C5)C=C4)cc2)CCN1C(=O)c1cc2cc(F)ccc2s1
REMARK SMILES IDX 9 1 8 2 7 3 6 4 4 5 5 6 3 8 1 9 2 10 66 11 64 12 65 13 67 14
REMARK SMILES IDX 68 15 69 16 70 17 78 18 71 19 77 20 72 21 76 22 73 23 75 24
REMARK SMILES IDX 74 25 10 26 11 27 12 28 13 29 14 30 15 32 16 33 17 34 63 35
REMARK SMILES IDX 18 36 62 37 19 38 20 39 21 40 56 41 22 42 61 43 55 44 57 45
REMARK SMILES IDX 23 46 60 47 54 48 53 49 24 51 46 52 31 53 45 54 32 55 35 56
REMARK SMILES IDX 44 57 58 58 33 59 34 60 43 62 59 63 36 64 25 65 26 66 30 67
REMARK SMILES IDX 27 68 29 69 28 70 47 71 48 72 52 73 49 74 51 75 50 76 37 77
REMARK SMILES IDX 38 78 42 79 39 80 41 81 40 82
REMARK H PARENT 6 7 13 31 57 50 35 61
REMARK Flexibility Score: inf
ROOT
ATOM      1  C   UNL     1       4.455   1.464  -3.247  1.00  0.00     0.002 C 
ENDROOT
BRANCH   1   2
ATOM      2  C   UNL     1       3.635   0.941  -2.066  1.00  0.00     0.021 C 
BRANCH   2   3
ATOM      3  C   UNL     1       2.732   1.997  -1.423  1.00  0.00     0.116 C 
BRANCH   3   4
ATOM      4  N   UNL     1       1.406   1.897  -1.998  1.00  0.00    -0.356 N 
ATOM      5  C   UNL     1       0.261   1.363  -1.491  1.00  0.00     0.225 C 
ATOM      6  O   UNL     1      -0.669   1.195  -2.282  1.00  0.00    -0.275 OA
ATOM      7  H   UNL     1       1.318   2.277  -2.901  1.00  0.00     0.163 HD
BRANCH   5   8
ATOM      8  C   UNL     1       0.122   1.089   0.009  1.00  0.00     0.102 C 
ATOM      9  C   UNL     1       1.762  -0.961  -0.043  1.00  0.00     0.032 C 
ATOM     10  C   UNL     1       0.539  -0.294   0.554  1.00  0.00     0.094 C 
ATOM     11  N   UNL     1      -0.656  -1.143   0.495  1.00  0.00    -0.334 N 
ATOM     12  C   UNL     1      -1.369   1.102   0.390  1.00  0.00     0.037 C 
ATOM     13  C   UNL     1      -1.800  -0.332   0.110  1.00  0.00     0.121 C 
BRANCH  11  14
ATOM     14  C   UNL     1      -0.843  -2.038   1.551  1.00  0.00     0.264 C 
ATOM     15  O   UNL     1      -1.364  -1.656   2.600  1.00  0.00    -0.268 OA
BRANCH  14  16
ATOM     16  C   UNL     1      -0.366  -3.400   1.374  1.00  0.00     0.093 A 
ATOM     17  C   UNL     1       0.006  -4.260   2.387  1.00  0.00     0.034 A 
ATOM     18  S   UNL     1      -0.315  -4.177  -0.143  1.00  0.00    -0.130 S 
ATOM     19  C   UNL     1       0.215  -5.605   1.945  1.00  0.00    -0.004 A 
ATOM     20  C   UNL     1       0.036  -5.713   0.562  1.00  0.00     0.035 A 
ATOM     21  C   UNL     1       0.510  -6.775   2.682  1.00  0.00     0.048 A 
ATOM     22  C   UNL     1       0.130  -6.958  -0.096  1.00  0.00     0.022 A 
ATOM     23  C   UNL     1       0.575  -8.004   2.031  1.00  0.00     0.123 A 
ATOM     24  C   UNL     1       0.384  -8.104   0.664  1.00  0.00     0.041 A 
ATOM     25  F   UNL     1       0.808  -9.112   2.747  1.00  0.00    -0.207 F 
ENDBRANCH  14  16
ENDBRANCH  11  14
ENDBRANCH   5   8
ENDBRANCH   3   4
ENDBRANCH   2   3
ENDBRANCH   1   2
BRANCH   1  26
ATOM     26  C   UNL     1       5.742   2.190  -2.849  1.00  0.00     0.002 C 
BRANCH  26  27
ATOM     27  C   UNL     1       6.702   1.403  -1.945  1.00  0.00     0.021 C 
BRANCH  27  28
ATOM     28  C   UNL     1       7.009  -0.027  -2.388  1.00  0.00     0.116 C 
BRANCH  28  29
ATOM     29  N   UNL     1       7.681  -0.073  -3.674  1.00  0.00    -0.352 N 
ATOM     30  C   UNL     1       8.924  -0.558  -3.997  1.00  0.00     0.251 C 
ATOM     31  H   UNL     1       7.168   0.299  -4.427  1.00  0.00     0.163 HD
ATOM     32  O   UNL     1       9.395  -0.350  -5.108  1.00  0.00    -0.269 OA
BRANCH  30  33
ATOM     33  C   UNL     1       9.710  -1.319  -3.001  1.00  0.00     0.039 A 
ATOM     34  C   UNL     1      11.055  -0.985  -2.817  1.00  0.00     0.014 A 
ATOM     35  C   UNL     1       9.147  -2.383  -2.291  1.00  0.00     0.014 A 
ATOM     36  C   UNL     1      11.824  -1.684  -1.883  1.00  0.00     0.010 A 
ATOM     37  C   UNL     1       9.903  -3.053  -1.329  1.00  0.00     0.010 A 
ATOM     38  C   UNL     1      11.248  -2.711  -1.119  1.00  0.00    -0.014 A 
BRANCH  38  39
ATOM     39  C   UNL     1      12.044  -3.441  -0.103  1.00  0.00     0.031 A 
ATOM     40  C   UNL     1      12.434  -4.873  -0.332  1.00  0.00     0.074 A 
ATOM     41  C   UNL     1      12.376  -2.831   1.050  1.00  0.00     0.049 A 
ATOM     42  N   UNL     1      13.075  -5.690   0.465  1.00  0.00    -0.248 NA
ATOM     43  C   UNL     1      12.038  -5.469  -1.618  1.00  0.00     0.031 C 
ATOM     44  C   UNL     1      12.038  -1.452   1.409  1.00  0.00     0.029 A 
ATOM     45  N   UNL     1      13.067  -3.301   2.138  1.00  0.00    -0.354 N 
ATOM     46  C   UNL     1      13.140  -6.901  -0.210  1.00  0.00     0.074 A 
ATOM     47  C   UNL     1      12.456  -6.719  -1.473  1.00  0.00     0.031 C 
ATOM     48  C   UNL     1      12.536  -1.184   2.627  1.00  0.00     0.029 A 
ATOM     49  C   UNL     1      13.204  -2.376   3.143  1.00  0.00     0.049 A 
ATOM     50  H   UNL     1      13.430  -4.214   2.193  1.00  0.00     0.167 HD
ATOM     51  C   UNL     1      13.722  -8.060   0.180  1.00  0.00     0.031 A 
ATOM     52  C   UNL     1      13.796  -2.477   4.346  1.00  0.00     0.031 A 
ATOM     53  C   UNL     1      14.424  -8.245   1.421  1.00  0.00     0.049 A 
ATOM     54  C   UNL     1      14.445  -3.768   4.752  1.00  0.00     0.074 A 
ATOM     55  C   UNL     1      15.092  -9.369   1.875  1.00  0.00     0.029 A 
ATOM     56  N   UNL     1      14.550  -7.279   2.405  1.00  0.00    -0.354 N 
ATOM     57  N   UNL     1      14.529  -4.892   4.084  1.00  0.00    -0.248 NA
ATOM     58  C   UNL     1      15.082  -3.800   6.076  1.00  0.00     0.031 C 
ATOM     59  C   UNL     1      15.604  -9.089   3.148  1.00  0.00     0.029 A 
ATOM     60  C   UNL     1      15.274  -7.783   3.471  1.00  0.00     0.049 A 
ATOM     61  H   UNL     1      14.180  -6.368   2.353  1.00  0.00     0.167 HD
ATOM     62  C   UNL     1      15.242  -5.760   4.899  1.00  0.00     0.074 A 
ATOM     63  C   UNL     1      15.574  -5.032   6.106  1.00  0.00     0.031 C 
ATOM     64  C   UNL     1      15.592  -7.048   4.665  1.00  0.00     0.031 A 
BRANCH  51  65
ATOM     65  C   UNL     1      13.613  -9.227  -0.755  1.00  0.00    -0.014 A 
ATOM     66  C   UNL     1      14.414  -9.310  -1.904  1.00  0.00     0.009 A 
ATOM     67  C   UNL     1      12.712 -10.265  -0.472  1.00  0.00     0.009 A 
ATOM     68  C   UNL     1      14.294 -10.399  -2.768  1.00  0.00     0.001 A 
ATOM     69  C   UNL     1      12.608 -11.361  -1.329  1.00  0.00     0.001 A 
ATOM     70  C   UNL     1      13.393 -11.424  -2.480  1.00  0.00     0.000 A 
ENDBRANCH  51  65
BRANCH  52  71
ATOM     71  C   UNL     1      13.815  -1.307   5.257  1.00  0.00    -0.014 A 
ATOM     72  C   UNL     1      14.976  -0.531   5.385  1.00  0.00     0.009 A 
ATOM     73  C   UNL     1      12.674  -0.961   5.996  1.00  0.00     0.009 A 
ATOM     74  C   UNL     1      14.999   0.564   6.251  1.00  0.00     0.001 A 
ATOM     75  C   UNL     1      12.696   0.144   6.848  1.00  0.00     0.001 A 
ATOM     76  C   UNL     1      13.860   0.902   6.979  1.00  0.00     0.000 A 
ENDBRANCH  52  71
BRANCH  64  77
ATOM     77  C   UNL     1      16.388  -7.740   5.729  1.00  0.00    -0.014 A 
ATOM     78  C   UNL     1      15.763  -8.255   6.875  1.00  0.00     0.009 A 
ATOM     79  C   UNL     1      17.772  -7.905   5.570  1.00  0.00     0.009 A 
ATOM     80  C   UNL     1      16.516  -8.905   7.854  1.00  0.00     0.001 A 
ATOM     81  C   UNL     1      18.520  -8.568   6.544  1.00  0.00     0.001 A 
ATOM     82  C   UNL     1      17.892  -9.062   7.687  1.00  0.00     0.000 A 
ENDBRANCH  64  77
ENDBRANCH  38  39
ENDBRANCH  30  33
ENDBRANCH  28  29
ENDBRANCH  27  28
ENDBRANCH  26  27
ENDBRANCH   1  26
TORSDOF 15
