REMARK SMILES O=C(NCCCCCCNC(=O)c1cc(Br)ccc1OCc1ccccc1F)c1ccc(-c2c3nc(c(-c4ccccc4)c4ccc([nH]4)c(-c4ccccc4)c4nc(c(-c5ccccc5)c5ccc2[nH]5)C=C4)C=C3)cc1
REMARK SMILES IDX 7 1 6 2 5 3 4 4 3 5 1 6 2 7 29 9 30 10 76 11 31 12 75 13
REMARK SMILES IDX 32 14 33 15 34 16 69 17 35 18 74 19 68 20 70 21 36 22 73 23
REMARK SMILES IDX 67 24 66 25 37 27 59 28 44 29 58 30 45 31 48 32 57 33 71 34
REMARK SMILES IDX 46 35 47 36 56 38 72 39 49 40 38 41 39 42 43 43 40 44 42 45
REMARK SMILES IDX 41 46 60 47 61 48 65 49 62 50 64 51 63 52 50 53 51 54 55 55
REMARK SMILES IDX 52 56 54 57 53 58 8 59 9 60 10 61 11 62 12 64 13 65 14 66
REMARK SMILES IDX 19 67 15 68 18 69 16 70 17 71 20 72 21 73 22 74 23 75 27 76
REMARK SMILES IDX 24 77 26 78 28 79 25 80
REMARK H PARENT 3 8 70 26 48 37 10 63
REMARK Flexibility Score: inf
ROOT
ATOM      1  C   UNL     1       4.801  -2.320  -3.717  1.00  0.00     0.002 C 
ENDROOT
BRANCH   1   2
ATOM      2  C   UNL     1       4.254  -3.061  -2.495  1.00  0.00     0.002 C 
BRANCH   2   3
ATOM      3  C   UNL     1       4.654  -2.535  -1.120  1.00  0.00     0.021 C 
BRANCH   3   4
ATOM      4  C   UNL     1       4.405  -1.055  -0.866  1.00  0.00     0.116 C 
BRANCH   4   5
ATOM      5  N   UNL     1       2.998  -0.697  -0.831  1.00  0.00    -0.352 N 
ATOM      6  O   UNL     1       1.098   0.191   0.005  1.00  0.00    -0.269 OA
ATOM      7  C   UNL     1       2.316   0.064   0.092  1.00  0.00     0.251 C 
ATOM      8  H   UNL     1       2.455  -1.048  -1.573  1.00  0.00     0.163 HD
BRANCH   7   9
ATOM      9  C   UNL     1       3.040   0.698   1.220  1.00  0.00     0.039 A 
ATOM     10  C   UNL     1       4.249   1.367   1.022  1.00  0.00     0.014 A 
ATOM     11  C   UNL     1       2.493   0.615   2.505  1.00  0.00     0.014 A 
ATOM     12  C   UNL     1       4.982   1.812   2.119  1.00  0.00     0.010 A 
ATOM     13  C   UNL     1       3.195   1.132   3.599  1.00  0.00     0.010 A 
ATOM     14  C   UNL     1       4.466   1.696   3.421  1.00  0.00    -0.014 A 
BRANCH  14  15
ATOM     15  C   UNL     1       5.268   2.193   4.568  1.00  0.00     0.031 A 
ATOM     16  C   UNL     1       5.829   1.247   5.596  1.00  0.00     0.074 A 
ATOM     17  C   UNL     1       5.535   3.510   4.657  1.00  0.00     0.049 A 
ATOM     18  N   UNL     1       6.614   1.510   6.612  1.00  0.00    -0.248 NA
ATOM     19  C   UNL     1       5.462  -0.172   5.474  1.00  0.00     0.031 C 
ATOM     20  C   UNL     1       5.044   4.534   3.732  1.00  0.00     0.029 A 
ATOM     21  N   UNL     1       6.311   4.208   5.546  1.00  0.00    -0.354 N 
ATOM     22  C   UNL     1       6.811   0.299   7.264  1.00  0.00     0.074 A 
ATOM     23  C   UNL     1       6.054  -0.698   6.537  1.00  0.00     0.031 C 
ATOM     24  C   UNL     1       5.582   5.718   4.063  1.00  0.00     0.029 A 
ATOM     25  C   UNL     1       6.416   5.544   5.247  1.00  0.00     0.049 A 
ATOM     26  H   UNL     1       6.750   3.792   6.323  1.00  0.00     0.167 HD
ATOM     27  C   UNL     1       7.556   0.038   8.365  1.00  0.00     0.031 A 
ATOM     28  C   UNL     1       7.112   6.524   5.852  1.00  0.00     0.031 A 
ATOM     29  C   UNL     1       8.329   1.018   9.081  1.00  0.00     0.049 A 
ATOM     30  C   UNL     1       7.935   6.207   7.064  1.00  0.00     0.074 A 
ATOM     31  C   UNL     1       9.149   0.834  10.182  1.00  0.00     0.029 A 
ATOM     32  N   UNL     1       8.377   2.367   8.768  1.00  0.00    -0.354 N 
ATOM     33  N   UNL     1       8.134   5.050   7.644  1.00  0.00    -0.248 NA
ATOM     34  C   UNL     1       8.626   7.334   7.704  1.00  0.00     0.031 C 
ATOM     35  C   UNL     1       9.668   2.080  10.556  1.00  0.00     0.029 A 
ATOM     36  C   UNL     1       9.198   3.031   9.665  1.00  0.00     0.049 A 
ATOM     37  H   UNL     1       7.899   2.790   8.019  1.00  0.00     0.167 HD
ATOM     38  C   UNL     1       8.981   5.306   8.713  1.00  0.00     0.074 A 
ATOM     39  C   UNL     1       9.273   6.725   8.688  1.00  0.00     0.031 C 
ATOM     40  C   UNL     1       9.471   4.442   9.634  1.00  0.00     0.031 A 
BRANCH  27  41
ATOM     41  C   UNL     1       7.554  -1.372   8.882  1.00  0.00    -0.014 A 
ATOM     42  C   UNL     1       8.296  -2.381   8.249  1.00  0.00     0.009 A 
ATOM     43  C   UNL     1       6.834  -1.683  10.046  1.00  0.00     0.009 A 
ATOM     44  C   UNL     1       8.293  -3.682   8.757  1.00  0.00     0.001 A 
ATOM     45  C   UNL     1       6.849  -2.980  10.562  1.00  0.00     0.001 A 
ATOM     46  C   UNL     1       7.573  -3.980   9.914  1.00  0.00     0.000 A 
ENDBRANCH  27  41
BRANCH  28  47
ATOM     47  C   UNL     1       7.070   7.901   5.301  1.00  0.00    -0.014 A 
ATOM     48  C   UNL     1       8.174   8.419   4.609  1.00  0.00     0.009 A 
ATOM     49  C   UNL     1       5.920   8.692   5.447  1.00  0.00     0.009 A 
ATOM     50  C   UNL     1       8.131   9.711   4.081  1.00  0.00     0.001 A 
ATOM     51  C   UNL     1       5.873   9.975   4.899  1.00  0.00     0.001 A 
ATOM     52  C   UNL     1       6.979  10.485   4.222  1.00  0.00     0.000 A 
ENDBRANCH  28  47
BRANCH  40  53
ATOM     53  C   UNL     1      10.382   5.013  10.679  1.00  0.00    -0.014 A 
ATOM     54  C   UNL     1       9.870   5.752  11.757  1.00  0.00     0.009 A 
ATOM     55  C   UNL     1      11.766   4.797  10.593  1.00  0.00     0.009 A 
ATOM     56  C   UNL     1      10.732   6.290  12.713  1.00  0.00     0.001 A 
ATOM     57  C   UNL     1      12.623   5.321  11.562  1.00  0.00     0.001 A 
ATOM     58  C   UNL     1      12.106   6.074  12.616  1.00  0.00     0.000 A 
ENDBRANCH  40  53
ENDBRANCH  14  15
ENDBRANCH   7   9
ENDBRANCH   4   5
ENDBRANCH   3   4
ENDBRANCH   2   3
ENDBRANCH   1   2
BRANCH   1  59
ATOM     59  C   UNL     1       6.305  -2.033  -3.782  1.00  0.00     0.021 C 
BRANCH  59  60
ATOM     60  C   UNL     1       7.266  -3.178  -3.477  1.00  0.00     0.116 C 
BRANCH  60  61
ATOM     61  N   UNL     1       6.949  -4.422  -4.146  1.00  0.00    -0.352 N 
ATOM     62  C   UNL     1       7.832  -5.374  -4.589  1.00  0.00     0.255 C 
ATOM     63  H   UNL     1       5.994  -4.605  -4.300  1.00  0.00     0.163 HD
ATOM     64  O   UNL     1       7.480  -6.541  -4.711  1.00  0.00    -0.269 OA
BRANCH  62  65
ATOM     65  C   UNL     1       9.231  -5.005  -4.839  1.00  0.00     0.082 A 
ATOM     66  C   UNL     1      10.070  -5.148  -3.717  1.00  0.00     0.033 A 
ATOM     67  C   UNL     1       9.754  -4.597  -6.074  1.00  0.00     0.132 A 
ATOM     68  C   UNL     1      11.425  -4.854  -3.814  1.00  0.00     0.019 A 
ATOM     69  C   UNL     1      11.130  -4.309  -6.138  1.00  0.00     0.048 A 
ATOM     70  Br  UNL     1      12.538  -5.034  -2.299  1.00  0.00    -0.051 Br
ATOM     71  C   UNL     1      11.962  -4.431  -5.022  1.00  0.00     0.019 A 
BRANCH  67  72
ATOM     72  O   UNL     1       9.168  -4.437  -7.297  1.00  0.00    -0.488 OA
BRANCH  72  73
ATOM     73  C   UNL     1       7.774  -4.635  -7.525  1.00  0.00     0.268 C 
BRANCH  73  74
ATOM     74  C   UNL     1       7.372  -6.077  -7.689  1.00  0.00     0.025 A 
ATOM     75  C   UNL     1       8.276  -7.076  -8.076  1.00  0.00     0.010 A 
ATOM     76  C   UNL     1       6.044  -6.441  -7.445  1.00  0.00     0.129 A 
ATOM     77  C   UNL     1       7.866  -8.411  -8.149  1.00  0.00     0.001 A 
ATOM     78  C   UNL     1       5.629  -7.767  -7.516  1.00  0.00     0.039 A 
ATOM     79  F   UNL     1       5.149  -5.501  -7.104  1.00  0.00    -0.207 F 
ATOM     80  C   UNL     1       6.547  -8.758  -7.858  1.00  0.00     0.003 A 
ENDBRANCH  73  74
ENDBRANCH  72  73
ENDBRANCH  67  72
ENDBRANCH  62  65
ENDBRANCH  60  61
ENDBRANCH  59  60
ENDBRANCH   1  59
TORSDOF 16
