REMARK SMILES COc1ccc(-c2cc(Cl)cc3c2O[C@@H](C(F)(F)F)C(C(=O)NCCCCCCNC(=O)c2ccc(-c4c5nc(c(-c6ccccc6)c6ccc([nH]6)c(-c6ccccc6)c6nc(c(-c7ccccc7)c7ccc4[nH]7)C=C6)C=C5)cc2)=C3)cc1C
REMARK SMILES IDX 26 1 25 2 24 3 23 4 21 5 22 6 20 8 7 9 8 10 13 11 9 12 12 13
REMARK SMILES IDX 14 14 10 15 11 16 81 17 15 18 6 19 3 20 4 21 83 22 5 23
REMARK SMILES IDX 82 24 84 25 2 26 1 27 16 28 17 29 18 30 19 31 27 32 28 33
REMARK SMILES IDX 29 34 30 35 31 36 32 38 33 39 34 40 80 41 35 42 79 43 36 44
REMARK SMILES IDX 37 45 38 46 73 47 39 48 78 49 72 50 74 51 40 52 77 53 71 54
REMARK SMILES IDX 70 55 41 57 63 58 48 59 62 60 49 61 52 62 61 63 75 64 50 65
REMARK SMILES IDX 51 66 60 68 76 69 53 70 42 71 43 72 47 73 44 74 46 75 45 76
REMARK SMILES IDX 64 77 65 78 69 79 66 80 68 81 67 82 54 83 55 84 59 85 56 86
REMARK SMILES IDX 58 87 57 88
REMARK H PARENT 23 7 30 37 74 56 52 67
REMARK Flexibility Score: inf
ROOT
ATOM      1  C   UNL     1      -3.594   6.863  -2.504  1.00  0.00     0.002 C 
ENDROOT
BRANCH   1   2
ATOM      2  C   UNL     1      -3.036   7.060  -3.911  1.00  0.00     0.021 C 
BRANCH   2   3
ATOM      3  C   UNL     1      -1.616   7.569  -4.152  1.00  0.00     0.116 C 
BRANCH   3   4
ATOM      4  N   UNL     1      -0.485   6.851  -3.611  1.00  0.00    -0.352 N 
ATOM      5  C   UNL     1       0.853   6.908  -3.917  1.00  0.00     0.251 C 
ATOM      6  O   UNL     1       1.626   6.495  -3.046  1.00  0.00    -0.270 OA
ATOM      7  H   UNL     1      -0.713   6.209  -2.901  1.00  0.00     0.163 HD
BRANCH   5   8
ATOM      8  C   UNL     1       1.435   7.378  -5.266  1.00  0.00     0.067 C 
ATOM      9  C   UNL     1       0.986   3.559  -6.326  1.00  0.00     0.026 A 
ATOM     10  C   UNL     1       1.941   2.908  -7.133  1.00  0.00     0.033 A 
ATOM     11  C   UNL     1       1.149   4.939  -6.235  1.00  0.00     0.135 A 
ATOM     12  C   UNL     1       3.159   3.536  -7.424  1.00  0.00     0.042 A 
ATOM     13  C   UNL     1       2.459   5.478  -6.205  1.00  0.00     0.019 A 
ATOM     14  O   UNL     1       0.043   5.813  -6.360  1.00  0.00    -0.475 OA
ATOM     15  Cl  UNL     1       4.350   2.689  -8.332  1.00  0.00    -0.084 Cl
ATOM     16  C   UNL     1       3.464   4.782  -6.868  1.00  0.00     0.032 A 
ATOM     17  C   UNL     1       2.646   6.811  -5.527  1.00  0.00     0.025 C 
ATOM     18  C   UNL     1       0.567   7.176  -6.493  1.00  0.00     0.314 C 
BRANCH   9  19
ATOM     19  C   UNL     1       0.661   2.795  -5.079  1.00  0.00    -0.014 A 
ATOM     20  C   UNL     1       0.390   1.052  -2.848  1.00  0.00     0.121 A 
ATOM     21  C   UNL     1      -0.673   1.285  -3.741  1.00  0.00     0.047 A 
ATOM     22  C   UNL     1       1.609   1.700  -3.049  1.00  0.00    -0.008 A 
ATOM     23  C   UNL     1      -0.545   2.145  -4.847  1.00  0.00     0.013 A 
ATOM     24  C   UNL     1       1.703   2.592  -4.135  1.00  0.00     0.016 A 
ATOM     25  C   UNL     1       2.851   1.456  -2.239  1.00  0.00     0.048 C 
BRANCH  20  26
ATOM     26  O   UNL     1       0.136   0.083  -1.913  1.00  0.00    -0.496 OA
ATOM     27  C   UNL     1       0.593   0.337  -0.590  1.00  0.00     0.278 C 
ENDBRANCH  20  26
ENDBRANCH   9  19
BRANCH  18  28
ATOM     28  C   UNL     1      -0.281   8.392  -6.914  1.00  0.00     0.429 C 
ATOM     29  F   UNL     1       0.368   9.099  -7.880  1.00  0.00    -0.167 F 
ATOM     30  F   UNL     1      -1.479   8.043  -7.428  1.00  0.00    -0.167 F 
ATOM     31  F   UNL     1      -0.494   9.274  -5.910  1.00  0.00    -0.167 F 
ENDBRANCH  18  28
ENDBRANCH   5   8
ENDBRANCH   3   4
ENDBRANCH   2   3
ENDBRANCH   1   2
BRANCH   1  32
ATOM     32  C   UNL     1      -3.165   7.816  -1.387  1.00  0.00     0.002 C 
BRANCH  32  33
ATOM     33  C   UNL     1      -3.293   9.314  -1.649  1.00  0.00     0.021 C 
BRANCH  33  34
ATOM     34  C   UNL     1      -4.714   9.857  -1.732  1.00  0.00     0.116 C 
BRANCH  34  35
ATOM     35  N   UNL     1      -5.217  10.405  -0.476  1.00  0.00    -0.352 N 
ATOM     36  C   UNL     1      -6.442  10.999  -0.215  1.00  0.00     0.251 C 
ATOM     37  H   UNL     1      -4.603  10.344   0.291  1.00  0.00     0.163 HD
ATOM     38  O   UNL     1      -6.736  11.365   0.910  1.00  0.00    -0.269 OA
BRANCH  36  39
ATOM     39  C   UNL     1      -7.445  11.069  -1.305  1.00  0.00     0.039 A 
ATOM     40  C   UNL     1      -8.714  10.532  -1.064  1.00  0.00     0.014 A 
ATOM     41  C   UNL     1      -7.074  11.453  -2.591  1.00  0.00     0.014 A 
ATOM     42  C   UNL     1      -9.501  10.143  -2.144  1.00  0.00     0.010 A 
ATOM     43  C   UNL     1      -7.805  10.978  -3.663  1.00  0.00     0.010 A 
ATOM     44  C   UNL     1      -8.979  10.254  -3.434  1.00  0.00    -0.014 A 
BRANCH  44  45
ATOM     45  C   UNL     1      -9.502   9.487  -4.560  1.00  0.00     0.031 A 
ATOM     46  C   UNL     1     -10.331  10.123  -5.600  1.00  0.00     0.074 A 
ATOM     47  C   UNL     1      -9.201   8.172  -4.664  1.00  0.00     0.049 A 
ATOM     48  N   UNL     1     -11.264   9.513  -6.255  1.00  0.00    -0.248 NA
ATOM     49  C   UNL     1     -10.189  11.530  -5.957  1.00  0.00     0.031 C 
ATOM     50  C   UNL     1      -9.450   7.298  -5.808  1.00  0.00     0.029 A 
ATOM     51  N   UNL     1      -8.814   7.295  -3.648  1.00  0.00    -0.354 N 
ATOM     52  C   UNL     1     -11.619  10.332  -7.301  1.00  0.00     0.074 A 
ATOM     53  C   UNL     1     -10.992  11.606  -7.023  1.00  0.00     0.031 C 
ATOM     54  C   UNL     1      -9.524   6.032  -5.367  1.00  0.00     0.029 A 
ATOM     55  C   UNL     1      -9.453   6.076  -3.916  1.00  0.00     0.049 A 
ATOM     56  H   UNL     1      -8.211   7.493  -2.895  1.00  0.00     0.167 HD
ATOM     57  C   UNL     1     -12.266   9.826  -8.388  1.00  0.00     0.031 A 
ATOM     58  C   UNL     1     -10.332   5.479  -3.060  1.00  0.00     0.031 A 
ATOM     59  C   UNL     1     -12.538   8.400  -8.265  1.00  0.00     0.049 A 
ATOM     60  C   UNL     1     -11.687   5.227  -3.683  1.00  0.00     0.074 A 
ATOM     61  C   UNL     1     -11.896   7.277  -8.762  1.00  0.00     0.029 A 
ATOM     62  N   UNL     1     -13.428   7.950  -7.298  1.00  0.00    -0.354 N 
ATOM     63  N   UNL     1     -12.103   5.806  -4.774  1.00  0.00    -0.248 NA
ATOM     64  C   UNL     1     -12.706   4.365  -3.086  1.00  0.00     0.031 C 
ATOM     65  C   UNL     1     -12.351   6.151  -8.032  1.00  0.00     0.029 A 
ATOM     66  C   UNL     1     -13.287   6.588  -7.112  1.00  0.00     0.049 A 
ATOM     67  H   UNL     1     -14.067   8.520  -6.814  1.00  0.00     0.167 HD
ATOM     68  C   UNL     1     -13.392   5.421  -5.032  1.00  0.00     0.074 A 
ATOM     69  C   UNL     1     -13.726   4.514  -3.950  1.00  0.00     0.031 C 
ATOM     70  C   UNL     1     -14.080   5.891  -6.112  1.00  0.00     0.031 A 
BRANCH  57  71
ATOM     71  C   UNL     1     -12.326  10.591  -9.684  1.00  0.00    -0.014 A 
ATOM     72  C   UNL     1     -12.132   9.920 -10.905  1.00  0.00     0.009 A 
ATOM     73  C   UNL     1     -12.508  11.982  -9.755  1.00  0.00     0.009 A 
ATOM     74  C   UNL     1     -12.009  10.612 -12.116  1.00  0.00     0.001 A 
ATOM     75  C   UNL     1     -12.344  12.684 -10.957  1.00  0.00     0.001 A 
ATOM     76  C   UNL     1     -12.081  11.998 -12.137  1.00  0.00     0.000 A 
ENDBRANCH  57  71
BRANCH  58  77
ATOM     77  C   UNL     1     -10.128   5.811  -1.625  1.00  0.00    -0.014 A 
ATOM     78  C   UNL     1      -8.964   5.344  -0.986  1.00  0.00     0.009 A 
ATOM     79  C   UNL     1     -10.862   6.839  -1.016  1.00  0.00     0.009 A 
ATOM     80  C   UNL     1      -8.492   5.956   0.178  1.00  0.00     0.001 A 
ATOM     81  C   UNL     1     -10.389   7.445   0.154  1.00  0.00     0.001 A 
ATOM     82  C   UNL     1      -9.191   7.025   0.732  1.00  0.00     0.000 A 
ENDBRANCH  58  77
BRANCH  70  83
ATOM     83  C   UNL     1     -15.545   5.674  -6.380  1.00  0.00    -0.014 A 
ATOM     84  C   UNL     1     -16.504   5.479  -5.379  1.00  0.00     0.009 A 
ATOM     85  C   UNL     1     -16.020   5.804  -7.704  1.00  0.00     0.009 A 
ATOM     86  C   UNL     1     -17.866   5.366  -5.691  1.00  0.00     0.001 A 
ATOM     87  C   UNL     1     -17.380   5.733  -8.014  1.00  0.00     0.001 A 
ATOM     88  C   UNL     1     -18.304   5.501  -7.005  1.00  0.00     0.000 A 
ENDBRANCH  70  83
ENDBRANCH  44  45
ENDBRANCH  36  39
ENDBRANCH  34  35
ENDBRANCH  33  34
ENDBRANCH  32  33
ENDBRANCH   1  32
TORSDOF 16
