REMARK SMILES O=C(NCCCCCCNC(=O)[C@@H]1[C@@H](C(=O)NCCn2cc(Cl)cn2)[C@H]2CC[C@@H]1O2)c1ccc(-c2c3nc(c(-c4ccccc4)c4ccc([nH]4)c(-c4ccccc4)c4nc(c(-c5ccccc5)c5ccc2[nH]5)C=C4)C=C3)cc1
REMARK SMILES IDX 7 1 6 2 5 3 4 4 3 5 1 6 2 7 31 9 32 10 78 11 33 12 77 13
REMARK SMILES IDX 34 14 35 15 36 16 71 17 37 18 76 19 70 20 72 21 38 22 75 23
REMARK SMILES IDX 69 24 68 25 39 27 61 28 46 29 60 30 47 31 50 32 59 33 73 34
REMARK SMILES IDX 48 35 49 36 58 38 74 39 51 40 40 41 41 42 45 43 42 44 44 45
REMARK SMILES IDX 43 46 62 47 63 48 67 49 64 50 66 51 65 52 52 53 53 54 57 55
REMARK SMILES IDX 54 56 56 57 55 58 8 59 9 60 10 61 11 62 12 64 13 65 14 66
REMARK SMILES IDX 29 67 26 68 28 69 30 70 27 71 15 72 16 73 17 74 18 76 19 77
REMARK SMILES IDX 20 78 21 79 25 80 22 81 24 82 23 83
REMARK H PARENT 3 8 72 26 50 37 10 63 17 75
REMARK Flexibility Score: inf
ROOT
ATOM      1  C   UNL     1       4.896   3.718  -2.126  1.00  0.00     0.002 C 
ENDROOT
BRANCH   1   2
ATOM      2  C   UNL     1       4.284   2.439  -2.708  1.00  0.00     0.002 C 
BRANCH   2   3
ATOM      3  C   UNL     1       4.780   1.131  -2.079  1.00  0.00     0.021 C 
BRANCH   3   4
ATOM      4  C   UNL     1       4.605   1.060  -0.561  1.00  0.00     0.116 C 
BRANCH   4   5
ATOM      5  N   UNL     1       3.225   1.157  -0.135  1.00  0.00    -0.352 N 
ATOM      6  O   UNL     1       1.167   0.708   0.522  1.00  0.00    -0.269 OA
ATOM      7  C   UNL     1       2.200   0.268   0.012  1.00  0.00     0.251 C 
ATOM      8  H   UNL     1       2.966   2.077   0.103  1.00  0.00     0.163 HD
BRANCH   7   9
ATOM      9  C   UNL     1       2.218  -1.148  -0.451  1.00  0.00     0.039 A 
ATOM     10  C   UNL     1       3.325  -1.841  -0.943  1.00  0.00     0.014 A 
ATOM     11  C   UNL     1       0.975  -1.810  -0.416  1.00  0.00     0.014 A 
ATOM     12  C   UNL     1       3.180  -3.121  -1.471  1.00  0.00     0.010 A 
ATOM     13  C   UNL     1       0.825  -3.091  -0.930  1.00  0.00     0.010 A 
ATOM     14  C   UNL     1       1.924  -3.728  -1.495  1.00  0.00    -0.014 A 
BRANCH  14  15
ATOM     15  C   UNL     1       1.826  -5.094  -1.998  1.00  0.00     0.031 A 
ATOM     16  C   UNL     1       2.535  -6.117  -1.176  1.00  0.00     0.074 A 
ATOM     17  C   UNL     1       1.034  -5.442  -3.033  1.00  0.00     0.049 A 
ATOM     18  N   UNL     1       3.468  -6.935  -1.542  1.00  0.00    -0.248 NA
ATOM     19  C   UNL     1       2.221  -6.173   0.262  1.00  0.00     0.031 C 
ATOM     20  C   UNL     1       0.060  -4.609  -3.743  1.00  0.00     0.029 A 
ATOM     21  N   UNL     1       0.851  -6.671  -3.592  1.00  0.00    -0.354 N 
ATOM     22  C   UNL     1       3.754  -7.721  -0.426  1.00  0.00     0.074 A 
ATOM     23  C   UNL     1       3.047  -7.130   0.682  1.00  0.00     0.031 C 
ATOM     24  C   UNL     1      -0.769  -5.404  -4.457  1.00  0.00     0.029 A 
ATOM     25  C   UNL     1      -0.299  -6.776  -4.364  1.00  0.00     0.049 A 
ATOM     26  H   UNL     1       1.478  -7.418  -3.460  1.00  0.00     0.167 HD
ATOM     27  C   UNL     1       4.385  -8.924  -0.529  1.00  0.00     0.031 A 
ATOM     28  C   UNL     1      -0.862  -7.918  -4.834  1.00  0.00     0.031 A 
ATOM     29  C   UNL     1       5.077  -9.064  -1.781  1.00  0.00     0.049 A 
ATOM     30  C   UNL     1       0.167  -8.980  -4.790  1.00  0.00     0.074 A 
ATOM     31  C   UNL     1       6.114  -8.399  -2.404  1.00  0.00     0.029 A 
ATOM     32  N   UNL     1       4.470  -9.813  -2.758  1.00  0.00    -0.354 N 
ATOM     33  N   UNL     1       1.223  -8.991  -5.551  1.00  0.00    -0.248 NA
ATOM     34  C   UNL     1       0.247  -9.805  -3.595  1.00  0.00     0.031 C 
ATOM     35  C   UNL     1       5.761  -8.392  -3.786  1.00  0.00     0.029 A 
ATOM     36  C   UNL     1       4.567  -9.103  -3.924  1.00  0.00     0.049 A 
ATOM     37  H   UNL     1       4.045 -10.693  -2.643  1.00  0.00     0.167 HD
ATOM     38  C   UNL     1       2.241  -9.452  -4.731  1.00  0.00     0.074 A 
ATOM     39  C   UNL     1       1.564 -10.030  -3.571  1.00  0.00     0.031 C 
ATOM     40  C   UNL     1       3.537  -9.073  -4.935  1.00  0.00     0.031 A 
BRANCH  27  41
ATOM     41  C   UNL     1       4.032 -10.123   0.320  1.00  0.00    -0.014 A 
ATOM     42  C   UNL     1       4.727 -11.329   0.106  1.00  0.00     0.009 A 
ATOM     43  C   UNL     1       2.857 -10.202   1.089  1.00  0.00     0.009 A 
ATOM     44  C   UNL     1       4.216 -12.555   0.550  1.00  0.00     0.001 A 
ATOM     45  C   UNL     1       2.366 -11.419   1.570  1.00  0.00     0.001 A 
ATOM     46  C   UNL     1       3.028 -12.600   1.271  1.00  0.00     0.000 A 
ENDBRANCH  27  41
BRANCH  28  47
ATOM     47  C   UNL     1      -2.296  -8.226  -5.026  1.00  0.00    -0.014 A 
ATOM     48  C   UNL     1      -2.705  -9.304  -5.829  1.00  0.00     0.009 A 
ATOM     49  C   UNL     1      -3.260  -7.628  -4.195  1.00  0.00     0.009 A 
ATOM     50  C   UNL     1      -4.022  -9.782  -5.776  1.00  0.00     0.001 A 
ATOM     51  C   UNL     1      -4.575  -8.104  -4.143  1.00  0.00     0.001 A 
ATOM     52  C   UNL     1      -4.952  -9.191  -4.924  1.00  0.00     0.000 A 
ENDBRANCH  28  47
BRANCH  40  53
ATOM     53  C   UNL     1       3.865  -8.316  -6.197  1.00  0.00    -0.014 A 
ATOM     54  C   UNL     1       3.320  -7.054  -6.495  1.00  0.00     0.009 A 
ATOM     55  C   UNL     1       4.885  -8.812  -7.021  1.00  0.00     0.009 A 
ATOM     56  C   UNL     1       3.770  -6.323  -7.599  1.00  0.00     0.001 A 
ATOM     57  C   UNL     1       5.348  -8.073  -8.111  1.00  0.00     0.001 A 
ATOM     58  C   UNL     1       4.789  -6.831  -8.402  1.00  0.00     0.000 A 
ENDBRANCH  40  53
ENDBRANCH  14  15
ENDBRANCH   7   9
ENDBRANCH   4   5
ENDBRANCH   3   4
ENDBRANCH   2   3
ENDBRANCH   1   2
BRANCH   1  59
ATOM     59  C   UNL     1       6.428   3.776  -2.156  1.00  0.00     0.021 C 
BRANCH  59  60
ATOM     60  C   UNL     1       7.022   3.704  -3.561  1.00  0.00     0.116 C 
BRANCH  60  61
ATOM     61  N   UNL     1       6.706   4.901  -4.321  1.00  0.00    -0.356 N 
ATOM     62  C   UNL     1       7.540   5.894  -4.756  1.00  0.00     0.226 C 
ATOM     63  H   UNL     1       5.757   5.014  -4.556  1.00  0.00     0.163 HD
ATOM     64  O   UNL     1       7.040   6.908  -5.236  1.00  0.00    -0.275 OA
BRANCH  62  65
ATOM     65  C   UNL     1       9.036   5.678  -4.626  1.00  0.00     0.122 C 
ATOM     66  C   UNL     1       9.879   6.928  -4.966  1.00  0.00     0.122 C 
ATOM     67  C   UNL     1       9.499   4.681  -5.694  1.00  0.00     0.132 C 
ATOM     68  C   UNL     1      10.704   6.420  -6.157  1.00  0.00     0.132 C 
ATOM     69  C   UNL     1      10.912   4.185  -5.386  1.00  0.00     0.035 C 
ATOM     70  O   UNL     1       9.755   5.551  -6.821  1.00  0.00    -0.373 OA
ATOM     71  C   UNL     1      11.766   5.397  -5.758  1.00  0.00     0.035 C 
BRANCH  66  72
ATOM     72  C   UNL     1      10.717   7.382  -3.782  1.00  0.00     0.226 C 
ATOM     73  O   UNL     1      10.645   6.847  -2.683  1.00  0.00    -0.275 OA
ATOM     74  N   UNL     1      11.569   8.431  -3.933  1.00  0.00    -0.354 N 
ATOM     75  H   UNL     1      12.088   8.651  -3.126  1.00  0.00     0.163 HD
BRANCH  74  76
ATOM     76  C   UNL     1      11.846   9.284  -5.076  1.00  0.00     0.139 C 
BRANCH  76  77
ATOM     77  C   UNL     1      11.809  10.769  -4.717  1.00  0.00     0.165 C 
BRANCH  77  78
ATOM     78  N   UNL     1      12.852  11.210  -3.807  1.00  0.00    -0.269 N 
ATOM     79  C   UNL     1      13.364  12.475  -3.733  1.00  0.00     0.129 A 
ATOM     80  N   UNL     1      13.354  10.377  -2.869  1.00  0.00    -0.180 NA
ATOM     81  C   UNL     1      14.253  12.461  -2.687  1.00  0.00     0.079 A 
ATOM     82  C   UNL     1      14.213  11.147  -2.192  1.00  0.00     0.155 A 
ATOM     83  Cl  UNL     1      15.191  13.736  -2.096  1.00  0.00    -0.081 Cl
ENDBRANCH  77  78
ENDBRANCH  76  77
ENDBRANCH  74  76
ENDBRANCH  66  72
ENDBRANCH  62  65
ENDBRANCH  60  61
ENDBRANCH  59  60
ENDBRANCH   1  59
TORSDOF 17
