REMARK SMILES C[C@H](C(=O)NCCCCCCNC(=O)c1ccc(-c2c3nc(c(-c4ccccc4)c4ccc([nH]4)c(-c4ccccc4)c4nc(c(-c5ccccc5)c5ccc2[nH]5)C=C4)C=C3)cc1)[C@H](C)[S@@](=O)c1cccs1
REMARK SMILES IDX 8 1 7 2 6 3 5 4 3 5 4 6 2 8 1 9 63 10 64 11 65 12 66 13
REMARK SMILES IDX 67 14 68 15 71 16 69 17 70 18 9 19 10 20 11 21 12 22 13 23
REMARK SMILES IDX 14 25 15 26 16 27 62 28 17 29 61 30 18 31 19 32 20 33 55 34
REMARK SMILES IDX 21 35 60 36 54 37 56 38 22 39 59 40 53 41 52 42 23 44 45 45
REMARK SMILES IDX 30 46 44 47 31 48 34 49 43 50 57 51 32 52 33 53 42 55 58 56
REMARK SMILES IDX 35 57 24 58 25 59 29 60 26 61 28 62 27 63 46 64 47 65 51 66
REMARK SMILES IDX 48 67 50 68 49 69 36 70 37 71 41 72 38 73 40 74 39 75
REMARK H PARENT 5 7 12 24 56 43 34 54
REMARK Flexibility Score: inf
ROOT
ATOM      1  C   UNL     1      -5.375   4.637   2.282  1.00  0.00     0.002 C 
ENDROOT
BRANCH   1   2
ATOM      2  C   UNL     1      -5.216   3.241   1.667  1.00  0.00     0.021 C 
BRANCH   2   3
ATOM      3  C   UNL     1      -3.888   3.049   0.950  1.00  0.00     0.116 C 
BRANCH   3   4
ATOM      4  N   UNL     1      -2.799   2.933   1.897  1.00  0.00    -0.356 N 
ATOM      5  C   UNL     1      -1.753   2.078   1.960  1.00  0.00     0.224 C 
ATOM      6  O   UNL     1      -0.975   2.210   2.910  1.00  0.00    -0.275 OA
ATOM      7  H   UNL     1      -2.824   3.595   2.624  1.00  0.00     0.163 HD
BRANCH   5   8
ATOM      8  C   UNL     1      -1.510   0.982   0.939  1.00  0.00     0.091 C 
ATOM      9  C   UNL     1      -2.697   0.018   0.790  1.00  0.00     0.019 C 
BRANCH   8  10
ATOM     10  C   UNL     1      -0.822   1.323  -0.401  1.00  0.00     0.094 C 
ATOM     11  C   UNL     1       0.656   0.915  -0.424  1.00  0.00     0.023 C 
BRANCH  10  12
ATOM     12  S   UNL     1      -1.025   2.923  -1.218  1.00  0.00     0.067 S 
ATOM     13  O   UNL     1      -2.422   3.111  -1.725  1.00  0.00    -0.253 OA
BRANCH  12  14
ATOM     14  C   UNL     1      -0.646   4.197  -0.102  1.00  0.00     0.091 A 
ATOM     15  C   UNL     1      -1.380   5.365  -0.040  1.00  0.00     0.029 A 
ATOM     16  S   UNL     1       0.695   4.254   0.942  1.00  0.00    -0.135 S 
ATOM     17  C   UNL     1      -0.949   6.221   1.016  1.00  0.00     0.013 A 
ATOM     18  C   UNL     1       0.142   5.701   1.675  1.00  0.00     0.066 A 
ENDBRANCH  12  14
ENDBRANCH  10  12
ENDBRANCH   8  10
ENDBRANCH   5   8
ENDBRANCH   3   4
ENDBRANCH   2   3
ENDBRANCH   1   2
BRANCH   1  19
ATOM     19  C   UNL     1      -5.267   5.801   1.288  1.00  0.00     0.002 C 
BRANCH  19  20
ATOM     20  C   UNL     1      -6.182   5.696   0.067  1.00  0.00     0.021 C 
BRANCH  20  21
ATOM     21  C   UNL     1      -7.658   5.532   0.406  1.00  0.00     0.116 C 
BRANCH  21  22
ATOM     22  N   UNL     1      -8.162   6.651   1.187  1.00  0.00    -0.352 N 
ATOM     23  C   UNL     1      -9.278   7.415   0.979  1.00  0.00     0.251 C 
ATOM     24  H   UNL     1      -7.625   6.892   1.976  1.00  0.00     0.163 HD
ATOM     25  O   UNL     1      -9.448   8.453   1.617  1.00  0.00    -0.269 OA
BRANCH  23  26
ATOM     26  C   UNL     1     -10.271   6.996  -0.028  1.00  0.00     0.039 A 
ATOM     27  C   UNL     1     -10.794   7.953  -0.899  1.00  0.00     0.014 A 
ATOM     28  C   UNL     1     -10.687   5.663  -0.108  1.00  0.00     0.014 A 
ATOM     29  C   UNL     1     -11.701   7.564  -1.883  1.00  0.00     0.010 A 
ATOM     30  C   UNL     1     -11.530   5.264  -1.139  1.00  0.00     0.010 A 
ATOM     31  C   UNL     1     -12.054   6.212  -2.030  1.00  0.00    -0.014 A 
BRANCH  31  32
ATOM     32  C   UNL     1     -12.979   5.778  -3.105  1.00  0.00     0.031 A 
ATOM     33  C   UNL     1     -14.314   5.178  -2.757  1.00  0.00     0.074 A 
ATOM     34  C   UNL     1     -12.600   5.891  -4.392  1.00  0.00     0.049 A 
ATOM     35  N   UNL     1     -15.244   4.717  -3.556  1.00  0.00    -0.248 NA
ATOM     36  C   UNL     1     -14.639   5.059  -1.326  1.00  0.00     0.031 C 
ATOM     37  C   UNL     1     -11.316   6.420  -4.856  1.00  0.00     0.029 A 
ATOM     38  N   UNL     1     -13.262   5.564  -5.549  1.00  0.00    -0.354 N 
ATOM     39  C   UNL     1     -16.257   4.255  -2.726  1.00  0.00     0.074 A 
ATOM     40  C   UNL     1     -15.803   4.430  -1.364  1.00  0.00     0.031 C 
ATOM     41  C   UNL     1     -11.296   6.412  -6.198  1.00  0.00     0.029 A 
ATOM     42  C   UNL     1     -12.545   5.839  -6.689  1.00  0.00     0.049 A 
ATOM     43  H   UNL     1     -14.164   5.171  -5.562  1.00  0.00     0.167 HD
ATOM     44  C   UNL     1     -17.470   3.756  -3.065  1.00  0.00     0.031 A 
ATOM     45  C   UNL     1     -12.857   5.644  -7.984  1.00  0.00     0.031 A 
ATOM     46  C   UNL     1     -17.919   3.578  -4.420  1.00  0.00     0.049 A 
ATOM     47  C   UNL     1     -14.195   5.053  -8.331  1.00  0.00     0.074 A 
ATOM     48  C   UNL     1     -19.140   3.106  -4.869  1.00  0.00     0.029 A 
ATOM     49  N   UNL     1     -17.162   3.865  -5.545  1.00  0.00    -0.354 N 
ATOM     50  N   UNL     1     -15.168   4.680  -7.535  1.00  0.00    -0.248 NA
ATOM     51  C   UNL     1     -14.484   4.870  -9.761  1.00  0.00     0.031 C 
ATOM     52  C   UNL     1     -19.103   3.059  -6.266  1.00  0.00     0.029 A 
ATOM     53  C   UNL     1     -17.883   3.561  -6.688  1.00  0.00     0.049 A 
ATOM     54  H   UNL     1     -16.248   4.229  -5.533  1.00  0.00     0.167 HD
ATOM     55  C   UNL     1     -16.194   4.249  -8.366  1.00  0.00     0.074 A 
ATOM     56  C   UNL     1     -15.732   4.428  -9.727  1.00  0.00     0.031 C 
ATOM     57  C   UNL     1     -17.409   3.749  -8.034  1.00  0.00     0.031 A 
BRANCH  44  58
ATOM     58  C   UNL     1     -18.396   3.369  -1.945  1.00  0.00    -0.014 A 
ATOM     59  C   UNL     1     -18.976   4.344  -1.115  1.00  0.00     0.009 A 
ATOM     60  C   UNL     1     -18.724   2.021  -1.736  1.00  0.00     0.009 A 
ATOM     61  C   UNL     1     -19.834   3.973  -0.079  1.00  0.00     0.001 A 
ATOM     62  C   UNL     1     -19.608   1.655  -0.719  1.00  0.00     0.001 A 
ATOM     63  C   UNL     1     -20.155   2.630   0.115  1.00  0.00     0.000 A 
ENDBRANCH  44  58
BRANCH  45  64
ATOM     64  C   UNL     1     -11.892   6.013  -9.053  1.00  0.00    -0.014 A 
ATOM     65  C   UNL     1     -12.171   7.067  -9.937  1.00  0.00     0.009 A 
ATOM     66  C   UNL     1     -10.697   5.294  -9.214  1.00  0.00     0.009 A 
ATOM     67  C   UNL     1     -11.294   7.365 -10.983  1.00  0.00     0.001 A 
ATOM     68  C   UNL     1      -9.806   5.617 -10.240  1.00  0.00     0.001 A 
ATOM     69  C   UNL     1     -10.112   6.642 -11.132  1.00  0.00     0.000 A 
ENDBRANCH  45  64
BRANCH  57  70
ATOM     70  C   UNL     1     -18.339   3.401  -9.164  1.00  0.00    -0.014 A 
ATOM     71  C   UNL     1     -18.097   2.301 -10.001  1.00  0.00     0.009 A 
ATOM     72  C   UNL     1     -19.492   4.174  -9.373  1.00  0.00     0.009 A 
ATOM     73  C   UNL     1     -18.970   2.007 -11.050  1.00  0.00     0.001 A 
ATOM     74  C   UNL     1     -20.381   3.857 -10.401  1.00  0.00     0.001 A 
ATOM     75  C   UNL     1     -20.113   2.782 -11.246  1.00  0.00     0.000 A 
ENDBRANCH  57  70
ENDBRANCH  31  32
ENDBRANCH  23  26
ENDBRANCH  21  22
ENDBRANCH  20  21
ENDBRANCH  19  20
ENDBRANCH   1  19
TORSDOF 16
